#------------------------------------------------------------------------------
#$Date: 2015-07-05 14:13:24 +0300 (Sun, 05 Jul 2015) $
#$Revision: 140267 $
#$URL: svn://www.crystallography.net/cod/cif/1/52/05/1520516.cif $
#------------------------------------------------------------------------------
#
# This file is available in the Crystallography Open Database (COD),
# http://www.crystallography.net/
#
# All data on this site have been placed in the public domain by the
# contributors.
#
data_1520516
loop_
_publ_author_name
'Chang, Meng-Yang'
'Cheng, Yu-Chieh'
'Lu, Yi-Ju'
_publ_section_title
;
 Synthesis of Substituted Benzenes via Bi(OTf)3-Mediated Intramolecular
 Carbonyl Allylation of \a-Prenyl or \a-Geranyl \b-Arylketosulfones.
;
_journal_issue                   12
_journal_name_full               'Organic letters'
_journal_page_first              3142
_journal_page_last               3145
_journal_paper_doi               10.1021/acs.orglett.5b01461
_journal_volume                  17
_journal_year                    2015
_chemical_formula_sum            'C25 H29 N O5 S'
_chemical_formula_weight         455.55
_space_group_crystal_system      monoclinic
_space_group_IT_number           15
_space_group_name_Hall           '-C 2yc'
_space_group_name_H-M_alt        'C 1 2/c 1'
_symmetry_space_group_name_Hall  '-C 2yc'
_symmetry_space_group_name_H-M   'C 1 2/c 1'
_atom_sites_solution_hydrogens   geom
_audit_creation_method           SHELXL-2014/6
_cell_angle_alpha                90
_cell_angle_beta                 113.297(3)
_cell_angle_gamma                90
_cell_formula_units_Z            8
_cell_length_a                   30.166(4)
_cell_length_b                   11.6914(15)
_cell_length_c                   14.2065(18)
_cell_measurement_reflns_used    5362
_cell_measurement_temperature    100(2)
_cell_measurement_theta_max      26.2084
_cell_measurement_theta_min      2.6306
_cell_volume                     4601.9(10)
_computing_cell_refinement       'SAINT V8.34A (Bruker AXS Inc., 2013)'
_computing_data_collection       'APEX2 (Bruker AXS, 2010)'
_computing_data_reduction        'SAINT V8.34A (Bruker AXS Inc., 2013)'
_computing_molecular_graphics    'SHELXTL (Sheldrick, 2008)'
_computing_publication_material  SHELXTL
_computing_structure_refinement  'SHELXL-2014/6 (Sheldrick, 2014)'
_diffrn_ambient_temperature      100(2)
_diffrn_detector_area_resol_mean 8.3333
_diffrn_measured_fraction_theta_full 1.000
_diffrn_measured_fraction_theta_max 0.997
_diffrn_measurement_device_type  'Bruker APEX-II CCD'
_diffrn_measurement_method       '\f and \w scans'
_diffrn_radiation_type           MoK\a
_diffrn_radiation_wavelength     0.71073
_diffrn_reflns_av_R_equivalents  0.0433
_diffrn_reflns_av_unetI/netI     0.0349
_diffrn_reflns_laue_measured_fraction_full 1.000
_diffrn_reflns_laue_measured_fraction_max 0.997
_diffrn_reflns_limit_h_max       37
_diffrn_reflns_limit_h_min       -37
_diffrn_reflns_limit_k_max       14
_diffrn_reflns_limit_k_min       -14
_diffrn_reflns_limit_l_max       17
_diffrn_reflns_limit_l_min       -17
_diffrn_reflns_number            24443
_diffrn_reflns_point_group_measured_fraction_full 1.000
_diffrn_reflns_point_group_measured_fraction_max 0.997
_diffrn_reflns_theta_full        25.242
_diffrn_reflns_theta_max         26.596
_diffrn_reflns_theta_min         1.470
_exptl_absorpt_coefficient_mu    0.177
_exptl_absorpt_correction_T_max  0.9485
_exptl_absorpt_correction_T_min  0.8686
_exptl_absorpt_correction_type   multi-scan
_exptl_absorpt_process_details   'SADABS V2014/4 (Bruker AXS Inc.)'
_exptl_crystal_colour            Colorless
_exptl_crystal_density_diffrn    1.315
_exptl_crystal_density_meas      ?
_exptl_crystal_density_method    'not measured'
_exptl_crystal_description       Tabullar
_exptl_crystal_F_000             1936
_exptl_crystal_size_max          0.25
_exptl_crystal_size_mid          0.22
_exptl_crystal_size_min          0.08
_refine_diff_density_max         0.392
_refine_diff_density_min         -0.529
_refine_diff_density_rms         0.091
_refine_ls_extinction_method     none
_refine_ls_goodness_of_fit_ref   1.022
_refine_ls_hydrogen_treatment    constr
_refine_ls_matrix_type           full
_refine_ls_number_parameters     293
_refine_ls_number_reflns         4797
_refine_ls_number_restraints     0
_refine_ls_restrained_S_all      1.022
_refine_ls_R_factor_all          0.0591
_refine_ls_R_factor_gt           0.0390
_refine_ls_shift/su_max          0.009
_refine_ls_shift/su_mean         0.000
_refine_ls_structure_factor_coef Fsqd
_refine_ls_weighting_details
'w=1/[\s^2^(Fo^2^)+(0.0560P)^2^+3.8467P] where P=(Fo^2^+2Fc^2^)/3'
_refine_ls_weighting_scheme      calc
_refine_ls_wR_factor_gt          0.0971
_refine_ls_wR_factor_ref         0.1075
_reflns_Friedel_coverage         0.000
_reflns_number_gt                3693
_reflns_number_total             4797
_reflns_threshold_expression     'I > 2\s(I)'
_cod_data_source_file            ol5b01461_si_003.cif
_cod_data_source_block           mo_150202LT_0m_a
_cod_depositor_comments
;
The following automatic conversions were performed:

'_exptl_crystal_density_meas' value 'not measured' was changed to '?'
- the value is perceived as not measured.

Automatic conversion script
Id: cif_fix_values 3271 2015-04-21 07:52:19Z andrius 

 Adding full bibliography for 1520513--1520517.cif.
;
_cod_original_cell_volume        4601.8(10)
_cod_database_code               1520516
_shelx_space_group_comment
;
The symmetry employed for this shelxl refinement is uniquely defined
by the following loop, which should always be used as a source of
symmetry information in preference to the above space-group names.
They are only intended as comments.
;
_shelxl_version_number           2014/6
_shelx_res_file
;
TITL mo_150202LT_0m_a.res in C2/c
CELL  0.71073  30.1657  11.6914  14.2065   90.000  113.297   90.000
ZERR    8.000   0.0038   0.0015   0.0018    0.000    0.003    0.000
LATT 7
SYMM -X, Y, 1/2-Z
SFAC C  N  O  S  H
UNIT 200  8  40  8  232
L.S. 4
ACTA
BOND $H
FMAP 2
PLAN 5
TEMP -173.000
WGHT    0.056000    3.846700
FVAR       0.20777
C1    1    0.774870    0.400290    0.744596    11.00000    0.01963    0.01270 =
         0.01158    0.00193    0.00792    0.00121
AFIX  13
H1    5    0.770969    0.315680    0.734357    11.00000   -1.20000
AFIX   0
C2    1    0.829035    0.427376    0.789920    11.00000    0.01991    0.02094 =
         0.01497    0.00111    0.00846   -0.00120
AFIX  23
H2A   5    0.844176    0.389620    0.747692    11.00000   -1.20000
H2B   5    0.833411    0.510934    0.786203    11.00000   -1.20000
AFIX   0
C3    1    0.854747    0.388863    0.900198    11.00000    0.01865    0.01631 =
         0.01496    0.00012    0.00574    0.00137
C4    1    0.909828    0.397444    0.943668    11.00000    0.01938    0.02618 =
         0.01891    0.00389    0.00617    0.00118
C5    1    0.930097    0.388243    1.060829    11.00000    0.02099    0.02949 =
         0.02093    0.00313    0.00285   -0.00024
AFIX  23
H5A   5    0.965447    0.376612    1.087090    11.00000   -1.20000
H5B   5    0.924171    0.461082    1.089460    11.00000   -1.20000
AFIX   0
C6    1    0.907736    0.290880    1.097667    11.00000    0.02766    0.03121 =
         0.01764    0.00775    0.00404    0.00461
AFIX  23
H6A   5    0.923061    0.286065    1.173363    11.00000   -1.20000
H6B   5    0.913374    0.217607    1.069249    11.00000   -1.20000
AFIX   0
C7    1    0.853718    0.310843    1.063395    11.00000    0.02768    0.02386 =
         0.01479    0.00406    0.00761    0.00159
AFIX  23
H7A   5    0.838171    0.238278    1.069591    11.00000   -1.20000
H7B   5    0.848370    0.367340    1.109753    11.00000   -1.20000
AFIX   0
C8    1    0.830032    0.353402    0.954845    11.00000    0.02230    0.01187 =
         0.01382    0.00083    0.00658    0.00167
C9    1    0.775609    0.354359    0.912858    11.00000    0.02223    0.01376 =
         0.01112    0.00080    0.00844   -0.00013
AFIX  23
H9A   5    0.765231    0.377075    0.968152    11.00000   -1.20000
H9B   5    0.763555    0.275923    0.891031    11.00000   -1.20000
AFIX   0
C10   1    0.752707    0.435914    0.821761    11.00000    0.02178    0.01043 =
         0.01263   -0.00080    0.00902   -0.00142
C11   1    0.697696    0.425702    0.778288    11.00000    0.02104    0.01684 =
         0.00885    0.00062    0.00812    0.00011
C12   1    0.669123    0.520305    0.775559    11.00000    0.02589    0.01924 =
         0.01484   -0.00262    0.01015    0.00090
AFIX  43
H12   5    0.684088    0.591655    0.801244    11.00000   -1.20000
AFIX   0
C13   1    0.619307    0.512075    0.736057    11.00000    0.02400    0.02651 =
         0.01834   -0.00119    0.01080    0.00713
AFIX  43
H13   5    0.599996    0.576667    0.734928    11.00000   -1.20000
AFIX   0
C14   1    0.598344    0.407808    0.698341    11.00000    0.01805    0.03339 =
         0.01668    0.00160    0.00818    0.00039
C15   1    0.625262    0.311757    0.700036    11.00000    0.02399    0.02149 =
         0.01494   -0.00046    0.00861   -0.00546
AFIX  43
H15   5    0.609903    0.240993    0.673611    11.00000   -1.20000
AFIX   0
C16   1    0.675140    0.320615    0.741057    11.00000    0.02330    0.01742 =
         0.01364    0.00196    0.01002    0.00091
AFIX  43
H16   5    0.694210    0.254983    0.743985    11.00000   -1.20000
AFIX   0
C17   1    0.692567    0.413370    0.549354    11.00000    0.02035    0.01761 =
         0.00961    0.00227    0.00735    0.00114
C18   1    0.652609    0.484171    0.525666    11.00000    0.02428    0.01880 =
         0.01265    0.00298    0.00891    0.00457
AFIX  43
H18   5    0.656281    0.561197    0.548806    11.00000   -1.20000
AFIX   0
C19   1    0.607190    0.440150    0.467496    11.00000    0.02199    0.02767 =
         0.01770    0.00586    0.00948    0.00779
AFIX  43
H19   5    0.579629    0.487919    0.450443    11.00000   -1.20000
AFIX   0
C20   1    0.601366    0.326765    0.433646    11.00000    0.02146    0.02908 =
         0.01401    0.00149    0.00744   -0.00053
C21   1    0.642291    0.258135    0.457372    11.00000    0.02442    0.02039 =
         0.01749   -0.00194    0.00907   -0.00149
AFIX  43
H21   5    0.638842    0.181254    0.433900    11.00000   -1.20000
AFIX   0
C22   1    0.687821    0.301055    0.514750    11.00000    0.02122    0.01890 =
         0.01567    0.00043    0.00938    0.00332
AFIX  43
H22   5    0.715545    0.254173    0.530308    11.00000   -1.20000
AFIX   0
C23   1    0.551771    0.280403    0.371559    11.00000    0.02198    0.04347 =
         0.02696   -0.00111    0.00485   -0.00273
AFIX 137
H23A  5    0.538844    0.317289    0.304122    11.00000   -1.50000
H23B  5    0.530444    0.296102    0.407146    11.00000   -1.50000
H23C  5    0.553738    0.197636    0.362993    11.00000   -1.50000
AFIX   0
C24   1    0.931212    0.302833    0.899395    11.00000    0.02972    0.04862 =
         0.02829    0.00159    0.01176    0.01335
AFIX 137
H24A  5    0.922753    0.227910    0.918456    11.00000   -1.50000
H24B  5    0.966411    0.310720    0.926912    11.00000   -1.50000
H24C  5    0.918125    0.309464    0.824550    11.00000   -1.50000
AFIX   0
C25   1    0.925014    0.514509    0.916645    11.00000    0.02024    0.04034 =
         0.03219    0.01142    0.00425   -0.00646
AFIX 137
H25A  5    0.915442    0.519659    0.842333    11.00000   -1.50000
H25B  5    0.960110    0.522925    0.951216    11.00000   -1.50000
H25C  5    0.909159    0.575472    0.939182    11.00000   -1.50000
AFIX   0
N1    2    0.545306    0.399172    0.652667    11.00000    0.02082    0.04711 =
         0.02943    0.00046    0.00827    0.00163
O1    3    0.781193    0.427511    0.568911    11.00000    0.02264    0.02144 =
         0.01377    0.00078    0.01010    0.00072
O2    3    0.747120    0.588858    0.632480    11.00000    0.03074    0.01117 =
         0.01983    0.00206    0.01114    0.00119
O3    3    0.766996    0.551131    0.852306    11.00000    0.02714    0.01256 =
         0.01429   -0.00254    0.00918   -0.00281
AFIX 147
H3    5    0.773563    0.558308    0.915242    11.00000   -1.50000
AFIX   0
O4    3    0.527065    0.307351    0.617155    11.00000    0.02445    0.05313 =
         0.05615   -0.00935    0.00540   -0.01076
O5    3    0.521688    0.484714    0.651736    11.00000    0.02301    0.06063 =
         0.08546   -0.01205    0.01214    0.01184
S1    4    0.750796    0.467555    0.620099    11.00000    0.02080    0.01234 =
         0.01123    0.00137    0.00787    0.00087
HKLF 4

REM  mo_150202LT_0m_a.res in C2/c
REM R1 =  0.0390 for    3693 Fo > 4sig(Fo)  and  0.0591 for all    4797 data
REM    293 parameters refined using      0 restraints

END

WGHT      0.0560      3.8466

REM Highest difference peak  0.392,  deepest hole -0.529,  1-sigma level  0.091
Q1    1   0.5297  0.3392  0.3602  11.00000  0.05    0.39
Q2    1   0.7172  0.4507  0.5796  11.00000  0.05    0.38
Q3    1   0.5447  0.2377  0.2982  11.00000  0.05    0.35
Q4    1   0.8848  0.3885  0.9150  11.00000  0.05    0.34
Q5    1   0.5413  0.2209  0.4304  11.00000  0.05    0.34
;
_shelx_res_checksum              14247
_shelx_hkl_file
;
   2   0   0 1909.02   29.12
   2   0   0 1514.04   29.21
  -2   0   0 1823.05   29.24
  -2   0   0 1529.13   29.17
  -4   0   0   31.59    1.88
   4   0   0   29.85    1.61
   4   0   0   31.15    1.56
  -4   0   0   31.80    1.73
   4   0   0   25.68    1.71
  -4   0   0   31.37    1.75
  -6   0   0 2469.20   43.42
   6   0   0 2495.02   43.01
   6   0   0 2401.10   43.41
   6   0   0 2506.93   43.38
  -6   0   0 2414.58   43.44
  -6   0   0 2497.91   43.28
  -8   0   0  176.78    5.53
   8   0   0  176.82    5.28
   8   0   0  193.21    5.59
   8   0   0  186.49    5.15
  -8   0   0  177.56    5.91
  -8   0   0  175.38    5.68
  10   0   0 1345.38   25.06
  10   0   0 1298.28   25.08
 -10   0   0 1323.33   25.20
 -10   0   0 1307.12   25.19
 -10   0   0 1337.94   24.92
 -12   0   0 1433.36   27.38
 -12   0   0 1381.29   27.26
 -12   0   0 1444.54   27.03
  12   0   0 1375.22   27.20
  12   0   0 1442.11   27.17
  14   0   0  976.38   20.34
 -14   0   0  947.46   20.40
 -14   0   0  978.53   20.43
 -14   0   0  992.87   20.10
  14   0   0 1002.85   20.31
 -16   0   0   14.55    3.75
  16   0   0   14.42    2.90
  16   0   0   15.63    3.29
 -16   0   0   20.81    3.60
 -16   0   0   11.05    3.18
  18   0   0  333.07   10.24
 -18   0   0  316.16   10.08
 -18   0   0  331.64   10.72
  18   0   0  331.44   10.21
 -18   0   0  316.98   10.85
 -20   0   0   24.93    5.34
 -20   0   0   19.33    4.67
  20   0   0   21.91    4.00
 -20   0   0   23.79    4.32
 -22   0   0   62.68    6.38
 -22   0   0   71.99    6.97
  22   0   0   62.36    5.86
 -22   0   0   68.20    6.12
  24   0   0    1.16    3.65
 -24   0   0   -1.22    4.45
 -24   0   0    0.94    5.49
 -24   0   0   -4.26    4.78
  26   0   0  111.64    7.93
 -26   0   0  113.18    8.48
 -26   0   0   98.17    8.56
  28   0   0   99.00    7.95
 -28   0   0   94.59    8.81
 -28   0   0   83.06    8.13
  30   0   0   59.86    6.95
 -30   0   0   64.29    8.52
 -30   0   0   71.08    7.99
  32   0   0   37.04    6.45
 -32   0   0   35.89    7.13
 -32   0   0   21.85    7.31
  34   0   0  101.77    9.34
 -34   0   0   76.22    9.73
 -34   0   0   94.39    9.56
   1  -1   0  451.30    8.01
  -1  -1   0  449.58    8.08
   1  -1   0  433.50    8.01
  -1   1   0  447.39    8.39
   3  -1   0   30.54    1.40
  -3  -1   0   30.65    1.74
  -3  -1   0   30.58    1.60
  -3   1   0   29.03    1.44
  -3   1   0   28.19    1.55
   3   1   0   29.50    1.63
   3   1   0   31.19    1.51
   3   1   0   23.86    1.71
   5  -1   0    0.90    1.17
  -5  -1   0   -0.01    1.56
   5  -1   0    1.10    1.15
  -5  -1   0    0.61    1.41
   5  -1   0   -0.58    1.48
  -5  -1   0   -0.42    1.74
  -5   1   0    0.03    1.39
   5   1   0    1.82    1.24
  -5   1   0    2.23    1.38
  -5   1   0    0.01    1.49
  -5   1   0    0.23    1.33
  -7  -1   0 1824.73   32.59
  -7  -1   0 1830.71   32.87
  -7  -1   0 1814.65   32.85
   7  -1   0 1784.82   32.54
   7  -1   0 1817.64   32.69
   7  -1   0 1815.56   32.13
  -7   1   0 1809.32   32.48
  -7   1   0 1842.95   32.45
  -7   1   0 1840.58   32.64
  -7   1   0 1775.74   32.62
   7   1   0 1802.14   32.69
   9  -1   0   14.85    2.11
  -9  -1   0   19.16    2.94
   9  -1   0   19.95    2.44
  -9  -1   0   17.28    2.52
  -9  -1   0   16.19    2.32
   9  -1   0   19.09    2.19
  -9   1   0   13.69    2.36
  -9   1   0   15.29    2.64
  -9   1   0   19.81    2.39
  -9   1   0   18.17    2.51
  -9   1   0   17.84    2.33
   9   1   0   12.50    2.07
 -11  -1   0  569.70   12.41
  11  -1   0  557.97   12.52
  11  -1   0  579.65   11.96
 -11  -1   0  573.41   12.90
 -11  -1   0  573.01   12.85
  11  -1   0  558.67   12.52
 -11   1   0  567.39   12.71
 -11   1   0  556.45   13.01
 -11   1   0  576.73   12.37
 -11   1   0  576.83   12.70
  11   1   0  579.19   12.65
 -13  -1   0 3372.12   60.68
  13  -1   0 3384.80   60.07
 -13  -1   0 3349.61   61.08
 -13  -1   0 3287.45   61.17
  13  -1   0 3458.08   61.03
  13  -1   0 3408.72   61.12
 -13   1   0 3418.76   61.04
 -13   1   0 3450.48   60.76
  13   1   0 3376.26   61.08
 -13   1   0 3425.55   60.96
 -15  -1   0    4.32    3.45
 -15  -1   0    3.23    3.04
  15  -1   0    7.34    2.57
  15  -1   0    1.48    2.23
  15  -1   0    3.15    2.67
 -15  -1   0    2.81    2.65
 -15   1   0    0.00    2.69
  15   1   0    0.95    2.16
 -15   1   0    3.09    3.22
 -15   1   0    5.22    2.82
 -17  -1   0   31.16    3.82
 -17  -1   0   33.57    4.70
  17  -1   0   33.35    3.93
  17  -1   0   36.49    4.01
 -17  -1   0   25.61    4.02
  17  -1   0   29.33    3.42
 -17   1   0   35.17    4.56
  17   1   0   32.42    3.69
 -17   1   0   38.52    4.41
 -17   1   0   32.34    3.97
  19  -1   0   94.04    6.04
 -19  -1   0   97.66    6.46
 -19  -1   0   90.53    7.08
 -19  -1   0   80.06    6.71
  19  -1   0   80.34    6.32
  19   1   0   82.11    5.75
 -19   1   0   78.97    5.82
 -19   1   0   73.27    6.21
 -19   1   0   83.05    6.11
  21  -1   0   11.49    4.08
 -21  -1   0    9.07    3.99
 -21  -1   0    8.22    4.60
 -21  -1   0   21.50    5.56
  21  -1   0    8.50    3.36
  21   1   0    8.32    3.53
 -21   1   0    2.29    4.82
 -21   1   0   14.09    4.51
 -21   1   0    7.21    4.29
 -23  -1   0  113.76    8.86
  23  -1   0  112.56    7.55
  23  -1   0  122.14    8.18
 -23  -1   0  125.20    9.15
 -23   1   0  111.58    8.32
  23   1   0  127.70    7.92
 -23   1   0  137.91    8.89
 -23   1   0  131.69    8.47
  25  -1   0   -4.74    3.48
 -25  -1   0   -6.49    4.57
 -25  -1   0    0.59    5.59
 -25   1   0    2.74    4.32
 -25   1   0    6.03    5.38
 -25   1   0    0.72    4.58
  25   1   0   -1.33    3.61
  27  -1   0   27.65    5.19
 -27  -1   0   18.81    6.62
 -27  -1   0   29.85    6.06
 -27   1   0   32.28    6.00
 -27   1   0   22.98    6.28
  27   1   0   26.34    5.27
 -29  -1   0   26.39    6.39
 -29  -1   0   10.52    6.84
  29  -1   0   26.95    5.38
  29   1   0   19.06    4.97
 -29   1   0   26.53    6.30
 -29   1   0   10.58    6.48
 -31  -1   0    5.67    6.63
  31  -1   0   -3.36    4.41
 -31  -1   0    2.57    5.51
 -31   1   0    1.28    6.26
  31   1   0    0.25    4.38
 -31   1   0   -3.28    5.14
  33  -1   0   -3.80    4.39
 -33  -1   0   -2.84    5.89
 -33  -1   0   -9.11    6.94
 -33   1   0    1.16    5.66
 -33   1   0   -3.26    6.81
  33   1   0   -2.69    4.56
   0  -2   0 2581.84   44.00
   0  -2   0 2532.17   43.90
   0   2   0 2535.69   44.71
   2  -2   0 2883.29   50.23
  -2  -2   0 2840.62   50.32
   2  -2   0 2788.50   50.20
   2   2   0 3205.78   50.34
  -2   2   0 2853.63   50.95
  -4  -2   0 1769.43   31.71
   4  -2   0 1745.75   31.50
  -4   2   0 1797.40   31.39
  -4   2   0 1818.20   32.09
   4   2   0 1812.46   31.65
   6  -2   0  903.34   17.14
  -6  -2   0  919.20   17.59
  -6  -2   0  921.63   17.47
   6   2   0  931.71   17.26
  -6   2   0  905.33   17.03
   6   2   0  865.66   17.60
   6   2   0  920.51   17.25
  -8  -2   0  964.42   18.93
  -8  -2   0  975.54   18.92
   8  -2   0  954.52   18.57
  -8   2   0  983.10   18.40
   8   2   0  970.36   18.67
   8   2   0  962.12   18.70
  -8   2   0  966.01   18.54
  10  -2   0  160.31    4.97
 -10  -2   0  161.76    6.01
 -10  -2   0  155.48    5.79
  10  -2   0  155.22    5.28
  10  -2   0  161.21    5.55
 -10   2   0  161.58    5.55
 -10   2   0  152.98    5.43
  10   2   0  157.72    5.34
 -10   2   0  156.78    5.22
 -10   2   0  159.93    5.26
 -12  -2   0  798.68   17.10
  12  -2   0  806.91   16.68
  12  -2   0  792.30   15.88
 -12  -2   0  785.14   16.48
  12  -2   0  792.29   16.71
 -12  -2   0  798.56   17.08
 -12   2   0  789.93   16.68
 -12   2   0  810.86   16.40
 -12   2   0  799.65   16.67
 -12   2   0  791.75   16.37
  12   2   0  780.83   16.71
  14  -2   0  343.89    9.54
 -14  -2   0  355.29    9.54
 -14  -2   0  348.69   10.16
  14  -2   0  364.04    9.78
  14  -2   0  358.52    8.90
 -14  -2   0  364.34   10.43
  14   2   0  346.03    9.51
 -14   2   0  353.82    9.54
 -14   2   0  354.75    9.76
 -14   2   0  352.65    9.71
 -14   2   0  347.79    9.33
 -16  -2   0   76.08    5.82
  16  -2   0   73.94    5.42
  16  -2   0   75.03    4.94
 -16  -2   0   87.09    6.58
 -16  -2   0   79.11    5.41
  16  -2   0   69.94    4.85
  16   2   0   74.53    4.98
 -16   2   0   76.93    5.20
 -16   2   0   80.01    5.64
 -16   2   0   82.34    5.54
 -16   2   0   67.51    5.16
 -18  -2   0   28.03    5.18
  18  -2   0   24.48    3.61
  18  -2   0   27.05    3.95
 -18  -2   0   29.62    4.10
 -18  -2   0   36.51    4.72
  18  -2   0   25.91    4.03
  18   2   0   22.37    3.69
 -18   2   0   31.07    4.14
 -18   2   0   29.54    4.10
 -18   2   0   35.80    4.46
 -18   2   0   24.79    4.62
 -20  -2   0   36.67    5.26
 -20  -2   0   38.02    5.94
  20  -2   0   39.10    4.27
  20  -2   0   34.25    4.41
  20  -2   0   38.21    5.04
 -20  -2   0   31.28    4.58
 -20   2   0   41.41    4.94
 -20   2   0   34.20    4.52
  20   2   0   38.30    4.60
 -20   2   0   29.78    5.32
 -20   2   0   47.41    5.22
  22  -2   0  443.08   13.40
  22  -2   0  438.79   13.62
 -22  -2   0  447.14   15.14
  22  -2   0  419.05   12.44
 -22  -2   0  440.85   14.44
 -22   2   0  454.85   13.77
  22   2   0  456.03   13.50
 -22   2   0  440.21   13.46
 -22   2   0  462.17   13.71
 -22   2   0  444.83   14.34
  24  -2   0  141.92    8.48
 -24  -2   0  160.51   10.76
 -24  -2   0  153.96    9.88
  24   2   0  154.43    8.42
 -24   2   0  162.88    9.35
 -24   2   0  153.81    9.12
 -24   2   0  141.76   10.01
  26  -2   0   17.32    4.51
 -26  -2   0    2.43    5.05
 -26  -2   0   11.79    6.17
 -26   2   0    9.74    5.04
  26   2   0   23.90    4.63
 -26   2   0    6.42    5.49
 -26   2   0   13.20    5.11
 -28  -2   0   31.98    6.31
  28  -2   0   32.04    5.51
 -28  -2   0   29.71    7.18
 -28   2   0   24.07    5.71
  28   2   0   32.10    5.41
 -28   2   0   27.80    6.66
  30  -2   0   46.65    6.47
 -30  -2   0   52.15    8.40
 -30  -2   0   63.15    7.67
 -30   2   0   57.60    8.03
 -30   2   0   52.45    7.20
  30   2   0   60.96    7.08
 -32  -2   0   13.75    6.49
  32  -2   0   11.24    5.08
 -32   2   0    8.66    6.79
  32   2   0    3.05    4.85
 -32   2   0   13.38    8.35
  34  -2   0  107.38    9.59
  34   2   0   94.88    8.74
 -34   2   0   87.12   10.02
  -1  -3   0  131.91    3.78
   1  -3   0  125.10    3.62
   1   3   0  118.64    4.74
  -1   3   0  131.11    4.75
   3  -3   0  342.36    7.30
  -3  -3   0  332.19    7.49
  -3   3   0  357.86    8.36
   3   3   0  350.24    7.24
   5  -3   0   28.95    2.13
  -5  -3   0   27.41    2.41
  -5   3   0   25.01    2.55
  -5   3   0   31.21    2.05
   5   3   0   25.78    2.14
  -7  -3   0  288.02    7.48
   7  -3   0  287.02    7.06
  -7   3   0  303.41    7.78
  -7   3   0  298.07    6.91
   7   3   0  295.99    6.98
   7   3   0  293.69    7.16
   9  -3   0   13.37    2.04
  -9  -3   0   15.03    2.51
  -9  -3   0   13.59    2.82
   9   3   0   13.46    2.17
  -9   3   0   14.24    2.19
  11  -3   0   17.12    2.52
 -11  -3   0   19.08    3.35
 -11  -3   0   16.62    2.81
  11   3   0   19.86    2.76
 -11   3   0   18.65    2.69
  11   3   0   21.87    2.62
  13  -3   0  415.25    9.60
 -13  -3   0  401.02   11.04
 -13  -3   0  395.50   10.80
  13  -3   0  401.46   10.27
 -13   3   0  397.23   10.16
  13   3   0  395.43   10.19
 -13   3   0  408.87   10.14
  13   3   0  372.21   10.10
 -15  -3   0   -0.64    3.01
  15  -3   0   -2.49    2.24
 -15  -3   0    6.02    3.79
  15  -3   0   -0.50    2.55
 -15   3   0    0.77    2.83
  15   3   0    3.79    2.36
 -15   3   0    0.29    2.77
  15   3   0   -0.95    2.49
 -17  -3   0   57.75    5.44
  17  -3   0   64.71    5.20
  17  -3   0   63.51    4.51
 -17  -3   0   59.71    5.90
  17  -3   0   48.60    4.51
  17   3   0   55.31    5.04
  17   3   0   66.63    5.16
 -17   3   0   65.94    4.86
 -17   3   0   62.89    5.00
 -19  -3   0   64.36    6.04
  19  -3   0   68.72    5.66
  19  -3   0   62.54    5.21
  19  -3   0   77.46    5.17
 -19  -3   0   60.56    6.47
 -19   3   0   68.68    5.56
 -19   3   0   63.75    5.51
  19   3   0   71.06    5.75
  21  -3   0   57.32    5.44
  21  -3   0   55.52    5.14
 -21  -3   0   51.08    6.20
  21  -3   0   53.80    5.78
 -21  -3   0   57.42    6.99
 -21   3   0   54.32    5.74
 -21   3   0   53.91    5.74
  21   3   0   50.31    5.13
 -21   3   0   56.54    5.17
 -23  -3   0   15.12    5.94
 -23  -3   0    9.74    5.19
  23  -3   0   10.09    4.07
  23  -3   0   12.21    4.20
 -23   3   0   16.31    4.83
 -23   3   0    7.14    4.66
  23   3   0   17.55    4.24
 -25  -3   0   -1.74    5.59
 -25  -3   0   -0.78    4.85
  25  -3   0    2.53    3.99
  25  -3   0    2.13    3.90
 -25   3   0    4.64    4.45
 -25   3   0    6.74    4.67
  25   3   0    4.30    3.76
 -27  -3   0    8.55    5.31
 -27  -3   0    6.97    8.03
  27  -3   0    2.67    4.04
 -27   3   0    4.02    5.30
  27   3   0    2.63    3.93
 -27   3   0    6.82    5.12
 -27   3   0    6.62    4.93
  29  -3   0   17.82    5.06
 -29  -3   0   26.62    6.44
 -29   3   0   19.20    5.86
 -29   3   0   15.20    6.16
  29   3   0   21.63    5.27
  31  -3   0    4.73    4.77
 -31  -3   0   -2.15    5.64
  31   3   0    3.77    4.51
  33  -3   0    9.00    5.56
 -33  -3   0   -2.96    6.11
  33   3   0    3.76    4.60
   0  -4   0   64.31    2.98
   0   4   0   72.18    4.16
  -2  -4   0  169.78    4.74
   2  -4   0  167.94    4.60
   2   4   0  172.15    5.94
  -2   4   0  174.08    5.86
  -4  -4   0    6.65    1.80
   4  -4   0    4.96    1.58
  -4   4   0    2.31    2.11
   4   4   0    7.61    1.52
  -6  -4   0   15.43    2.18
   6  -4   0    9.42    1.82
  -6   4   0   12.00    2.33
   6   4   0    9.19    1.76
  -8  -4   0  200.40    6.34
   8  -4   0  191.86    5.82
  -8   4   0  197.60    6.70
   8   4   0  200.24    5.89
 -10  -4   0  181.69    6.69
  10  -4   0  194.35    6.14
  10   4   0  198.97    6.41
  10   4   0  195.93    6.13
  10   4   0  193.94    6.02
 -12  -4   0   51.65    4.30
  12  -4   0   51.64    3.91
 -12  -4   0   49.55    4.51
  12   4   0   47.39    3.47
  12   4   0   48.96    3.72
 -12   4   0   52.45    4.14
  14  -4   0   21.96    3.12
  14  -4   0   22.35    3.07
 -14  -4   0   25.56    4.31
 -14  -4   0   19.11    3.73
 -14   4   0   27.33    3.41
  14   4   0   21.12    3.09
  14   4   0   20.02    3.12
 -16  -4   0  127.25    7.39
  16  -4   0  118.33    6.29
 -16  -4   0  131.74    8.20
  16   4   0  126.82    6.22
  16   4   0  122.59    6.29
 -16   4   0  124.99    6.73
 -16   4   0  127.46    6.45
  18  -4   0  132.40    7.05
 -18  -4   0  142.59    9.30
  18  -4   0  148.27    7.54
 -18  -4   0  147.60    8.43
  18  -4   0  151.26    6.99
 -18   4   0  138.63    7.32
  18   4   0  133.76    7.00
  18   4   0  143.62    7.09
 -18   4   0  147.87    7.56
 -20  -4   0    6.48    4.70
  20  -4   0    0.04    3.21
 -20  -4   0    0.77    5.13
 -20   4   0    2.69    3.91
  20   4   0    3.07    3.50
  20   4   0    1.60    3.36
 -20   4   0   -1.57    4.12
  22  -4   0  238.96    9.92
 -22  -4   0  236.08   11.28
  22  -4   0  207.68   10.42
 -22  -4   0  203.85   11.54
 -22   4   0  230.31    9.64
 -22   4   0  243.96   10.20
  22   4   0  241.61    9.96
  24  -4   0   41.95    5.46
 -24  -4   0   34.85    5.95
 -24   4   0   36.22    5.69
 -24   4   0   45.45    5.52
  24   4   0   40.32    5.33
 -26  -4   0   12.92    5.42
  26  -4   0   15.85    4.56
  26   4   0   15.31    4.64
 -26   4   0   18.06    5.39
 -26   4   0   20.70    5.05
  28  -4   0    3.00    4.21
 -28  -4   0    9.24    5.66
  28   4   0   11.60    4.80
 -28   4   0   12.17    5.82
  30  -4   0   86.29    8.12
 -30  -4   0   73.14    8.28
  30   4   0   82.50    7.67
 -32  -4   0   -7.05    5.87
  32  -4   0   13.03    5.45
  32   4   0    1.62    4.70
  -1  -5   0  471.75   10.01
   1  -5   0  465.53    9.91
  -1   5   0  474.98   11.58
   1   5   0  462.50   11.54
  -3  -5   0  248.86    6.52
   3  -5   0  249.12    6.37
  -3   5   0  253.78    7.79
   3   5   0  253.25    7.92
   5  -5   0  302.56    7.49
  -5  -5   0  311.74    7.85
   5   5   0  303.41    9.09
  -5   5   0  315.61    8.92
  -7  -5   0  344.57    8.81
   7  -5   0  338.18    8.40
  -7   5   0  348.73    9.66
   7   5   0  336.17    8.17
  -9  -5   0    9.44    2.65
   9  -5   0    9.48    2.19
   9   5   0    8.75    2.10
  -9   5   0   11.64    2.89
  11  -5   0   78.67    4.60
 -11  -5   0   85.03    5.31
 -11   5   0   86.02    5.51
  11   5   0   87.92    4.60
  11   5   0   74.78    4.85
  13  -5   0    8.60    2.63
 -13  -5   0   11.18    4.27
 -13  -5   0   15.33    3.51
  13   5   0    7.40    2.52
  13   5   0   12.06    2.86
 -13   5   0    9.54    2.73
 -15  -5   0  140.77    7.57
  15  -5   0  131.61    6.51
 -15  -5   0  144.04    8.29
 -15   5   0  142.53    6.30
  15   5   0  127.09    6.20
 -17  -5   0   10.81    4.89
 -17  -5   0   13.81    4.29
  17  -5   0   13.12    3.44
  17   5   0   16.64    3.49
 -17   5   0   17.16    3.74
 -17   5   0   13.93    4.10
  17   5   0    8.96    3.25
 -19  -5   0   30.12    6.66
 -19  -5   0   30.34    5.34
  19  -5   0   32.08    4.60
  19   5   0   31.16    4.37
 -19   5   0   23.18    4.37
 -19   5   0   26.45    4.90
  19   5   0   29.86    4.33
  21  -5   0  249.24   10.12
 -21  -5   0  248.08   11.10
 -21   5   0  237.20    9.58
 -21   5   0  253.35   10.40
  21   5   0  257.09    9.91
  23  -5   0   24.06    4.81
 -23  -5   0   16.46    5.33
 -23   5   0   33.17    5.53
  23   5   0   32.74    4.82
 -23   5   0   24.76    5.27
  25  -5   0   70.52    6.54
 -25  -5   0   65.97    7.30
  25   5   0   70.15    6.31
 -25   5   0   65.59    6.70
 -27  -5   0    5.89    5.40
  27  -5   0   -2.44    3.95
  27   5   0   10.18    4.28
 -27   5   0   -0.94    5.20
  29  -5   0   43.62    6.32
 -29  -5   0   30.10    6.79
  29   5   0   31.44    5.58
  31  -5   0   -1.04    4.45
 -31  -5   0   -2.07    5.97
   0  -6   0  130.26    4.96
   0   6   0  147.57    6.42
   2  -6   0  503.41   10.96
  -2  -6   0  495.90   11.09
   2   6   0  501.34   12.86
  -2   6   0  496.21   12.84
  -4  -6   0  188.15    6.16
   4  -6   0  197.95    6.09
  -4   6   0  203.08    7.58
   4   6   0  211.00    7.76
  -6  -6   0  469.70   11.20
   6  -6   0  477.47   10.88
  -6   6   0  467.65   12.37
   6   6   0  464.62   12.72
   8  -6   0   11.17    2.47
  -8  -6   0   15.35    2.85
   8   6   0   12.92    2.18
  -8   6   0    5.09    2.97
 -10  -6   0   12.24    3.17
  10  -6   0   17.41    2.88
 -10   6   0   19.96    3.74
  10   6   0   23.33    2.77
 -12  -6   0   29.29    4.00
  12  -6   0   27.92    3.44
  12   6   0   31.50    3.28
 -12   6   0   33.01    4.52
 -14  -6   0   13.96    4.02
  14  -6   0   16.08    3.37
 -14   6   0   12.49    3.12
  14   6   0   15.36    3.49
  14   6   0   14.93    3.15
 -16  -6   0   -1.42    3.80
  16  -6   0    0.39    2.96
 -16   6   0   -1.25    3.01
  16   6   0    3.69    3.04
  18  -6   0    0.10    3.33
 -18  -6   0    4.66    4.55
  18   6   0    1.96    3.12
 -18   6   0   -2.82    3.31
  20  -6   0  234.04    9.84
 -20  -6   0  228.09   10.82
  20   6   0  242.74    9.30
  22  -6   0  108.43    7.61
 -22  -6   0   99.23    7.93
  22   6   0  110.77    7.48
 -22   6   0  118.91    8.30
  24  -6   0    7.05    4.04
 -24  -6   0    8.18    4.95
  24   6   0    2.48    3.62
 -24   6   0    5.41    4.75
  24   6   0   -6.78    3.50
 -26  -6   0    5.07    5.06
  26  -6   0    3.49    4.13
  26   6   0    5.19    4.01
 -26   6   0   -2.28    4.68
  26   6   0    1.01    3.83
  28  -6   0   -3.96    4.03
 -28  -6   0   -0.67    5.25
  28   6   0    0.02    4.11
 -28   6   0   -4.42    5.13
 -30  -6   0    5.97    6.28
  30  -6   0   -2.69    4.29
  30   6   0    4.03    4.75
   1  -7   0   15.68    2.60
  -1  -7   0   16.60    2.64
  -1   7   0   16.22    3.47
   1   7   0   14.11    3.41
   3  -7   0   -2.07    2.11
  -3  -7   0    3.00    2.28
  -3   7   0    0.92    2.77
   3   7   0    1.19    2.86
  -5  -7   0    6.02    2.59
   5  -7   0    4.75    2.37
  -5   7   0    8.78    3.24
   5   7   0    6.17    3.28
  -7  -7   0   18.88    3.26
   7  -7   0   19.19    2.93
  -7   7   0   15.70    3.62
   7   7   0   15.50    3.96
   9  -7   0   61.55    4.66
  -9  -7   0   66.33    4.94
  -9   7   0   46.08    4.97
   9   7   0   57.04    5.53
 -11  -7   0   14.89    3.83
  11  -7   0   27.56    3.52
  11   7   0   24.71    3.03
 -11   7   0   25.75    4.49
 -13  -7   0  199.40    8.97
  13  -7   0  211.16    8.08
 -13   7   0  216.56    9.57
  13   7   0  217.61    7.36
  15  -7   0   77.04    6.03
 -15  -7   0   60.02    5.92
  15   7   0   61.65    4.77
  15   7   0   68.53    7.32
  17  -7   0   -1.76    3.35
 -17  -7   0    8.65    4.50
  17   7   0    3.11    3.00
  19  -7   0    2.55    3.53
 -19  -7   0   -5.87    4.03
  19   7   0    0.57    3.16
  21  -7   0   58.60    5.97
 -21  -7   0   48.13    6.14
  21   7   0   46.75    6.22
 -23  -7   0    4.13    5.00
  23  -7   0    9.91    4.20
 -23   7   0   12.84    5.11
 -25  -7   0    0.27    5.18
  25  -7   0    2.64    4.14
 -25   7   0   -6.55    4.73
 -27  -7   0   19.01    6.08
  27  -7   0    1.07    4.35
 -27   7   0    4.37    5.40
 -29  -7   0   -1.04    6.11
  29  -7   0   -1.27    4.33
  29   7   0   -3.35    4.01
 -29   7   0   -8.50    5.28
   0  -8   0  368.20    9.88
   0   8   0  382.64   12.05
   2  -8   0  250.20    7.91
  -2  -8   0  244.68    8.07
   2   8   0  259.34    9.94
  -2   8   0  253.27    9.80
  -4  -8   0   97.50    5.67
   4  -8   0  105.33    5.68
  -4   8   0  110.66    7.26
   4   8   0  118.78    7.38
  -6  -8   0   60.34    4.81
   6  -8   0   61.00    4.78
  -6   8   0   57.81    5.74
   6   8   0   64.48    6.18
   8  -8   0   14.75    3.18
  -8  -8   0   11.81    3.59
   8   8   0   14.04    4.27
  -8   8   0   13.15    3.98
  10  -8   0   42.06    4.22
 -10  -8   0   40.84    4.87
 -10   8   0   36.92    5.17
  10   8   0   48.77    5.85
  12  -8   0   -1.55    3.01
 -12  -8   0    0.62    3.84
 -12   8   0   -3.82    3.92
  12   8   0    1.21    3.90
  14  -8   0  183.32    8.13
 -14  -8   0  185.58    9.26
 -14   8   0  172.92    9.58
  16  -8   0   31.61    4.55
 -16  -8   0   33.84    5.25
  18  -8   0    1.53    3.43
 -18  -8   0    1.56    4.14
  20  -8   0    3.69    3.81
 -20  -8   0    0.32    4.64
  22  -8   0   -1.36    3.75
 -22  -8   0   -4.86    4.89
  24  -8   0   -1.89    4.04
 -24  -8   0   -4.86    4.87
 -24   8   0   -0.25    4.66
 -26  -8   0    7.46    5.95
  26  -8   0   18.02    5.36
 -26   8   0   11.53    5.49
 -28  -8   0   -4.39    5.86
  28  -8   0    1.72    4.57
 -28   8   0    0.12    5.68
   1  -9   0    7.15    3.08
  -1  -9   0    1.79    2.95
   1   9   0   -0.81    3.53
  -1   9   0    3.90    3.78
   3  -9   0    1.46    2.95
  -3  -9   0    3.87    3.15
  -3   9   0   -3.47    3.57
   3   9   0   -1.68    3.54
  -5  -9   0  185.10    7.67
   5  -9   0  171.54    7.27
   5   9   0  177.04    9.34
  -5   9   0  157.51    8.94
  -7  -9   0    5.62    3.59
   7  -9   0    6.16    3.16
  -7   9   0    8.85    4.14
   7   9   0   -5.27    3.91
   9  -9   0   10.40    3.49
  -9  -9   0   13.47    4.29
  -9   9   0    8.98    4.43
   9   9   0   11.93    4.68
  11  -9   0  152.08    7.51
 -11  -9   0  151.28    8.34
  11   9   0  159.59    9.54
 -11   9   0  144.73    9.10
  13  -9   0   -0.34    3.10
 -13  -9   0    1.96    4.05
 -13   9   0    1.43    4.38
  13   9   0    0.64    4.20
 -15  -9   0   21.89    4.93
  15  -9   0   26.80    4.31
 -15   9   0   19.74    5.30
  15   9   0   21.11    5.19
 -17  -9   0   44.89    6.01
  17  -9   0   35.06    4.85
  19  -9   0   -0.86    3.62
 -19  -9   0   -0.87    4.70
  21  -9   0    4.67    4.10
 -21  -9   0    0.18    4.85
  23  -9   0    6.47    4.33
 -23  -9   0    1.30    5.02
  25  -9   0    1.41    4.80
 -25  -9   0    8.86    5.80
 -25   9   0    6.54    5.53
 -27  -9   0   11.59    6.36
  27  -9   0   15.41    5.55
 -27   9   0   10.00    5.86
   0 -10   0  186.81    8.11
   0  10   0  177.17    9.97
   2 -10   0  218.27    8.52
  -2 -10   0  228.88    8.67
  -2  10   0  212.64   10.36
   2  10   0  228.84   10.66
   4 -10   0  146.25    7.11
  -4 -10   0  122.83    7.30
   4  10   0  143.30    8.95
  -4  10   0  133.20    8.76
   6 -10   0   23.44    3.88
  -6 -10   0   10.61    3.84
  -6  10   0    7.52    4.25
   6  10   0   12.53    4.59
  -8 -10   0  112.86    7.33
   8 -10   0   97.98    6.66
   8  10   0  114.67    8.48
  -8  10   0  121.43    8.41
 -10 -10   0   30.13    4.74
  10 -10   0   31.74    4.34
 -10  10   0   21.23    5.38
  10  10   0   11.40    4.82
 -12 -10   0   19.98    4.67
  12 -10   0   15.43    3.93
  12  10   0    4.62    4.51
 -12  10   0   19.11    5.11
  14 -10   0   21.19    4.18
 -14 -10   0    6.54    4.56
 -14  10   0   15.42    5.29
  14  10   0   16.87    5.32
 -16 -10   0    4.15    4.61
  16 -10   0    8.08    3.83
 -16  10   0    7.76    5.33
  16  10   0    6.22    4.88
  18 -10   0   33.60    5.14
 -18 -10   0   41.55    6.48
  18  10   0   36.05    6.61
 -20 -10   0   -1.92    4.91
  20 -10   0    7.39    4.28
  20  10   0   -1.58    4.66
  22 -10   0   10.57    4.66
 -22 -10   0    6.57    5.57
  22  10   0    4.68    5.56
 -24 -10   0   17.76    6.41
  24 -10   0   13.07    5.18
  -1 -11   0   36.04    4.61
   1 -11   0   35.07    4.52
   1  11   0   33.87    5.78
  -1  11   0   27.27    5.32
  -3 -11   0   41.66    4.73
   3 -11   0   39.09    4.66
   3  11   0   34.19    5.65
  -3  11   0   36.08    5.91
  -5 -11   0   36.50    4.78
   5 -11   0   36.58    4.67
   5  11   0   46.15    6.26
  -5  11   0   48.00    6.41
  -7 -11   0   -5.14    3.65
   7 -11   0    2.18    3.34
   7  11   0    1.26    4.11
  -7  11   0    2.06    4.24
   9 -11   0   12.95    3.99
  -9 -11   0   11.58    4.27
   9  11   0    9.84    4.58
  -9  11   0   15.61    5.22
  11 -11   0    8.90    3.86
 -11 -11   0    9.94    4.45
  11  11   0   20.82    5.47
 -11  11   0   13.62    5.32
  13 -11   0   36.99    4.89
 -13 -11   0   35.88    5.76
 -13  11   0   26.06    6.08
  13  11   0   35.39    6.26
  15 -11   0   74.41    6.47
 -15 -11   0   90.40    7.56
 -15  11   0   65.71    7.80
  15  11   0   63.39    7.79
  17 -11   0   25.73    4.90
 -17 -11   0   19.63    5.76
  17  11   0   33.18    6.35
 -19 -11   0   22.06    6.02
  19 -11   0   16.98    4.83
  19  11   0   11.95    5.42
  21 -11   0    3.63    4.34
 -21 -11   0    4.52    5.74
  21  11   0    6.80    5.33
  23  11   0   -0.66    5.43
   0 -12   0   -0.35    3.47
   0  12   0    0.32    4.31
  -2 -12   0   -0.75    3.48
   2 -12   0    0.38    3.74
   2  12   0    4.54    4.41
  -2  12   0    1.76    4.38
  -4 -12   0   49.97    5.53
   4 -12   0   44.28    5.20
  -4  12   0   51.81    7.03
   4  12   0   47.57    6.69
   6 -12   0   82.77    6.38
  -6 -12   0   81.31    6.67
  -6  12   0   73.73    7.75
   6  12   0   87.97    8.52
  -8 -12   0   30.20    5.17
   8 -12   0   23.97    4.70
   8  12   0   35.72    6.31
  -8  12   0   36.91    6.39
  10 -12   0   67.03    6.06
 -10 -12   0   59.43    6.49
 -10  12   0   72.61    8.05
  10  12   0   77.68    8.07
  12 -12   0   28.74    4.75
 -12 -12   0   35.09    5.81
  12  12   0   33.21    6.44
 -12  12   0   29.30    6.35
  14 -12   0    4.40    4.15
 -14 -12   0    2.14    4.71
  14  12   0   10.12    5.39
 -14  12   0    5.40    5.46
  16 -12   0   24.62    5.08
 -16 -12   0   41.64    6.51
  16  12   0   22.02    6.14
 -16  12   0   26.37    6.96
 -18 -12   0   18.57    6.10
  18 -12   0   15.64    4.60
  18  12   0   28.45    6.40
  20  12   0    3.58    5.18
  -1 -13   0   10.73    4.22
   1 -13   0    7.76    4.23
  -1  13   0    7.66    5.30
   1  13   0    4.25    4.89
   3 -13   0   -1.88    3.86
  -3 -13   0    0.82    3.85
   3  13   0   -1.63    4.39
  -3  13   0    3.81    4.86
   5 -13   0   18.49    4.57
  -5 -13   0   18.70    4.82
   5  13   0   28.68    6.00
  -5  13   0   30.37    6.40
   7 -13   0   -2.47    3.75
  -7 -13   0    1.89    4.15
   7  13   0    4.26    4.62
  -7  13   0    2.25    5.06
  -9 -13   0   -0.74    4.51
   9 -13   0    2.71    3.91
   9  13   0    1.11    4.65
  -9  13   0   -2.22    5.03
 -11 -13   0    4.26    4.82
  11 -13   0    1.77    3.95
 -11  13   0    6.56    5.58
  11  13   0    7.27    5.03
  13 -13   0   11.16    4.44
 -13 -13   0   12.83    5.46
 -13  13   0    8.27    6.12
  13  13   0    2.89    4.87
  15 -13   0   26.43    5.33
 -15 -13   0   31.80    6.49
  15  13   0   31.96    7.09
 -15  13   0   20.20    6.97
   0 -14   0   29.58    5.53
   0  14   0   32.47    7.00
   2 -14   0   -2.07    4.12
  -2 -14   0    4.25    4.39
   2  14   0    6.79    5.44
  -2  14   0    1.64    5.27
  -4 -14   0    9.79    4.53
   4 -14   0    0.52    4.02
  -4  14   0    4.78    5.45
   4  14   0   -1.80    4.92
   6 -14   0   51.06    6.10
  -6 -14   0   55.23    6.46
   6  14   0   39.39    7.46
  -6  14   0   44.72    7.67
   8 -14   0   90.05    7.57
  -8 -14   0   87.88    7.67
   8  14   0   89.17    9.58
  -8  14   0   85.18    9.41
  10 -14   0  106.40    8.53
  10  14   0   98.84    9.74
 -10  14   0   84.93    9.62
  34   0  -1    3.42    4.97
 -34   0   1    3.98    6.30
 -34   0   1   -5.58    7.11
 -32   0   1   -7.92    5.31
  32   0  -1   -0.80    4.23
 -32   0   1    2.04    6.85
  30   0  -1    0.84    4.19
 -30   0   1   -6.91    5.18
 -30   0   1   -3.32    6.35
  28   0  -1   -4.44    3.67
 -28   0   1   -1.30    5.13
 -28   0   1    2.93    5.91
 -26   0   1   -0.38    5.54
 -26   0   1   -4.15    4.62
  26   0  -1    3.43    3.64
  24   0  -1    3.25    3.72
 -24   0   1    1.81    5.47
 -24   0   1    4.13    4.54
 -24   0   1    5.77    4.90
 -22   0   1   -6.09    4.17
  22   0  -1    0.10    3.21
 -22   0   1    3.62    3.83
 -22   0   1   -1.66    4.83
  20   0  -1    1.98    2.84
  20   0  -1    6.24    3.42
 -20   0   1   -2.02    4.58
 -20   0   1   -0.51    3.39
 -20   0   1   -4.33    3.87
 -18   0   1    2.34    3.29
 -18   0   1    0.31    3.75
  18   0  -1    2.89    2.90
 -18   0   1    1.55    2.97
  18   0  -1   -1.61    2.49
 -16   0   1    0.53    3.10
 -16   0   1   -0.59    2.67
  16   0  -1   -2.00    2.00
 -16   0   1   -2.90    2.82
  16   0  -1   -0.39    2.58
 -14   0   1   -5.74    2.86
  14   0  -1   -4.28    2.05
  14   0  -1   -5.52    2.33
 -14   0   1   -1.87    2.62
 -14   0   1   -8.38    2.43
 -12   0   1   -1.35    2.21
 -12   0   1   -1.25    2.58
  12   0  -1   -1.22    1.87
  12   0  -1   -1.78    1.96
 -12   0   1   -0.07    2.12
  12   0  -1   -1.12    1.82
  10   0  -1   -0.99    1.75
  10   0  -1    0.05    2.04
 -10   0   1   -0.58    2.10
  10   0  -1   -0.86    1.63
 -10   0   1    1.34    2.12
 -10   0   1   -1.79    2.32
  -8   0   1    0.31    2.00
  -8   0   1    0.47    2.44
   8   0  -1   -0.60    1.61
  -8   0   1    1.35    2.08
   8   0  -1   -0.70    1.96
   8   0  -1   -1.01    1.69
  -6   0   1   -0.09    1.51
   6   0  -1    0.10    1.29
  -6   0   1    0.08    1.37
  -6   0   1   -0.55    1.46
   6   0  -1    0.70    1.40
   6   0  -1    0.69    1.20
  -6   0   1   -0.11    1.33
  -4   0   1    0.21    0.78
  -4   0   1   -0.27    0.80
  -4   0   1   -0.83    0.79
   4   0  -1    0.40    0.72
   4   0  -1   -0.66    0.70
   4   0  -1   -0.05    0.79
  -4   0   1    0.15    0.75
   2   0  -1   -0.11    0.39
  -2   0   1   -0.67    0.34
  -2   0   1   -0.77    0.36
   2   0  -1   -0.23    0.45
   2   0  -1   -0.10    0.60
   2   0  -1   -0.41    0.41
  -2   0   1   -0.51    0.36
   0   0   1   -0.16    0.34
   0   0   1   -0.59    0.35
   0   0  -1   -0.23    0.38
   2   0   1    0.36    0.66
  -2   0  -1   -1.59    0.67
  -2   0  -1   -0.78    0.68
  -2   0  -1   -0.31    0.69
  -2   0  -1   -2.19    0.74
  -4   0  -1   -2.03    1.04
  -4   0  -1    0.68    1.38
   4   0   1   -1.29    1.05
   4   0   1   -2.00    1.15
  -4   0  -1   -0.26    1.24
  -4   0  -1   -0.89    1.26
  -4   0  -1   -1.53    1.25
   6   0   1    1.21    1.65
   6   0   1    1.91    1.93
  -6   0  -1    0.31    1.90
  -6   0  -1   -2.45    2.29
  -6   0  -1   -0.64    1.97
   8   0   1    0.82    1.70
   8   0   1   -1.96    1.89
  -8   0  -1   -2.41    2.26
  -8   0  -1   -1.82    1.93
  -8   0  -1   -0.97    1.94
  10   0   1    0.13    1.76
 -10   0  -1   -1.80    2.03
  10   0   1    0.47    2.03
 -10   0  -1   -0.24    2.42
 -10   0  -1   -2.93    1.98
 -12   0  -1   -0.90    2.79
  12   0   1   -5.40    2.40
  12   0   1   -0.48    1.99
 -12   0  -1    3.38    2.48
 -12   0  -1    1.80    2.48
 -14   0  -1    1.63    2.67
 -14   0  -1    1.16    3.13
  14   0   1   -0.51    2.17
 -14   0  -1   -1.26    2.65
 -16   0  -1   -2.03    2.92
 -16   0  -1    0.13    3.62
  16   0   1    3.46    2.67
 -16   0  -1    2.46    3.08
  18   0   1   -4.37    2.72
 -18   0  -1   -1.21    3.70
 -18   0  -1   -0.84    3.45
 -18   0  -1   -7.71    4.01
 -20   0  -1    2.88    5.03
 -20   0  -1    2.55    4.30
 -20   0  -1   -0.58    3.89
  20   0   1   -0.91    3.07
 -22   0  -1    7.25    5.30
 -22   0  -1    0.56    4.29
 -22   0  -1   -0.26    4.51
  22   0   1   -3.24    3.26
 -24   0  -1   -2.20    5.24
  24   0   1   -3.16    3.36
 -24   0  -1   -3.28    4.41
 -24   0  -1    1.47    4.93
 -26   0  -1   10.38    5.07
 -26   0  -1    5.14    5.68
  26   0   1   -4.22    3.62
  28   0   1    1.14    4.23
 -28   0  -1   -1.92    5.76
 -28   0  -1    0.71    5.32
 -30   0  -1   -6.16    6.20
 -30   0  -1   -2.19    5.29
  30   0   1    2.02    4.47
  32   0   1    4.06    4.87
 -32   0  -1   -9.92    6.98
 -32   0  -1   -9.20    5.31
  35  -1  -1   22.53    6.24
 -35  -1   1   29.98    7.30
 -35   1   1   16.54    7.09
  35   1  -1   19.39    6.04
 -35   1   1   24.22    8.41
 -33  -1   1   -3.48    6.88
  33  -1  -1   -0.36    4.39
 -33  -1   1    5.70    6.13
 -33   1   1    0.37    6.97
  33   1  -1    8.84    5.08
 -33   1   1   -1.84    5.81
 -31  -1   1   16.90    7.32
  31  -1  -1   17.31    5.10
 -31  -1   1   21.39    6.51
  31   1  -1   12.97    4.85
 -31   1   1    9.87    5.73
 -31   1   1   12.78    6.83
 -29  -1   1    0.31    5.17
 -29  -1   1   -2.39    6.29
  29  -1  -1    2.55    4.28
 -29   1   1   -6.13    6.06
 -29   1   1    7.55    5.46
  29   1  -1    3.82    4.22
 -27  -1   1    1.31    4.77
  27  -1  -1    2.21    4.15
 -27  -1   1   -1.95    5.85
  27  -1  -1   -5.61    3.48
 -27   1   1    0.26    4.69
  27   1  -1    0.60    3.69
 -27   1   1    1.71    5.61
 -25  -1   1   19.30    5.54
 -25  -1   1   30.42    6.57
  25  -1  -1   19.50    4.78
  25  -1  -1   27.39    4.70
 -25   1   1   33.55    6.10
 -25   1   1   30.43    5.81
 -25   1   1   20.66    4.66
  25   1  -1   24.71    4.58
  23  -1  -1   33.35    4.82
  23  -1  -1   36.72    5.32
 -23  -1   1   35.40    6.52
 -23  -1   1   35.36    5.87
 -23   1   1   43.05    6.38
 -23   1   1   33.26    5.63
  23   1  -1   37.52    4.90
 -23   1   1   38.00    5.40
  21  -1  -1    3.82    3.55
 -21  -1   1    0.41    4.61
  21  -1  -1    6.58    3.27
 -21  -1   1   10.76    3.86
 -21  -1   1    4.94    4.41
 -21   1   1    8.26    4.35
 -21   1   1    2.00    4.69
  21   1  -1    2.62    3.27
 -21   1   1    7.40    3.99
  19  -1  -1    5.29    3.27
  19  -1  -1    1.48    2.84
  19  -1  -1    2.75    3.02
 -19  -1   1    2.17    3.81
 -19  -1   1    8.24    3.46
 -19  -1   1    4.55    4.40
  19   1  -1    5.13    2.95
 -19   1   1   -1.84    3.23
 -19   1   1    8.17    3.78
 -19   1   1    0.86    3.96
 -17  -1   1   13.54    3.57
  17  -1  -1   20.52    3.13
 -17  -1   1   20.70    4.13
 -17  -1   1   17.45    3.40
  17  -1  -1   18.09    3.55
  17  -1  -1   20.44    3.24
 -17   1   1   18.72    3.92
  17   1  -1   20.07    3.20
 -17   1   1   22.10    3.63
 -17   1   1   16.95    3.39
 -15  -1   1  279.52    8.96
  15  -1  -1  261.84    8.15
 -15  -1   1  276.93    8.15
  15  -1  -1  265.96    8.36
  15  -1  -1  272.01    7.67
 -15  -1   1  262.85    8.61
 -15   1   1  267.20    8.64
 -15   1   1  272.55    8.23
  15   1  -1  267.46    8.12
 -15   1   1  259.84    8.57
  13  -1  -1  179.45    6.26
 -13  -1   1  181.23    6.71
 -13  -1   1  186.50    6.83
  13  -1  -1  191.47    5.94
  13  -1  -1  188.92    6.59
 -13  -1   1  194.36    6.32
 -13   1   1  188.31    6.68
 -13   1   1  192.96    6.93
  13   1  -1  185.12    6.27
 -13   1   1  202.16    6.49
 -11  -1   1  437.54   10.35
  11  -1  -1  436.38    9.45
 -11  -1   1  427.66    9.85
  11  -1  -1  443.10   10.16
  11  -1  -1  418.46   10.03
 -11  -1   1  426.04   10.40
 -11   1   1  429.42    9.91
 -11   1   1  437.88   10.30
 -11   1   1  431.69   10.20
  11   1  -1  426.77    9.98
   9  -1  -1   66.62    3.84
   9  -1  -1   66.95    3.48
   9  -1  -1   57.73    3.37
  -9  -1   1   66.24    3.87
  -9  -1   1   72.83    4.34
   9   1  -1   68.39    3.47
  -9   1   1   62.99    3.82
  -9   1   1   61.89    3.77
  -9   1   1   66.07    4.26
  -7  -1   1    7.56    2.08
   7  -1  -1    9.18    1.98
  -7  -1   1    7.94    2.38
   7  -1  -1   14.47    2.24
   7  -1  -1    9.17    1.83
   7   1  -1   11.76    2.13
   7   1  -1   11.21    1.88
  -7   1   1    6.50    2.33
  -7   1   1   11.75    2.12
  -7   1   1    9.91    2.24
   5  -1  -1   14.25    1.59
  -5  -1   1   15.62    1.45
   5  -1  -1   13.08    1.43
  -5  -1   1   15.08    1.47
   5  -1  -1   13.76    1.35
  -5   1   1   14.02    1.54
  -5   1   1   12.89    1.65
  -5   1   1   12.88    1.60
  -5   1   1   16.64    1.58
   5   1  -1   14.54    1.34
   3  -1  -1    6.53    1.03
  -3  -1   1    9.20    0.80
   3  -1  -1    9.63    0.95
  -3  -1   1    7.81    0.73
   3  -1  -1    7.50    0.94
  -3   1   1    6.46    0.91
  -3   1   1    6.54    1.28
  -3   1   1    9.53    1.01
  -3   1   1   10.51    1.08
  -3   1   1    6.77    1.00
   3   1  -1    7.76    0.97
   3   1  -1    7.68    0.71
  -3   1   1    9.89    1.05
   1  -1  -1   82.05    2.11
   1  -1  -1   85.80    2.32
   1  -1  -1   78.62    2.26
   1   1  -1   83.42    2.36
  -1   1   1   81.25    2.23
  -1   1   1   79.62    2.17
  -1   1   1   83.23    2.36
  -1  -1  -1  148.18    3.45
  -1  -1  -1  152.32    3.57
  -1  -1  -1  150.90    3.55
   1   1   1  151.99    3.42
   1   1   1  147.92    3.42
  -1   1  -1  143.43    3.66
   1   1   1  144.12    3.50
  -3  -1  -1   16.08    1.55
  -3  -1  -1   15.47    1.51
   3  -1   1   14.67    1.18
  -3  -1  -1   16.65    1.75
   3   1   1   16.70    1.47
  -3   1  -1   16.82    1.25
   5  -1   1    4.55    1.50
  -5  -1  -1    6.56    2.02
  -5  -1  -1    2.67    2.23
  -5  -1  -1    5.52    1.95
   5   1   1    2.97    1.66
  -5   1  -1    4.72    1.71
  -7  -1  -1  506.20   11.04
  -7  -1  -1  479.93   10.81
   7  -1   1  500.06    9.96
  -7  -1  -1  498.60   10.60
   7  -1   1  489.41   10.43
   7   1   1  481.78   10.63
  -7   1  -1  480.54   10.44
  -7   1  -1  505.26   10.31
  -7   1  -1  499.00   10.56
  -7   1  -1  500.99   10.37
  -9  -1  -1  109.44    4.82
  -9  -1  -1  113.10    4.69
  -9  -1  -1  114.95    5.21
   9  -1   1  115.31    4.62
   9  -1   1  114.13    4.15
   9  -1   1  107.16    4.39
  -9   1  -1  115.40    4.54
  -9   1  -1  109.52    4.90
  -9   1  -1  103.20    4.54
  -9   1  -1  108.85    4.60
   9   1   1  103.69    4.45
  11  -1   1 1712.19   32.75
  11  -1   1 1724.48   31.85
 -11  -1  -1 1752.52   32.63
 -11  -1  -1 1738.61   33.00
  11  -1   1 1776.49   32.81
 -11  -1  -1 1733.33   33.03
 -11   1  -1 1753.98   32.44
  11   1   1 1771.31   33.00
 -11   1  -1 1750.37   32.71
 -11   1  -1 1759.41   32.52
 -11   1  -1 1752.13   32.71
 -13  -1  -1  367.73   10.24
 -13  -1  -1  348.37    9.94
  13  -1   1  352.56    9.51
  13  -1   1  349.59    8.80
 -13  -1  -1  332.31    9.45
  13  -1   1  363.96    9.57
 -13   1  -1  361.47    9.72
 -13   1  -1  353.23    9.84
  13   1   1  336.80    9.56
 -13   1  -1  330.07    9.17
 -13   1  -1  366.91    9.57
  15  -1   1  151.62    5.97
  15  -1   1  146.31    6.35
 -15  -1  -1  160.88    7.62
 -15  -1  -1  150.17    6.71
  15  -1   1  169.79    6.73
 -15  -1  -1  165.39    7.24
 -15   1  -1  159.66    6.52
 -15   1  -1  158.20    6.86
 -15   1  -1  157.77    7.20
 -15   1  -1  156.45    6.82
  15   1   1  150.95    6.55
  17  -1   1   64.02    5.05
  17  -1   1   62.17    5.02
 -17  -1  -1   60.38    5.39
 -17  -1  -1   67.17    5.17
 -17  -1  -1   53.56    5.57
 -17   1  -1   73.95    5.46
 -17   1  -1   63.66    4.82
  17   1   1   58.56    4.79
 -17   1  -1   60.92    5.45
 -17   1  -1   63.68    5.10
 -19  -1  -1  108.20    7.77
  19  -1   1  119.22    7.22
  19  -1   1  116.12    6.77
 -19  -1  -1  119.63    7.34
 -19  -1  -1  101.96    7.42
  19   1   1  122.79    6.88
 -19   1  -1  118.84    7.56
 -19   1  -1  117.19    7.16
 -19   1  -1  112.79    7.47
 -19   1  -1  106.64    8.17
  21  -1   1    0.46    3.31
 -21  -1  -1   10.73    4.77
  21  -1   1    1.00    3.70
 -21  -1  -1    1.88    4.18
 -21  -1  -1    0.72    5.21
 -21   1  -1   -2.42    5.02
 -21   1  -1   -2.03    3.87
 -21   1  -1   -3.72    4.20
  21   1   1   -1.81    3.36
 -21   1  -1   -4.29    4.17
  23  -1   1   24.60    4.72
 -23  -1  -1   26.50    6.44
 -23  -1  -1   29.31    5.53
 -23   1  -1   26.30    5.51
 -23   1  -1   12.49    5.63
  23   1   1   20.73    4.45
 -23   1  -1   23.88    5.15
 -25  -1  -1   -4.69    4.40
  25  -1   1    1.50    3.60
 -25  -1  -1   -3.53    5.43
  25   1   1   -2.49    3.62
 -25   1  -1   -0.65    5.07
 -25   1  -1    4.61    4.44
 -25   1  -1   -2.40    4.24
 -27  -1  -1   11.90    6.33
  27  -1   1   11.73    4.58
 -27  -1  -1    1.54    5.35
 -27   1  -1    7.29    5.01
  27   1   1   11.34    4.59
 -27   1  -1   11.51    5.92
 -29  -1  -1    1.07    5.25
 -29  -1  -1   -5.75    6.04
  29  -1   1    7.76    4.47
 -29   1  -1    2.54    6.01
 -29   1  -1    1.88    5.23
  29   1   1    0.85    4.29
 -31  -1  -1  -12.96    4.94
 -31  -1  -1    3.34    6.84
  31  -1   1   -1.54    4.69
 -31   1  -1    4.45    6.77
  31   1   1   -4.77    4.54
 -31   1  -1   -3.20    5.21
 -33  -1  -1   14.77    8.32
  33  -1   1   24.23    6.31
 -33  -1  -1   22.37    7.28
 -33   1  -1    8.59    7.93
  33   1   1   29.72    6.55
 -34  -2   1    6.79    6.45
  34  -2  -1    3.90    5.13
  34   2  -1    9.60    5.19
 -34   2   1   -5.56    6.81
 -32  -2   1    1.51    6.02
  32  -2  -1    4.65    4.75
 -32   2   1    2.30    6.54
  32   2  -1    6.09    4.74
 -32   2   1   -8.49    5.08
 -30  -2   1    1.30    5.59
 -30  -2   1    3.15   11.19
  30  -2  -1    1.94    4.39
 -30   2   1   -1.67    5.93
 -30   2   1    2.25    5.33
  30   2  -1    0.77    4.05
 -28  -2   1    0.65    6.10
  28  -2  -1   -0.69    3.89
 -28  -2   1   -3.91    5.08
 -28   2   1   -3.38    5.70
  28   2  -1    4.74    4.20
 -28   2   1   -0.03    4.83
 -26  -2   1    6.56    4.88
  26  -2  -1    1.54    3.72
 -26  -2   1   11.74    6.07
 -26   2   1    1.14    5.30
 -26   2   1    2.44    4.63
  26   2  -1    8.01    3.99
 -26   2   1    1.11    4.60
  24  -2  -1    8.45    4.40
  24  -2  -1   -0.27    3.87
 -24  -2   1   -0.22    5.71
 -24  -2   1   -4.86    4.63
  24  -2  -1    0.21    3.81
 -24   2   1    6.04    4.48
 -24   2   1    5.48    5.49
 -24   2   1    6.27    4.94
  24   2  -1   -1.34    3.36
  22  -2  -1    4.35    3.79
  22  -2  -1    9.01    3.80
 -22  -2   1   10.99    5.48
 -22  -2   1    2.52    4.52
  22  -2  -1    3.80    4.08
 -22   2   1    6.84    4.58
 -22   2   1    7.27    4.31
 -22   2   1   16.39    5.14
  22   2  -1    9.67    3.58
 -22   2   1    2.08    3.89
 -20  -2   1    6.61    4.63
 -20  -2   1   -4.76    3.81
 -20  -2   1    3.67    3.47
  20  -2  -1   -0.23    3.50
  20  -2  -1    2.11    3.00
  20  -2  -1    3.19    3.17
 -20   2   1    1.76    4.62
 -20   2   1    5.94    3.71
  20   2  -1    0.19    2.95
 -20   2   1    1.58    3.38
 -20   2   1    1.45    3.95
  18  -2  -1   30.91    3.66
 -18  -2   1   20.80    3.60
 -18  -2   1   25.68    4.82
  18  -2  -1   23.32    3.51
 -18  -2   1   25.84    4.37
  18  -2  -1   26.45    4.03
 -18   2   1   26.61    4.11
 -18   2   1   28.42    4.50
 -18   2   1   25.96    3.77
 -18   2   1   22.21    3.80
  18   2  -1   26.25    3.59
  16  -2  -1   33.87    3.68
 -16  -2   1   36.87    4.12
  16  -2  -1   36.41    3.33
 -16  -2   1   24.24    5.26
 -16  -2   1   32.26    4.23
  16  -2  -1   28.92    3.66
 -16   2   1   32.20    3.69
 -16   2   1   30.61    4.06
  16   2  -1   32.33    3.40
 -16   2   1   28.75    3.79
 -16   2   1   32.19    3.51
  14  -2  -1   81.37    4.69
  14  -2  -1  111.33    5.37
 -14  -2   1   89.93    5.89
 -14  -2   1   89.82    5.53
  14  -2  -1   97.34    4.75
 -14   2   1   99.79    5.14
 -14   2   1   98.84    5.61
  14   2  -1   85.63    4.85
 -14   2   1   89.20    5.19
  14   2  -1   90.25    4.64
 -14   2   1   85.23    4.91
  12  -2  -1  328.53    7.95
 -12  -2   1  328.87    8.83
 -12  -2   1  319.72    8.83
  12  -2  -1  319.93    8.61
  12  -2  -1  320.05    8.49
  12   2  -1  313.24    8.31
  12   2  -1  320.02    8.28
 -12   2   1  324.17    8.71
 -12   2   1  319.75    8.36
 -12   2   1  325.10    8.64
 -12   2   1  332.62    8.44
 -10  -2   1  219.35    6.70
  10  -2  -1  215.07    6.23
  10  -2  -1  211.62    6.34
 -10  -2   1  210.19    6.45
  10  -2  -1  227.74    5.92
 -10   2   1  222.85    6.30
 -10   2   1  216.48    6.51
  10   2  -1  214.06    6.13
 -10   2   1  211.07    6.19
 -10   2   1  215.11    6.40
  10   2  -1  207.58    5.97
  -8  -2   1  293.25    7.33
   8  -2  -1  287.36    7.20
   8  -2  -1  298.34    6.80
   8  -2  -1  295.74    7.40
  -8   2   1  292.01    7.25
   8   2  -1  299.22    7.06
  -8   2   1  297.07    7.35
  -8   2   1  296.65    7.19
  -8   2   1  293.92    7.39
   8   2  -1  299.17    7.02
   6  -2  -1   93.74    3.70
   6  -2  -1   95.20    3.70
  -6  -2   1   93.05    3.72
   6  -2  -1   93.39    5.34
  -6   2   1   92.25    3.51
  -6   2   1   89.86    4.13
   6   2  -1   88.24    3.27
  -6   2   1   91.50    3.86
  -6   2   1   92.54    3.89
  -6   2   1   97.51    4.13
  -6   2   1   89.93    3.85
   4  -2  -1   26.67    1.94
   4  -2  -1   31.32    1.93
  -4  -2   1   28.59    2.05
  -4  -2   1   28.63    2.01
  -4   2   1   30.99    2.13
  -4   2   1   29.52    2.40
  -4   2   1   34.35    2.19
  -4   2   1   30.54    2.10
  -4   2   1   26.98    2.04
   4   2  -1   34.74    2.44
   2  -2  -1 7347.42  127.18
  -2   2   1 7349.98  127.07
  -2   2   1 7582.95  127.36
   0  -2  -1 3281.70   56.84
   0   2   1 3307.50   56.65
   0   2   1 3255.80   56.69
   0   2   1 3289.41   56.84
   0   2   1 3233.14   56.62
   0   2  -1 3368.63   57.36
   0   2   1 3214.10   56.71
  -2  -2  -1 2153.17   37.64
  -2  -2  -1 2146.16   37.61
  -2   2  -1 2133.49   38.04
   2   2   1 2105.93   37.40
   2   2   1 2121.56   37.57
   2   2   1 2132.91   37.49
   4  -2   1  432.26    8.67
  -4  -2  -1  451.50    9.74
  -4  -2  -1  437.63    9.56
   4   2   1  445.44    9.43
   4   2   1  435.83    9.26
   4   2   1  448.54    9.58
  -4   2  -1  446.00    9.78
  -6  -2  -1  115.66    5.16
  -6  -2  -1  125.22    4.61
  -6  -2  -1  127.36    4.79
   6  -2   1  127.03    4.02
  -6   2  -1  128.35    4.02
   6   2   1  123.78    4.43
  -8  -2  -1   23.03    2.53
  -8  -2  -1   22.01    2.66
  -8  -2  -1   25.78    3.07
   8  -2   1   19.17    2.20
  -8   2  -1   17.21    2.22
   8   2   1   19.47    2.38
  10  -2   1  152.44    5.29
 -10  -2  -1  140.15    5.77
  10  -2   1  154.60    4.88
 -10  -2  -1  155.63    6.30
 -10  -2  -1  153.83    5.63
 -10   2  -1  146.87    5.29
  10   2   1  159.57    5.58
 -12  -2  -1   46.82    4.40
 -12  -2  -1   45.20    3.90
 -12  -2  -1   50.83    3.85
  12  -2   1   43.86    3.52
  12  -2   1   48.37    3.25
  12  -2   1   56.29    4.32
 -12   2  -1   45.00    3.53
  12   2   1   44.25    3.65
 -12   2  -1   42.75    3.57
 -14  -2  -1    4.96    2.75
  14  -2   1    4.46    2.41
  14  -2   1   -2.15    2.04
 -14  -2  -1   -3.03    2.73
  14  -2   1    2.75    2.56
 -14  -2  -1    0.03    3.36
 -14   2  -1   -0.14    2.63
  14   2   1    0.33    2.34
 -14   2  -1   -1.42    2.87
 -14   2  -1   -4.93    2.56
 -16  -2  -1    9.82    3.67
 -16  -2  -1   10.45    4.18
 -16  -2  -1    6.15    3.25
  16  -2   1    8.96    3.47
  16  -2   1    9.14    2.91
  16  -2   1    6.18    2.83
  16   2   1    8.33    2.81
 -16   2  -1    6.98    3.58
 -16   2  -1   11.34    3.37
 -16   2  -1   12.77    3.65
 -18  -2  -1   13.33    4.35
 -18  -2  -1   16.16    4.93
  18  -2   1   22.30    3.82
  18  -2   1   11.63    3.87
  18  -2   1   16.41    3.51
 -18  -2  -1   10.35    3.90
 -18   2  -1   13.34    4.44
 -18   2  -1   15.97    3.71
  18   2   1   16.43    3.58
 -18   2  -1   10.76    3.94
 -18   2  -1   16.41    4.10
 -20  -2  -1   42.67    6.15
  20  -2   1   45.26    4.98
  20  -2   1   41.62    5.09
  20  -2   1   51.81    4.79
 -20  -2  -1   47.81    5.27
 -20  -2  -1   42.54    5.63
 -20   2  -1   44.93    5.60
 -20   2  -1   58.94    5.88
 -20   2  -1   40.10    4.87
  20   2   1   40.25    4.82
 -20   2  -1   39.85    5.21
 -22  -2  -1   89.80    7.97
  22  -2   1   81.73    6.56
 -22  -2  -1   66.04    6.72
 -22   2  -1   75.29    6.67
 -22   2  -1   63.08    6.77
 -22   2  -1   58.57    7.83
 -22   2  -1   63.40    6.30
  22   2   1   65.39    5.99
  24  -2   1    2.10    3.67
 -24  -2  -1   10.54    4.88
 -24  -2  -1   14.91    5.77
 -24   2  -1   11.70    5.09
 -24   2  -1    2.83    4.35
  24   2   1    3.31    3.87
 -24   2  -1   -4.17    4.33
 -26  -2  -1  100.35    8.88
  26  -2   1   86.81    7.34
 -26  -2  -1   89.13    7.97
 -26   2  -1   95.19    7.56
  26   2   1   83.72    7.29
 -26   2  -1   77.22    7.41
 -26   2  -1   70.40    7.11
 -28  -2  -1   -2.66    6.20
  28  -2   1    0.95    4.10
 -28  -2  -1    7.15    5.45
  28   2   1    0.28    4.38
 -28   2  -1   -1.74    4.91
 -30  -2  -1   -2.08    5.39
 -30  -2  -1    0.62    6.88
  30  -2   1   -1.89    4.23
  30   2   1   -1.44    4.42
 -32  -2  -1   21.32    8.08
  32  -2   1   23.98    6.20
 -32  -2  -1   23.09    7.07
  32   2   1   27.48    6.10
 -33  -3   1  116.70   10.23
  33  -3  -1  137.72   10.54
 -33   3   1  119.25   10.41
  33   3  -1  132.21    9.92
 -31  -3   1   -4.95    5.68
  31  -3  -1    2.40    4.58
  31   3  -1    9.91    4.63
 -31   3   1    4.02    6.28
 -31   3   1    2.87    5.44
 -29  -3   1   12.61    5.85
  29  -3  -1    8.31    4.55
  29   3  -1   16.34    4.89
 -29   3   1   15.13    6.53
 -29   3   1   11.08    5.36
 -27  -3   1    8.95    5.29
  27  -3  -1    8.21    4.26
  27  -3  -1    2.20    4.00
 -27   3   1    1.03    5.36
  27   3  -1    4.05    3.79
 -27   3   1    2.22    4.88
 -27   3   1    1.82    4.53
 -25  -3   1   12.68    5.30
  25  -3  -1   14.21    4.39
  25  -3  -1   14.39    4.15
 -25  -3   1   10.24    6.00
 -25   3   1   13.30    5.46
 -25   3   1   10.09    4.94
 -25   3   1   14.39    5.14
  25   3  -1   10.02    4.06
 -23  -3   1   37.96    5.98
 -23  -3   1   37.53    6.74
  23  -3  -1   34.85    6.50
  23  -3  -1   30.49    4.92
  23  -3  -1   42.63    5.08
 -23   3   1   37.20    5.95
 -23   3   1   47.49    5.69
 -23   3   1   43.00    5.83
  23   3  -1   37.77    4.96
  21  -3  -1   46.38    4.76
  21  -3  -1   53.22    5.26
  21  -3  -1   41.36    5.20
 -21  -3   1   53.22    6.55
 -21  -3   1   57.77    6.10
 -21   3   1   49.20    5.84
 -21   3   1   53.93    5.11
  21   3  -1   48.36    4.98
 -21   3   1   59.00    5.87
  21   3  -1   47.46    4.88
 -21   3   1   57.00    5.47
  19  -3  -1   -2.78    3.01
 -19  -3   1   -2.78    4.25
 -19  -3   1    0.87    3.88
  19  -3  -1    2.30    3.47
  19  -3  -1   -0.27    2.84
  19   3  -1    3.41    3.05
 -19   3   1   -2.20    3.36
 -19   3   1    0.08    4.08
  19   3  -1    0.98    2.78
 -19   3   1   -0.37    3.61
 -19   3   1    1.34    3.23
 -17  -3   1   20.29    3.95
 -17  -3   1   18.73    4.27
  17  -3  -1   16.57    3.45
  17  -3  -1   11.27    3.11
  17  -3  -1   12.67    3.17
 -17   3   1   13.47    3.86
  17   3  -1   18.25    3.21
  17   3  -1   14.28    3.10
 -17   3   1   15.03    3.42
 -17   3   1    9.65    3.26
 -17   3   1   20.54    3.67
 -15  -3   1  136.33    7.14
  15  -3  -1  146.05    6.09
  15  -3  -1  144.18    6.37
  15  -3  -1  139.89    5.78
 -15  -3   1  141.44    6.76
  15   3  -1  142.59    5.80
  15   3  -1  149.90    6.00
 -15   3   1  142.67    6.19
 -15   3   1  139.59    6.25
 -15   3   1  144.94    6.68
 -13  -3   1  179.88    7.08
  13  -3  -1  168.71    6.29
  13  -3  -1  172.94    5.93
  13  -3  -1  184.22    6.54
 -13  -3   1  172.68    6.73
 -13   3   1  171.82    6.41
 -13   3   1  182.12    6.65
 -13   3   1  171.26    6.18
  13   3  -1  182.98    6.08
 -13   3   1  177.82    6.45
  11  -3  -1  171.18    5.68
  11  -3  -1  163.06    5.31
  11  -3  -1  152.92    6.11
 -11  -3   1  165.30    6.08
  11   3  -1  160.34    5.37
  11   3  -1  165.40    5.52
 -11   3   1  163.06    5.68
 -11   3   1  165.67    5.77
   9  -3  -1   13.66    2.11
  -9  -3   1   13.24    2.34
   9  -3  -1   13.15    2.04
  -9   3   1   13.15    2.28
  -9   3   1   13.88    2.25
  -9   3   1   11.40    2.17
   9   3  -1   13.86    1.97
  -7  -3   1   10.12    2.10
   7  -3  -1    5.67    1.78
  -7   3   1    7.58    1.95
  -7   3   1    7.98    1.97
   7   3  -1    5.67    1.50
  -5  -3   1  395.08    8.36
   5  -3  -1  399.63    8.81
   5   3  -1  398.51    9.38
  -5   3   1  397.62    8.59
  -5   3   1  401.29    9.02
   3  -3  -1 1311.44   24.24
   3   3  -1 1323.05   25.00
  -3   3   1 1337.40   24.01
  -3   3   1 1340.96   24.69
   1  -3  -1    4.42    1.82
  -1   3   1    0.07    1.33
   1   3  -1   -0.74    1.91
  -1   3   1   -1.07    1.98
  -1  -3  -1  114.87    4.22
   1   3   1  122.68    4.03
  -1   3  -1  119.05    4.63
  -3  -3  -1  249.77    6.38
  -3   3  -1  247.28    6.83
   3   3   1  235.57    6.16
   3   3   1  245.11    5.97
  -5  -3  -1   63.85    4.12
   5  -3   1   59.30    2.66
  -5  -3  -1   55.40    3.67
   5   3   1   61.29    3.27
  -5   3  -1   61.14    3.79
   5   3   1   55.48    3.36
   5   3   1   57.12    3.60
   5   3   1   56.89    3.89
  -7  -3  -1  649.92   13.84
  -7  -3  -1  633.77   13.68
   7  -3   1  633.95   12.98
  -7   3  -1  648.95   12.57
   7   3   1  655.64   13.61
   7   3   1  650.33   13.33
   7   3   1  649.95   13.55
  -9  -3  -1  261.13    7.85
   9  -3   1  260.93    6.94
  -9  -3  -1  253.83    7.61
   9   3   1  247.29    7.29
   9   3   1  247.94    7.20
  -9   3  -1  259.01    6.64
 -11  -3  -1   83.49    5.13
 -11  -3  -1   80.22    5.72
  11  -3   1   83.32    4.31
 -11   3  -1   79.62    4.40
  11   3   1   76.34    4.47
  11   3   1   88.12    7.28
 -13  -3  -1   50.48    4.84
 -13  -3  -1   48.54    4.11
  13  -3   1   45.28    3.75
  13  -3   1   56.47    3.69
 -13  -3  -1   56.50    4.57
 -13   3  -1   59.30    4.45
  13   3   1   51.65    4.09
 -15  -3  -1   76.27    5.97
 -15  -3  -1   87.82    6.21
  15  -3   1   86.32    5.30
 -15  -3  -1   85.63    5.81
 -15   3  -1   89.69    5.47
  15   3   1   90.12    5.46
 -15   3  -1   98.27    5.84
  17  -3   1   87.32    6.28
  17  -3   1   90.80    5.70
 -17  -3  -1   94.59    7.22
  17  -3   1  102.98    6.09
 -17  -3  -1   93.30    6.72
 -17  -3  -1  100.37    8.00
 -17   3  -1   94.80    6.55
 -17   3  -1   92.72    6.46
  17   3   1  100.31    6.19
 -19  -3  -1   18.12    5.58
  19  -3   1   28.09    4.56
 -19  -3  -1   26.21    4.87
  19  -3   1   15.52    3.82
  19  -3   1   23.60    3.95
 -19  -3  -1   21.96    4.64
  19   3   1   25.43    4.25
 -19   3  -1   30.80    4.74
 -19   3  -1   20.09    4.38
 -21  -3  -1  155.43   10.58
  21  -3   1  125.59    7.35
 -21  -3  -1  142.71    9.17
  21  -3   1  136.53    8.03
 -21   3  -1  154.34    8.81
 -21   3  -1  154.56    8.50
  21   3   1  142.85    8.17
 -23  -3  -1   48.93    6.60
  23  -3   1   49.89    5.55
 -23  -3  -1   43.20    6.89
  23  -3   1   50.26    6.54
 -23   3  -1   53.09    5.82
  23   3   1   47.94    5.54
 -23   3  -1   46.42    5.88
  25  -3   1    2.30    3.86
 -25  -3  -1    3.35    5.80
 -25  -3  -1    4.82    4.82
  25   3   1    9.08    4.10
 -25   3  -1   -6.33    4.64
 -25   3  -1    3.06    4.26
 -27  -3  -1    3.44    5.21
 -27  -3  -1   -3.22    6.05
  27  -3   1   -0.35    3.92
  27   3   1    3.45    4.17
 -27   3  -1   -3.54    4.91
 -27   3  -1    6.41    5.30
  29  -3   1    3.41    4.32
 -29  -3  -1    2.78    5.55
  29   3   1   -2.45    4.15
 -31  -3  -1    2.53    5.96
  31  -3   1   -0.64    4.64
  31   3   1    1.44    4.59
  33  -3   1   -1.62    4.91
 -33  -3  -1   -1.09    6.66
  33   3   1    0.99    5.08
 -34  -4   1   33.67    7.97
  34  -4  -1   31.13    6.54
  32  -4  -1    3.95    4.83
 -32  -4   1    5.71    5.99
  32   4  -1    4.13    4.48
 -30  -4   1   64.97    8.18
  30  -4  -1   79.51    7.75
  30   4  -1   74.99    7.16
 -28  -4   1   -0.14    5.38
  28  -4  -1   -0.99    4.12
  28   4  -1   -1.92    3.89
 -28   4   1    6.45    5.06
 -28   4   1   -4.81    6.04
  26  -4  -1  128.08    8.47
 -26  -4   1  133.44    9.93
  26   4  -1  148.11    8.43
 -26   4   1  130.60    8.95
 -26   4   1  145.84    9.40
 -24  -4   1   22.08    5.63
  24  -4  -1   19.87    4.34
  24  -4  -1   18.81    4.48
  24   4  -1   23.36    4.37
 -24   4   1   13.92    4.71
 -24   4   1   16.50    4.88
  22  -4  -1   13.18    4.23
  22  -4  -1   13.46    4.19
 -22  -4   1   11.83    5.29
 -22  -4   1    4.33    6.20
 -22   4   1   11.23    4.60
  22   4  -1   13.70    4.05
 -22   4   1   12.24    4.85
  20  -4  -1  340.63   10.59
  20  -4  -1  361.12   11.53
  20  -4  -1  330.88   11.34
 -20  -4   1  349.38   12.08
 -20  -4   1  363.01   12.79
  20   4  -1  352.05   10.91
  20   4  -1  331.22   10.68
 -20   4   1  337.95   11.22
 -20   4   1  365.44   11.47
  18  -4  -1    2.62    3.03
  18  -4  -1    7.96    3.62
 -18  -4   1    5.87    4.52
  18  -4  -1   -1.43    3.03
 -18  -4   1    0.40    3.75
 -18   4   1    4.82    3.70
 -18   4   1    5.67    3.65
  18   4  -1    4.49    2.94
  18   4  -1    6.24    3.14
  16  -4  -1   28.14    3.53
 -16  -4   1   30.79    4.71
  16  -4  -1   27.26    3.55
 -16  -4   1   35.15    4.33
  16  -4  -1   34.15    3.97
 -16   4   1   33.56    4.05
 -16   4   1   27.46    3.89
  16   4  -1   31.71    3.43
 -14  -4   1   54.00    4.73
 -14  -4   1   51.65    4.44
  14  -4  -1   54.18    4.37
 -14   4   1   58.71    4.63
 -14   4   1   57.95    4.25
  14   4  -1   51.37    3.96
  14   4  -1   58.85    4.11
 -12  -4   1   80.15    4.98
  12  -4  -1   72.42    4.45
 -12   4   1   71.03    4.50
  12   4  -1   73.02    4.03
 -12   4   1   74.43    4.74
  10  -4  -1  212.13    6.65
 -10  -4   1  211.61    6.77
 -10   4   1  206.67    6.39
 -10   4   1  220.68    6.92
  10   4  -1  218.05    6.07
  -8  -4   1   77.91    3.96
   8  -4  -1   69.81    3.81
  -8   4   1   68.36    3.68
  -8   4   1   78.46    4.16
   8   4  -1   70.04    3.20
  -6  -4   1  137.39    4.47
   6  -4  -1  140.11    4.83
  -6   4   1  140.40    4.51
  -6   4   1  134.55    5.15
   6   4  -1  130.40    5.42
   4  -4  -1    2.48    1.81
  -4  -4   1    4.09    1.50
  -4   4   1    4.67    1.63
   4   4  -1    4.53    2.18
  -4   4   1   -0.03    1.88
   2  -4  -1  101.97    4.02
   2   4  -1  105.54    4.73
  -2   4   1  106.21    3.61
  -2   4   1  100.88    4.53
   0  -4  -1   89.69    3.93
   0   4   1   87.63    4.45
   0   4   1   97.14    3.53
   0   4  -1   98.73    4.62
  -2  -4  -1  639.64   13.20
  -2   4  -1  637.68   14.14
   2   4   1  658.29   13.01
  -4  -4  -1  204.71    6.08
  -4   4  -1  206.63    6.61
  -6  -4  -1  652.05   13.84
   6  -4   1  629.31   12.75
   6   4   1  637.56   13.40
  -6   4  -1  650.18   14.41
  -8  -4  -1   27.41    3.17
   8  -4   1   30.70    2.57
  -8  -4  -1   31.97    3.54
   8   4   1   36.20    3.22
   8   4   1   28.71    2.89
  -8   4  -1   30.64    3.30
   8   4   1   27.94    2.63
  10  -4   1   88.96    4.30
 -10  -4  -1   88.62    5.18
 -10  -4  -1  100.11    5.90
  10   4   1   86.97    4.84
  10   4   1   83.70    4.57
  10   4   1   88.64    4.59
 -12  -4  -1  148.67    7.32
 -12  -4  -1  146.79    6.73
  12  -4   1  164.20    6.01
  12   4   1  153.84    6.04
  12   4   1  152.00    6.14
  12   4   1  145.34    6.28
 -12   4  -1  157.34    5.62
 -14  -4  -1  147.24    7.91
 -14  -4  -1  153.85    7.44
  14  -4   1  141.76    6.21
 -14   4  -1  149.63    6.14
  14   4   1  140.73    6.38
  14   4   1  136.22    6.53
  16  -4   1    3.42    2.91
 -16  -4  -1    0.75    3.69
 -16  -4  -1   -3.44    4.34
 -16   4  -1    0.87    3.12
  16   4   1   -4.58    2.98
  16   4   1    0.92    2.87
 -18  -4  -1  103.56    7.79
  18  -4   1   97.37    6.45
 -18  -4  -1  107.52    8.07
  18  -4   1  105.85    6.55
  18   4   1  105.24    6.63
 -18   4  -1  103.96    6.86
  18   4   1  105.03    6.95
 -18   4  -1  104.66    7.22
  20  -4   1  559.27   15.44
 -20  -4  -1  543.02   16.74
 -20  -4  -1  559.45   16.47
 -20   4  -1  548.69   15.29
  20   4   1  567.20   15.42
 -20   4  -1  572.77   14.93
 -22  -4  -1    2.28    5.56
  22  -4   1   -5.05    3.38
 -22  -4  -1    4.54    4.61
 -22   4  -1    1.35    4.37
  22   4   1   -0.89    3.62
 -22   4  -1   -1.95    3.76
 -24  -4  -1    5.36    9.36
 -24  -4  -1    5.49    4.69
  24  -4   1    4.31    3.74
  24   4   1    3.91    3.91
 -24   4  -1   -2.22    4.15
 -24   4  -1   -0.88    4.32
  26  -4   1   15.23    4.69
 -26  -4  -1    8.90    5.42
  26   4   1    9.11    4.63
 -26   4  -1    8.22    5.11
  28  -4   1   13.93    4.95
 -28  -4  -1   15.10    6.12
 -28   4  -1    2.91    5.82
  28   4   1    7.34    4.53
  30  -4   1    4.69    4.82
 -30  -4  -1    9.37    6.34
  30   4   1    4.87    4.33
 -32  -4  -1   15.43    7.14
  32  -4   1   11.94    5.60
  32   4   1   19.65    5.71
  33  -5  -1   12.51    5.56
 -33  -5   1   29.88    7.48
 -31  -5   1   51.37    7.61
  31  -5  -1   49.73    7.06
  29  -5  -1  131.63    9.53
 -29  -5   1  101.17    9.15
  29   5  -1  116.56    8.63
  27  -5  -1   39.74    5.72
 -27  -5   1   35.92    6.43
  27   5  -1   44.86    5.76
 -27   5   1   28.01    5.69
  25  -5  -1   -8.17    3.40
 -25  -5   1   -0.99    4.93
  25   5  -1   -0.14    3.65
 -25   5   1  -10.76    4.04
 -25   5   1   -3.87    4.45
  23  -5  -1   46.23    5.40
 -23  -5   1   37.86    6.20
 -23   5   1   51.30    5.81
 -23   5   1   47.70    5.60
  23   5  -1   44.78    5.08
  21  -5  -1   10.29    4.03
 -21  -5   1    4.38    4.76
  21   5  -1   10.90    3.83
 -21   5   1   19.83    4.57
 -21   5   1   11.78    4.66
 -19  -5   1   11.69    4.74
  19  -5  -1    1.73    3.16
  19  -5  -1    4.21    3.70
 -19   5   1    8.30    3.92
 -19   5   1    4.40    4.02
  19   5  -1    6.75    3.18
  17  -5  -1   31.62    4.18
 -17  -5   1   35.94    5.37
 -17  -5   1   32.14    4.83
 -17   5   1   32.19    4.24
  17   5  -1   37.90    3.97
 -17   5   1   32.82    4.47
  15  -5  -1    9.55    2.94
  15  -5  -1    6.94    2.97
 -15  -5   1   10.24    3.50
 -15   5   1    8.10    3.42
 -15   5   1   11.68    3.25
  15   5  -1    5.09    2.59
  15   5  -1    3.86    2.81
  13  -5  -1   36.42    3.54
 -13  -5   1   39.50    4.08
  13  -5  -1   30.91    3.36
  13   5  -1   40.12    3.33
 -13   5   1   37.32    3.57
 -13   5   1   34.49    3.81
 -11  -5   1  107.52    5.49
  11  -5  -1  110.04    5.23
  11   5  -1  110.57    4.54
 -11   5   1  107.83    5.66
 -11   5   1  110.58    4.94
  -9  -5   1    2.46    2.28
   9  -5  -1    3.91    2.03
  -9   5   1   -1.51    1.95
  -9   5   1   -4.22    2.18
  -7  -5   1   37.23    3.00
   7  -5  -1   33.43    2.94
  -7   5   1   34.87    3.44
   7   5  -1   30.52    3.63
  -7   5   1   39.16    2.82
  -5  -5   1   41.47    2.92
   5  -5  -1   38.28    2.96
  -5   5   1   27.52    3.16
   5   5  -1   42.23    3.93
   3  -5  -1  285.05    7.46
  -3   5   1  291.18    8.43
   3   5  -1  293.91    8.69
  -3   5   1  300.91    6.83
   1  -5  -1 1531.68   28.81
  -1   5   1 1587.60   30.11
   1   5  -1 1551.53   30.21
  -1  -5  -1 1347.13   26.11
  -1   5  -1 1382.60   27.45
   1   5   1 1404.69   27.48
   1   5   1 1436.00   25.78
  -3  -5  -1   52.31    3.76
  -3   5  -1   56.28    4.36
   3   5   1   56.26    3.38
   5  -5   1  138.59    4.44
  -5  -5  -1  135.77    5.45
  -5   5  -1  142.64    6.05
   5   5   1  143.50    4.93
   7  -5   1  248.96    6.64
  -7  -5  -1  248.86    7.65
   7   5   1  245.46    7.10
  -7   5  -1  245.37    8.19
  -9  -5  -1  559.95   13.48
   9  -5   1  560.40   12.46
   9   5   1  562.06   12.43
  -9   5  -1  579.23   14.20
   9   5   1  573.63   13.11
   9   5   1  544.09   12.73
 -11  -5  -1  105.25    6.58
 -11  -5  -1  109.60    6.16
  11  -5   1  106.67    4.84
  11   5   1   86.26    5.01
  11   5   1  104.62    5.33
 -13  -5  -1   -1.57    3.79
  13  -5   1    0.16    2.39
 -13  -5  -1    3.45    3.28
  13   5   1   -0.59    2.57
  13   5   1    2.59    2.46
 -15  -5  -1    9.19    4.63
 -15  -5  -1   12.20    3.87
  15  -5   1   10.73    3.09
  15   5   1    9.73    3.16
 -15   5  -1    2.76    2.92
  15   5   1    6.65    3.39
  15   5   1    6.97    3.11
 -17  -5  -1   42.34    5.42
 -17  -5  -1   43.11    6.02
  17  -5   1   44.34    4.74
  17   5   1   40.51    4.61
  17   5   1   40.82    4.81
  17   5   1   34.93    4.45
 -17   5  -1   46.93    4.46
 -19  -5  -1    3.67    5.37
 -19  -5  -1    5.92    4.64
  19  -5   1   -4.88    3.40
 -19   5  -1   -1.08    4.20
  19   5   1   -0.34    3.53
 -19   5  -1   -1.59    3.70
  19   5   1    3.17    3.52
  21  -5   1   62.84    5.87
 -21  -5  -1   45.40    6.15
 -21   5  -1   56.06    5.87
  21   5   1   63.35    5.82
 -23  -5  -1   26.74    5.70
  23  -5   1   27.03    4.76
  23   5   1   20.85    4.64
 -23   5  -1   26.13    5.21
  25  -5   1   -2.40    3.79
 -25  -5  -1    8.24    5.50
  25   5   1   -1.65    3.73
 -25   5  -1    2.30    5.08
 -27  -5  -1   -0.63    5.44
  27  -5   1   -1.75    4.30
 -27   5  -1   -0.72    5.03
  27   5   1    0.56    4.16
  29  -5   1   11.43    4.97
 -29  -5  -1    1.76    5.83
  29   5   1   14.78    5.09
 -29   5  -1   14.39    9.59
  31  -5   1   15.51    5.72
 -31  -5  -1   20.77    7.36
  31   5   1   10.17    5.18
  32  -6  -1  123.02    9.97
 -32  -6   1  104.06    9.92
  32   6  -1  130.39    9.32
  30  -6  -1   11.48    5.06
 -30  -6   1    0.29    5.80
  30   6  -1    5.61    4.32
 -28  -6   1   91.30    8.51
  28  -6  -1   88.93    8.13
  28   6  -1   83.92    6.71
 -28   6   1   65.99    7.45
 -26  -6   1   34.39    6.37
  26  -6  -1   39.23    5.89
 -26   6   1   32.77    6.06
  26   6  -1   43.17    5.39
 -24  -6   1   86.40    7.71
  24  -6  -1   79.62    6.98
  24   6  -1   82.75    6.41
 -24   6   1   82.19    6.97
 -22  -6   1  476.57   15.61
  22  -6  -1  502.99   14.91
  22   6  -1  483.15   13.75
 -22   6   1  491.33   14.73
  20  -6  -1    1.68    3.48
 -20  -6   1    2.32    4.58
  20   6  -1    4.25    3.12
 -20   6   1    0.29    3.80
 -20   6   1    0.33    4.51
 -18  -6   1  170.59    9.27
  18  -6  -1  175.36    8.14
 -18   6   1  170.33    8.60
  18   6  -1  168.07    7.30
  16  -6  -1  145.69    7.06
 -16  -6   1  142.82    7.98
  16  -6  -1  148.87    6.77
  16   6  -1  151.27    6.56
 -14  -6   1   26.10    4.31
  14  -6  -1   15.78    3.34
 -14   6   1   21.35    3.41
 -14   6   1   24.78    4.37
  14   6  -1   26.92    3.19
 -12  -6   1   31.67    4.03
  12  -6  -1   33.33    3.74
  12   6  -1   36.34    3.15
 -12   6   1   30.32    4.13
 -12   6   1   31.74    3.37
  10  -6  -1   34.77    3.48
 -10  -6   1   32.01    3.62
 -10   6   1   29.06    3.87
  10   6  -1   35.03    4.32
 -10   6   1   40.07    3.11
  -8  -6   1    5.05    2.38
   8  -6  -1    3.05    2.32
   8   6  -1    3.41    2.78
  -8   6   1    3.32    2.64
  -6  -6   1   43.20    3.23
   6  -6  -1   42.76    3.40
   6   6  -1   34.14    4.09
  -6   6   1   46.31    4.22
   4  -6  -1  122.56    5.24
  -4  -6   1  127.96    4.51
  -4   6   1  115.30    5.94
   4   6  -1  127.93    6.22
   2  -6  -1  103.56    4.74
   2   6  -1  102.56    5.68
  -2   6   1  101.15    5.54
   0  -6  -1    1.30    2.19
   0   6   1    2.38    2.49
   0   6  -1    1.63    2.51
  -2  -6  -1    0.10    2.15
  -2   6  -1   -2.15    2.38
   2   6   1    1.80    1.44
   2   6   1   -0.59    2.68
  -4  -6  -1  474.18   11.37
   4   6   1  459.77   12.57
   4   6   1  494.27   10.63
  -4   6  -1  447.88   12.33
  -6  -6  -1   60.42    4.28
   6  -6   1   54.65    3.55
  -6   6  -1   60.47    4.85
   6   6   1   52.86    3.60
  -8  -6  -1  347.70    9.98
   8  -6   1  351.45    8.93
  -8   6  -1  365.70   10.88
  10  -6   1   49.79    3.73
 -10  -6  -1   45.09    4.55
  10   6   1   51.50    3.94
  10   6   1   42.60    4.08
 -10   6  -1   43.16    4.88
 -12  -6  -1  396.92   12.33
 -12  -6  -1  406.62   12.07
  12  -6   1  406.26   10.82
  12   6   1  414.78   11.48
  12   6   1  415.41   10.98
 -14  -6  -1  219.59    9.37
  14  -6   1  243.76    8.32
 -14  -6  -1  226.30   10.10
  14   6   1  233.36    8.56
  16  -6   1  330.21   10.75
 -16  -6  -1  346.48   12.10
  16   6   1  347.94   10.52
  16   6   1  348.55   10.85
  18  -6   1  301.32   10.58
 -18  -6  -1  286.23   11.84
  18   6   1  300.16   10.51
  18   6   1  298.95   10.24
  20  -6   1   16.08    3.96
 -20  -6  -1    5.39    4.75
  20   6   1    9.15    3.81
  20   6   1   10.72    3.73
 -22  -6  -1  118.44    9.09
  22  -6   1  130.23    8.10
  22   6   1  129.25    7.70
  22   6   1  129.45    7.90
 -22   6  -1  113.95    8.53
 -24  -6  -1   56.29    7.20
  24  -6   1   41.60    5.63
  24   6   1   52.32    5.72
 -24   6  -1   40.09    5.87
  24   6   1   56.50    6.06
  26  -6   1  132.58    9.11
 -26  -6  -1  154.62   10.95
 -26   6  -1  141.94   10.11
  26   6   1  141.50    9.10
  26   6   1  149.13    8.88
 -28  -6  -1   46.90    7.77
  28  -6   1   57.20    6.79
  28   6   1   46.61    6.07
 -28   6  -1   41.10    7.01
  30  -6   1   32.44    6.55
 -30  -6  -1   34.27    7.47
  30   6   1   33.82    6.13
 -31  -7   1   21.36    6.95
  31  -7  -1    7.20    5.45
  29  -7  -1   50.47    6.74
 -29  -7   1   56.41    7.80
 -29   7   1   47.76    7.19
 -27  -7   1   56.33    7.37
  27  -7  -1   48.13    6.43
 -27   7   1   56.77    6.83
 -25  -7   1   33.59    6.29
  25  -7  -1   37.71    5.75
 -25   7   1   47.03    6.32
 -23  -7   1   74.25    7.21
  23  -7  -1   66.79    6.37
 -23   7   1   69.86    6.73
  21  -7  -1   63.10    6.09
 -21  -7   1   66.38    6.45
  19  -7  -1    6.55    3.71
 -19  -7   1    7.93    4.39
  19   7  -1   12.43    3.71
 -19   7   1   21.52    4.99
  17  -7  -1  131.26    7.33
 -17  -7   1  131.60    8.46
 -17   7   1  130.72    9.68
  17   7  -1  121.60    6.12
  15  -7  -1    5.34    3.24
 -15  -7   1   11.06    4.08
  15   7  -1    7.46    2.72
 -15   7   1    3.51    4.22
 -15   7   1    5.24    3.06
  13  -7  -1  128.12    6.71
 -13  -7   1  127.55    6.99
 -13   7   1  130.47    7.58
 -11  -7   1   -1.92    3.09
  11  -7  -1    7.27    2.99
  11   7  -1   -1.39    3.30
 -11   7   1    6.13    3.46
   9  -7  -1   22.31    3.34
  -9  -7   1   26.80    3.48
  -9   7   1   29.08    4.26
   9   7  -1   24.24    4.40
   7  -7  -1  495.29   12.17
  -7  -7   1  481.26   11.73
  -7   7   1  508.09   13.58
   7   7  -1  494.71   13.91
  -5  -7   1   48.93    3.98
   5  -7  -1   59.08    4.16
  -5   7   1   61.51    4.97
   5   7  -1   54.55    5.15
   3  -7  -1   -1.57    2.26
  -3   7   1    3.90    2.82
   3   7  -1    5.85    3.11
   1  -7  -1  310.13    8.69
   1   7  -1  314.92   10.18
  -1   7   1  308.70   10.06
  -1  -7  -1  559.28   13.08
  -1   7  -1  575.35   14.72
   1   7   1  556.67   14.68
  -3  -7  -1  102.76    5.51
  -3   7  -1  112.93    6.55
   3   7   1  119.65    6.79
  -5  -7  -1  599.77   14.28
   5  -7   1  601.58   13.04
   5   7   1  614.14   13.18
  -5   7  -1  607.92   15.71
   5   7   1  615.86   15.97
  -7  -7  -1  123.06    6.49
   7  -7   1  127.70    5.36
   7   7   1  122.59    5.13
  -7   7  -1  125.31    7.12
   9  -7   1  217.67    7.25
  -9  -7  -1  223.56    8.61
  -9   7  -1  234.99    9.37
   9   7   1  223.04    7.28
  11  -7   1  237.68    7.94
 -11  -7  -1  235.00    9.27
 -11   7  -1  239.29    9.97
  11   7   1  218.58    7.85
 -13  -7  -1  705.11   17.82
  13  -7   1  713.88   16.56
  13   7   1  720.64   16.43
  13   7   1  689.96   17.08
  15  -7   1   42.58    4.58
 -15  -7  -1   48.90    5.87
  15   7   1   53.21    4.82
 -17  -7  -1   54.04    6.15
  17  -7   1   57.14    5.44
  17   7   1   64.87    5.39
 -19  -7  -1  174.64    9.89
  19  -7   1  165.62    8.47
  19   7   1  177.64    8.45
 -21  -7  -1   31.26    5.83
  21  -7   1   35.57    5.20
  21   7   1   41.44    5.13
 -23  -7  -1   46.50    6.94
  23  -7   1   56.33    6.26
 -25  -7  -1    0.10    5.40
  25  -7   1    7.27    4.28
 -25   7  -1    6.52    5.16
  27  -7   1   22.36    5.36
 -27  -7  -1    2.75    6.24
 -27   7  -1   17.13    5.99
  29  -7   1    4.65    5.08
 -29  -7  -1    0.21    6.24
  29   7   1    0.93    4.40
 -29   7  -1   -9.18    6.15
 -28  -8   1   53.75    7.77
  28  -8  -1   50.71    6.84
 -28   8   1   46.87    7.06
  26  -8  -1   50.98    6.59
 -26  -8   1   48.16    7.08
 -26   8   1   51.03    6.88
 -24  -8   1   21.22    5.60
  24  -8  -1   14.63    4.79
 -24   8   1   11.22    5.35
  22  -8  -1   24.55    5.02
 -22  -8   1   19.41    5.30
 -22   8   1   12.87    5.20
 -20  -8   1   -2.42    4.16
  20  -8  -1    0.73    3.72
  18  -8  -1   93.90    6.81
 -18  -8   1  102.35    7.89
 -16  -8   1  289.41   10.87
  16  -8  -1  269.86   10.01
  16   8  -1  269.38   11.65
 -16   8   1  274.95   11.24
  14  -8  -1  183.21    8.28
 -14  -8   1  196.01    8.88
  14   8  -1  186.84    9.86
 -14   8   1  191.96    9.48
 -12  -8   1  113.20    7.31
  12  -8  -1  126.25    6.80
  12   8  -1  134.67    8.48
 -12   8   1  125.31    8.15
  10  -8  -1  325.81   10.20
 -10  -8   1  310.00   10.01
 -10   8   1  328.10   11.29
  10   8  -1  327.27   11.95
   8  -8  -1   87.69    5.68
  -8  -8   1   79.69    5.77
  -8   8   1   80.35    6.51
   8   8  -1   84.24    6.81
   6  -8  -1   29.94    3.71
  -6  -8   1   21.53    3.40
   6   8  -1   28.21    4.56
  -6   8   1   26.37    4.47
  -4  -8   1  490.18   11.82
   4  -8  -1  516.67   12.75
  -4   8   1  481.27   14.04
   4   8  -1  516.52   14.60
  -2  -8   1    7.93    2.62
   2  -8  -1    6.40    3.25
   2   8  -1   10.02    3.68
  -2   8   1    9.60    3.58
   0  -8  -1   11.68    3.17
   0   8  -1    1.85    3.45
   0   8   1    8.22    3.66
  -2  -8  -1  155.08    6.77
   2   8   1  141.96    7.86
  -2   8  -1  129.05    7.64
  -4  -8  -1   16.73    3.56
   4  -8   1   14.63    2.85
   4   8   1   19.83    4.28
  -4   8  -1   18.03    4.18
  -6  -8  -1  117.48    6.54
   6  -8   1  125.79    5.61
  -6   8  -1  101.27    7.16
   6   8   1  116.26    7.79
   8  -8   1  184.07    6.90
  -8  -8  -1  179.42    8.24
   8   8   1  191.55    9.37
  -8   8  -1  179.57    8.96
  10  -8   1   28.37    3.69
 -10  -8  -1   35.76    4.90
 -10   8  -1   18.61    4.89
  10   8   1   28.75    3.44
 -12  -8  -1  118.30    8.14
  12  -8   1  118.73    6.48
 -12   8  -1  114.91    8.44
  12   8   1  109.48    5.97
  14  -8   1    4.80    3.22
 -14  -8  -1    5.93    4.46
  14   8   1    3.97    3.14
 -16  -8  -1   57.97    6.19
  16  -8   1   46.42    4.91
  18  -8   1  100.92    7.07
 -18  -8  -1  116.48    8.66
  20  -8   1  313.01   11.58
 -20  -8  -1  309.92   13.02
  22  -8   1  188.07    9.84
 -22  -8  -1  204.66   11.47
 -24  -8  -1   43.92    7.00
  24  -8   1   37.14    5.85
 -26  -8  -1  112.34    9.73
  26  -8   1  121.68    9.28
 -28  -8  -1   16.37    6.97
  28  -8   1   23.88    5.91
 -28   8  -1   17.37    6.24
  27  -9  -1   80.72    8.03
 -27  -9   1   84.04    8.83
 -27   9   1   80.97    8.20
  25  -9  -1   88.74    7.78
 -25  -9   1   57.57    7.47
  23  -9  -1   30.50    5.49
 -23  -9   1   23.97    6.06
 -23   9   1   48.39    6.53
 -21  -9   1  183.16   10.56
  21  -9  -1  170.29    9.41
  21   9  -1  160.33   10.63
  19  -9  -1  183.23    9.02
 -19  -9   1  175.67    9.96
  19   9  -1  179.16   10.60
 -17  -9   1  149.79    8.87
  17  -9  -1  140.06    7.96
 -17   9   1  121.13    9.19
  17   9  -1  130.24    9.26
  15  -9  -1    1.02    3.48
 -15  -9   1   -4.82    3.72
  15   9  -1   -3.35    3.85
 -15   9   1   -0.85    4.39
 -13  -9   1   -5.52    3.74
  13  -9  -1   -0.19    3.29
 -13   9   1    2.39    4.13
  13   9  -1    0.01    3.89
  11  -9  -1  345.97   11.00
 -11  -9   1  346.31   11.21
 -11   9   1  332.43   12.32
  11   9  -1  336.33   13.01
  -9  -9   1  199.77    8.46
   9  -9  -1  215.87    8.61
  -9   9   1  195.53    9.64
   9   9  -1  209.29   10.22
   7  -9  -1  114.78    6.61
  -7  -9   1  110.99    6.55
  -7   9   1  111.42    7.95
   7   9  -1  111.08    8.02
   5  -9  -1   36.24    4.40
  -5  -9   1   43.45    4.24
  -5   9   1   23.56    4.87
   5   9  -1   35.14    5.33
   3  -9  -1   88.78    6.19
  -3  -9   1   93.92    5.58
   3   9  -1   95.94    7.34
  -3   9   1   83.73    6.93
   1  -9  -1  125.39    6.81
  -1  -9   1  132.87    6.14
   1   9  -1  139.16    8.30
  -1   9   1  143.89    8.23
  -1  -9  -1   -1.20    3.09
  -1   9  -1   -2.48    3.56
   1   9   1   11.74    4.17
  -3  -9  -1   27.34    4.13
  -3   9  -1   25.38    4.91
   3   9   1   26.73    5.00
  -5  -9  -1   63.60    5.32
   5  -9   1   62.55    5.07
   5   9   1   59.50    6.63
  -5   9  -1   62.43    6.34
  -7  -9  -1  427.34   12.50
   7  -9   1  401.42   11.21
   7   9   1  416.66   14.16
  -7   9  -1  410.40   13.82
  -9  -9  -1  282.94   10.62
   9  -9   1  262.86    8.85
   9   9   1  257.39   11.55
  -9   9  -1  254.37   11.21
  11  -9   1  483.24   12.81
 -11  -9  -1  481.74   14.47
 -11   9  -1  477.88   15.48
  11   9   1  470.58   15.69
 -13  -9  -1  232.73   10.38
  13  -9   1  223.83    8.72
 -13   9  -1  220.01   11.05
 -15  -9  -1    9.25    4.68
  15  -9   1    3.79    3.51
  17  -9   1  160.67    8.34
 -17  -9  -1  163.90    9.95
 -19  -9  -1  139.01   10.05
  19  -9   1  144.76    8.50
  21  -9   1   68.46    6.46
 -21  -9  -1   65.88    7.80
  23  -9   1   77.27    7.12
 -23  -9  -1   73.84    8.07
  25  -9   1   18.52    5.25
 -25  -9  -1   24.43    6.76
 -26 -10   1   -2.41    5.71
  26 -10  -1    1.17    4.87
  26  10  -1    3.36    5.35
  24 -10  -1   28.68    5.68
 -24 -10   1   13.54    6.17
  24  10  -1   27.76    6.43
 -22 -10   1    5.96    5.34
  22 -10  -1    0.38    4.13
  22  10  -1    6.78    5.41
  20 -10  -1   51.54    6.17
 -20 -10   1   48.85    6.83
  20  10  -1   42.92    6.93
  18 -10  -1   45.52    5.82
 -18 -10   1   43.34    6.07
  18  10  -1   38.55    6.63
  16 -10  -1   -0.98    3.65
 -16 -10   1    2.53    4.25
  16  10  -1    6.76    4.66
 -16  10   1    3.16    5.02
 -14 -10   1   13.80    4.52
  14 -10  -1   20.13    4.21
  14  10  -1   41.00    6.30
 -14  10   1   21.72    5.52
  12 -10  -1  188.08    8.61
 -12 -10   1  187.83    8.95
 -12  10   1  185.87   10.16
  12  10  -1  180.48   10.21
  10 -10  -1   98.43    6.83
 -10 -10   1  115.40    7.34
 -10  10   1   95.59    7.66
  10  10  -1  113.98    8.45
  -8 -10   1  143.11    7.55
   8 -10  -1  145.93    7.56
   8  10  -1  144.86    9.07
   6 -10  -1  163.59    7.77
  -6 -10   1  142.72    7.37
  -6  10   1  183.13    9.60
   6  10  -1  148.26    9.21
   4 -10  -1  164.87    7.96
  -4 -10   1  160.60    7.36
   4  10  -1  173.23    9.52
  -4  10   1  158.18    9.23
  -2 -10   1   19.50    3.63
   2 -10  -1    9.31    3.83
   2  10  -1    4.90    4.37
  -2  10   1    9.71    4.56
   0 -10  -1   54.95    5.22
   0 -10   1   71.41    5.59
   0  10  -1   57.27    6.49
   0  10   1   47.37    5.84
  -2 -10  -1   -0.04    3.56
   2 -10   1    3.65    3.08
  -2  10  -1   -3.05    3.81
   2  10   1    4.08    4.00
   4 -10   1   51.21    4.55
  -4 -10  -1   49.31    5.21
   4  10   1   47.71    6.17
  -4  10  -1   34.69    5.70
   6 -10   1   44.36    4.40
  -6 -10  -1   43.08    5.22
  -6  10  -1   27.91    5.29
   6  10   1   35.55    5.76
   8 -10   1  236.32    8.57
  -8 -10  -1  227.03    9.68
   8  10   1  211.80   10.92
  -8  10  -1  237.03   10.92
 -10 -10  -1   28.81    4.96
  10 -10   1   22.81    3.93
  10  10   1   20.19    5.27
 -10  10  -1   37.13    5.88
 -12 -10  -1   10.83    4.58
  12 -10   1   13.31    3.56
 -12  10  -1   13.27    5.08
  12  10   1    9.22    4.74
  14 -10   1   -1.86    3.25
 -14 -10  -1    3.80    4.44
  14  10   1    1.24    4.81
 -14  10  -1   -2.50    4.66
 -16 -10  -1   11.85    5.19
  16 -10   1    6.58    3.77
  16  10   1    5.46    4.77
 -18 -10  -1  126.11    9.69
  18 -10   1  110.13    7.82
 -20 -10  -1  104.17    8.87
  20 -10   1  127.19    8.59
 -22 -10  -1   31.69    6.69
  22 -10   1   31.29    5.55
 -24 -10  -1   -1.43    5.95
  24 -10   1    6.41    4.82
  23 -11  -1  105.43    8.67
 -23 -11   1  113.27    9.74
  23  11  -1   90.04    9.38
 -21 -11   1   17.39    5.98
  21 -11  -1   23.14    5.38
  21  11  -1   20.69    5.94
 -19 -11   1   -4.63    4.73
  19 -11  -1    2.59    4.23
  19  11  -1   -0.11    4.60
  17 -11  -1   64.44    6.46
 -17 -11   1   64.63    6.89
 -17  11   1   75.87    8.28
  17  11  -1   65.05    7.75
 -15 -11   1   80.52    7.16
  15 -11  -1   64.72    6.38
  15  11  -1   69.34    7.68
 -15  11   1   62.65    7.54
  13 -11  -1   77.63    6.30
 -13 -11   1   81.02    6.83
  13  11  -1   81.58    7.99
 -13  11   1   79.68    7.94
 -11 -11   1   58.00    5.89
  11 -11  -1   66.88    5.79
 -11  11   1   52.00    6.88
  11  11  -1   53.12    7.05
   9 -11  -1   63.83    5.83
  -9 -11   1   62.71    5.63
   9  11  -1   60.69    6.88
  -9  11   1   60.83    6.96
  -7 -11   1    3.88    3.56
   7 -11  -1    7.90    3.88
  -7  11   1   12.13    4.71
   7  11  -1   11.23    4.52
  -5 -11   1   36.57    4.73
   5 -11  -1   59.94    5.58
  -5  11   1   54.79    6.55
   5  11  -1   56.60    6.68
  -3 -11   1  212.42    8.48
   3 -11  -1  224.57    9.44
  -3  11   1  235.63   11.09
   3  11  -1  218.31   11.08
  -1 -11   1    7.15    3.41
   1 -11  -1    2.02    3.61
   1  11  -1   -2.11    3.89
  -1  11   1    5.23    4.43
   1 -11   1   33.77    4.29
  -1 -11  -1   37.33    4.90
  -1  11  -1   35.04    5.52
   1  11   1   32.41    5.67
  -3 -11  -1   52.76    5.52
   3 -11   1   52.68    4.80
  -3  11  -1   54.43    6.46
   3  11   1   52.65    6.58
  -5 -11  -1   11.50    4.25
   5 -11   1   11.06    3.43
   5  11   1    9.30    4.51
  -5  11  -1   22.78    5.25
   7 -11   1   20.13    3.95
  -7 -11  -1   31.74    4.98
   7  11   1   20.12    5.08
  -7  11  -1   22.25    5.17
   9 -11   1   37.69    4.60
  -9 -11  -1   43.89    5.81
  -9  11  -1   39.88    6.15
   9  11   1   45.34    6.64
 -11 -11  -1   25.84    5.27
  11 -11   1   25.68    4.30
  11  11   1   29.77    6.18
 -11  11  -1   31.78    6.04
 -13 -11  -1   89.43    7.67
  13 -11   1  107.36    7.27
  13  11   1   94.36    8.71
 -13  11  -1   98.74    9.16
 -15 -11  -1  166.57   10.42
  15 -11   1  155.19    8.52
 -15  11  -1  174.10   11.14
  15  11   1  161.23   10.83
  15  11   1  170.74   10.36
  17 -11   1   12.20    4.24
 -17 -11  -1    6.11    5.24
  17  11   1   20.09    5.73
  19 -11   1    7.16    4.39
 -19 -11  -1    9.17    5.53
  19  11   1    1.93    4.98
  21 -11   1   -4.94    3.88
 -21 -11  -1   -0.24    5.57
  21  11   1   -0.01    5.41
  20 -12  -1   15.09    5.27
 -20 -12   1   19.58    6.19
  20  12  -1   13.39    5.74
 -18 -12   1    4.25    5.08
  18 -12  -1    0.43    4.09
 -18  12   1   -9.34    5.38
  18  12  -1    2.88    4.74
  16 -12  -1   45.07    5.80
 -16 -12   1   41.10    6.30
 -16  12   1   53.00    7.91
  16  12  -1   20.61    5.77
  14 -12  -1    6.90    4.18
 -14 -12   1    3.10    4.65
  14  12  -1   -0.96    4.60
 -14  12   1    0.84    5.15
  12 -12  -1   -0.67    3.68
 -12 -12   1   -1.04    3.94
 -12  12   1   -6.44    4.66
  12  12  -1    7.30    4.69
  10 -12  -1   16.29    4.42
 -10 -12   1   14.79    4.50
  10  12  -1   14.31    5.29
 -10  12   1   25.58    5.89
   8 -12  -1    9.60    4.10
  -8 -12   1    8.69    4.13
  -8  12   1    7.83    4.86
   8  12  -1   12.65    4.64
  -6 -12   1   15.17    4.36
   6 -12  -1   29.70    4.90
   6  12  -1   22.23    5.66
  -6  12   1   30.61    5.84
  -4 -12   1   -0.81    3.47
   4 -12  -1    1.15    3.93
   4  12  -1   11.20    4.89
  -4  12   1   14.36    5.21
  -2 -12   1   14.95    4.03
   2 -12  -1   18.81    4.46
  -2  12   1   11.56    4.96
   2  12  -1   13.52    5.16
   0 -12  -1   30.03    4.82
   0 -12   1   20.18    4.28
   0  12  -1   25.41    5.64
   0  12   1   19.22    5.55
   2 -12   1   65.29    5.58
  -2 -12  -1   56.29    5.90
  -2  12  -1   52.49    6.94
   2  12   1   47.47    6.69
   4 -12   1   16.23    3.85
  -4 -12  -1   -0.16    4.11
  -4  12  -1   10.51    5.11
   4  12   1   21.68    5.47
   6 -12   1    4.12    3.58
  -6 -12  -1    8.17    4.38
  -6  12  -1   19.41    5.40
   6  12   1   14.78    5.14
   8 -12   1   49.92    5.21
  -8 -12  -1   43.42    5.83
  -8  12  -1   37.54    6.59
   8  12   1   37.28    6.52
  10 -12   1    5.32    3.76
 -10 -12  -1    2.60    4.54
 -10  12  -1    5.08    5.25
  10  12   1    7.53    4.89
  12 -12   1    3.20    3.67
 -12 -12  -1    6.06    4.75
 -12  12  -1   -0.79    5.15
  12  12   1    1.90    4.72
 -14 -12  -1    2.12    5.02
  14 -12   1   -2.24    3.76
  14  12   1    5.42    4.83
 -14  12  -1  -11.82    4.82
  16 -12   1   39.08    5.60
 -16 -12  -1   39.91    6.90
  16  12   1   31.22    6.90
  18 -12   1   34.83    5.57
 -18 -12  -1   11.37    6.05
  18  12   1   21.95    6.52
  18  12   1   17.89    6.18
 -17  13   1    3.64    6.50
  17  13  -1    6.52    5.50
 -15 -13   1    1.72    4.91
  15 -13  -1    5.96    4.47
  15  13  -1    2.46    4.95
 -15  13   1    3.78    5.92
  13 -13  -1   43.69    5.97
 -13 -13   1   42.34    6.31
 -13  13   1   43.63    7.28
  13  13  -1   37.64    6.82
 -11 -13   1   50.04    6.13
  11 -13  -1   41.79    5.75
  11  13  -1   36.66    6.76
 -11  13   1   36.43    7.32
   9 -13  -1   50.72    6.03
  -9 -13   1   44.61    5.81
  -9  13   1   32.14    6.55
   9  13  -1   44.49    7.01
   7 -13  -1   -3.42    4.02
  -7 -13   1    2.78    4.22
   7  13  -1   -1.08    4.46
  -7  13   1    2.15    4.94
  -5 -13   1    1.38    3.97
   5 -13  -1   -4.61    3.77
  -5  13   1  -11.75    4.39
   5  13  -1    0.83    4.51
  -3 -13   1   10.88    4.08
   3 -13  -1    5.68    4.39
   3  13  -1   12.53    5.23
  -3  13   1    0.73    4.92
  -1 -13   1   11.91    4.02
   1 -13  -1    9.44    4.61
  -1  13   1   13.81    5.59
   1  13  -1   14.56    5.49
   1 -13   1   41.14    5.33
  -1 -13  -1   32.89    5.37
   1  13   1   41.32    6.95
  -1  13  -1   38.00    6.58
  -3 -13  -1    4.53    4.45
   3 -13   1    6.63    3.98
   3  13   1   11.26    5.14
  -3  13  -1    8.50    4.98
  -5 -13  -1   -5.62    4.04
   5 -13   1   -2.03    3.62
  -5  13  -1    1.34    4.81
   5  13   1    4.72    4.45
   7 -13   1   -0.26    3.58
  -7 -13  -1    6.25    4.51
  -7  13  -1    0.62    5.04
   7  13   1    3.73    4.82
  -9 -13  -1    1.37    4.52
   9 -13   1    7.07    3.93
  -9  13  -1    9.22    5.88
   9  13   1   10.24    5.27
  11 -13   1   -3.08    3.73
 -11 -13  -1    0.91    4.78
  11  13   1   -4.61    4.43
 -11  13  -1   10.09    5.98
 -13 -13  -1   -0.60    5.10
  13 -13   1    2.48    3.90
  13  13   1   -1.62    4.85
 -13  13  -1   -3.77    5.55
  15  13   1   11.60    5.75
 -15  13  -1   -2.56    5.80
  10 -14  -1    1.71    4.53
 -10 -14   1    3.43    4.88
 -10  14   1   -4.19    5.35
  10  14  -1    5.13    5.43
   8 -14  -1    8.13    4.73
  -8 -14   1    2.81    4.47
  -8  14   1   10.33    5.92
   8  14  -1    2.60    5.34
  -6 -14   1    1.27    4.48
   6 -14  -1   16.05    5.02
  -6  14   1    0.66    5.30
   6  14  -1    3.74    5.36
  -4 -14   1   34.66    5.47
   4 -14  -1   23.85    5.32
  -4  14   1   31.59    7.15
   4  14  -1   51.19    7.85
   2 -14  -1   -7.16    4.27
  -2 -14   1    0.43    4.08
  -2  14   1   -0.75    5.12
   2  14  -1    5.00    5.05
   0 -14  -1  -11.26    4.21
   0 -14   1   -7.75    3.87
   0  14  -1    2.68    5.38
   0  14   1   -6.55    4.79
  -2 -14  -1    9.08    4.74
   2 -14   1    2.30    4.08
  -2  14  -1    1.71    5.49
   2  14   1   10.04    5.75
  -4 -14  -1    7.50    4.75
   4 -14   1   -8.09    3.57
   4  14   1    1.71    5.41
  -4  14  -1   -2.25    5.12
  -6 -14  -1    0.45    4.64
   6 -14   1    0.98    4.02
   6  14   1    1.63    5.21
  -6  14  -1   -0.99    5.50
  -8 -14  -1   -5.12    4.75
   8 -14   1  -11.86    3.71
   8  14   1    1.83    5.16
  -8  14  -1    1.04    5.80
  36   0  -2   -3.00    4.94
 -36   0   2   -0.35    7.77
 -36   0   2    4.41    6.56
  34   0  -2   44.42    6.39
 -34   0   2   30.76    7.25
 -34   0   2   23.99    8.05
 -32   0   2    2.77    6.93
 -32   0   2   13.23    6.04
  32   0  -2   16.36    4.96
  30   0  -2   53.84    6.43
 -30   0   2   65.96    7.89
 -30   0   2   56.34    8.05
 -28   0   2   47.65    7.42
  28   0  -2   65.90    6.37
 -28   0   2   62.47    7.24
  26   0  -2   69.06    6.27
 -26   0   2   57.65    6.59
 -26   0   2   71.23    7.59
  24   0  -2  660.69   17.33
  24   0  -2  663.71   17.38
 -24   0   2  666.68   18.55
 -24   0   2  660.96   21.06
 -24   0   2  656.82   18.13
 -22   0   2    6.35    3.87
 -22   0   2    9.80    4.67
 -22   0   2    4.07    5.06
  22   0  -2    0.42    3.16
  22   0  -2    0.39    3.53
 -20   0   2    1.73    4.21
  20   0  -2    4.57    2.86
 -20   0   2    0.11    3.50
 -20   0   2    5.24    3.81
  20   0  -2    8.93    3.48
 -18   0   2   46.64    4.86
  18   0  -2   44.11    4.02
 -18   0   2   46.75    4.49
 -18   0   2   39.66    4.05
  18   0  -2   47.99    4.28
  16   0  -2  322.53    9.07
  16   0  -2  315.26    9.03
 -16   0   2  291.02    9.28
 -16   0   2  304.46    8.84
 -16   0   2  311.33    9.62
 -14   0   2 2620.75   46.71
  14   0  -2 2615.80   46.99
  14   0  -2 2533.79   46.95
  14   0  -2 2560.79   46.03
 -14   0   2 2562.23   47.04
 -14   0   2 2506.70   47.10
 -12   0   2   92.21    4.48
  12   0  -2  104.69    4.37
  12   0  -2   94.64    4.57
 -12   0   2   99.29    4.78
 -12   0   2   94.71    5.09
  12   0  -2   94.17    4.09
  10   0  -2  359.50    8.52
 -10   0   2  361.43    8.80
 -10   0   2  363.25    8.44
 -10   0   2  371.41    8.76
  10   0  -2  366.80    8.10
 -10   0   2  358.13    8.84
  10   0  -2  358.78    8.61
   8   0  -2    7.12    2.08
  -8   0   2    6.39    2.36
  -8   0   2    9.06    2.06
   8   0  -2    3.98    1.93
   8   0  -2    7.75    1.83
  -8   0   2    7.10    2.18
  -8   0   2    8.27    2.51
  -6   0   2  341.92    7.41
  -6   0   2  338.34    7.37
   6   0  -2  340.94    7.31
   6   0  -2  341.10    7.33
   6   0  -2  354.10    7.37
   6   0  -2  348.38    7.01
  -6   0   2  340.18    7.46
  -4   0   2  386.37    7.51
   4   0  -2  375.72    7.29
  -4   0   2  358.88    7.29
   4   0  -2  366.15    7.29
   4   0  -2  377.79    7.31
   4   0  -2  352.72    7.27
  -2   0   2 1236.64   23.13
   2   0  -2 1346.95   23.09
  -2   0   2 1312.93   23.02
   0   0   2  376.37    7.33
   0   0  -2  375.31    7.33
  -2   0  -2  108.89    3.28
  -2   0  -2  105.55    3.32
  -2   0  -2  100.84    3.24
   2   0   2  102.32    3.18
  -4   0  -2  582.66   11.92
  -4   0  -2  582.32   11.83
   4   0   2  578.10   11.76
  -4   0  -2  603.34   11.77
  -4   0  -2  594.94   11.69
   6   0   2 1072.82   20.66
  -6   0  -2 1070.91   20.66
  -6   0  -2 1119.81   20.52
  -6   0  -2 1091.58   20.53
  -6   0  -2 1094.86   20.69
  -8   0  -2  481.69   10.90
  -8   0  -2  484.00   10.78
  -8   0  -2  495.30   10.82
   8   0   2  461.05   10.74
  -8   0  -2  486.55   11.05
  10   0   2  198.05    6.43
 -10   0  -2  206.09    6.55
 -10   0  -2  202.15    6.94
 -10   0  -2  204.78    6.67
 -10   0  -2  206.87    6.58
 -12   0  -2   -0.02    2.55
 -12   0  -2    2.75    2.40
 -12   0  -2    0.12    2.90
  12   0   2    1.13    2.12
 -12   0  -2   -0.05    2.61
 -14   0  -2   20.66    3.57
  14   0   2   26.52    3.39
 -14   0  -2   28.18    4.06
 -14   0  -2   20.43    3.44
 -14   0  -2   27.46    3.94
  16   0   2   87.92    5.65
 -16   0  -2   88.41    6.30
 -16   0  -2   92.97    6.44
 -16   0  -2   84.80    6.56
 -16   0  -2   79.25    5.92
 -18   0  -2  630.65   16.28
 -18   0  -2  628.28   15.77
 -18   0  -2  599.22   16.79
  18   0   2  619.33   15.90
 -18   0  -2  613.04   16.03
 -20   0  -2  287.83   11.68
  20   0   2  289.47   10.61
 -20   0  -2  277.75   10.81
 -20   0  -2  298.91   11.14
  22   0   2   17.42    4.49
 -22   0  -2   17.58    4.96
 -22   0  -2   15.12    4.95
 -22   0  -2   28.33    6.20
 -24   0  -2    9.96    5.66
  24   0   2   16.42    4.45
 -24   0  -2   20.19    5.13
 -26   0  -2   27.63    5.94
 -26   0  -2   27.46    6.73
  26   0   2   28.22    5.34
 -28   0  -2   66.15    7.67
  28   0   2   89.76    7.92
 -28   0  -2   75.50    8.56
  30   0   2    5.66    4.80
 -30   0  -2    2.85    5.67
 -30   0  -2    3.18    7.03
  32   0   2    7.57    5.46
 -32   0  -2   11.86    7.64
 -32   0  -2   16.37    9.39
  35  -1  -2   91.59    8.98
 -35  -1   2   73.12    8.95
  35   1  -2   90.16    8.39
 -35   1   2   74.80    9.80
 -35   1   2   97.56    9.73
 -33  -1   2   94.61    9.16
  33  -1  -2  117.39    9.42
 -33   1   2  110.84    9.57
  33   1  -2  104.30    8.42
 -33   1   2   93.76    9.69
 -31  -1   2  248.14   12.53
 -31  -1   2  243.40   13.78
  31  -1  -2  257.37   11.94
 -31   1   2  233.63   13.58
  31   1  -2  236.03   11.32
 -31   1   2  255.05   12.76
  29  -1  -2   56.97    6.60
 -29  -1   2   68.41    7.67
 -29  -1   2   55.27    7.81
  29  -1  -2   70.70    6.80
  29   1  -2   74.88    6.98
 -29   1   2   56.30    7.62
 -29   1   2   77.28    7.71
 -27  -1   2   51.51    7.06
 -27  -1   2   42.98    6.44
  27  -1  -2   50.54    5.83
  27  -1  -2   41.50    5.60
 -27   1   2   56.27    7.20
  27   1  -2   53.39    5.71
 -27   1   2   51.91    6.65
 -25  -1   2  108.87    8.73
  25  -1  -2  148.18    8.32
  25  -1  -2  124.44    8.40
 -25  -1   2  157.52    9.86
 -25   1   2  138.62    9.42
 -25   1   2  130.35   10.16
 -25   1   2  112.57    8.24
  25   1  -2  119.17    7.62
  23  -1  -2  471.06   13.85
 -23  -1   2  477.05   14.88
 -23  -1   2  492.72   15.25
  23  -1  -2  470.65   14.04
 -23   1   2  489.82   14.73
  23   1  -2  490.90   13.86
 -23   1   2  474.02   14.83
 -23   1   2  464.97   13.91
  21  -1  -2  662.10   15.20
 -21  -1   2  615.85   15.66
  21  -1  -2  613.39   15.92
 -21  -1   2  645.58   16.84
 -21  -1   2  626.95   16.78
  21  -1  -2  606.05   15.94
  21   1  -2  624.65   15.79
 -21   1   2  658.73   16.73
 -21   1   2  640.10   15.87
 -21   1   2  646.05   16.73
 -19  -1   2  190.71    8.24
  19  -1  -2  166.67    6.83
 -19  -1   2  184.46    7.43
 -19  -1   2  170.45    8.30
  19  -1  -2  185.52    8.05
  19  -1  -2  189.91    7.62
 -19   1   2  162.02    8.37
 -19   1   2  181.57    8.10
  19   1  -2  168.38    7.18
 -19   1   2  197.60    7.91
 -17  -1   2  371.66   10.08
  17  -1  -2  370.17    9.65
  17  -1  -2  367.02   10.48
  17  -1  -2  375.09   10.43
 -17  -1   2  375.18   11.09
 -17  -1   2  371.90   10.85
 -17   1   2  379.18   10.74
 -17   1   2  367.04   10.82
  17   1  -2  376.43   10.22
 -17   1   2  376.70   10.33
 -15  -1   2  314.30    9.54
  15  -1  -2  323.29    9.01
  15  -1  -2  325.94    9.21
  15  -1  -2  300.41    8.32
 -15  -1   2  330.40    9.34
 -15  -1   2  317.06    8.72
 -15   1   2  327.05    8.92
 -15   1   2  309.99    9.27
  15   1  -2  320.71    8.84
  15   1  -2  328.09    8.88
 -15   1   2  321.24    9.50
  13  -1  -2  328.84    8.69
  13  -1  -2  332.64    8.81
  13  -1  -2  330.50    8.09
 -13  -1   2  333.55    9.11
 -13  -1   2  332.40    8.96
 -13   1   2  335.31    9.06
 -13   1   2  319.84    8.90
  13   1  -2  354.05   11.37
  13   1  -2  325.51    8.52
  13   1  -2  315.67    8.44
 -13   1   2  326.57    8.52
 -11  -1   2    0.90    2.14
 -11  -1   2    3.85    2.41
  11  -1  -2    2.57    1.79
  11  -1  -2    6.85    2.16
  11  -1  -2    5.95    2.06
 -11   1   2    5.60    2.16
  11   1  -2    5.01    2.00
  11   1  -2    1.49    1.67
  11   1  -2    5.06    2.01
 -11   1   2    4.51    2.24
 -11   1   2    2.47    2.40
 -11   1   2    4.83    2.33
  -9  -1   2 1318.97   24.34
   9  -1  -2 1318.54   24.52
   9  -1  -2 1308.89   23.97
  -9  -1   2 1280.18   24.45
  -9  -1   2 1305.70   24.35
   9  -1  -2 1285.34   24.53
   9   1  -2 1327.76   24.17
  -9   1   2 1303.52   24.47
  -9   1   2 1294.44   24.63
  -9   1   2 1322.43   24.32
  -9   1   2 1322.96   24.58
   9   1  -2 1330.92   24.29
   9   1  -2 1329.74   24.20
  -7  -1   2   68.02    3.45
   7  -1  -2   70.92    3.82
   7  -1  -2   68.37    3.45
   7  -1  -2   65.67    3.29
  -7  -1   2   66.09    3.62
  -7   1   2   74.93    3.81
  -7   1   2   69.93    3.93
  -7   1   2   67.01    4.09
   7   1  -2   66.58    2.93
  -7   1   2   70.85    3.64
   5  -1  -2 1613.43   28.91
   5  -1  -2 1633.18   28.57
  -5  -1   2 1589.67   28.52
   5  -1  -2 1627.36   29.00
  -5   1   2 1639.36   28.93
  -5   1   2 1617.24   28.88
   5   1  -2 1627.82   28.38
   5   1  -2 1600.44   28.51
  -5   1   2 1618.12   29.03
  -5   1   2 1625.25   28.75
   3  -1  -2  318.83    6.62
   3  -1  -2  318.28    6.60
   3  -1  -2  305.91    6.24
   3   1  -2  303.67    6.35
  -3   1   2  294.66    6.44
  -3   1   2  301.60    6.38
  -3   1   2  301.16    6.48
  -3   1   2  315.00    6.67
   1  -1  -2  232.91    5.32
   1  -1  -2  230.54    5.39
   1  -1  -2  234.84    5.11
   1  -1  -2  237.50    5.40
   1   1  -2  234.68    5.40
  -1   1   2  234.54    5.39
  -1   1   2  234.12    5.20
  -1   1   2  231.38    5.23
  -1  -1  -2 1563.90   27.77
  -1  -1  -2 1532.82   27.74
  -1  -1  -2 1554.84   27.64
   1   1   2 1548.86   27.60
   1   1   2 1558.73   27.56
   1   1   2 1543.25   27.78
   3  -1   2  230.10    5.33
  -3  -1  -2  234.44    6.39
  -3  -1  -2  230.24    6.12
  -3  -1  -2  245.44    6.06
   3   1   2  235.00    5.96
   3   1   2  237.69    5.94
  -5  -1  -2  511.88   10.67
   5  -1   2  492.78   10.28
  -5  -1  -2  494.06   10.85
  -5  -1  -2  495.23   10.95
  -5   1  -2  496.84   10.17
   5   1   2  497.48   10.66
  -7  -1  -2  124.63    4.97
  -7  -1  -2  126.20    4.93
   7  -1   2  123.26    4.32
  -7  -1  -2  118.64    5.31
  -7   1  -2  122.70    4.56
  -7   1  -2  125.63    4.61
   7   1   2  122.89    4.73
   9  -1   2  972.07   22.58
  -9  -1  -2  977.46   19.56
  -9  -1  -2  991.14   19.89
  -9  -1  -2  997.37   19.96
   9  -1   2  954.33   19.49
  -9   1  -2 1015.15   19.41
  -9   1  -2  990.67   19.37
   9   1   2  972.51   19.78
 -11  -1  -2   21.63    3.06
  11  -1   2   27.32    3.19
 -11  -1  -2   31.79    3.44
  11  -1   2   26.45    2.89
 -11  -1  -2   26.61    3.65
  11  -1   2   25.02    2.69
 -11   1  -2   29.48    3.26
 -11   1  -2   30.08    3.08
 -11   1  -2   28.72    3.46
 -11   1  -2   27.05    3.12
  11   1   2   23.72    2.98
 -13  -1  -2  100.96    6.22
 -13  -1  -2  107.30    5.83
  13  -1   2   92.16    5.33
 -13  -1  -2  101.68    5.66
  13  -1   2  103.85    5.26
 -13   1  -2  100.73    5.27
  13   1   2   95.52    5.31
 -13   1  -2   88.91    5.82
 -13   1  -2   88.26    5.36
 -13   1  -2   93.75    5.62
 -15  -1  -2   53.03    4.75
  15  -1   2   61.90    4.92
 -15  -1  -2   55.87    4.64
  15  -1   2   59.91    4.76
 -15  -1  -2   62.06    5.39
 -15   1  -2   65.92    5.03
 -15   1  -2   64.04    5.07
 -15   1  -2   63.15    4.62
 -15   1  -2   62.03    4.77
  15   1   2   64.97    4.97
 -17  -1  -2  166.79    7.91
 -17  -1  -2  169.45    8.76
 -17  -1  -2  153.27    8.05
  17  -1   2  150.15    7.25
  17  -1   2  161.96    7.62
 -17   1  -2  170.97    7.94
 -17   1  -2  152.52    7.81
 -17   1  -2  153.79    7.22
  17   1   2  152.58    7.30
 -17   1  -2  153.06    8.25
 -19  -1  -2  280.91   11.25
  19  -1   2  276.57   10.00
 -19  -1  -2  272.41   10.60
 -19  -1  -2  269.44   10.31
 -19   1  -2  269.49   10.28
 -19   1  -2  275.04   10.84
 -19   1  -2  265.78    9.73
  19   1   2  260.56    9.98
 -19   1  -2  271.98   10.35
 -21  -1  -2   24.64    5.04
 -21  -1  -2   38.12    6.52
 -21  -1  -2   37.71    5.75
  21  -1   2   37.55    4.95
 -21   1  -2   28.83    5.30
 -21   1  -2   34.53    6.04
 -21   1  -2   37.58    5.65
  21   1   2   45.75    5.44
 -23  -1  -2   12.93    4.87
 -23  -1  -2   15.92    5.99
  23  -1   2   10.33    4.24
  23   1   2   15.97    4.38
 -23   1  -2   10.21    5.40
 -23   1  -2    8.62    4.76
 -23   1  -2    7.78    4.62
 -25  -1  -2  124.59    9.52
  25  -1   2  101.96    7.94
 -25  -1  -2  107.39    8.92
 -25   1  -2   91.00    8.30
 -25   1  -2  103.17    8.53
 -25   1  -2   99.27    7.79
  25   1   2  100.71    8.10
 -27  -1  -2  158.14   11.99
  27  -1   2  183.03   10.09
 -27  -1  -2  171.90   10.85
 -27   1  -2  177.83   10.63
  27   1   2  187.95   10.16
 -27   1  -2  174.89   11.51
 -29  -1  -2   85.42    8.54
 -29  -1  -2   81.42    9.38
  29  -1   2   85.43    7.96
 -29   1  -2   63.95    8.32
  29   1   2   67.17    7.44
 -29   1  -2   86.52    8.18
  31  -1   2  212.30   11.94
 -31  -1  -2  220.19   12.82
 -31  -1  -2  208.09   14.14
  31   1   2  240.41   12.51
 -31   1  -2  213.06   13.58
  34  -2  -2   20.97    6.02
 -34  -2   2   34.17    7.59
 -34   2   2   25.28    7.03
 -34   2   2   22.01    7.88
  32  -2  -2    1.44    4.41
 -32  -2   2   -4.34    5.68
  32   2  -2    7.50    4.36
 -32   2   2    3.51    5.65
 -32   2   2  -11.93    6.08
 -30  -2   2   -4.33    5.20
  30  -2  -2    6.26    4.43
  30   2  -2   16.79    4.89
 -30   2   2    3.75    5.50
 -30   2   2    0.82    6.24
  28  -2  -2    5.78    4.32
 -28  -2   2    9.86    6.49
 -28  -2   2   13.26    5.65
 -28   2   2   20.42    6.05
  28   2  -2   11.20    4.27
 -28   2   2   17.69    5.33
 -26  -2   2   63.02    7.14
  26  -2  -2   64.22    6.44
  26  -2  -2   68.14    5.80
  26  -2  -2   74.63    6.58
 -26  -2   2   70.40    7.62
 -26   2   2   64.99    7.11
 -26   2   2   72.47    6.95
 -26   2   2   75.48    7.47
  26   2  -2   75.03    6.31
  24  -2  -2   17.73    5.05
 -24  -2   2   21.45    6.33
  24  -2  -2   34.16    5.13
 -24  -2   2   40.95    6.13
  24  -2  -2   34.95    4.82
 -24   2   2   23.27    6.13
 -24   2   2   29.86    5.45
 -24   2   2   32.80    5.59
  24   2  -2   26.85    4.63
 -22  -2   2   96.54    7.44
  22  -2  -2  105.51    7.43
  22  -2  -2  104.46    6.96
  22  -2  -2   95.61    6.64
 -22  -2   2  124.45    8.21
 -22   2   2  113.73    8.70
  22   2  -2  101.10    6.65
 -22   2   2  103.23    7.54
 -22   2   2  101.16    7.90
  20  -2  -2   54.37    4.91
  20  -2  -2   60.20    4.77
  20  -2  -2   66.68    5.57
 -20  -2   2   60.47    5.86
 -20  -2   2   55.36    5.91
  20   2  -2   51.58    4.74
 -20   2   2   52.50    5.03
  20   2  -2   58.01    4.84
 -20   2   2   57.93    5.55
 -20   2   2   62.21    5.63
  18  -2  -2   13.24    3.02
 -18  -2   2    9.78    3.83
  18  -2  -2    8.70    3.36
 -18  -2   2   10.90    3.58
  18  -2  -2    9.92    2.93
 -18   2   2   10.70    3.51
 -18   2   2    7.35    3.99
 -18   2   2   14.14    3.32
  18   2  -2    6.34    2.65
  18   2  -2   12.98    3.08
  16  -2  -2    2.99    2.46
 -16  -2   2    2.20    3.19
 -16  -2   2    2.88    2.91
  16  -2  -2   -1.00    2.58
  16  -2  -2    0.96    2.35
 -16   2   2    6.95    2.74
 -16   2   2    1.84    2.85
  16   2  -2    1.32    2.38
  16   2  -2    2.84    2.21
 -16   2   2    5.29    3.27
  14  -2  -2  458.94   11.33
  14  -2  -2  472.86   10.75
 -14  -2   2  464.78   11.66
 -14  -2   2  472.41   11.60
  14  -2  -2  482.59   11.49
 -14   2   2  463.05   11.54
  14   2  -2  460.76   10.94
  14   2  -2  426.59   10.77
 -14   2   2  472.83   11.20
 -14   2   2  456.45   11.62
 -12  -2   2   92.51    4.61
  12  -2  -2   97.73    4.78
  12  -2  -2   95.25    4.53
 -12  -2   2  100.96    5.04
  12  -2  -2   95.14    4.38
  12   2  -2   96.63    4.18
 -12   2   2   90.80    5.00
  12   2  -2   93.25    4.13
 -12   2   2   94.76    4.87
 -12   2   2   94.27    4.65
  10  -2  -2    6.90    2.16
 -10  -2   2    4.14    2.09
  10  -2  -2    3.98    1.90
  10  -2  -2    4.46    1.76
  10   2  -2    4.27    1.92
 -10   2   2    3.11    2.19
 -10   2   2    5.49    2.30
 -10   2   2    3.37    2.17
 -10   2   2    6.86    2.44
  10   2  -2    4.41    1.68
   8  -2  -2   10.19    2.27
  -8  -2   2    7.57    2.05
  -8  -2   2    6.79    2.06
   8  -2  -2    5.64    1.81
   8  -2  -2    7.36    1.96
  -8   2   2    5.53    2.03
  -8   2   2    4.54    2.05
  -8   2   2    7.71    2.39
   8   2  -2    6.12    1.54
  -8   2   2    5.58    2.22
   6  -2  -2  216.72    6.10
   6  -2  -2  215.66    5.91
   6  -2  -2  221.82    5.68
  -6  -2   2  218.48    5.34
  -6   2   2  226.40    6.09
  -6   2   2  212.11    5.95
  -6   2   2  220.43    5.85
  -6   2   2  226.74    6.07
   6   2  -2  211.54    5.80
   4  -2  -2  278.57    6.36
   4  -2  -2  264.89    6.56
   4  -2  -2  271.70    6.72
  -4   2   2  268.80    6.14
   4   2  -2  273.01    6.66
  -4   2   2  277.17    6.59
  -4   2   2  276.76    6.55
  -4   2   2  280.62    6.61
  -4   2   2  282.50    6.66
   2  -2  -2 1413.69   25.10
   2  -2  -2 1381.12   25.07
   2  -2  -2 1385.33   24.62
  -2   2   2 1397.31   25.12
  -2   2   2 1332.73   24.82
  -2   2   2 1367.83   24.83
   2   2  -2 1362.09   25.22
  -2   2   2 1365.32   24.81
   0  -2  -2  804.83   15.27
   0  -2  -2  780.46   15.19
   0  -2  -2  791.06   15.07
   0   2  -2  782.65   15.44
   0   2   2  773.71   15.18
   0   2   2  780.28   14.96
   0   2   2  804.23   14.98
  -2  -2  -2  179.51    5.38
  -2  -2  -2  181.00    5.72
  -2  -2  -2  177.00    5.32
   2   2   2  180.66    5.31
   2   2   2  171.95    5.12
   2   2   2  164.95    5.17
  -2   2  -2  175.54    5.50
  -4  -2  -2  130.01    4.77
   4  -2   2  121.76    3.49
  -4  -2  -2  120.51    4.68
  -4  -2  -2  119.21    5.20
   4   2   2  118.27    4.41
   4   2   2  119.24    4.45
   6  -2   2   80.19    3.32
  -6  -2  -2   74.78    4.29
  -6  -2  -2   74.37    4.22
  -6  -2  -2   78.55    4.78
  -6   2  -2   75.36    3.23
   6   2   2   73.67    3.84
  -8  -2  -2   60.41    4.80
   8  -2   2   63.06    3.47
  -8  -2  -2   69.08    4.28
  -8  -2  -2   64.22    4.41
  -8   2  -2   62.51    3.48
   8   2   2   54.19    3.79
 -10  -2  -2    1.40    2.54
 -10  -2  -2    2.77    2.93
 -10  -2  -2   -0.04    2.44
  10  -2   2    6.88    2.09
  10   2   2    0.77    2.03
 -10   2  -2    5.82    2.24
 -12  -2  -2    2.57    2.68
  12  -2   2    7.73    2.37
 -12  -2  -2    3.11    3.33
  12  -2   2    6.03    2.36
 -12  -2  -2    3.60    2.81
 -12   2  -2    4.65    2.47
  12   2   2    6.39    2.48
 -12   2  -2    6.19    2.71
  14  -2   2    5.45    2.54
 -14  -2  -2    3.04    3.01
 -14  -2  -2    0.44    3.56
  14  -2   2    3.11    2.89
 -14  -2  -2    2.34    2.97
 -14   2  -2   -3.26    2.67
  14   2   2    6.38    2.63
 -14   2  -2   -1.50    2.87
  16  -2   2   -2.21    2.93
 -16  -2  -2   -0.83    3.34
 -16  -2  -2   -5.96    3.99
 -16  -2  -2    0.13    3.49
  16  -2   2   -0.54    2.73
  16  -2   2    1.34    2.69
 -16   2  -2   -3.00    3.35
 -16   2  -2    0.94    3.25
  16   2   2    1.20    2.92
  18  -2   2   31.35    4.10
  18  -2   2   32.33    4.73
  18  -2   2   31.16    4.29
 -18  -2  -2   46.61    5.88
 -18  -2  -2   26.49    4.92
 -18  -2  -2   35.06    4.78
 -18   2  -2   38.82    4.78
  18   2   2   30.57    4.36
 -18   2  -2   29.82    4.84
  20  -2   2   45.92    5.12
 -20  -2  -2   37.26    5.51
 -20  -2  -2   46.42    5.94
 -20  -2  -2   47.41    6.69
 -20   2  -2   45.23    5.39
 -20   2  -2   51.15    5.77
  20   2   2   49.46    5.57
 -22  -2  -2  129.37   10.23
  22  -2   2  135.84    8.11
 -22  -2  -2  119.46    9.08
 -22   2  -2  131.62    8.69
 -22   2  -2  126.00    8.04
  22   2   2  121.20    8.07
 -24  -2  -2    4.85    5.59
  24  -2   2    4.42    3.86
 -24  -2  -2    9.59    5.15
 -24   2  -2    3.75    4.55
  24   2   2   -0.33    3.75
 -24   2  -2    3.37    4.35
 -26  -2  -2    0.95    5.24
  26  -2   2    4.96    4.27
 -26  -2  -2    3.64    6.13
 -26   2  -2   -4.34    4.55
  26   2   2   -2.61    4.04
 -26   2  -2  -10.99    4.69
  28  -2   2   -0.15    4.14
 -28  -2  -2   -4.91    6.29
 -28  -2  -2   -5.19    5.38
  28   2   2   -1.41    4.19
 -30  -2  -2   10.58    7.29
 -30  -2  -2    7.81    6.09
  30  -2   2   11.11    5.06
  30   2   2   12.00    5.18
 -32  -2  -2   32.20    7.38
 -32  -2  -2   13.54    8.24
  32  -2   2   33.72    6.71
  32   2   2   34.16    6.40
  35  -3  -2   26.90    6.63
 -35  -3   2   36.37    7.84
  35   3  -2   31.25    6.19
 -35   3   2   17.88    8.11
  33  -3  -2   62.72    7.57
 -33  -3   2   53.76    7.99
 -33   3   2   60.06    7.90
  33   3  -2   69.21    7.14
 -33   3   2   68.10    8.92
  31  -3  -2   87.58    7.93
 -31  -3   2   94.23    9.05
 -31   3   2   89.51    8.76
  31   3  -2   69.74    7.01
 -31   3   2   82.52    8.31
  29  -3  -2   78.58    6.66
  29  -3  -2   84.32    7.58
 -29  -3   2   69.77    7.82
 -29   3   2   84.08    8.16
  29   3  -2   80.65    6.95
 -29   3   2   81.30    7.71
  27  -3  -2   89.78    7.29
 -27  -3   2  103.96    8.46
  27  -3  -2   91.11    6.73
 -27   3   2   98.07   11.01
  27   3  -2   90.01    7.34
 -27   3   2   97.80    8.00
 -27   3   2  105.84    8.30
 -25  -3   2   57.67    6.90
  25  -3  -2   54.77    5.88
  25  -3  -2   50.81    5.39
 -25   3   2   47.02    6.60
  25   3  -2   61.71    5.71
 -25   3   2   54.06    6.07
 -25   3   2   53.21    6.47
 -23  -3   2    1.09    5.47
  23  -3  -2    0.47    4.01
  23  -3  -2   -3.32    3.47
 -23  -3   2    5.45    4.79
  23  -3  -2   -7.53    3.76
 -23   3   2    0.15    4.04
  23   3  -2    1.32    3.43
 -23   3   2   -6.77    4.31
 -23   3   2   -4.99    4.98
  21  -3  -2  267.49    9.87
  21  -3  -2  249.22    9.95
 -21  -3   2  268.06   10.69
 -21  -3   2  236.52   10.99
  21  -3  -2  259.38    9.08
 -21   3   2  265.90   10.69
  21   3  -2  252.52    9.27
 -21   3   2  259.82    9.80
 -21   3   2  261.51    9.69
 -21   3   2  257.36   10.23
 -19  -3   2    4.66    4.25
 -19  -3   2    5.34    3.80
  19  -3  -2    0.85    3.31
  19  -3  -2   -0.94    2.79
  19  -3  -2    7.93    3.28
 -19   3   2   -2.33    3.67
  19   3  -2   -2.86    2.46
 -19   3   2   -2.35    3.22
 -19   3   2   -2.07    4.03
 -19   3   2    1.09    3.50
 -17  -3   2   15.60    4.02
  17  -3  -2   10.95    3.08
  17  -3  -2    9.19    3.30
 -17  -3   2   19.32    3.69
  17  -3  -2    6.54    2.77
 -17   3   2   15.55    3.38
 -17   3   2   12.85    3.42
  17   3  -2   13.25    2.94
 -17   3   2    7.42    3.34
 -17   3   2   12.36    3.82
  17   3  -2    8.86    2.65
 -15  -3   2  111.63    5.85
  15  -3  -2   91.12    5.10
 -15  -3   2   89.52    6.06
  15  -3  -2   96.86    5.17
  15  -3  -2  100.45    5.55
  15   3  -2  101.51    4.81
 -15   3   2  102.06    5.64
 -15   3   2   87.40    5.94
 -15   3   2   93.21    5.49
 -15   3   2   91.03    5.40
  13  -3  -2  503.02   12.02
  13  -3  -2  498.20   11.97
  13  -3  -2  512.82   11.28
 -13  -3   2  500.84   12.04
 -13   3   2  507.32   11.81
  13   3  -2  513.67   11.39
 -13   3   2  510.13   12.06
 -13   3   2  471.75   11.65
 -13   3   2  502.21   12.01
  11  -3  -2  170.21    5.90
  11  -3  -2  172.83    6.15
 -11  -3   2  174.64    5.88
  11  -3  -2  169.14    5.50
  11   3  -2  180.90    5.32
 -11   3   2  177.66    6.09
 -11   3   2  180.10    6.08
 -11   3   2  183.28    6.20
 -11   3   2  185.26    6.08
   9  -3  -2    3.05    2.13
   9  -3  -2    4.81    1.93
  -9  -3   2    1.67    1.83
   9  -3  -2    2.49    1.85
  -9   3   2    2.07    2.23
  -9   3   2    0.32    2.00
  -9   3   2    1.44    1.67
  -9   3   2    0.35    2.17
  -9   3   2   -2.83    1.94
   9   3  -2    2.32    1.48
  -9   3   2    0.31    1.94
   7  -3  -2    0.02    1.70
   7  -3  -2   -1.81    2.02
  -7  -3   2    1.01    1.55
   7  -3  -2   -0.01    1.78
   7   3  -2   -2.96    1.66
  -7   3   2    0.66    1.86
  -7   3   2    0.78    1.93
  -7   3   2    1.65    1.92
  -7   3   2   -0.95    1.82
  -7   3   2    1.55    2.10
  -7   3   2    0.77    1.59
   5  -3  -2  101.68    4.51
   5  -3  -2   99.54    4.08
  -5   3   2  103.38    4.43
  -5   3   2   90.83    3.87
  -5   3   2  105.42    4.12
  -5   3   2  106.65    4.21
   5   3  -2   95.83    4.29
  -5   3   2   98.32    4.03
   3  -3  -2 1083.48   21.50
   3  -3  -2 1080.40   20.73
   3  -3  -2 1098.38   20.19
  -3   3   2 1092.77   20.68
  -3   3   2 1097.56   20.34
   3   3  -2 1088.00   21.13
  -3   3   2 1089.82   20.42
  -3   3   2 1085.67   20.37
  -3   3   2 1131.18   20.75
   1  -3  -2  285.61    7.48
   1  -3  -2  283.45    7.30
  -1   3   2  296.69    7.15
  -1   3   2  296.31    7.08
  -1   3   2  290.74    6.97
  -1   3   2  304.17    7.24
  -1   3   2  282.74    9.00
  -1   3   2  293.97    7.31
   1   3  -2  302.05    7.69
  -1  -3  -2   18.60    2.66
  -1  -3  -2   13.25    2.27
  -1   3  -2   13.92    2.36
   1   3   2   11.94    2.04
   1   3   2   17.59    2.12
   1   3   2   17.05    2.28
   1   3   2   17.62    2.42
  -3  -3  -2   14.18    2.37
  -3  -3  -2   16.85    2.75
   3   3   2   12.42    2.31
   3   3   2   13.43    2.06
   3   3   2    9.63    2.07
  -3   3  -2   17.64    2.57
   3   3   2   13.26    2.28
  -5  -3  -2  203.67    6.35
   5  -3   2  212.24    5.09
  -5  -3  -2  211.03    6.72
   5   3   2  197.08    6.10
   5   3   2  208.40    7.39
   5   3   2  210.26    6.02
  -7  -3  -2  347.55    9.17
  -7  -3  -2  359.62    9.53
   7  -3   2  347.79    8.09
  -7  -3  -2  368.10    8.97
   7   3   2  347.44    8.94
   7   3   2  348.90    8.77
   9  -3   2  482.61   10.95
  -9  -3  -2  493.93   11.56
  -9  -3  -2  494.79   12.21
  -9  -3  -2  488.68   12.02
  -9   3  -2  486.39   10.46
   9   3   2  478.21   11.64
 -11  -3  -2    5.35    2.90
 -11  -3  -2    9.64    3.40
 -11  -3  -2   -0.15    2.57
  11  -3   2    5.82    2.17
  11   3   2    4.89    2.44
 -11   3  -2    6.00    2.24
 -13  -3  -2    6.86    3.78
  13  -3   2    5.25    2.37
 -13  -3  -2    9.47    3.06
 -13  -3  -2    5.19    3.38
  13   3   2    9.89    2.77
 -13   3  -2    9.31    2.64
 -15  -3  -2   19.50    4.18
  15  -3   2   15.29    3.13
 -15  -3  -2   13.14    3.68
 -15  -3  -2   11.89    4.54
  15   3   2    8.51    3.19
 -15   3  -2   13.95    3.22
  17  -3   2    4.10    3.22
 -17  -3  -2    6.98    3.98
  17  -3   2    7.91    3.18
 -17  -3  -2    3.02    5.03
  17  -3   2   11.99    4.32
 -17  -3  -2    6.98    4.28
  17   3   2    4.43    3.41
 -17   3  -2   13.75    3.74
 -19  -3  -2   36.44    5.66
 -19  -3  -2   30.05    6.14
  19  -3   2   21.91    4.16
  19  -3   2   30.05    4.09
  19   3   2   40.40    4.99
 -19   3  -2   29.49    5.01
 -19   3  -2   37.03    4.95
 -21  -3  -2  127.20   10.16
 -21  -3  -2  120.31    9.18
  21  -3   2  127.62    7.75
 -21   3  -2  123.94    7.70
  21   3   2  104.36    7.63
 -21   3  -2  120.54    8.53
  23  -3   2    9.61    3.94
 -23  -3  -2   21.92    6.22
 -23  -3  -2   17.03    5.46
 -23   3  -2   25.02    4.85
  23   3   2   22.93    4.83
 -23   3  -2   19.65    5.18
 -25  -3  -2   56.56    7.84
  25  -3   2   53.80    6.28
 -25  -3  -2   75.37    7.65
  25   3   2   53.77    6.39
 -25   3  -2   54.55    6.65
  27  -3   2   41.27    6.19
 -27  -3  -2   49.97    8.21
 -27  -3  -2   47.07    7.21
 -27   3  -2   45.54    6.77
  27   3   2   45.25    6.35
 -29  -3  -2    2.17    7.12
  29  -3   2    2.22    4.61
 -29  -3  -2   14.65    6.47
  29   3   2   10.37    4.87
 -31  -3  -2   10.28    6.43
  31  -3   2   16.83    5.65
  31   3   2   33.04    6.40
 -34  -4   2    1.68    6.71
  34  -4  -2   -6.26    4.59
  32  -4  -2    4.98    5.01
 -32  -4   2    7.80    6.05
  32   4  -2    1.93    4.65
 -30  -4   2   19.33    6.41
  30  -4  -2   15.97    4.98
  30   4  -2   16.69    4.77
 -30   4   2    7.29    5.51
  28  -4  -2   16.54    4.66
 -28  -4   2    7.80    5.50
  28   4  -2    9.51    4.13
 -28   4   2    4.50    5.51
 -28   4   2   -3.37    4.64
  26  -4  -2   10.84    4.33
  26  -4  -2   21.52    4.65
 -26  -4   2    9.36    5.09
 -26   4   2   11.55    4.94
 -26   4   2    4.66    5.27
 -26   4   2   10.22    4.88
  26   4  -2   13.31    4.18
  24  -4  -2  204.12    9.38
  24  -4  -2  210.28    8.93
 -24  -4   2  193.39   10.39
 -24   4   2  190.47   10.43
 -24   4   2  195.85    9.78
 -24   4   2  205.21    9.85
  24   4  -2  187.30    8.64
  22  -4  -2    3.96    3.99
  22  -4  -2    2.72    3.78
  22  -4  -2    6.46    4.88
 -22  -4   2    9.44    4.92
 -22   4   2    6.99    4.43
 -22   4   2    9.21    4.97
  22   4  -2    0.48    3.36
 -22   4   2    6.77    4.57
  20  -4  -2  272.42   10.28
  20  -4  -2  291.09   10.24
  20  -4  -2  277.26    9.51
 -20  -4   2  290.61   10.92
 -20  -4   2  290.60   11.44
  20   4  -2  292.07    9.50
 -20   4   2  298.77   10.51
 -20   4   2  294.70   10.39
 -20   4   2  258.41   10.46
 -20   4   2  275.61    9.82
 -18  -4   2   42.45    4.96
  18  -4  -2   39.03    4.33
 -18  -4   2   43.83    5.29
  18  -4  -2   34.77    4.10
  18  -4  -2   41.44    4.62
 -18   4   2   41.21    4.53
  18   4  -2   33.15    3.81
 -18   4   2   37.18    4.57
 -18   4   2   51.09    4.84
 -16  -4   2   46.62    4.79
  16  -4  -2   45.82    3.94
  16  -4  -2   57.89    4.62
  16  -4  -2   55.04    4.45
 -16   4   2   46.78    4.27
  16   4  -2   54.82    4.15
 -16   4   2   60.33    4.75
  16   4  -2   54.64    4.30
  14  -4  -2   88.33    5.54
  14  -4  -2   74.50    4.82
  14  -4  -2   86.80    4.91
 -14  -4   2   73.65    5.31
  14   4  -2   90.35    4.37
 -14   4   2   93.61    5.38
 -14   4   2   84.04    5.25
 -12  -4   2   36.05    3.51
  12  -4  -2   33.75    3.52
  12  -4  -2   27.93    3.09
  12  -4  -2   37.11    3.34
 -12   4   2   31.77    3.41
 -12   4   2   38.40    3.36
 -12   4   2   30.08    3.25
  12   4  -2   38.70    3.14
  10  -4  -2   18.29    2.58
 -10  -4   2   19.21    2.66
 -10   4   2   18.64    2.77
 -10   4   2   18.71    2.79
 -10   4   2   20.69    2.61
  10   4  -2   21.41    2.05
   8  -4  -2    0.86    1.80
   8  -4  -2   -1.23    1.90
  -8  -4   2    1.88    1.68
   8   4  -2    2.58    2.05
  -8   4   2   -1.10    1.89
  -8   4   2   -3.20    1.89
  -8   4   2   -2.11    1.92
  -8   4   2   -0.28    1.84
   6  -4  -2   15.83    2.30
   6   4  -2   24.39    2.93
  -6   4   2   15.36    2.34
  -6   4   2   18.89    2.44
  -6   4   2   19.87    2.40
   4  -4  -2  104.60    4.41
  -4   4   2  111.00    4.55
  -4   4   2  109.27    4.19
   4   4  -2  110.58    4.86
   2  -4  -2  220.05    6.36
  -2   4   2  228.91    6.71
  -2   4   2  229.96    6.25
  -2   4   2  223.22    6.17
   2   4  -2  218.32    6.84
   0  -4  -2    4.68    2.06
   0   4   2    8.50    1.82
   0   4   2    8.31    2.08
   0   4   2    7.92    2.08
   0   4   2    8.79    1.90
   0   4  -2    9.39    2.32
  -2  -4  -2   67.39    3.91
   2   4   2   68.23    3.90
  -2   4  -2   63.32    4.05
   2   4   2   65.88    3.93
   2   4   2   64.40    3.54
   2   4   2   69.51    3.67
   2   4   2   63.60    3.81
  -4  -4  -2   41.69    3.33
  -4  -4  -2   45.65    3.56
   4   4   2   38.11    2.79
   4   4   2   40.77    3.08
   4   4   2   40.94    3.19
  -4   4  -2   37.77    3.45
  -6  -4  -2   32.52    3.25
  -6  -4  -2   38.59    3.67
   6  -4   2   32.32    2.29
   6   4   2   33.10    3.24
  -6   4  -2   29.64    3.35
   6   4   2   32.91    2.87
   6   4   2   30.22    2.92
  -8  -4  -2   19.25    3.60
   8  -4   2   13.40    2.05
  -8  -4  -2   16.68    3.07
   8   4   2   15.75    2.72
   8   4   2   16.17    2.66
   8   4   2   14.79    2.61
 -10  -4  -2   91.69    5.72
  10  -4   2   96.10    4.47
 -10  -4  -2   95.81    6.26
  10   4   2   98.60    5.44
  10   4   2   89.23    5.00
  10   4   2   96.76    5.05
 -12  -4  -2   38.16    4.77
 -12  -4  -2   32.94    4.18
  12  -4   2   36.89    3.57
  12   4   2   41.94    4.01
  12   4   2   39.79    3.77
  12   4   2   36.29    3.90
 -14  -4  -2    7.02    4.49
  14  -4   2   15.16    3.09
 -14  -4  -2   16.00    4.15
  14   4   2    6.23    3.17
 -14   4  -2   13.01    2.93
  16  -4   2  166.93    7.37
 -16  -4  -2  144.01    8.01
 -16  -4  -2  164.45    8.67
 -16  -4  -2  161.40    9.53
  16   4   2  160.56    7.66
 -16   4  -2  158.48    6.82
  18  -4   2  178.80    8.27
 -18  -4  -2  195.94    9.72
 -18  -4  -2  183.48   10.61
  18   4   2  183.08    8.71
 -20  -4  -2   -0.12    5.44
  20  -4   2    0.80    3.34
 -20  -4  -2    6.07    4.80
 -20   4  -2   -4.83    4.38
  20   4   2   -0.57    3.64
 -20   4  -2   -2.73    3.57
 -22  -4  -2   68.51    7.82
  22  -4   2   77.39    6.65
 -22  -4  -2   62.21    7.03
 -22   4  -2   73.66    6.54
  22   4   2   67.84    6.34
  24  -4   2   29.79    5.21
 -24  -4  -2   39.89    7.55
 -24  -4  -2   25.12    6.19
  24   4   2   27.17    5.23
 -24   4  -2   26.73    5.70
  26  -4   2   42.73    5.86
 -26  -4  -2   57.07    7.61
 -26   4  -2   42.65    6.58
  26   4   2   57.68    6.59
  28  -4   2   14.46    4.89
 -28  -4  -2   -3.48    5.46
 -28   4  -2    5.67    6.37
 -30  -4  -2    0.96    5.84
  30  -4   2    2.00    4.76
  30   4   2   -1.23    4.51
 -33  -5   2   12.44    6.62
  33  -5  -2    3.46    5.17
 -31  -5   2   85.20    8.82
  31  -5  -2   76.23    8.07
 -29  -5   2   12.58    5.91
  29  -5  -2    2.39    4.36
 -27  -5   2   -3.89    5.11
  27  -5  -2   11.64    4.54
 -27   5   2   12.82    5.04
  27   5  -2    9.65    4.05
 -27   5   2   11.25    4.97
 -25  -5   2   -1.79    4.44
  25  -5  -2   -3.14    3.65
 -25   5   2   -4.21    4.29
  25   5  -2    3.68    3.44
 -25   5   2    3.97    4.34
  23  -5  -2   42.18    5.55
  23  -5  -2   39.72    6.23
 -23  -5   2   46.15    6.12
  23   5  -2   40.56    4.82
 -23   5   2   42.74    5.61
 -23   5   2   44.17    5.51
 -21  -5   2  146.32    9.19
  21  -5  -2  146.76    7.94
  21  -5  -2  152.12    8.13
 -21   5   2  168.59    8.76
 -21   5   2  165.98    8.70
  21   5  -2  153.72    7.43
  19  -5  -2   15.59    3.92
  19  -5  -2   13.65    4.35
  19  -5  -2    6.07    3.53
 -19  -5   2   14.19    4.52
  19   5  -2   16.41    3.29
 -19   5   2   13.34    4.31
  19   5  -2   12.20    3.91
 -19   5   2    6.39    3.87
  17  -5  -2   17.38    3.58
  17  -5  -2   14.45    3.82
 -17  -5   2   17.38    4.27
  17  -5  -2   18.23    3.55
 -17   5   2   18.93    4.13
 -17   5   2   19.21    3.87
  17   5  -2   16.72    3.32
  17   5  -2   15.08    3.07
  15  -5  -2  105.87    5.89
  15  -5  -2  102.37    5.57
  15  -5  -2  102.27    6.36
 -15  -5   2  103.79    6.39
 -15   5   2  101.29    6.02
  15   5  -2   99.47    4.82
 -15   5   2  102.55    6.25
 -13  -5   2  397.43   10.58
  13  -5  -2  370.67   10.47
  13  -5  -2  388.09    9.76
 -13   5   2  388.99   10.54
 -13   5   2  389.57   10.40
 -13   5   2  377.54   10.15
  13   5  -2  386.99    9.25
  11  -5  -2  239.46    7.61
 -11  -5   2  229.66    7.33
  11  -5  -2  228.30    6.95
 -11   5   2  228.16    7.48
 -11   5   2  228.02    7.33
 -11   5   2  240.58    7.29
  11   5  -2  238.16    8.13
   9  -5  -2  571.93   13.05
   9  -5  -2  553.49   12.09
  -9  -5   2  560.20   12.24
  -9   5   2  561.27   12.40
  -9   5   2  560.99   13.01
   9   5  -2  544.39   13.60
  -7  -5   2  250.62    6.39
   7  -5  -2  240.77    7.26
  -7   5   2  244.75    7.49
   7   5  -2  243.00    8.02
  -7   5   2  242.66    6.90
   5  -5  -2  541.89   12.20
   5   5  -2  550.37   13.08
  -5   5   2  529.95   11.61
  -5   5   2  536.31   12.59
   3  -5  -2    2.70    2.08
   3   5  -2    1.58    2.13
  -3   5   2    5.61    1.98
  -3   5   2    7.59    2.47
   1  -5  -2   18.93    2.65
   1   5  -2   28.04    3.33
  -1   5   2   26.31    2.51
  -1   5   2   29.83    3.28
  -1  -5  -2   10.66    2.44
   1   5   2    8.68    1.89
  -1   5  -2    7.51    2.55
  -3  -5  -2  115.92    5.18
   3   5   2  118.56    5.11
   3   5   2  114.20    4.75
  -3   5  -2  109.44    5.54
  -5  -5  -2  125.09    5.74
   5   5   2  125.76    4.98
  -5   5  -2  130.07    6.09
   5   5   2  123.64    5.23
  -7  -5  -2   83.30    5.84
   7  -5   2   95.29    3.94
  -7  -5  -2   89.46    5.35
   7   5   2   94.54    4.74
   7   5   2   97.81    4.92
  -7   5  -2   94.23    5.75
  -9  -5  -2  348.58   10.68
   9  -5   2  348.86    8.88
  -9  -5  -2  369.64   10.54
   9   5   2  368.55    9.63
   9   5   2  362.56    9.88
  11  -5   2    8.19    2.38
 -11  -5  -2   11.14    3.53
 -11  -5  -2    5.96    3.93
  11   5   2    8.41    2.88
  11   5   2    3.24    2.56
  11   5   2    4.33    2.86
 -13  -5  -2  178.68    8.41
  13  -5   2  171.73    6.78
 -13  -5  -2  178.01    9.18
  13   5   2  164.06    7.27
  13   5   2  177.28    7.35
  13   5   2  168.68    7.31
 -15  -5  -2   29.75    5.05
 -15  -5  -2   24.33    5.45
  15  -5   2   32.37    4.04
  15   5   2   25.30    4.15
  15   5   2   22.34    3.87
  15   5   2   26.36    3.90
 -17  -5  -2  380.10   13.69
  17  -5   2  365.72   11.53
 -17  -5  -2  355.88   12.87
  17   5   2  379.40   12.00
  17   5   2  363.93   11.63
 -19  -5  -2  149.77   10.52
  19  -5   2  178.29    8.45
 -19  -5  -2  165.11    9.98
 -19   5  -2  171.50    8.76
  19   5   2  172.07    8.45
  19   5   2  171.61    8.73
 -21  -5  -2   48.47    6.50
  21  -5   2   65.27    6.00
  21   5   2   85.36    6.76
 -21   5  -2   59.15    6.14
  23  -5   2    0.84    3.67
 -23  -5  -2    4.67    4.96
  23   5   2   -0.73    3.93
 -23   5  -2   -1.34    4.94
 -25  -5  -2   16.38    6.11
  25  -5   2   23.53    5.15
  25   5   2   11.35    4.60
 -25   5  -2   12.66    5.48
 -27  -5  -2   32.52    7.03
  27  -5   2   33.06    5.89
 -27   5  -2   25.29    6.24
  27   5   2   29.38    5.68
  29  -5   2    1.78    4.50
 -29  -5  -2    3.62    6.28
  29   5   2    5.52    4.76
  32  -6  -2   -4.61    4.78
 -32  -6   2   -6.43    5.76
 -30  -6   2   -1.04    5.73
  30  -6  -2   -2.48    4.43
 -28  -6   2   -4.03    5.24
  28  -6  -2    2.39    4.45
 -28   6   2    6.80    5.42
  26  -6  -2   32.83    5.52
 -26  -6   2   29.81    6.35
 -26   6   2   38.70    6.39
  24  -6  -2   -0.34    3.78
 -24  -6   2   19.23    5.39
 -24   6   2    8.53    6.33
 -24   6   2    4.66    4.83
  22  -6  -2  112.84    7.48
 -22  -6   2   98.05    7.78
  22   6  -2  122.20    6.81
 -22   6   2  109.50    7.62
 -22   6   2  116.43    7.61
 -20  -6   2  371.73   12.66
  20  -6  -2  337.87   11.85
 -20   6   2  346.62   11.94
  20   6  -2  343.44   10.33
 -20   6   2  356.88   11.47
  18  -6  -2   32.45    4.34
 -18  -6   2   34.23    5.09
  18  -6  -2   38.52    4.58
 -18   6   2   34.24    4.94
 -18   6   2   38.24    4.64
  18   6  -2   29.60    3.69
  16  -6  -2   27.86    4.01
  16  -6  -2   28.38    3.97
 -16  -6   2   36.48    4.74
 -16   6   2   27.60    4.05
  16   6  -2   31.58    3.39
 -16   6   2   31.71    4.59
 -14  -6   2    9.16    3.59
  14  -6  -2   13.73    3.20
  14  -6  -2   14.66    3.36
 -14   6   2   13.17    3.68
 -14   6   2   12.63    3.40
  12  -6  -2   29.49    3.55
  12  -6  -2   32.75    3.54
 -12  -6   2   32.52    3.85
 -12   6   2   36.40    3.76
 -12   6   2   30.47    3.94
  12   6  -2   40.51    4.70
  10  -6  -2    6.64    2.73
 -10  -6   2    8.15    2.58
 -10   6   2    4.63    2.51
  10   6  -2    5.19    2.89
 -10   6   2    1.30    2.77
  -8  -6   2   -3.10    2.05
   8  -6  -2    1.37    2.35
   8   6  -2   -0.53    2.54
  -8   6   2   -0.79    2.05
  -8   6   2   -2.07    2.34
   6  -6  -2   51.94    3.76
  -6   6   2   46.88    3.64
   6   6  -2   48.20    4.52
  -6   6   2   36.16    3.90
   4  -6  -2  118.67    5.45
   4   6  -2  115.07    5.97
  -4   6   2  112.38    4.58
  -4   6   2  120.64    5.86
   2  -6  -2   17.27    2.84
  -2   6   2   17.24    2.44
   2   6  -2   16.40    3.34
  -2   6   2   17.96    3.38
   0  -6  -2   12.26    2.58
   0   6   2    8.50    2.11
   0   6  -2   13.86    3.08
   0   6   2    8.12    2.80
  -2  -6  -2   34.11    3.48
   2   6   2   37.45    3.00
  -2   6  -2   37.94    3.98
  -4  -6  -2   33.33    3.57
   4   6   2   34.85    3.15
  -4   6  -2   41.01    4.20
  -6  -6  -2  189.49    7.35
  -6   6  -2  189.23    7.86
   6   6   2  201.61    6.74
   6   6   2  197.20    7.17
   8  -6   2   44.46    3.29
  -8  -6  -2   49.60    5.02
  -8  -6  -2   42.09    4.44
   8   6   2   48.20    4.25
   8   6   2   53.32    4.04
  -8   6  -2   42.00    4.75
 -10  -6  -2   86.83    6.40
  10  -6   2   78.89    4.68
 -10  -6  -2   86.77    6.23
  10   6   2   81.09    5.31
  10   6   2   78.35    5.50
  12  -6   2   68.91    4.90
 -12  -6  -2   72.26    5.95
 -12  -6  -2   56.34    6.20
  12   6   2   73.63    5.50
  12   6   2   64.83    4.91
 -14  -6  -2   -0.12    4.80
 -14  -6  -2    2.42    4.11
  14  -6   2   -0.86    2.82
  14   6   2    3.43    3.30
  14   6   2    2.66    3.14
 -16  -6  -2  136.77    8.81
  16  -6   2  151.08    7.38
  16   6   2  141.04    7.67
  16   6   2  154.74    7.65
  16   6   2  141.05    7.76
 -18  -6  -2   43.21    5.97
  18  -6   2   38.70    4.95
  18   6   2   38.85    4.98
  18   6   2   43.74    5.13
 -20  -6  -2    3.79    4.69
  20  -6   2    3.71    3.59
  20   6   2    9.50    3.85
  20   6   2    2.77    3.62
 -22  -6  -2   57.84    7.20
  22  -6   2   65.10    6.26
  22   6   2   73.04    6.57
  22   6   2   67.42    6.25
 -24  -6  -2    8.94    5.68
  24  -6   2   -8.65    3.77
  24   6   2    0.94    3.86
  24   6   2   -5.31    3.84
 -24   6  -2    7.25    5.07
  26  -6   2   60.20    6.87
 -26  -6  -2   40.96    7.34
 -26   6  -2   44.55    6.86
  26   6   2   65.48    6.79
  26   6   2   44.46    5.84
 -28  -6  -2   15.91    6.90
  28  -6   2    4.55    4.62
  28   6   2   10.24    4.87
 -28   6  -2   15.81    6.17
  28   6   2   15.20    6.92
  31  -7  -2   20.03    6.00
 -31  -7   2    9.71    6.37
 -29  -7   2   15.32    5.89
  29  -7  -2    6.78    4.86
 -29   7   2    7.26    7.43
 -27  -7   2   -4.73    4.96
  27  -7  -2   -3.87    4.20
 -27   7   2   -2.10    5.08
 -25  -7   2    0.89    4.73
  25  -7  -2   -1.43    3.95
 -25   7   2   -3.01    4.82
 -23  -7   2    3.32    4.75
  23  -7  -2    5.96    4.02
 -23   7   2    3.16    5.03
  21  -7  -2  171.39    8.94
 -21  -7   2  175.14    9.60
 -21   7   2  158.91    9.30
  19  -7  -2   37.57    4.87
 -19  -7   2   26.36    5.25
 -19   7   2   29.58    4.60
 -19   7   2   30.09    5.16
  17  -7  -2   45.92    5.10
 -17  -7   2   56.39    5.87
 -17   7   2   39.55    5.37
  17   7  -2   56.17    6.29
 -17   7   2   41.50    4.56
 -15  -7   2   -0.93    3.78
  15  -7  -2   -2.18    2.96
 -15   7   2    5.59    3.99
 -15   7   2   -3.57    3.05
  15   7  -2    1.01    3.71
  13  -7  -2   13.31    3.52
 -13  -7   2   24.19    4.09
  13   7  -2   17.45    4.40
 -13   7   2   18.97    4.19
 -13   7   2   16.16    3.41
  11  -7  -2   71.60    5.55
 -11  -7   2   75.52    5.53
 -11   7   2   73.66    6.03
  11   7  -2   77.52    6.37
 -11   7   2   77.78    5.04
  -9  -7   2  139.06    6.00
   9  -7  -2  141.50    6.54
  -9   7   2  144.96    7.14
   9   7  -2  146.35    7.59
  -9   7   2  135.40    5.68
  -7  -7   2    2.57    2.34
   7  -7  -2   -2.50    2.65
  -7   7   2    2.20    2.92
  -7   7   2    1.44    2.22
   7   7  -2    4.52    3.31
   5  -7  -2   15.02    3.14
   5   7  -2   18.85    3.71
  -5   7   2   10.31    3.24
   3  -7  -2   88.53    5.24
   3   7  -2   93.20    6.08
  -3   7   2   81.48    5.76
   1  -7  -2  133.20    6.22
   1   7  -2  143.81    7.11
  -1   7   2  146.91    5.28
  -1   7   2  147.92    7.22
  -1  -7  -2   -2.23    2.59
   1   7   2    2.21    3.06
  -1   7  -2    2.97    2.86
   1   7   2    0.15    1.88
  -3  -7  -2   42.66    4.15
  -3   7  -2   39.96    4.65
   3   7   2   51.03    5.11
   3   7   2   48.69    3.83
  -5  -7  -2   44.71    4.30
  -5   7  -2   38.69    4.85
   5   7   2   54.26    4.20
  -7  -7  -2   17.20    3.97
   7   7   2   15.62    2.98
  -7   7  -2   12.24    3.94
  -9  -7  -2    3.42    3.64
   9  -7   2    8.61    2.67
  -9   7  -2   -1.71    3.44
   9   7   2    2.85    2.69
 -11  -7  -2   -0.35    3.90
  11  -7   2   -3.02    2.63
 -11   7  -2    7.36    4.24
  11   7   2   -2.70    2.90
  13  -7   2    1.08    2.79
 -13  -7  -2    3.54    4.32
  13   7   2    1.39    3.21
 -15  -7  -2  151.96    9.27
  15  -7   2  148.29    7.34
  15   7   2  156.21    7.65
 -17  -7  -2  256.39   11.60
  17  -7   2  283.94   10.14
  17   7   2  274.53   10.21
  17   7   2  271.70    9.78
 -19  -7  -2   33.74    6.06
  19  -7   2   28.91    4.63
  19   7   2   30.93    5.01
  19   7   2   23.38    4.37
  21  -7   2    5.00    3.97
 -21  -7  -2    5.34    5.02
  21   7   2    6.39    4.00
  21   7   2    3.34    3.93
  23  -7   2    0.23    3.88
 -23  -7  -2    7.48    5.74
  23   7   2   -4.55    3.89
  23   7   2    4.67    3.86
  25  -7   2   -9.81    3.55
 -25  -7  -2   -6.27    5.36
  25   7   2    1.97    4.00
  27  -7   2   -1.79    4.40
 -27  -7  -2    4.12    6.60
  27   7   2   -0.21    4.26
 -27   7  -2    0.67    5.82
  30  -8  -2    4.76    5.28
 -30  -8   2    4.40    5.99
 -28  -8   2   29.40    6.61
  28  -8  -2   34.70    6.04
 -28   8   2   16.57    6.20
  26  -8  -2   48.39    6.34
 -26  -8   2   31.04    6.49
 -26   8   2   32.36    6.65
  24  -8  -2  106.50    8.31
 -24  -8   2  122.51    9.31
 -24   8   2  112.83    8.42
 -22  -8   2    4.89    4.71
  22  -8  -2    4.89    4.14
 -20  -8   2   -2.66    4.15
  20  -8  -2   -0.15    3.46
  20   8  -2   -5.73    3.68
 -20   8   2  -11.00    4.05
 -18  -8   2  255.08   10.47
  18  -8  -2  220.21    9.76
  18   8  -2  230.80   10.80
  16  -8  -2   55.46    5.49
 -16  -8   2   59.63    5.90
  16   8  -2   40.23    5.81
 -16   8   2   44.46    5.84
  14  -8  -2   18.23    4.12
 -14  -8   2   16.71    4.31
 -14   8   2   20.00    4.81
  14   8  -2   20.10    4.56
  12  -8  -2   90.44    6.48
 -12  -8   2   98.75    6.52
 -12   8   2   92.79    7.28
  12   8  -2  100.64    7.74
  10  -8  -2   71.99    5.51
 -10  -8   2   76.15    5.66
 -10   8   2   72.94    5.98
  10   8  -2   67.45    6.24
  -8  -8   2   30.77    3.53
   8  -8  -2   31.23    4.14
   8   8  -2   43.04    5.27
  -8   8   2   36.47    4.76
   6  -8  -2    5.07    3.23
  -6  -8   2    1.56    2.54
  -6   8   2    2.99    3.34
   6   8  -2   -1.07    3.39
   4  -8  -2    0.02    2.90
   4   8  -2   -0.81    3.14
  -4   8   2    0.90    3.29
   2  -8  -2    3.24    2.97
   2   8  -2    1.53    3.36
  -2   8   2    3.85    3.59
   0  -8  -2   27.55    3.93
   0   8   2   24.69    4.53
   0   8  -2   18.37    4.21
  -2  -8  -2   82.21    5.96
  -2   8  -2   81.30    6.60
   2   8   2   77.89    6.35
  -4  -8  -2   -0.45    3.20
   4   8   2   -0.18    2.15
   4   8   2    2.68    3.68
  -4   8  -2   -1.72    3.15
  -6  -8  -2   38.89    4.67
   6   8   2   39.76    5.35
  -6   8  -2   33.34    4.91
   6   8   2   33.01    3.41
  -8  -8  -2    4.40    3.84
   8   8   2    9.08    2.90
  -8   8  -2    2.84    3.89
  10  -8   2  101.89    5.75
 -10  -8  -2   99.60    7.63
 -10   8  -2  103.90    8.17
  10   8   2  105.08    6.05
  12  -8   2   42.08    4.34
 -12  -8  -2   43.64    5.74
 -12   8  -2   44.63    6.19
  12   8   2   40.42    4.33
  14  -8   2    2.29    3.10
 -14  -8  -2   -4.15    4.20
  14   8   2    3.79    3.26
 -16  -8  -2   -3.89    4.26
  16  -8   2   -1.74    3.05
  16   8   2    1.88    3.30
 -18  -8  -2   47.33    6.47
  18  -8   2   41.67    5.08
 -20  -8  -2   11.54    5.50
  20  -8   2   16.47    4.47
  22  -8   2    1.10    4.20
 -22  -8  -2   -3.37    5.07
  24  -8   2    0.11    4.26
 -24  -8  -2   -0.97    5.72
  24   8   2    4.59    3.97
 -26  -8  -2   -5.61    5.79
  26  -8   2    3.51    4.69
  29   9  -2   85.63    9.39
 -27  -9   2   15.10    5.71
  27  -9  -2    8.72    5.13
 -27   9   2    7.13    5.89
  27   9  -2   18.99    6.08
  25  -9  -2    3.76    4.71
 -25  -9   2   18.10    5.72
 -25   9   2   12.03    6.04
  25   9  -2   13.94    5.61
  23  -9  -2   16.03    4.88
 -23  -9   2   18.49    5.45
  23   9  -2   11.96    5.12
 -23   9   2   15.10    5.73
  21  -9  -2    7.08    4.09
 -21  -9   2    8.75    4.79
  21   9  -2    3.46    4.55
 -19  -9   2   -0.22    4.14
  19  -9  -2    0.80    3.83
  19   9  -2    2.88    4.12
  17  -9  -2   33.04    4.93
 -17  -9   2   31.43    5.06
 -17   9   2   20.44    5.13
  17   9  -2   36.32    5.60
 -15  -9   2   -1.33    3.63
  15  -9  -2   -5.06    3.34
 -15   9   2   -5.98    3.94
  15   9  -2    5.89    4.29
  13  -9  -2   95.34    7.06
 -13  -9   2   85.77    6.86
  13   9  -2   86.99    7.49
 -13   9   2   97.62    7.38
  11  -9  -2   -2.40    3.49
 -11  -9   2    2.34    3.56
  11   9  -2   -1.79    3.84
 -11   9   2    2.16    3.90
  -9  -9   2   11.45    3.61
   9  -9  -2   19.69    4.20
  -9   9   2   20.35    4.84
   9   9  -2   24.18    5.08
  -7  -9   2    1.30    3.02
   7  -9  -2    3.76    3.41
   7   9  -2    3.68    4.15
  -7   9   2   -0.52    3.81
   5  -9  -2  408.66   11.87
   5   9  -2  376.41   13.09
  -5   9   2  381.07   12.89
   3  -9  -2   47.76    5.01
   3   9  -2   65.40    6.49
  -3   9   2   49.87    5.77
   1  -9  -2   -4.02    3.30
  -1   9   2    3.26    3.99
   1   9  -2    5.84    3.94
  -1  -9  -2   85.81    6.50
  -1   9  -2   82.25    6.89
   1   9   2  104.79    7.76
  -3  -9  -2   18.78    4.24
  -3   9  -2   15.23    4.56
   3   9   2   19.08    4.92
  -5  -9  -2   34.57    4.91
   5   9   2   25.82    5.36
  -5   9  -2   32.73    5.26
  -7  -9  -2   20.42    4.62
   7   9   2   17.37    5.14
  -7   9  -2   18.30    4.98
   9  -9   2    5.64    2.91
  -9  -9  -2    3.72    3.98
  -9   9  -2   -2.54    4.17
   9   9   2   -0.05    4.16
 -11  -9  -2   51.65    5.86
  11  -9   2   52.96    4.53
  11   9   2   54.81    5.84
 -11   9  -2   44.50    6.42
 -13  -9  -2   11.70    4.80
  13  -9   2   21.71    3.93
  15  -9   2   45.60    4.91
 -15  -9  -2   46.08    6.23
  17  -9   2   10.94    3.92
 -17  -9  -2   -0.67    5.00
 -19  -9  -2    5.98    5.40
  19  -9   2    8.63    3.93
  21  -9   2    1.80    4.31
 -21  -9  -2   -3.26    5.05
  23  -9   2   -4.44    4.04
 -23  -9  -2   10.76    6.39
 -25  -9  -2   -2.86    6.09
  25  -9   2    1.57    4.62
  26 -10  -2   -0.67    4.67
 -26 -10   2    3.84    5.78
  26  10  -2   -6.45    4.70
 -26  10   2    3.24    5.93
 -24 -10   2   23.57    6.15
  24 -10  -2   22.87    5.63
  24  10  -2   11.96    5.66
 -24  10   2   11.37    5.65
 -22 -10   2   -3.33    4.72
  22 -10  -2    0.23    3.95
 -22  10   2   -0.78    5.22
  22  10  -2   -1.31    4.41
 -20 -10   2   10.43    5.06
  20 -10  -2   20.94    4.98
  20  10  -2    9.10    5.01
  18 -10  -2  182.26    9.67
 -18 -10   2  193.27    9.95
  18  10  -2  175.04   10.72
 -18  10   2  189.04   10.76
 -16 -10   2  104.76    8.02
  16 -10  -2   97.17    7.57
 -16  10   2   92.25    8.12
  16  10  -2   91.80    8.19
 -14 -10   2    4.06    4.02
  14 -10  -2    2.82    3.79
 -14  10   2    2.25    4.65
  14  10  -2    9.18    4.38
 -12 -10   2  113.00    7.32
  12 -10  -2  104.40    7.36
  12  10  -2  105.24    8.41
 -12  10   2  103.60    8.36
  10 -10  -2   -2.59    3.45
 -10 -10   2   -1.10    3.26
 -10  10   2   -1.98    3.80
  10  10  -2    0.90    3.79
  -8 -10   2    3.44    3.17
   8 -10  -2   -1.31    3.55
   8  10  -2    1.79    3.74
  -8  10   2    0.47    3.97
   6 -10  -2    6.78    3.81
  -6 -10   2    4.91    3.08
   6  10  -2    7.53    4.28
  -6  10   2    4.37    4.11
   4 -10  -2   71.65    6.00
  -4  10   2   69.79    6.80
   4  10  -2   71.83    7.03
   2 -10  -2   48.04    5.25
  -2  10   2   45.63    5.85
   2  10  -2   49.63    6.31
   0 -10  -2   16.33    4.34
   0  10   2   19.32    4.83
   0  10  -2   12.32    4.57
  -2 -10  -2   14.30    4.29
  -2  10  -2    7.51    4.15
   2  10   2   11.58    4.47
  -4 -10  -2   19.28    4.42
  -4  10  -2   12.61    4.57
   4  10   2   16.50    4.94
  -6 -10  -2    3.54    3.87
   6  10   2    4.94    4.26
  -6  10  -2    2.26    4.33
   8 -10   2  144.74    6.79
  -8 -10  -2  145.14    8.62
  -8  10  -2  151.68    9.42
   8  10   2  150.81    9.49
 -10 -10  -2    2.70    4.12
  10 -10   2    1.42    2.87
 -10  10  -2    1.56    4.44
  10  10   2    2.94    4.37
  10  10   2   -3.09    4.03
  12 -10   2   -0.20    3.00
 -12 -10  -2   -5.29    4.00
 -12  10  -2   -0.88    4.59
  12  10   2    0.18    4.41
 -14 -10  -2   38.74    5.89
  14 -10   2   52.63    5.24
  14  10   2   53.55    6.40
 -16 -10  -2   -8.50    4.53
  16 -10   2    6.87    3.82
  16  10   2    2.58    5.18
  18 -10   2   45.95    5.54
 -18 -10  -2   50.42    7.03
  18  10   2   41.10    6.81
  20 -10   2   37.27    5.50
 -20 -10  -2   52.19    7.36
 -22 -10  -2    1.92    5.95
  22 -10   2   10.99    4.66
  23 -11  -2   17.99    5.68
 -23 -11   2   12.08    5.92
  23  11  -2   24.30    6.19
  21 -11  -2   14.16    4.82
  21  11  -2   21.22    5.92
 -19 -11   2   31.04    5.98
  19 -11  -2   24.74    5.24
  19  11  -2   22.16    6.14
 -19  11   2   22.07    6.26
  17 -11  -2   20.19    4.84
 -17 -11   2   28.88    5.35
 -17  11   2   15.38    5.57
  17  11  -2   21.15    5.66
 -15 -11   2    0.67    4.15
  15 -11  -2    2.67    3.79
  15  11  -2    3.20    4.43
 -15  11   2    3.76    4.77
  13 -11  -2    6.91    4.02
 -13 -11   2    4.78    3.92
 -13  11   2    4.58    4.59
  13  11  -2   13.30    4.96
  11 -11  -2   35.25    5.07
 -11 -11   2   30.15    4.90
 -11  11   2   26.37    5.74
  11  11  -2   35.34    6.00
  -9 -11   2   17.39    4.00
   9 -11  -2    9.20    4.09
  -9  11   2    2.87    4.31
   9  11  -2   -0.38    3.82
   7 -11  -2   -3.38    3.46
  -7 -11   2    0.70    3.31
   7  11  -2    0.36    4.12
  -7  11   2    0.93    4.34
   5 -11  -2   58.94    5.78
  -5 -11   2   62.26    4.97
  -5  11   2   48.46    6.42
   5  11  -2   57.15    6.74
   3 -11  -2    2.49    3.87
   3  11  -2   -1.47    3.90
  -3  11   2    0.73    4.28
   1 -11  -2    3.16    3.75
  -1  11   2    4.15    4.13
   1  11  -2    0.97    3.87
  -1 -11  -2  114.99    7.72
  -1  11  -2  120.28    8.89
   1  11   2  121.18    8.83
  -3 -11  -2   -5.80    3.64
   3  11   2   19.46    4.88
  -3  11  -2    1.80    4.23
  -5 -11  -2   51.19    5.78
   5  11   2   44.75    6.45
  -5  11  -2   46.99    6.31
   7 -11   2   57.04    4.93
  -7 -11  -2   57.26    6.20
   7  11   2   55.23    7.11
  -7  11  -2   55.15    6.85
  -9 -11  -2   20.90    5.09
   9 -11   2   23.49    3.97
   9  11   2   35.52    6.06
  -9  11  -2   19.68    5.65
 -11 -11  -2   14.95    5.04
  11 -11   2    8.45    3.65
 -11  11  -2   -5.89    4.59
  11  11   2    9.53    5.01
  11  11   2    9.32    5.02
 -13 -11  -2   38.06    6.08
  13 -11   2   26.53    4.47
  13  11   2   30.84    5.80
  13  11   2   24.87    5.92
 -13  11  -2   26.85    6.48
 -15 -11  -2    8.26    5.25
  15 -11   2   11.13    3.90
  15  11   2    9.67    5.62
  15  11   2    0.99    4.92
  17 -11   2   15.15    4.30
 -17 -11  -2   10.47    5.57
  17  11   2   13.65    5.85
  17  11   2   14.28    5.74
  19 -11   2   15.28    4.79
 -19 -11  -2    8.67    5.75
  19  11   2   -2.30    5.30
  19  11   2    9.79    5.80
 -20 -12   2   -6.02    5.02
  20 -12  -2    0.29    4.74
  20  12  -2    5.71    5.15
 -18 -12   2    1.58    4.90
  18 -12  -2    3.50    4.43
  18  12  -2    3.69    5.01
 -18  12   2   -5.07    5.45
 -16 -12   2   13.64    5.09
  16 -12  -2   14.39    4.87
 -16  12   2   15.95    6.16
  16  12  -2   16.81    5.46
  14 -12  -2   13.22    4.58
 -14 -12   2   27.00    5.39
  14  12  -2   25.00    5.82
 -14  12   2   22.57    6.13
 -12 -12   2   -0.76    4.02
  12 -12  -2    8.99    4.27
 -12  12   2    1.75    5.08
  12  12  -2    7.10    4.67
  10 -12  -2   44.45    5.80
 -10 -12   2   41.77    5.39
 -10  12   2   30.94    6.18
  10  12  -2   49.85    6.66
  -8 -12   2    6.94    3.89
   8 -12  -2    4.87    4.30
   8  12  -2   10.85    4.93
  -8  12   2    3.34    4.90
   6 -12  -2   -2.27    3.84
  -6 -12   2   -6.50    3.23
  -6  12   2   -6.01    4.15
   6  12  -2   -2.99    4.04
   4 -12  -2   11.84    4.68
  -4 -12   2   16.37    3.71
  -4  12   2   16.13    5.18
   4  12  -2   12.50    4.91
   2 -12  -2    2.43    4.25
   2  12  -2    9.48    4.54
  -2  12   2    2.39    4.56
   0 -12  -2   14.86    4.72
   0  12   2   20.59    5.59
   0  12  -2   19.08    5.52
  -2 -12  -2    3.38    4.16
  -2  12  -2    3.40    4.48
   2  12   2    5.76    4.47
  -4 -12  -2    7.55    4.48
   4  12   2    1.81    4.62
  -4  12  -2    5.59    4.56
  -6 -12  -2    3.41    4.29
   6  12   2   -5.82    4.01
  -6  12  -2   -3.30    4.35
  -8 -12  -2   -2.64    4.15
  -8  12  -2   -1.32    4.90
   8  12   2    0.17    4.51
 -10 -12  -2    9.32    4.93
  10 -12   2    6.57    3.57
  10  12   2    7.91    5.13
 -10  12  -2    3.08    5.26
 -12 -12  -2   22.78    5.76
  12 -12   2   22.68    4.44
 -12  12  -2   25.69    6.73
  12  12   2   29.15    6.58
  14 -12   2   26.42    4.77
 -14 -12  -2   12.68    5.70
 -14  12  -2   18.58    6.56
  14  12   2   23.80    6.01
  14  12   2   21.63    6.04
 -16 -12  -2   -1.88    5.20
  16 -12   2    5.15    4.18
  16  12   2    9.16    5.47
  18  12   2    9.05    5.91
 -17 -13   2   44.76    6.63
  17 -13  -2   48.50    6.69
  17  13  -2   41.52    7.29
 -17  13   2   53.70    8.34
  15 -13  -2   80.39    7.57
 -15 -13   2   84.45    7.63
 -15  13   2   74.34    8.69
  15  13  -2   72.71    8.51
  13 -13  -2   12.19    4.95
 -13 -13   2   15.31    5.09
 -13  13   2   14.48    5.92
  13  13  -2   26.70    6.27
  11 -13  -2   48.46    6.17
 -11 -13   2   40.87    5.65
 -11  13   2   49.48    7.52
  11  13  -2   55.45    7.40
  -9 -13   2  156.89    8.87
   9 -13  -2  144.04    9.42
   9  13  -2  150.35   10.94
  -9  13   2  163.56   10.94
  -7 -13   2   83.10    6.46
   7 -13  -2   71.57    7.21
  -7  13   2   86.98    8.91
   7  13  -2   81.72    8.46
  -5 -13   2   94.20    7.25
   5 -13  -2  100.54    7.72
   5  13  -2   85.25    8.80
  -5  13   2  118.26    9.80
  -3 -13   2    3.36    3.68
   3 -13  -2    4.58    4.57
   3  13  -2   13.71    5.25
  -3  13   2   14.64    5.41
   1 -13  -2   20.32    5.18
   1  13  -2   22.56    6.25
  -1  13   2   29.72    6.21
  -1 -13  -2  113.86    8.67
  -1  13  -2  103.08    9.42
   1  13   2  109.00    9.48
  -3 -13  -2   27.70    5.61
   3  13   2   22.38    5.82
  -3  13  -2   18.62    5.92
  -5 -13  -2   -4.55    4.26
   5 -13   2    5.97    3.59
  -5  13  -2    4.21    5.06
   5  13   2   -1.69    4.55
   7 -13   2    3.41    3.59
  -7 -13  -2    0.18    4.57
  -7  13  -2    5.44    5.53
   7  13   2    6.78    4.98
  -9 -13  -2    1.55    4.70
   9 -13   2    6.58    3.72
   9  13   2    1.53    4.79
  -9  13  -2    2.68    5.26
  11 -13   2   44.79    5.46
 -11 -13  -2   38.39    6.59
  11  13   2   32.48    6.56
 -11  13  -2   41.84    7.83
 -13 -13  -2   70.22    7.90
  13 -13   2   80.81    6.73
 -13  13  -2   84.13    9.56
  13  13   2   58.63    8.38
  10 -14  -2    1.71    4.60
 -10 -14   2   -7.49    4.27
 -10  14   2   -1.51    5.39
  10  14  -2    4.51    5.15
  -8 -14   2    6.27    4.41
   8 -14  -2    4.89    4.90
  -8  14   2   -2.50    4.94
   8  14  -2   -0.52    4.73
   6 -14  -2   -4.47    4.31
  -6 -14   2    5.45    4.13
  -6  14   2    3.56    5.94
   6  14  -2   10.65    5.85
  -4 -14   2   -3.37    3.84
   4 -14  -2   -2.14    4.20
  -4  14   2    4.79    5.48
   4  14  -2    0.96    4.92
   2 -14  -2   10.18    5.20
  -2 -14   2    9.04    4.15
   2  14  -2    5.75    5.49
  -2  14   2   21.50    6.34
   0 -14  -2   -6.42    4.55
   0  14   2    0.82    5.05
   0  14  -2   -4.67    4.54
   2 -14   2   -1.77    3.63
  -2 -14  -2    2.33    4.82
   2  14   2    4.79    5.56
  -2  14  -2   -2.97    5.11
  -4 -14  -2   21.89    5.70
   4  14   2   10.72    5.54
  -4  14  -2   25.43    6.83
   6 -14   2    1.06    4.02
  -6 -14  -2    7.53    5.19
  -6  14  -2   -3.06    5.33
   6  14   2    4.99    5.19
  -8  14  -2    8.60    6.24
   8  14   2   14.77    5.98
 -36   0   3   -8.13    6.07
  36   0  -3    6.10    5.49
 -34   0   3   -3.90    5.78
  34   0  -3   -2.41    4.23
 -34   0   3  -11.90    6.73
 -32   0   3   -3.88    5.44
  32   0  -3    1.87    4.42
 -32   0   3   -7.35    6.67
 -30   0   3   -1.07    6.25
  30   0  -3   -5.51    3.88
 -30   0   3   -2.10    5.20
 -28   0   3    0.51    5.03
  28   0  -3   -0.68    3.63
 -28   0   3   -0.60    5.70
 -26   0   3  -11.32    5.27
  26   0  -3   -3.89    3.30
  26   0  -3   -4.40    4.15
 -26   0   3    4.57    4.81
 -24   0   3   -3.52    5.06
 -24   0   3    2.95    4.71
  24   0  -3    1.17    3.86
  24   0  -3    0.36    3.45
 -22   0   3   -1.78    4.88
 -22   0   3    3.81    4.20
  22   0  -3    0.21    3.55
  22   0  -3    4.90    3.21
 -22   0   3   -2.03    3.63
  20   0  -3    3.09    2.76
 -20   0   3   -2.49    3.47
  20   0  -3    3.10    3.18
 -20   0   3    2.84    3.31
 -20   0   3   -1.17    4.04
 -18   0   3   -4.02    2.63
 -18   0   3   -6.07    3.33
  18   0  -3   -3.16    2.30
 -18   0   3   -4.19    2.96
  18   0  -3   -2.47    2.58
 -16   0   3   -1.49    2.79
 -16   0   3   -2.42    3.06
 -16   0   3   -4.04    2.43
  16   0  -3   -0.38    2.12
  16   0  -3   -3.59    2.50
  16   0  -3    0.06    2.34
  14   0  -3   -3.88    2.29
 -14   0   3   -6.00    2.17
  14   0  -3   -0.88    1.96
  14   0  -3   -7.38    2.01
 -14   0   3   -0.99    2.47
 -14   0   3   -3.92    2.47
 -14   0   3  -10.92    2.59
  12   0  -3   -1.49    2.01
 -12   0   3    0.19    2.23
 -12   0   3   -2.68    1.85
  12   0  -3    0.23    1.76
 -12   0   3    0.53    2.11
 -12   0   3   -0.28    2.41
  12   0  -3   -0.49    1.70
 -10   0   3    0.16    2.25
  10   0  -3   -0.10    1.57
 -10   0   3    0.93    2.09
  10   0  -3   -0.03    1.93
 -10   0   3   -3.44    1.92
  10   0  -3    0.62    1.88
   8   0  -3   -0.91    1.82
  -8   0   3   -2.15    2.00
   8   0  -3   -1.11    1.46
   8   0  -3    0.93    1.91
  -8   0   3    1.12    1.93
  -8   0   3    0.71    2.14
   6   0  -3   -0.84    1.73
  -6   0   3   -0.04    1.59
   6   0  -3    1.14    1.69
   6   0  -3    3.28    1.78
  -6   0   3   -1.68    1.74
  -6   0   3   -2.52    1.65
   6   0  -3    0.34    1.43
  -4   0   3   -1.70    1.28
   4   0  -3   -1.85    1.12
  -4   0   3    0.57    1.36
   2   0  -3    0.36    1.20
  -2   0   3   -1.15    1.23
  -2   0   3   -0.64    1.18
   0   0  -3   -0.41    1.46
   0   0   3   -3.46    1.35
   2   0   3   -0.54    1.55
  -2   0  -3   -0.12    1.71
   4   0   3   -1.86    1.53
  -4   0  -3    4.19    1.87
  -4   0  -3   -3.57    1.74
  -4   0  -3   -0.99    1.79
  -6   0  -3   -0.76    2.16
  -6   0  -3   -4.30    1.90
   6   0   3   -0.12    1.73
  -6   0  -3   -2.23    1.88
  -6   0  -3    2.09    2.02
  -8   0  -3   -2.82    2.12
  -8   0  -3   -1.11    2.12
  -8   0  -3   -1.57    2.05
   8   0   3   -0.79    1.87
  -8   0  -3    0.59    2.43
 -10   0  -3   -4.46    2.79
 -10   0  -3   -2.70    2.49
  10   0   3   -0.83    2.03
 -10   0  -3   -3.66    2.42
 -10   0  -3   -0.86    2.29
 -12   0  -3   -5.25    2.76
  12   0   3   -6.47    2.13
 -12   0  -3   -9.14    3.30
 -12   0  -3   -8.57    2.86
 -12   0  -3   -8.30    2.17
 -12   0  -3   -9.50    2.61
 -14   0  -3   -2.68    2.82
 -14   0  -3   -4.55    3.51
 -14   0  -3   -4.54    3.02
  14   0   3   -2.02    2.47
 -14   0  -3    1.51    3.12
  16   0   3    2.45    2.88
 -16   0  -3    2.01    4.23
 -16   0  -3   -3.44    3.10
 -16   0  -3    2.73    3.68
 -16   0  -3    0.57    3.72
 -18   0  -3   -3.31    3.51
 -18   0  -3    2.77    3.17
 -18   0  -3    3.84    4.10
 -18   0  -3    0.29    4.82
  18   0   3   -3.42    3.18
 -18   0  -3    0.98    4.02
 -20   0  -3   -4.64    4.17
 -20   0  -3   -2.55    5.30
 -20   0  -3   -1.43    4.47
  20   0   3    0.50    3.70
 -22   0  -3    8.72    4.65
 -22   0  -3   -0.34    5.09
  22   0   3   -3.77    3.43
 -22   0  -3    1.12    4.57
  24   0   3    0.58    3.84
 -24   0  -3    5.17    5.00
 -24   0  -3    5.90    5.51
  26   0   3    0.90    4.02
 -26   0  -3    0.86    5.15
 -26   0  -3   -1.04    5.81
 -28   0  -3   -2.58    5.18
 -28   0  -3    4.45    6.25
  28   0   3   -3.80    4.29
 -30   0  -3    8.03    7.09
  30   0   3   -4.47    4.72
 -35  -1   3    0.18    6.17
  35  -1  -3    6.81    5.13
  35   1  -3    7.60    5.13
 -35   1   3   -2.18    7.22
 -35   1   3    6.95    6.37
  33  -1  -3    0.43    4.32
 -33  -1   3    4.66    5.84
 -33   1   3   -7.10    6.31
  33   1  -3    6.90    4.52
 -33   1   3   -5.30    5.46
 -31  -1   3    8.60    5.61
  31  -1  -3    3.12    4.32
  31  -1  -3   -1.69    4.53
 -31   1   3    4.41    6.63
 -31   1   3    2.84    5.45
  31   1  -3    8.74    4.46
  29  -1  -3   74.03    7.18
  29  -1  -3   80.53    7.08
 -29  -1   3   76.10    7.70
  29   1  -3   78.89    6.86
 -29   1   3   77.47    8.38
 -29   1   3   73.10    7.82
  27  -1  -3   17.74    4.42
 -27  -1   3   23.99    5.70
 -27  -1   3   18.40    6.26
  27  -1  -3   15.70    4.85
  27   1  -3   16.18    4.20
 -27   1   3   13.30    5.78
 -27   1   3   16.46    5.45
 -25  -1   3  110.54    8.58
 -25  -1   3  124.95    9.04
  25  -1  -3  120.75    7.87
  25  -1  -3  123.78    8.50
 -25   1   3  123.78    8.77
 -25   1   3  125.54    9.13
  25   1  -3  117.41    7.54
 -23  -1   3   49.47    6.30
 -23  -1   3   42.66    5.81
  23  -1  -3   41.53    4.82
  23  -1  -3   49.83    4.98
  23  -1  -3   42.56    5.28
 -23   1   3   44.71    5.23
 -23   1   3   51.73    5.88
  23   1  -3   52.45    5.14
 -23   1   3   45.87    6.34
 -21  -1   3   30.90    4.85
 -21  -1   3   41.44    4.53
 -21  -1   3   41.97    5.80
  21  -1  -3   25.47    4.58
  21  -1  -3   38.80    4.20
  21  -1  -3   48.53    4.80
 -21   1   3   31.66    4.98
  21   1  -3   37.79    4.19
 -21   1   3   28.90    5.40
 -21   1   3   36.75    4.62
  19  -1  -3    2.31    2.82
  19  -1  -3    5.29    2.73
 -19  -1   3    3.69    3.35
 -19  -1   3    2.02    3.75
  19  -1  -3    0.72    3.10
  19   1  -3    1.05    2.49
 -19   1   3    1.06    3.78
 -19   1   3    4.24    3.05
 -19   1   3    3.96    3.50
  19   1  -3   -4.96    2.61
  17  -1  -3  406.78   10.91
 -17  -1   3  416.34   11.57
  17  -1  -3  398.38   11.01
 -17  -1   3  413.38   11.41
  17  -1  -3  401.46   10.17
 -17   1   3  421.90   11.39
 -17   1   3  406.28   11.42
  17   1  -3  409.74   10.71
  17   1  -3  401.62   10.55
  17   1  -3  403.84   10.59
 -17   1   3  410.62   10.77
 -15  -1   3   23.26    3.62
 -15  -1   3   24.74    3.41
  15  -1  -3   26.39    3.32
  15  -1  -3   29.73    3.02
  15  -1  -3   30.00    3.27
 -15   1   3   27.01    3.51
  15   1  -3   31.30    3.08
  15   1  -3   28.10    3.12
 -15   1   3   27.76    3.20
 -15   1   3   26.62    3.80
 -15   1   3   28.73    3.58
  15   1  -3   30.17    3.22
 -13  -1   3    1.30    2.36
  13  -1  -3    2.40    1.96
 -13  -1   3    0.04    2.23
  13  -1  -3   -1.07    1.99
  13  -1  -3   -0.03    2.13
 -13  -1   3   -1.08    2.53
 -13   1   3    5.18    2.69
  13   1  -3    2.35    1.78
 -13   1   3    0.97    2.29
  13   1  -3    2.72    2.11
  13   1  -3   -0.02    1.87
 -13   1   3   -0.99    2.45
 -13   1   3    3.61    2.52
 -11  -1   3   72.02    4.35
 -11  -1   3   72.18    3.99
  11  -1  -3   66.67    4.09
 -11  -1   3   73.35    4.25
  11  -1  -3   63.87    3.72
  11  -1  -3   71.68    3.74
  11   1  -3   71.58    3.48
 -11   1   3   71.68    4.09
  11   1  -3   70.94    3.73
 -11   1   3   66.79    4.46
 -11   1   3   64.49    4.15
  11   1  -3   74.67    4.69
 -11   1   3   65.15    4.32
   9  -1  -3  159.90    4.93
  -9  -1   3  154.16    5.11
   9  -1  -3  156.66    5.30
  -9  -1   3  153.99    4.99
   9  -1  -3  148.71    5.00
  -9   1   3  160.37    5.15
  -9   1   3  168.07    5.44
  -9   1   3  160.08    5.54
  -9   1   3  155.52    5.36
   9   1  -3  162.61    4.62
   7  -1  -3  255.37    6.45
  -7  -1   3  244.48    6.20
  -7  -1   3  261.95    6.18
   7  -1  -3  261.33    6.74
   7  -1  -3  251.98    6.19
  -7   1   3  253.35    6.48
   7   1  -3  255.74    5.84
  -7   1   3  255.05    6.72
  -7   1   3  260.56    6.82
  -7   1   3  249.90    6.74
   5  -1  -3  557.09   10.91
   5  -1  -3  560.06   11.32
  -5  -1   3  564.25   10.79
   5  -1  -3  565.13   11.41
  -5   1   3  579.32   11.65
  -5   1   3  544.77   11.36
   5   1  -3  545.48   10.72
  -5   1   3  538.36   11.23
  -5   1   3  548.88   11.11
   3  -1  -3 1761.64   31.78
   3  -1  -3 1806.75   31.92
   3  -1  -3 1787.87   31.43
   3  -1  -3 1761.13   31.89
  -3   1   3 1834.11   31.80
  -3   1   3 1756.96   31.77
   3   1  -3 1777.30   31.70
  -3   1   3 1762.37   32.02
   1  -1  -3  326.92    7.36
   1  -1  -3  312.79    7.39
   1  -1  -3  329.99    7.60
   1  -1  -3  326.54    7.11
  -1   1   3  315.50    7.42
  -1   1   3  316.57    7.22
  -1   1   3  321.02    8.31
  -1  -1  -3   19.37    2.63
   1  -1   3   23.57    1.71
  -1  -1  -3   20.92    2.36
  -1  -1  -3   18.12    2.38
  -1  -1  -3   20.86    2.34
   1   1   3   23.46    3.44
   1   1   3   17.84    2.17
   1   1   3   22.73    2.29
   3  -1   3   -2.77    1.34
  -3  -1  -3    2.03    2.30
  -3  -1  -3    1.57    1.99
  -3  -1  -3   -2.12    2.00
   3   1   3   -0.95    1.70
   3   1   3    1.89    2.02
  -3   1  -3    0.30    1.46
  -5  -1  -3   33.79    3.13
  -5  -1  -3   32.72    2.87
  -5  -1  -3   38.81    3.04
   5  -1   3   34.68    2.55
  -5   1  -3   40.63    2.89
   5   1   3   36.55    2.81
   5   1   3   36.12    2.85
  -7  -1  -3   12.15    2.76
  -7  -1  -3   12.40    2.51
  -7  -1  -3   11.25    2.53
   7  -1   3   13.18    2.18
   7   1   3   14.96    2.40
  -7   1  -3   10.11    2.16
  -9  -1  -3  240.53    7.62
  -9  -1  -3  242.03    7.96
   9  -1   3  234.23    7.16
  -9  -1  -3  241.94    7.70
   9   1   3  249.18    7.56
  -9   1  -3  248.92    7.30
  -9   1  -3  251.58    7.26
 -11  -1  -3    1.32    3.06
 -11  -1  -3   -1.19    2.60
 -11  -1  -3   -3.36    2.71
  11  -1   3   -2.04    2.06
  11  -1   3    0.02    2.25
  11   1   3   -0.07    2.16
 -11   1  -3    0.60    2.60
 -11   1  -3    0.40    2.43
 -13  -1  -3   -2.77    3.46
 -13  -1  -3   -0.50    2.85
  13  -1   3    0.71    2.39
 -13  -1  -3   -4.22    3.02
 -13   1  -3   -0.40    2.98
  13   1   3   -1.67    2.34
 -13   1  -3   -2.23    2.78
 -15  -1  -3   -5.34    3.21
 -15  -1  -3    1.37    4.19
  15  -1   3   -6.19    2.40
 -15  -1  -3    0.75    3.58
  15   1   3   -1.24    2.76
 -15   1  -3   -0.52    3.28
 -15   1  -3    1.74    3.41
  17  -1   3   -0.58    3.05
 -17  -1  -3   -2.32    3.48
 -17  -1  -3    0.46    4.62
 -17  -1  -3   -4.28    3.80
 -17   1  -3    0.31    3.92
  17   1   3    0.58    3.08
 -17   1  -3    2.62    3.80
 -19  -1  -3   91.55    6.79
 -19  -1  -3   87.22    7.68
  19  -1   3   97.92    7.02
 -19  -1  -3  100.20    7.52
 -19   1  -3  100.33    7.01
 -19   1  -3  100.29    7.17
  19   1   3   92.26    7.04
 -21  -1  -3    4.40    4.45
 -21  -1  -3    7.59    4.84
 -21  -1  -3   -2.65    5.29
  21  -1   3    0.73    3.52
  21   1   3    5.09    3.79
 -21   1  -3    6.82    4.63
 -21   1  -3    3.38    4.53
 -23  -1  -3    0.12    4.71
 -23  -1  -3   10.42    5.91
  23  -1   3   -4.12    3.43
 -23   1  -3   -6.20    4.89
 -23   1  -3    4.11    4.65
 -23   1  -3    5.82    4.69
  23   1   3    1.95    3.67
  25  -1   3    3.17    3.95
 -25  -1  -3    4.50    5.09
 -25  -1  -3   -5.01    5.82
  25   1   3    2.37    4.21
 -25   1  -3    0.06    5.15
 -25   1  -3    0.45    4.59
 -27  -1  -3  -12.49    4.82
  27  -1   3   -3.11    3.97
 -27  -1  -3   -1.63    5.99
  27   1   3    0.42    4.42
 -27   1  -3   -2.30    5.14
  29  -1   3    2.72    4.67
 -29  -1  -3    2.19    6.60
 -29  -1  -3   -0.31    5.39
  29   1   3   -5.51    4.37
  31  -1   3   -5.94    5.23
 -31  -1  -3   -2.72    5.84
 -31  -1  -3   14.17    7.42
  31   1   3   -3.14    4.72
 -36  -2   3   19.83    7.39
  36  -2  -3   22.53    6.37
  36   2  -3   20.35    5.69
 -36   2   3   38.64    8.63
 -36   2   3    8.34    6.49
  34  -2  -3    4.40    4.83
 -34  -2   3   -7.28    5.54
  34   2  -3   -0.40    4.39
 -34   2   3   11.12    7.07
 -34   2   3    1.41    5.66
  32  -2  -3    3.48    4.52
 -32  -2   3    7.16    5.99
 -32   2   3   10.19    6.95
 -32   2   3   22.60    6.18
  32   2  -3   13.00    4.88
 -30  -2   3   49.65    7.09
  30  -2  -3   41.36    5.97
  30   2  -3   52.08    6.03
 -30   2   3   44.99    7.41
 -30   2   3   41.76    6.81
  28  -2  -3   -9.35    3.92
  28  -2  -3    4.62    4.03
 -28  -2   3    0.28    4.99
 -28   2   3    3.60    5.01
  28   2  -3    2.48    3.65
 -28   2   3   -1.59    5.48
  26  -2  -3   11.53    4.69
  26  -2  -3   -0.52    3.96
  26  -2  -3   -3.05    3.62
 -26  -2   3    4.67    4.95
 -26  -2   3    2.58    5.62
 -26   2   3    1.66    5.40
  26   2  -3    0.69    3.36
 -26   2   3   -1.74    4.44
 -24  -2   3  101.33    8.13
  24  -2  -3   90.62    6.21
 -24  -2   3  108.99    8.76
  24  -2  -3  112.36    7.55
  24  -2  -3  102.66    7.96
 -24   2   3  110.86    8.07
  24   2  -3  111.55    6.82
 -24   2   3  101.85    7.71
 -24   2   3  104.12    7.78
  22  -2  -3   64.66    5.07
 -22  -2   3   64.62    6.58
  22  -2  -3   64.36    5.57
 -22  -2   3   73.63    6.58
  22  -2  -3   56.14    5.66
 -22   2   3   59.11    5.43
 -22   2   3   58.43    6.60
  22   2  -3   66.49    5.33
  22   2  -3   65.85    5.22
 -22   2   3   76.62    6.45
 -20  -2   3    6.80    4.39
  20  -2  -3    2.19    2.89
 -20  -2   3    1.50    3.63
  20  -2  -3    3.11    3.43
  20  -2  -3   -0.33    3.07
 -20   2   3   -4.04    4.15
 -20   2   3   -3.65    3.40
  20   2  -3   -3.03    2.48
  20   2  -3    1.01    2.86
 -20   2   3    1.91    3.32
  18  -2  -3  135.73    6.38
 -18  -2   3  129.59    7.31
  18  -2  -3  127.70    6.58
 -18  -2   3  115.59    6.64
  18  -2  -3  119.17    5.94
 -18   2   3  134.99    6.98
  18   2  -3  133.02    5.85
  18   2  -3  129.82    6.03
 -18   2   3  134.34    7.38
 -18   2   3  127.42    6.35
  16  -2  -3   35.11    3.65
 -16  -2   3   34.91    4.05
  16  -2  -3   38.47    3.86
  16  -2  -3   42.58    3.56
 -16  -2   3   38.23    4.29
 -16   2   3   42.89    4.11
  16   2  -3   46.03    3.69
 -16   2   3   42.26    4.31
  16   2  -3   45.78    3.64
 -16   2   3   39.18    3.78
  14  -2  -3   22.66    3.18
 -14  -2   3   19.29    3.09
  14  -2  -3   19.89    2.87
  14  -2  -3   19.60    2.82
 -14  -2   3   19.96    3.33
 -14   2   3   22.95    3.51
 -14   2   3   17.52    3.17
 -14   2   3   18.65    3.19
  14   2  -3   25.17    2.98
 -14   2   3   18.16    3.08
  14   2  -3   18.21    2.51
  12  -2  -3   85.63    4.30
 -12  -2   3   85.61    4.55
  12  -2  -3   82.97    4.16
 -12  -2   3   75.39    4.36
  12  -2  -3   81.61    4.60
 -12   2   3   85.50    4.82
 -12   2   3   83.17    4.61
  12   2  -3   87.90    3.75
 -12   2   3   77.49    4.93
 -12   2   3   85.84    4.58
 -10  -2   3    8.67    2.04
  10  -2  -3   11.68    2.41
  10  -2  -3   11.25    2.12
 -10  -2   3   14.40    2.31
  10  -2  -3    9.23    2.19
 -10   2   3    9.28    2.42
 -10   2   3   11.67    2.66
  10   2  -3    9.58    1.68
 -10   2   3    6.83    2.24
 -10   2   3   10.18    2.36
  10   2  -3   10.24    1.84
   8  -2  -3  305.70    7.85
   8  -2  -3  304.40    7.70
   8  -2  -3  305.75    7.31
  -8  -2   3  295.36    7.02
  -8   2   3  305.58    7.75
  -8   2   3  308.75    7.55
  -8   2   3  295.34    7.60
   8   2  -3  302.98    7.16
  -8   2   3  300.91    7.74
   6  -2  -3  189.46    5.90
   6  -2  -3  193.39    5.40
   6  -2  -3  184.10    5.57
  -6   2   3  195.85    5.61
  -6   2   3  194.05    5.73
  -6   2   3  183.49    5.63
   6   2  -3  187.58    5.31
  -6   2   3  189.26    5.79
   4  -2  -3 1633.11   30.45
   4  -2  -3 1662.09   30.46
   4  -2  -3 1669.43   29.95
  -4   2   3 1717.19   30.74
  -4   2   3 1673.96   30.37
  -4   2   3 1654.90   30.29
  -4   2   3 1683.57   30.23
   4   2  -3 1671.83   30.39
   2  -2  -3    4.35    2.42
   2  -2  -3    6.05    2.06
   2  -2  -3    3.06    2.09
   2  -2  -3    2.55    2.17
  -2   2   3    0.61    2.05
   2   2  -3    7.19    1.98
  -2   2   3    2.53    2.01
  -2   2   3   -0.25    1.90
   0  -2  -3   26.27    2.56
   0  -2  -3   29.09    2.99
   0  -2  -3   25.24    2.60
   0   2   3   25.77    2.56
   0   2   3   32.93    2.63
   0   2  -3   34.63    2.82
   0   2   3   24.82    2.47
  -2  -2  -3   11.25    2.25
  -2  -2  -3   13.65    2.40
  -2  -2  -3   17.46    2.74
   2   2   3   15.80    2.17
   2   2   3   17.05    2.30
   2   2   3   14.04    2.25
  -4  -2  -3   13.62    2.73
   4  -2   3   14.04    1.66
  -4  -2  -3   11.21    2.35
  -4  -2  -3   12.68    2.30
   4   2   3   11.69    2.27
   4   2   3   10.39    2.08
   4   2   3   11.55    2.20
  -6  -2  -3   77.27    4.93
   6  -2   3   70.25    3.38
  -6  -2  -3   70.90    4.42
  -6  -2  -3   64.74    4.36
   6   2   3   65.86    3.94
   6   2   3   68.97    4.18
  -8  -2  -3  266.85    8.08
   8  -2   3  274.01    7.34
  -8  -2  -3  265.94    7.95
  -8  -2  -3  265.72    8.48
   8   2   3  278.17    7.97
  -8   2  -3  271.43    7.04
 -10  -2  -3  106.96    5.94
 -10  -2  -3  110.04    6.37
  10  -2   3  110.21    4.92
 -10  -2  -3  109.33    5.80
 -10   2  -3   98.33    4.85
  10   2   3  100.82    5.35
 -12  -2  -3   30.12    3.97
 -12  -2  -3   32.88    4.45
 -12  -2  -3   39.90    4.23
  12  -2   3   37.26    3.56
 -12   2  -3   34.39    3.79
 -12   2  -3   33.74    3.58
  12   2   3   32.33    3.80
 -14  -2  -3   34.32    4.32
 -14  -2  -3   38.86    5.28
 -14  -2  -3   40.19    4.75
  14  -2   3   34.79    3.81
 -14   2  -3   33.75    4.17
 -14   2  -3   41.66    4.16
  14   2   3   43.75    4.38
 -16  -2  -3    5.66    3.78
  16  -2   3    1.02    2.99
 -16  -2  -3    6.77    4.09
  16  -2   3    9.70    3.59
 -16  -2  -3    4.09    4.73
 -16   2  -3    7.94    3.94
  16   2   3    3.43    3.35
 -16   2  -3    8.43    3.66
 -18  -2  -3   -4.83    4.21
 -18  -2  -3    2.09    5.35
  18  -2   3    3.77    3.29
 -18  -2  -3   -1.61    4.09
  18   2   3    5.39    3.72
 -18   2  -3   -4.48    3.84
 -18   2  -3   -3.15    3.99
 -20  -2  -3   24.28    6.36
 -20  -2  -3   21.22    5.26
  20  -2   3   33.89    4.76
 -20  -2  -3   23.74    5.69
 -20   2  -3   22.50    5.09
  20   2   3   18.78    4.54
 -20   2  -3   28.93    5.00
 -22  -2  -3   41.54    6.24
 -22  -2  -3   37.42    6.72
  22  -2   3   38.42    5.21
 -22   2  -3   40.88    5.73
 -22   2  -3   37.38    5.61
  22   2   3   55.88    6.14
  24  -2   3   12.10    4.35
 -24  -2  -3   12.43    5.42
 -24  -2  -3   14.76    6.21
 -24   2  -3   13.13    5.47
  24   2   3    9.84    4.45
 -24   2  -3   18.46    5.06
  26  -2   3    2.68    4.18
 -26  -2  -3    6.82    6.29
 -26  -2  -3    6.87    5.58
 -26   2  -3    5.89    6.99
  26   2   3    3.27    4.45
  28  -2   3   -4.83    4.18
 -28  -2  -3    0.11    6.36
 -28  -2  -3    3.26    5.69
  28   2   3    3.91    4.40
 -30  -2  -3   33.30    8.18
 -30  -2  -3   51.77    8.14
  30  -2   3   44.75    7.05
  30   2   3   33.06    6.38
  35  -3  -3   14.26    5.68
 -35  -3   3    5.72    6.92
 -35   3   3    7.31    7.34
 -35   3   3   11.73    7.32
  33  -3  -3   36.14    6.26
 -33  -3   3   24.52    6.73
 -33   3   3   30.17    6.83
 -33   3   3   19.23    7.26
  33   3  -3   31.34    5.75
  31  -3  -3    8.38    4.75
 -31  -3   3   -4.01    5.46
 -31   3   3    7.46    6.11
  31   3  -3    6.85    4.30
 -31   3   3    7.09    5.65
  29  -3  -3   -2.71    4.22
  29  -3  -3   -0.36    4.07
 -29  -3   3    4.49    5.15
 -29   3   3  -10.64    6.01
 -29   3   3   -3.67    5.23
  29   3  -3   -0.61    3.86
  27  -3  -3    7.91    4.07
  27  -3  -3   11.61    4.32
 -27  -3   3    9.59    5.29
  27   3  -3    9.15    4.02
 -27   3   3   10.46    5.67
 -27   3   3   11.51    5.17
  25  -3  -3   20.21    5.06
  25  -3  -3   23.98    4.71
  25  -3  -3   26.60    4.77
 -25  -3   3   17.27    5.31
  25   3  -3   17.19    4.00
 -25   3   3   12.05    4.77
 -25   3   3   20.55    6.07
 -25   3   3   11.37    5.16
  23  -3  -3   41.02    5.12
 -23  -3   3   39.08    5.79
 -23  -3   3   37.51    6.29
  23  -3  -3   39.85    5.52
  23  -3  -3   41.48    4.86
 -23   3   3   48.61    5.46
 -23   3   3   50.66    6.44
 -23   3   3   49.91    6.06
  23   3  -3   41.22    4.81
  23   3  -3   47.54    4.86
  21  -3  -3  142.99    7.43
 -21  -3   3  181.12    8.96
  21  -3  -3  161.26    8.25
 -21  -3   3  149.52    9.14
  21  -3  -3  147.55    7.60
 -21   3   3  156.45    8.44
 -21   3   3  167.55   12.53
  21   3  -3  151.37    7.23
 -21   3   3  162.58    8.13
 -21   3   3  168.55    9.20
  21   3  -3  166.44    7.16
  19  -3  -3   68.23    4.84
  19  -3  -3   68.89    5.62
 -19  -3   3   64.94    5.84
  19  -3  -3   78.63    5.71
 -19  -3   3   72.01    5.78
 -19   3   3   63.38    5.24
 -19   3   3   62.62    5.50
 -19   3   3   66.03    5.78
  19   3  -3   76.38    4.92
  17  -3  -3  221.42    7.49
 -17  -3   3  212.75    8.15
  17  -3  -3  227.04    8.19
 -17  -3   3  217.62    8.47
  17  -3  -3  212.96    7.90
 -17   3   3  205.22    8.19
 -17   3   3  217.42    8.04
  17   3  -3  218.85    7.09
 -17   3   3  221.58    8.50
  17   3  -3  221.90   10.36
  15  -3  -3  296.33    9.01
  15  -3  -3  294.06    8.91
 -15  -3   3  302.87    8.97
  15  -3  -3  301.13    8.40
 -15   3   3  294.96    9.25
 -15   3   3  313.05    9.24
 -15   3   3  295.97    8.90
  15   3  -3  301.27    8.08
  15   3  -3  304.16    8.43
  13  -3  -3   10.31    2.90
 -13  -3   3    7.26    2.57
  13  -3  -3    2.28    2.24
  13  -3  -3   12.35    2.62
 -13   3   3   10.76    2.88
 -13   3   3    9.07    2.71
 -13   3   3    1.87    2.92
  13   3  -3    9.44    2.04
 -13   3   3    9.17    2.79
  11  -3  -3   98.76    5.04
  11  -3  -3   96.85    4.71
  11  -3  -3  105.64    4.60
 -11  -3   3  102.51    4.47
 -11   3   3  111.73    4.93
 -11   3   3  106.60    7.42
  11   3  -3  106.01    3.71
 -11   3   3   99.70    5.02
 -11   3   3  107.81    5.28
 -11   3   3  110.74    5.01
  11   3  -3  101.81    4.59
   9  -3  -3  829.64   16.33
   9  -3  -3  830.76   17.04
  -9  -3   3  821.15   16.15
   9  -3  -3  794.70   16.98
  -9   3   3  849.78   16.73
   9   3  -3  826.67   16.92
  -9   3   3  838.45   18.92
  -9   3   3  842.66   16.89
  -9   3   3  840.24   17.10
  -9   3   3  851.88   16.93
   7  -3  -3    3.72    2.30
   7  -3  -3    6.17    2.12
   7  -3  -3    6.11    1.93
  -7   3   3    5.04    2.26
   7   3  -3    3.91    1.90
  -7   3   3    5.80    2.13
  -7   3   3    2.33    2.07
  -7   3   3    5.03    2.07
  -7   3   3    5.74    2.66
   5  -3  -3  155.62    5.08
   5  -3  -3  160.41    5.49
   5  -3  -3  155.81    5.30
  -5   3   3  157.85    5.21
   5   3  -3  159.44    5.30
  -5   3   3  157.80    5.35
  -5   3   3  165.31    5.42
  -5   3   3  158.11    4.84
  -5   3   3  148.54    7.06
  -5   3   3  159.48    5.23
   3  -3  -3  206.96    6.29
   3  -3  -3  194.15    5.99
   3  -3  -3  210.22    5.72
  -3   3   3  196.28    5.93
  -3   3   3  197.21    5.94
   3   3  -3  203.33    6.13
  -3   3   3  212.86    5.91
  -3   3   3  189.76    5.83
   1  -3  -3    8.16    2.43
   1  -3  -3    7.93    2.18
   1  -3  -3    4.98    2.04
  -1   3   3    9.31    2.17
  -1   3   3    5.56    1.99
  -1   3   3    3.66    1.95
  -1   3   3    6.70    2.02
   1   3  -3    8.21    2.12
  -1  -3  -3   56.22    4.20
  -1  -3  -3   50.32    3.69
  -1  -3  -3   47.35    3.63
   1   3   3   48.12    3.50
  -1   3  -3   51.60    3.73
   1   3   3   53.32    3.73
   1   3   3   51.95    3.50
  -3  -3  -3   10.84    2.32
  -3  -3  -3   11.13    2.77
  -3  -3  -3   13.98    2.51
   3   3   3   15.00    2.33
   3   3   3   15.92    2.45
  -3   3  -3   16.06    2.67
   3   3   3   16.01    2.37
  -5  -3  -3   21.34    2.73
  -5  -3  -3   33.09    3.21
   5  -3   3   29.29    2.27
  -5  -3  -3   25.78    3.32
   5   3   3   23.65    2.63
   5   3   3   25.53    2.83
   5   3   3   25.68    2.83
  -7  -3  -3    7.35    2.45
  -7  -3  -3    3.37    2.56
  -7  -3  -3    7.14    2.98
   7  -3   3    4.99    1.75
   7   3   3    4.13    2.21
   7   3   3    5.60    2.24
   9  -3   3  237.23    6.97
  -9  -3  -3  260.77    8.75
  -9  -3  -3  243.75    8.18
  -9  -3  -3  243.41    7.85
   9   3   3  253.88    7.99
 -11  -3  -3    2.85    3.03
 -11  -3  -3    0.69    2.82
 -11  -3  -3   -3.35    3.31
  11  -3   3    0.17    2.02
  11   3   3    0.77    2.33
 -11   3  -3   -1.37    2.17
 -13  -3  -3    2.77    4.00
  13  -3   3    5.19    2.54
 -13  -3  -3    3.66    3.46
 -13  -3  -3   -4.69    2.97
  13   3   3    5.87    2.85
 -13   3  -3    4.60    2.89
  15  -3   3    5.36    3.09
 -15  -3  -3   -2.92    3.72
  15  -3   3    3.15    2.87
 -15  -3  -3    9.93    4.71
 -15  -3  -3    3.57    3.60
  15   3   3   -3.20    2.86
 -15   3  -3    6.17    3.69
 -15   3  -3    6.64    3.21
 -17  -3  -3  233.98   10.98
  17  -3   3  225.36    9.06
 -17  -3  -3  224.48   10.13
  17  -3   3  203.83    8.00
 -17  -3  -3  214.79    9.56
  17   3   3  227.29    9.53
 -17   3  -3  225.45    9.64
 -17   3  -3  222.80    8.69
 -19  -3  -3    9.12    5.02
  19  -3   3   19.85    4.32
 -19  -3  -3   20.05    6.25
  19   3   3   22.94    4.68
 -19   3  -3   16.75    4.44
 -19   3  -3   14.86    4.92
  21  -3   3   -3.55    3.23
 -21  -3  -3    7.10    5.67
 -21  -3  -3   -3.36    4.34
  21   3   3    4.38    3.88
 -21   3  -3    2.38    4.33
 -21   3  -3   -1.15    3.74
 -23  -3  -3   26.66    5.91
 -23  -3  -3   26.03    6.62
  23  -3   3   27.53    4.90
  23   3   3   21.16    5.06
 -23   3  -3   19.04    5.12
 -25  -3  -3    4.71    5.44
 -25  -3  -3    0.21    6.27
  25  -3   3    8.18    4.30
 -25   3  -3    8.47    5.23
  25   3   3    3.61    4.42
  27  -3   3   -5.67    3.69
 -27  -3  -3    0.82    5.58
 -27  -3  -3   -5.86    6.10
 -27   3  -3    9.18    7.09
  27   3   3    4.43    4.75
  29  -3   3   -4.07    4.40
 -29  -3  -3   -0.41    6.01
 -29  -3  -3   -2.97    6.77
  29   3   3    4.30    4.82
  31   3   3    7.86    5.36
  34  -4  -3   11.13    5.58
 -34  -4   3    7.42    6.49
 -34   4   3  -12.44    6.66
  32  -4  -3   50.35    6.78
 -32  -4   3   49.02    7.75
 -32   4   3   56.20    7.53
 -32   4   3   44.94    7.60
  30  -4  -3   70.29    7.25
 -30  -4   3   68.92    8.00
  30  -4  -3   64.99    6.66
 -30   4   3   80.63    7.81
  30   4  -3   68.06    6.50
 -30   4   3   75.39    8.20
  28  -4  -3    8.20    4.57
 -28  -4   3   17.43    5.51
  28  -4  -3   17.19    4.89
 -28   4   3   15.30    6.10
  28   4  -3   10.70    4.06
 -28   4   3   17.27    5.47
  26  -4  -3  160.11    9.03
  26  -4  -3  162.15    8.52
 -26  -4   3  161.81    9.97
 -26   4   3  165.29    9.70
  26   4  -3  156.11    8.20
 -26   4   3  160.66    9.46
 -26   4   3  164.52   10.22
 -24  -4   3  266.37   11.70
  24  -4  -3  261.10   10.05
  24  -4  -3  258.50   10.77
 -24   4   3  272.59   11.26
 -24   4   3  264.52   11.40
 -24   4   3  284.63   10.89
  24   4  -3  272.05    9.79
 -22  -4   3    8.51    4.62
  22  -4  -3   12.09    4.34
  22  -4  -3    6.14    3.81
  22  -4  -3   11.04    4.16
 -22   4   3    9.88    4.40
 -22   4   3    8.16    5.04
 -22   4   3   17.45    4.68
 -22   4   3   15.60    4.81
  22   4  -3   11.84    3.49
  20  -4  -3  255.01    8.91
 -20  -4   3  248.12   10.03
  20  -4  -3  236.14    9.71
  20  -4  -3  238.63    9.23
 -20  -4   3  239.62   10.07
 -20   4   3  242.78   10.19
  20   4  -3  249.12    8.31
 -20   4   3  237.26    9.53
 -20   4   3  247.84    9.61
 -20   4   3  239.56    9.64
 -18  -4   3   86.58    6.45
  18  -4  -3   84.18    5.97
  18  -4  -3   81.37    5.85
  18  -4  -3   80.15    6.29
 -18   4   3   78.14    5.72
  18   4  -3   78.18    4.87
 -18   4   3   79.04    6.32
 -18   4   3   74.38    5.63
  18   4  -3   73.04    5.47
  16  -4  -3    3.52    2.78
  16  -4  -3    5.23    3.09
  16  -4  -3    2.64    2.59
 -16  -4   3   -1.32    2.90
 -16   4   3    0.07    3.18
 -16   4   3    0.62    3.09
 -16   4   3   -0.64    3.37
  16   4  -3   -2.51    1.96
 -16   4   3    3.92    3.21
  14  -4  -3   -1.66    2.16
  14  -4  -3    3.01    2.78
 -14  -4   3    2.75    2.69
  14  -4  -3    0.86    2.51
 -14   4   3   -0.99    2.52
 -14   4   3    4.19    3.10
  14   4  -3    2.27    1.83
 -14   4   3    1.28    2.78
 -14   4   3    0.25    2.75
 -14   4   3    2.64    2.87
  12  -4  -3   47.09    3.56
  12  -4  -3   48.49    4.00
  12  -4  -3   38.00    3.59
 -12  -4   3   48.41    3.65
 -12   4   3   48.95    3.84
 -12   4   3   48.84    3.87
 -12   4   3   50.22    4.01
 -12   4   3   48.75    3.91
  12   4  -3   50.48    4.09
 -12   4   3   39.60    3.60
 -12   4   3   50.32    3.60
  10  -4  -3  225.04    6.53
 -10  -4   3  215.09    6.19
  10  -4  -3  216.08    7.01
  10  -4  -3  224.14    7.18
 -10   4   3  216.39    6.98
 -10   4   3  230.16    6.99
  10   4  -3  219.14    7.15
 -10   4   3  214.29    6.96
 -10   4   3  216.93    7.04
 -10   4   3  215.53    6.87
 -10   4   3  225.47    6.42
   8  -4  -3  629.13   13.12
   8  -4  -3  617.33   13.86
   8  -4  -3  629.55   13.86
  -8   4   3  641.41   13.63
  -8   4   3  629.94   13.42
  -8   4   3  627.48   13.24
   8   4  -3  625.71   14.09
  -8   4   3  629.19   13.64
  -8   4   3  638.67   13.56
  -8   4   3  618.68   13.49
   6  -4  -3    6.46    2.12
   6  -4  -3    6.22    2.24
   6  -4  -3    2.84    1.98
  -6   4   3    2.49    2.16
  -6   4   3    4.87    2.08
  -6   4   3    5.12    2.37
  -6   4   3    4.25    2.02
  -6   4   3    4.90    1.93
  -6   4   3    2.57    2.04
   6   4  -3    3.45    1.96
   4  -4  -3  650.14   13.16
   4  -4  -3  654.65   13.92
   4  -4  -3  646.51   13.92
  -4   4   3  642.88   13.45
   4   4  -3  638.84   14.22
  -4   4   3  640.03   13.51
  -4   4   3  636.93   13.84
  -4   4   3  630.66   13.31
  -4   4   3  644.63   13.64
  -4   4   3  650.12   13.75
   2  -4  -3  242.55    7.09
   2  -4  -3  243.72    7.27
  -2   4   3  239.79    6.86
   2   4  -3  234.03    7.31
  -2   4   3  235.21    6.68
  -2   4   3  244.82    6.86
  -2   4   3  250.66    6.97
  -2   4   3  250.12    7.12
   0  -4  -3   74.70    4.23
   0  -4  -3   64.47    4.48
   0   4   3   69.05    4.03
   0   4   3   70.67    3.98
   0   4   3   59.57    3.95
   0   4   3   78.08    4.32
   0   4  -3   70.88    4.32
   0   4   3   68.60    3.90
  -2  -4  -3   30.00    3.04
  -2  -4  -3   30.91    3.38
   2   4   3   31.36    2.74
   2   4   3   34.62    3.18
   2   4   3   26.94    2.85
   2   4   3   30.15    2.88
  -2   4  -3   28.79    3.32
  -4  -4  -3   36.03    3.68
  -4  -4  -3   35.63    3.46
   4   4   3   42.45    3.45
   4   4   3   33.08    3.07
   4   4   3   35.93    3.28
  -4   4  -3   40.55    3.79
   4   4   3   34.72    3.23
  -6  -4  -3    5.97    2.64
  -6  -4  -3    3.35    3.08
   6   4   3    2.13    2.14
   6   4   3    1.91    2.22
   6   4   3    0.31    2.48
   8  -4   3    2.68    1.74
  -8  -4  -3    1.04    2.56
  -8  -4  -3   -3.11    2.68
  -8  -4  -3   -4.93    3.15
   8   4   3    0.73    2.26
   8   4   3   -0.26    2.35
  10  -4   3   68.12    4.16
 -10  -4  -3   73.64    5.80
 -10  -4  -3   61.34    4.48
 -10  -4  -3   64.62    5.43
  10   4   3   72.08    5.02
  10   4   3   72.06    4.98
 -12  -4  -3   13.17    4.45
  12  -4   3    8.10    2.62
 -12  -4  -3   11.16    3.39
 -12  -4  -3   10.92    3.89
  12   4   3    6.17    3.01
  12   4   3   11.06    3.15
  14  -4   3    9.58    2.98
 -14  -4  -3    7.35    3.57
 -14  -4  -3   15.56    4.32
 -14  -4  -3    8.82    4.70
 -14   4  -3    8.60    2.94
  14   4   3   10.27    3.39
 -16  -4  -3   -2.80    5.11
  16  -4   3    2.14    3.13
 -16  -4  -3    0.14    4.30
 -16   4  -3    2.28    3.36
  16   4   3    0.49    3.31
 -18  -4  -3   11.19    5.70
  18  -4   3    5.27    3.77
 -18  -4  -3   -2.68    4.65
  18   4   3    6.02    3.84
 -18   4  -3    5.04    3.77
 -20  -4  -3   63.16    6.91
 -20  -4  -3   61.95    7.48
  20  -4   3   68.83    5.93
  20   4   3   59.72    6.13
 -20   4  -3   55.68    5.90
 -22  -4  -3   38.06    6.34
  22  -4   3   35.68    5.23
 -22  -4  -3   49.84    7.23
 -22   4  -3   40.12    5.78
  22   4   3   44.64    5.72
 -24  -4  -3   -4.12    5.05
  24  -4   3   -6.50    3.50
 -24  -4  -3    3.03    6.20
 -24   4  -3   -4.28    4.79
  24   4   3   -7.13    3.95
 -26  -4  -3   38.50    6.96
 -26  -4  -3   34.67    9.81
  26  -4   3   23.13    5.47
  26   4   3   42.66    6.16
 -26   4  -3   22.47    6.07
  28  -4   3    7.67    4.72
 -28  -4  -3   11.99    6.56
 -28   4  -3    4.55    7.44
  28   4   3    7.41    5.13
 -30  -4  -3  164.06   12.73
  30  -4   3  168.20   11.15
  30   4   3  175.51   11.48
  33  -5  -3   -5.86    4.87
 -33  -5   3   -2.03    5.68
  31  -5  -3    1.81    4.65
 -31  -5   3    0.15    5.88
 -29  -5   3   -7.46    4.97
  29  -5  -3    4.99    4.58
 -29   5   3   -5.95    4.73
  27  -5  -3    2.56    4.15
 -27  -5   3   12.23    5.38
  27   5  -3   -4.26    4.69
 -27   5   3    1.41    4.60
 -27   5   3    5.39    4.83
 -25  -5   3   -0.12    4.64
  25  -5  -3    1.42    4.18
  25  -5  -3    6.26    4.02
 -25   5   3    3.26    4.48
  25   5  -3    4.44    3.30
 -25   5   3    5.70    4.58
 -25   5   3   -2.64    4.87
  23  -5  -3   71.26    6.38
  23  -5  -3   74.76    6.17
 -23  -5   3   63.24    6.66
 -23   5   3   68.54    6.32
  23   5  -3   80.92    5.96
 -23   5   3   74.52    6.59
  21  -5  -3    4.81    3.79
 -21  -5   3   14.49    4.86
  21  -5  -3   10.59    4.18
 -21   5   3    5.93    4.25
 -21   5   3   -0.81    4.03
  21   5  -3    8.69    3.30
 -21   5   3    8.43    4.54
 -19  -5   3   29.43    4.86
  19  -5  -3   28.84    4.35
  19  -5  -3   28.74    4.31
  19  -5  -3   26.17    4.54
  19   5  -3   28.96    4.01
  19   5  -3   30.34    3.54
 -19   5   3   24.67    4.61
 -19   5   3   27.22    4.69
  17  -5  -3  145.14    6.88
 -17  -5   3  156.21    7.79
  17  -5  -3  152.59    7.15
  17  -5  -3  145.59    7.75
  17   5  -3  150.63    5.94
 -17   5   3  165.56    7.61
 -17   5   3  154.92    7.58
  15  -5  -3  221.78    8.21
  15  -5  -3  231.60    8.47
 -15  -5   3  226.51    8.17
  15  -5  -3  228.64    7.77
 -15   5   3  228.57    8.37
 -15   5   3  205.15    8.13
 -15   5   3  230.25    7.76
  15   5  -3  230.85    8.42
 -13  -5   3   89.48    5.26
  13  -5  -3   92.58    5.86
  13  -5  -3   92.76    5.53
 -13   5   3   98.68    5.10
  13   5  -3   92.03    5.62
 -13   5   3   92.70    5.67
 -13   5   3   99.96    5.64
 -13   5   3   98.45    5.75
  11  -5  -3   37.86    3.74
  11  -5  -3   37.14    3.65
  11  -5  -3   37.04    3.35
 -11  -5   3   45.87    3.42
 -11   5   3   42.72    3.85
 -11   5   3   40.44    3.64
 -11   5   3   33.89    3.36
 -11   5   3   37.74    3.63
  11   5  -3   47.42    4.30
   9  -5  -3    4.82    2.46
   9  -5  -3    7.23    3.12
   9  -5  -3   -1.12    2.21
  -9   5   3    4.97    2.55
  -9   5   3    4.10    2.50
  -9   5   3    3.19    2.48
  -9   5   3    4.16    2.38
   9   5  -3    6.35    2.51
   7  -5  -3   41.87    3.63
  -7   5   3   48.77    3.69
  -7   5   3   44.88    3.42
   7   5  -3   48.51    4.22
  -7   5   3   44.49    3.49
  -7   5   3   48.97    3.51
   5  -5  -3  368.07    9.73
   5  -5  -3  371.66    9.00
  -5   5   3  367.94    9.33
  -5   5   3  368.29    9.05
  -5   5   3  379.90    9.42
   5   5  -3  376.01   10.32
  -5   5   3  377.11    9.73
   3  -5  -3  405.95   10.44
  -3   5   3  407.24    9.67
  -3   5   3  437.44   10.32
  -3   5   3  405.57   10.52
   3   5  -3  410.51   11.02
  -3   5   3  418.40   10.15
  -3   5   3  414.22   10.06
   1  -5  -3   -2.30    2.26
   1  -5  -3   -1.20    2.73
  -1   5   3    0.69    2.22
   1   5  -3    1.04    2.16
  -1   5   3   -2.93    1.94
  -1   5   3   -0.64    2.24
  -1   5   3   -2.05    1.72
  -1  -5  -3  118.15    5.87
  -1  -5  -3  114.23    5.36
   1   5   3  115.75    4.97
   1   5   3  117.55    5.39
  -1   5  -3  113.06    5.72
   1   5   3  111.03    5.25
   1   5   3  127.61    5.21
  -3  -5  -3    7.80    2.65
  -3  -5  -3    8.38    3.02
   3   5   3    6.18    2.30
   3   5   3    1.86    2.45
   3   5   3    3.44    2.45
  -3   5  -3    4.72    2.65
   3   5   3    9.32    2.32
  -5  -5  -3  253.74    8.40
  -5  -5  -3  267.27    8.75
   5   5   3  262.88    7.78
   5   5   3  269.53    8.11
   5   5   3  270.42    8.13
  -5   5  -3  263.51    9.06
   5   5   3  268.66    8.13
  -7  -5  -3   80.78    5.61
  -7  -5  -3   69.01    5.35
   7  -5   3   74.88    3.64
   7   5   3   81.83    5.46
   7   5   3   77.92    5.16
   7   5   3   80.40    4.96
   7   5   3   77.29    4.78
  -9  -5  -3   88.35    7.05
   9  -5   3   89.30    4.41
  -9  -5  -3   98.67    6.34
   9   5   3   97.48    5.52
   9   5   3   94.43    5.57
   9   5   3   95.45    5.77
  11  -5   3  141.78    5.85
 -11  -5  -3  134.77    7.69
 -11  -5  -3  144.61    8.36
  11   5   3  130.15    6.52
  11   5   3  132.35    6.75
  11   5   3  133.76    7.13
  13  -5   3   -1.93    2.51
 -13  -5  -3    1.63    4.00
 -13  -5  -3   -0.99    4.51
  13   5   3    0.25    3.10
  13   5   3   -1.33    3.08
  13   5   3   -2.73    3.18
 -15  -5  -3   55.33    6.52
 -15  -5  -3   60.36    6.17
  15  -5   3   54.92    4.83
  15   5   3   61.41    5.31
  15   5   3   47.99    5.09
 -17  -5  -3   26.43    5.62
 -17  -5  -3   27.03    6.07
  17  -5   3   27.06    4.27
  17   5   3   19.33    4.22
  17   5   3   27.68    4.72
 -19  -5  -3   -2.65    5.46
 -19  -5  -3   -2.00    4.60
  19  -5   3   -1.93    3.38
  19   5   3   -1.21    3.57
  19   5   3   -0.24    3.73
 -21  -5  -3   16.57    9.86
  21  -5   3   31.35    5.20
 -21  -5  -3   20.26    5.87
  21   5   3   25.08    4.74
  21   5   3   27.39    4.95
 -23  -5  -3    7.81    5.58
  23  -5   3   11.88    4.47
  23   5   3   15.82    4.59
 -23   5  -3   16.44    5.22
  23   5   3   18.19    4.99
  25  -5   3   -0.32    3.92
 -25  -5  -3   -0.13    5.58
  25   5   3    8.57    4.77
  25   5   3    4.75    4.35
 -25   5  -3   13.54    5.56
  27  -5   3   10.31    4.67
 -27  -5  -3   -3.02    5.67
  27   5   3   -1.35    4.59
 -27   5  -3    5.42    5.72
  29  -5   3   -0.48    4.89
 -29  -5  -3   -3.04    6.29
  29   5   3    0.16    4.85
  29   5   3    4.20    4.91
  32  -6  -3   66.52    7.77
 -32  -6   3   58.65    8.17
 -30  -6   3   27.98    6.67
  30  -6  -3   25.35    5.78
 -28  -6   3   -0.02    5.35
  28  -6  -3   -0.40    4.50
 -28   6   3    4.06    5.82
 -26  -6   3   -6.76    4.55
  26  -6  -3    6.23    4.47
 -26   6   3   -6.09    5.60
 -26   6   3    8.96    4.85
 -24  -6   3   81.24    7.31
  24  -6  -3   91.70    7.25
 -24   6   3   89.75    7.12
 -24   6   3   92.30    7.30
  22  -6  -3  758.76   19.62
 -22  -6   3  763.21   19.87
 -22   6   3  768.89   18.86
 -22   6   3  759.62   19.28
  20  -6  -3   23.62    4.59
  20  -6  -3   33.55    4.93
 -20  -6   3   34.47    5.67
 -20   6   3   39.56    5.52
  20   6  -3   31.03    3.64
 -20   6   3   27.24    4.99
 -18  -6   3    9.74    4.20
  18  -6  -3    5.63    3.59
  18  -6  -3    7.20    3.69
  18   6  -3    9.13    3.86
  18   6  -3    5.13    2.60
 -18   6   3    1.78    3.70
 -18   6   3    7.09    4.21
  16  -6  -3  255.40    9.62
 -16  -6   3  249.20    9.37
  16  -6  -3  269.75    8.92
  16  -6  -3  258.09    9.43
  16   6  -3  263.70    9.77
 -16   6   3  260.21    9.49
 -16   6   3  263.51    9.01
 -16   6   3  252.43    9.17
 -14  -6   3   34.30    4.17
  14  -6  -3   31.97    3.94
  14  -6  -3   30.77    4.06
  14  -6  -3   25.65    4.53
 -14   6   3   30.36    4.07
 -14   6   3   25.31    4.04
 -14   6   3   31.18    3.96
  14   6  -3   28.30    4.44
  12  -6  -3  104.99    5.80
 -12  -6   3  101.10    5.47
  12  -6  -3  110.35    5.99
 -12   6   3   93.68    5.65
  12   6  -3  104.88    6.43
 -12   6   3  108.77    6.14
 -12   6   3   99.55    5.75
  10  -6  -3  227.45    7.99
 -10  -6   3  227.11    6.92
 -10   6   3  233.98    7.94
  10   6  -3  236.12    8.51
 -10   6   3  224.63    7.52
   8  -6  -3  150.95    6.37
   8  -6  -3  164.70    6.12
  -8   6   3  164.38    6.07
   8   6  -3  152.82    6.89
  -8   6   3  148.57    6.39
   6  -6  -3   19.14    3.04
   6  -6  -3   15.85    3.01
  -6   6   3   20.57    2.83
   6   6  -3   26.32    3.61
  -6   6   3   25.77    3.46
   4  -6  -3 1123.66   22.03
   4  -6  -3 1142.11   23.22
  -4   6   3 1124.58   22.37
  -4   6   3 1149.30   23.56
   4   6  -3 1110.50   23.99
   2  -6  -3   19.15    3.58
  -2   6   3   29.94    3.43
  -2   6   3   26.58    3.39
   2   6  -3   34.09    4.01
  -2   6   3   39.37    3.42
  -2   6   3   43.35    4.18
   0  -6  -3    2.23    2.62
   0   6  -3   -0.91    2.44
   0   6   3   -0.31    2.42
   0   6   3    1.37    1.93
   0   6   3    2.01    2.38
  -2  -6  -3   16.11    3.10
  -2   6  -3   10.56    3.12
   2   6   3   15.63    2.89
   2   6   3   11.89    2.90
   2   6   3    9.75    2.52
  -4  -6  -3  139.19    6.56
  -4  -6  -3  126.77    6.77
   4   6   3  133.59    6.23
   4   6   3  133.22    5.81
  -4   6  -3  139.42    6.91
   4   6   3  134.68    5.69
  -6  -6  -3  122.55    6.92
  -6  -6  -3  107.65    6.34
   6   6   3  125.87    5.91
   6   6   3  103.84    5.40
  -6   6  -3  122.66    6.92
   6   6   3  112.92    6.34
  -8  -6  -3    1.44    3.28
  -8  -6  -3    3.56    4.01
   8   6   3    2.92    2.62
   8   6   3    0.62    3.38
   8   6   3    1.62    2.76
  -8   6  -3   -0.31    3.42
 -10  -6  -3   19.30    4.22
 -10  -6  -3   31.53    5.26
  10  -6   3   15.43    2.78
  10   6   3   18.34    3.59
  10   6   3   29.09    3.77
  10   6   3   23.54    4.05
  12  -6   3    1.15    2.55
 -12  -6  -3    1.45    4.06
 -12  -6  -3    0.33    4.79
  12   6   3    3.10    3.21
  12   6   3   -1.13    3.04
  14  -6   3   68.39    5.53
 -14  -6  -3   61.40    6.42
 -14  -6  -3   60.66    6.88
  14   6   3   67.45    5.39
  14   6   3   66.72    5.69
  14   6   3   47.94    4.96
 -16  -6  -3   37.54   10.05
  16  -6   3   49.76    5.03
 -16  -6  -3   44.35    6.09
  16   6   3   46.08    5.04
  16   6   3   58.92    5.67
  18  -6   3   74.83    6.00
 -18  -6  -3   69.19    7.04
  18   6   3   68.10    6.02
  18   6   3   81.40    6.57
  20  -6   3   35.19    5.07
 -20  -6  -3   42.56    6.46
  20   6   3   36.17    5.12
  20   6   3   28.63    5.18
  22  -6   3   30.56    5.19
 -22  -6  -3   21.10    6.01
  22   6   3   23.71    4.85
 -22   6  -3   32.41    5.66
  22   6   3   25.66    5.30
  24  -6   3    0.33    4.21
 -24  -6  -3    4.87    5.80
 -24   6  -3   11.66    5.09
  24   6   3   10.45    4.53
  24   6   3    3.47    4.23
 -26  -6  -3   31.57    7.27
  26  -6   3   38.02    6.18
  26   6   3   42.45    6.05
  26   6   3   28.49    5.30
 -26   6  -3   28.13    6.48
  28  -6   3  152.06   10.31
 -28  -6  -3  127.36   11.07
  28   6   3  140.14    9.71
 -28   6  -3  107.75    9.37
  28   6   3  152.36   10.63
 -31  -7   3   65.37    8.31
  31  -7  -3   78.53    8.27
  29  -7  -3    1.73    4.50
 -29  -7   3   -6.93    5.09
  27  -7  -3   49.07    6.52
 -27  -7   3   47.46    6.90
 -27   7   3   46.95    6.76
  25  -7  -3   29.08    5.21
 -25  -7   3   32.34    6.06
 -25   7   3   35.93    6.21
  23  -7  -3   73.12    6.65
 -23  -7   3   77.98    7.10
 -23   7   3   77.06    6.99
 -21  -7   3   95.73    7.24
  21  -7  -3   80.29    6.64
  21   7  -3   82.51    7.39
 -21   7   3   78.56    6.76
 -21   7   3   93.40    7.06
 -19  -7   3   14.15    4.74
  19  -7  -3   24.32    4.61
  19   7  -3   25.49    5.04
 -19   7   3   25.27    5.11
 -19   7   3   24.94    4.47
 -17  -7   3   -0.72    4.00
  17  -7  -3    3.01    3.58
  17   7  -3    1.24    3.81
 -17   7   3    2.36    3.91
 -17   7   3   -1.89    3.56
 -15  -7   3    5.07    3.81
  15  -7  -3    7.43    3.58
  15  -7  -3   10.89    3.79
 -15   7   3   10.50    3.71
 -15   7   3    6.34    3.75
 -15   7   3    5.37    3.91
  15   7  -3   10.42    4.03
  13  -7  -3  229.98    8.72
 -13  -7   3  221.35    8.17
  13   7  -3  221.56    9.39
 -13   7   3  220.34    8.71
 -13   7   3  215.31    8.05
 -13   7   3  230.42    8.88
  11  -7  -3  140.17    7.03
  11  -7  -3  148.67    6.75
 -11  -7   3  145.76    6.26
 -11   7   3  127.84    6.26
  11   7  -3  137.24    7.57
 -11   7   3  143.26    7.13
  -9  -7   3  527.72   11.97
   9  -7  -3  531.84   13.78
   9   7  -3  510.38   14.39
  -9   7   3  539.80   13.93
  -9   7   3  538.17   12.63
   7  -7  -3   13.77    3.35
  -7   7   3    5.25    2.99
   7   7  -3   13.25    3.40
  -7   7   3   11.91    2.79
   5  -7  -3    9.34    3.06
   5  -7  -3    9.26    3.10
  -5   7   3   15.22    3.53
  -5   7   3   14.95    2.81
   5   7  -3   25.93    4.04
   3  -7  -3  548.06   13.67
  -3   7   3  547.11   12.72
   3   7  -3  557.04   14.82
  -3   7   3  536.02   14.30
   1  -7  -3  343.94   10.29
   1   7  -3  339.05   11.05
  -1   7   3  353.32   11.05
  -1   7   3  338.60    9.34
  -1  -7  -3   87.34    5.92
  -1   7  -3  100.06    6.45
   1   7   3  102.81    6.68
   1   7   3  101.01    5.23
   1   7   3   87.42    5.82
  -3  -7  -3  334.43   10.48
   3   7   3  365.91    9.96
  -3   7  -3  341.15   11.39
   3   7   3  352.86   10.21
   3   7   3  350.36   10.23
  -5  -7  -3   65.04    5.29
  -5  -7  -3   62.26    6.42
   5   7   3   66.41    4.91
   5   7   3   64.16    5.06
  -5   7  -3   66.03    5.90
  -7  -7  -3  271.14    9.98
  -7  -7  -3  281.26   10.44
  -7   7  -3  286.31   10.77
   7   7   3  288.81    9.17
   7   7   3  289.33    9.81
  -9  -7  -3  390.00   12.87
  -9  -7  -3  397.03   12.53
  -9   7  -3  377.45   13.08
   9   7   3  408.99   11.61
   9   7   3  402.55   12.07
  11  -7   3   11.11    3.01
 -11  -7  -3   10.49    4.45
  11   7   3   16.10    3.75
  11   7   3   15.31    3.68
  11   7   3   14.92    4.47
  13  -7   3    5.92    3.00
 -13  -7  -3    7.02    4.69
  13   7   3    3.48    3.48
  13   7   3    2.78    3.66
 -15  -7  -3    6.37    4.69
  15  -7   3   13.77    3.79
  15   7   3   14.94    3.89
  15   7   3    6.45    3.51
 -17  -7  -3  596.03   17.62
  17  -7   3  581.77   15.57
  17   7   3  567.19   16.01
  17   7   3  542.44   15.22
 -19  -7  -3   -0.46    4.83
  19  -7   3    0.66    3.35
  19   7   3    2.01    3.66
  19   7   3    7.79    4.07
  21  -7   3    7.46    4.02
 -21  -7  -3    2.36    5.39
  21   7   3    2.17    4.00
  21   7   3    8.71    4.06
 -23  -7  -3   26.65    6.75
  23  -7   3   23.01    5.21
  23   7   3   20.28    4.73
  23   7   3   21.42    5.23
  25  -7   3   10.39    5.01
 -25  -7  -3    5.07    6.20
  25   7   3   16.42    5.01
 -27  -7  -3   11.53    6.91
  27  -7   3   12.88    5.26
 -27   7  -3    7.65    6.30
  27   7   3   16.52    5.19
 -30  -8   3   27.10    6.88
  30  -8  -3   17.73    6.04
  30   8  -3   15.55    6.03
 -28  -8   3    7.78    5.57
  28  -8  -3    3.63    4.80
  28   8  -3    4.52    4.83
 -28   8   3   -6.26    5.38
 -26  -8   3  142.44   10.49
  26  -8  -3  152.39    9.34
 -26   8   3  140.98   10.33
  26   8  -3  135.27    9.88
 -24  -8   3   34.91    6.12
  24  -8  -3   36.36    5.74
 -24   8   3   36.91    6.39
  24   8  -3   38.15    6.33
 -22  -8   3   46.43    6.12
  22  -8  -3   55.24    5.99
  22   8  -3   51.83    6.41
 -22   8   3   61.17    6.62
  20  -8  -3   17.92    4.61
 -20  -8   3   22.16    5.13
 -20   8   3    9.83    4.87
  20   8  -3   17.38    4.95
  18  -8  -3   22.24    4.50
 -18  -8   3   20.30    4.92
  18   8  -3   23.39    5.02
 -18   8   3   26.11    4.97
  16  -8  -3  279.49   10.57
 -16  -8   3  276.49   10.40
 -16   8   3  269.85   10.64
 -16   8   3  269.79   10.50
  16   8  -3  263.35   11.13
  14  -8  -3  187.24    8.68
 -14  -8   3  187.18    8.38
  14   8  -3  188.90    9.47
 -14   8   3  181.05    8.84
 -14   8   3  177.99    7.65
  12  -8  -3  327.69   11.01
 -12  -8   3  332.56   10.12
 -12   8   3  327.28   11.31
  12   8  -3  331.56   12.04
 -10  -8   3  252.84    8.14
  10  -8  -3  244.87    9.37
 -10   8   3  254.18    8.28
  10   8  -3  254.80   10.32
 -10   8   3  258.92    9.87
   8  -8  -3  155.38    7.59
  -8   8   3  158.42    7.90
  -8   8   3  152.62    6.51
   8   8  -3  153.21    8.12
   6  -8  -3   61.79    5.18
   6   8  -3   59.46    6.01
  -6   8   3   62.81    5.47
  -6   8   3   59.64    4.74
   4  -8  -3   46.98    4.87
  -4   8   3   52.62    5.41
  -4   8   3   53.65    4.02
   4   8  -3   51.40    5.40
   2  -8  -3  474.97   13.04
   2   8  -3  478.58   14.23
  -2   8   3  481.08   14.07
  -2   8   3  492.23   11.83
   0  -8  -3  304.14   10.38
   0   8   3  315.68   11.23
   0   8  -3  321.76   11.30
  -2  -8  -3   95.23    6.63
   2   8   3   95.34    7.49
  -2   8  -3   98.59    6.98
   2   8   3   99.91    5.50
   2   8   3   92.62    6.40
  -4  -8  -3  247.70    9.47
   4   8   3  237.63    8.08
  -4   8  -3  222.45    9.88
   4   8   3  231.80    9.01
   4   8   3  234.41    8.95
  -6  -8  -3   77.10    6.17
   6   8   3   88.99    6.23
  -6   8  -3   85.19    7.07
   6   8   3   79.33    5.81
   6   8   3   94.11    5.69
  -8  -8  -3  127.62    8.16
  -8   8  -3  150.11    9.01
   8   8   3  161.09    7.18
   8   8   3  139.95    8.26
 -10  -8  -3  128.09    8.34
  10  -8   3  136.61    6.12
 -10   8  -3  127.72    9.01
  10   8   3  130.11    8.49
  10   8   3  140.84    7.08
 -12  -8  -3   27.73    5.17
  12  -8   3   26.25    3.69
  12   8   3   26.95    5.13
  12   8   3   18.86    3.95
  14  -8   3   47.93    4.64
 -14  -8  -3   46.11    6.16
  14   8   3   46.07    4.88
  14   8   3   48.36    5.90
  16  -8   3    3.59    3.26
 -16  -8  -3    1.37    4.61
  16   8   3    5.95    3.78
  16   8   3    2.84    4.84
  16   8   3    2.94    3.34
 -18  -8  -3   21.34    5.72
  18  -8   3   14.72    4.13
  18   8   3   13.48    4.15
  18   8   3   22.41    4.86
 -20  -8  -3   34.35    6.69
  20  -8   3   16.93    4.70
  20   8   3   20.83    4.38
  22  -8   3   35.80    5.56
 -22  -8  -3   35.62    7.06
  22   8   3   36.10    5.05
 -24  -8  -3   81.35    9.30
  24  -8   3   95.30    7.89
  24   8   3   75.43    6.71
  26   8   3   36.05    5.65
  29  -9  -3   15.66    5.82
 -29  -9   3   14.16    6.33
  29   9  -3   20.18    6.10
 -27  -9   3   58.38    7.42
  27  -9  -3   68.94    7.35
  27   9  -3   68.00    8.18
 -27   9   3   65.87    7.88
 -25  -9   3   66.69    7.40
  25  -9  -3   86.05    8.10
  25   9  -3   91.48    8.54
 -25   9   3   62.12    7.57
 -23  -9   3   34.87    6.03
  23  -9  -3   38.70    5.81
 -23   9   3   40.31    6.46
  23   9  -3   35.84    6.20
  21  -9  -3   -3.40    3.82
 -21  -9   3    5.18    4.68
 -21   9   3    8.91    5.15
  21   9  -3    0.16    4.13
 -19  -9   3   -4.61    3.97
  19  -9  -3    3.27    3.77
 -19   9   3   -0.16    4.71
 -19   9   3    2.54    4.67
  19   9  -3    2.44    4.14
  17  -9  -3  196.40    9.34
 -17  -9   3  206.23    9.49
 -17   9   3  197.53    9.71
  17   9  -3  184.99   10.00
 -15  -9   3   90.15    7.16
  15  -9  -3   87.06    6.99
 -15   9   3   92.67    7.32
  15   9  -3   95.77    7.82
 -13  -9   3  227.94    8.93
  13  -9  -3  234.45    9.76
 -13   9   3  231.70   10.17
  13   9  -3  235.27   10.68
 -11  -9   3   45.06    4.49
  11  -9  -3   35.08    4.96
 -11   9   3   35.42    5.14
  11   9  -3   38.19    5.79
   9  -9  -3   -4.50    3.39
  -9  -9   3    4.83    2.94
   9   9  -3    1.68    3.79
  -9   9   3    0.45    4.05
   7  -9  -3   66.59    5.65
   7   9  -3   62.09    6.63
  -7   9   3   66.67    6.21
   5  -9  -3   30.60    4.62
   5   9  -3   43.79    5.72
  -5   9   3   37.18    5.26
   3  -9  -3  416.14   12.46
  -3   9   3  395.86   13.18
   3   9  -3  379.15   13.34
   1  -9  -3  316.36   11.25
   1   9  -3  333.27   12.29
  -1   9   3  332.95    9.39
  -1   9   3  341.57   12.30
  -1  -9  -3  167.26    8.39
  -1   9  -3  153.14    8.81
   1   9   3  151.36    9.20
   1   9   3  155.84    6.59
  -3  -9  -3  372.70   11.92
   3   9   3  340.53   12.94
   3   9   3  352.83   10.27
  -3   9  -3  362.81   12.95
  -5  -9  -3  315.16   11.43
   5   9   3  310.86    9.90
   5   9   3  344.58   13.02
  -5   9  -3  340.56   12.60
   5   9   3  339.16   11.43
  -7  -9  -3   -1.36    3.93
   7   9   3    2.31    2.61
   7   9   3   -1.57    3.78
  -7   9  -3    0.49    4.24
  -9  -9  -3    4.09    3.97
   9   9   3    2.82    4.11
   9   9   3    1.25    3.62
  -9   9  -3    2.55    4.29
 -11  -9  -3  136.19    8.66
  11  -9   3  118.86    6.33
  11   9   3  129.87    8.58
 -11   9  -3  137.53    9.42
 -13  -9  -3  226.87   10.86
  13  -9   3  239.11    8.79
  13   9   3  246.62   11.01
  15  -9   3  212.49    8.87
 -15  -9  -3  209.53   10.90
  15   9   3  213.71   10.89
 -17  -9  -3   53.57    7.25
  17  -9   3   58.48    5.59
  17   9   3   44.06    6.61
  19  -9   3   36.91    5.32
 -19  -9  -3   29.54    6.43
 -21  -9  -3  144.05   11.55
  21  -9   3  140.37    9.05
 -23  -9  -3   51.81    8.12
  23  -9   3   54.91    6.72
  26 -10  -3   55.40    7.18
 -26 -10   3   54.19    7.35
 -26  10   3   46.68    7.33
  26  10  -3   42.86    7.00
  24 -10  -3   43.72    6.53
 -24 -10   3   47.13    6.75
  24  10  -3   44.08    6.99
 -24  10   3   48.94    7.13
  22 -10  -3    3.74    4.29
 -22 -10   3    5.91    5.03
  22  10  -3    4.54    4.73
 -20 -10   3   57.80    6.47
  20 -10  -3   51.17    6.13
  20  10  -3   49.31    6.73
 -18 -10   3   29.99    5.29
  18 -10  -3   31.30    5.31
  18  10  -3   36.86    6.13
 -18  10   3   36.82    6.36
  16 -10  -3   56.93    6.22
 -16 -10   3   60.13    5.93
  16  10  -3   52.13    6.75
 -16  10   3   72.80    6.86
  14 -10  -3  328.39   12.16
 -14 -10   3  348.17   11.31
  14  10  -3  340.87   13.37
 -14  10   3  352.56   12.85
 -12 -10   3  295.09   10.00
  12 -10  -3  268.73   10.89
  12  10  -3  276.61   12.10
 -12  10   3  305.05   11.87
 -10 -10   3   67.50    5.22
  10 -10  -3   69.58    6.13
  10  10  -3   83.50    7.52
 -10  10   3   80.18    7.23
   8 -10  -3  119.38    7.86
  -8  10   3  112.68    8.28
   8  10  -3  125.54    8.61
   6 -10  -3   15.16    4.38
   6  10  -3    9.11    4.46
  -6  10   3   10.66    4.49
   4 -10  -3    2.59    3.85
  -4  10   3   -1.52    3.86
   4  10  -3    4.41    4.05
   2 -10  -3  290.28   10.69
  -2  10   3  266.20   11.48
   2  10  -3  267.59   11.62
   0 -10  -3  265.47   10.64
   0  10  -3  282.30   11.76
   0  10   3  277.97   11.69
  -2 -10  -3  145.21    8.51
   2  10   3  161.43    9.55
  -2  10  -3  153.19    9.18
  -4 -10  -3   10.89    4.13
   4  10   3   10.24    4.47
  -4  10  -3    2.41    4.19
  -6 -10  -3   10.04    4.36
   6  10   3   12.30    4.92
  -6  10  -3   13.93    4.81
  -8 -10  -3  158.40    9.21
   8  10   3  141.95    9.77
   8  10   3  152.49    9.11
  -8  10  -3  159.55    9.94
  10 -10   3   66.16    4.96
 -10 -10  -3   61.38    6.67
  10  10   3   64.43    6.46
 -10  10  -3   56.32    6.98
  10  10   3   53.23    7.03
  12 -10   3   50.87    4.82
 -12 -10  -3   47.50    6.56
  12  10   3   44.07    6.29
  14 -10   3  136.73    7.44
 -14 -10  -3  133.74    9.65
  14  10   3  151.01    9.92
  16 -10   3   16.50    4.22
 -16 -10  -3   26.04    6.00
  16  10   3   17.95    5.86
 -18 -10  -3    4.30    5.36
  18 -10   3    6.02    3.81
  18  10   3   -1.53    5.24
  20 -10   3   65.64    6.60
 -20 -10  -3   43.50    7.47
 -22 -10  -3   74.96    8.90
  22 -10   3   78.58    7.42
  23 -11  -3   19.39    5.61
 -23 -11   3    7.97    5.56
  23  11  -3   16.27    5.57
 -21 -11   3    6.15    4.99
  21 -11  -3    0.91    4.39
  21  11  -3    1.56    4.70
 -21  11   3    0.50    5.43
  19 -11  -3    3.23    4.44
 -19 -11   3   10.17    4.96
 -19  11   3    9.71    5.56
 -19  11   3    0.58    5.35
  19  11  -3   13.87    5.26
  17 -11  -3    8.51    4.60
 -17 -11   3   15.51    4.69
  17  11  -3   20.61    5.68
 -17  11   3    6.81    5.38
  15 -11  -3   62.77    6.38
 -15 -11   3   61.39    6.07
 -15  11   3   72.34    7.51
  15  11  -3   60.14    7.29
  13 -11  -3   52.19    6.01
 -13 -11   3   57.38    5.62
 -13  11   3   51.88    6.53
  13  11  -3   66.74    7.50
  11 -11  -3   15.85    4.59
 -11 -11   3   11.30    3.98
  11  11  -3   11.49    4.72
 -11  11   3    5.96    4.77
   9 -11  -3  118.02    8.29
  -9  11   3  136.02    9.22
   9  11  -3  130.71    9.35
   7 -11  -3  102.76    7.98
  -7  11   3  116.57    8.79
   7  11  -3  121.09    8.90
   5 -11  -3  164.02    9.05
  -5  11   3  165.15    9.94
   5  11  -3  165.93    9.93
   3 -11  -3   95.01    7.29
  -3  11   3   98.17    8.12
   3  11  -3   85.02    7.92
   1 -11  -3  277.00   11.08
   1  11  -3  264.28   12.07
  -1  11   3  272.43   12.00
  -1 -11  -3    1.00    4.03
  -1  11  -3    8.77    4.67
   1  11   3    8.70    4.67
  -3 -11  -3   11.25    4.38
  -3  11  -3   10.96    4.70
   3  11   3   -1.91    4.25
  -5 -11  -3   39.73    5.74
   5  11   3   39.62    6.34
  -5  11  -3   34.56    6.17
  -7 -11  -3   -3.57    3.96
   7  11   3   -0.71    4.09
  -7  11  -3   -0.23    4.36
  -9 -11  -3    8.27    5.04
  -9  11  -3   13.16    5.44
   9  11   3   18.34    5.40
   9  11   3   16.74    5.35
 -11 -11  -3    3.06    4.71
  11 -11   3   10.64    3.38
  11  11   3   -0.44    4.59
  11  11   3   -0.08    4.82
 -11  11  -3    1.59    4.87
 -13 -11  -3   13.94    5.53
  13 -11   3   20.81    4.19
  13  11   3   14.64    5.68
  13  11   3   19.67    5.62
  15 -11   3    8.57    3.77
 -15 -11  -3    1.36    5.22
  15  11   3   -2.62    5.38
 -17 -11  -3   11.66    5.79
  17 -11   3   10.79    4.19
  17  11   3   13.43    5.96
 -19 -11  -3   40.84    7.32
  19 -11   3   32.24    5.66
  20 -12  -3  159.59   10.46
 -20 -12   3  165.87   10.62
 -20  12   3  155.87   11.29
  20  12  -3  154.68   11.06
 -18 -12   3   51.40    6.65
  18 -12  -3   49.34    6.64
 -18  12   3   50.31    7.56
  18  12  -3   52.40    7.54
  16 -12  -3   15.80    4.76
 -16 -12   3   18.65    5.03
  16  12  -3   13.61    5.32
 -16  12   3   21.89    6.11
  14 -12  -3   73.80    6.95
 -14 -12   3   73.43    6.38
 -14  12   3   67.99    7.94
  14  12  -3   56.73    7.27
 -12 -12   3   30.57    5.02
  12 -12  -3   35.27    5.69
 -12  12   3   45.89    6.88
  12  12  -3   38.51    6.67
 -10 -12   3   -2.77    3.53
  10 -12  -3    2.93    4.40
 -10  12   3    4.65    5.04
  10  12  -3    2.30    4.55
   8 -12  -3   27.08    5.22
  -8 -12   3   30.17    4.38
   8  12  -3   31.28    5.95
  -8  12   3   21.98    5.67
   6 -12  -3   -1.99    3.80
   6  12  -3    5.59    4.38
  -6  12   3   -1.82    4.42
   4 -12  -3   -2.51    4.05
  -4  12   3    6.81    4.66
   4  12  -3    3.48    4.31
   2 -12  -3    3.10    4.28
   2  12  -3    6.48    4.60
  -2  12   3    6.40    4.84
   0 -12  -3   17.87    4.78
   0  12  -3   12.52    5.04
   0  12   3    5.92    4.78
  -2 -12  -3    2.08    4.43
   2  12   3    1.70    4.48
  -2  12  -3    2.84    4.57
  -4 -12  -3    0.92    4.39
   4  12   3    2.88    4.63
  -4  12  -3   -3.62    4.07
  -6 -12  -3    0.70    4.35
   6  12   3   -5.70    4.44
  -6  12  -3    1.92    4.88
  -8 -12  -3    5.77    4.74
  -8  12  -3    7.37    5.37
   8  12   3    8.04    5.18
 -10 -12  -3   66.89    7.38
  10 -12   3   68.62    5.54
  10  12   3   49.27    7.17
 -10  12  -3   54.70    8.03
  12 -12   3   -2.60    3.28
 -12 -12  -3    1.34    5.01
  12  12   3    6.00    5.22
  12  12   3    5.16    5.41
 -12  12  -3   -2.23    5.60
 -14 -12  -3   62.60    7.82
  14 -12   3   52.25    5.60
  14  12   3   52.12    7.32
  14  12   3   49.77    7.99
 -16 -12  -3   50.48    7.78
  16 -12   3   47.94    5.72
  16  12   3   34.70    7.37
  16  12   3   53.28    7.61
  17 -13  -3   20.64    6.00
 -17 -13   3   21.63    5.75
  17  13  -3   13.88    5.90
 -17  13   3   16.52    6.81
  15 -13  -3    0.91    4.54
 -15 -13   3    8.61    4.80
 -15  13   3    2.56    5.31
  15  13  -3    2.85    4.90
 -13 -13   3   43.69    5.86
  13 -13  -3   47.13    6.51
  13  13  -3   44.08    7.32
 -13  13   3   46.76    7.36
 -11 -13   3    3.25    4.21
  11 -13  -3    2.91    4.73
  11  13  -3    8.76    5.31
 -11  13   3    8.76    5.49
  -9 -13   3    5.95    4.04
   9 -13  -3    2.90    4.65
   9  13  -3    3.02    5.01
  -9  13   3    4.10    5.32
   7 -13  -3   19.18    5.23
  -7  13   3   18.89    5.78
   7  13  -3   22.63    5.83
   5 -13  -3   72.77    7.03
   5  13  -3   56.14    7.48
  -5  13   3   69.58    7.98
   3 -13  -3    3.59    4.65
  -3  13   3    3.32    4.85
   3  13  -3   -0.49    4.36
   1 -13  -3    2.72    4.71
   1  13  -3    7.49    4.86
  -1  13   3    2.30    5.21
  -1 -13  -3    9.38    4.73
   1  13   3   -0.55    4.55
  -1  13  -3    2.38    4.76
  -3 -13  -3    1.13    4.71
  -3  13  -3    2.62    5.14
   3  13   3    7.85    5.01
  -5 -13  -3   -0.08    4.63
  -5  13  -3    5.08    5.25
   5  13   3   14.06    5.48
  -7 -13  -3   -1.45    4.72
   7  13   3   10.21    5.13
  -7  13  -3   -3.75    5.10
  -9 -13  -3   -3.53    5.02
   9  13   3    1.33    5.14
  -9  13  -3    5.79    5.64
 -11 -13  -3   37.15    6.83
  11  13   3   30.44    6.68
 -11  13  -3   34.82    7.53
  11  13   3   19.09    6.04
  10 -14  -3   -0.37    4.71
 -10 -14   3   -2.32    4.21
  10  14  -3    0.01    5.05
 -10  14   3   -1.59    5.57
   8 -14  -3    0.29    4.88
  -8 -14   3   -5.68    3.83
  -8  14   3    2.50    5.60
   8  14  -3   -0.80    5.17
   6 -14  -3   18.38    5.62
  -6  14   3   27.57    6.70
   6  14  -3   31.22    6.61
   4 -14  -3   -5.02    4.64
  -4  14   3    2.94    5.67
   4  14  -3    1.12    4.88
   2 -14  -3   11.99    5.48
  -2  14   3   14.64    5.95
   2  14  -3    5.70    5.68
   0 -14  -3    8.08    5.36
   0  14  -3   12.40    6.00
   0  14   3    6.75    5.82
  -2 -14  -3   12.98    5.27
   2  14   3    9.62    5.61
  -2  14  -3   -0.27    5.25
  -4 -14  -3    4.32    5.20
   4  14   3   13.73    5.96
  -4  14  -3   -0.02    5.43
  -6  14  -3   -4.77    5.35
   6  14   3   -0.71    4.83
 -36   0   4   -6.47    6.01
  36   0  -4    1.47    4.69
 -34   0   4   -3.23    5.68
  34   0  -4    2.59    4.67
 -32   0   4   27.30    8.21
  32   0  -4   25.98    5.27
 -32   0   4   31.02    6.91
 -30   0   4   11.65    6.52
  30   0  -4   20.64    4.86
 -30   0   4   21.17    6.30
  28   0  -4    3.99    4.31
 -28   0   4    8.67    4.98
 -28   0   4    6.53    5.42
  28   0  -4    3.59    3.61
  26   0  -4  343.32   12.16
 -26   0   4  362.00   13.85
  26   0  -4  363.93   12.14
 -26   0   4  350.77   13.16
  24   0  -4  254.67   10.17
  24   0  -4  261.88    9.89
 -24   0   4  264.97   11.74
 -24   0   4  256.88   10.88
  22   0  -4  143.84    7.33
  22   0  -4  154.31    7.79
 -22   0   4  143.62    9.07
 -22   0   4  139.43    7.62
 -22   0   4  156.73    8.65
  20   0  -4  378.22   10.88
 -20   0   4  358.86   11.59
 -20   0   4  395.22   11.91
  20   0  -4  385.51   11.03
 -20   0   4  362.27   10.71
  18   0  -4 1309.86   26.24
  18   0  -4 1257.78   25.86
 -18   0   4 1259.85   26.18
 -18   0   4 1297.97   26.16
 -18   0   4 1283.87   26.43
 -18   0   4 1268.53   25.54
  16   0  -4   37.80    3.60
 -16   0   4   27.14    3.74
 -16   0   4   27.21    3.68
  16   0  -4   28.61    2.89
 -16   0   4   30.61    3.93
  16   0  -4   27.35    3.10
  14   0  -4    5.71    2.31
 -14   0   4    9.02    2.70
  14   0  -4    2.30    2.32
  14   0  -4    7.60    2.19
 -14   0   4    4.51    2.59
 -14   0   4    2.58    2.77
 -12   0   4  251.06    7.41
  12   0  -4  263.25    7.10
  12   0  -4  264.22    6.55
 -12   0   4  252.98    7.44
  12   0  -4  257.96    7.18
  12   0  -4  252.74    7.06
 -12   0   4  262.42    7.44
  10   0  -4  370.01    8.76
 -10   0   4  393.21    9.06
  10   0  -4  387.50    8.83
 -10   0   4  386.43    9.12
  10   0  -4  393.43    8.91
 -10   0   4  379.97    9.20
  -8   0   4  653.59   13.49
   8   0  -4  679.89   13.37
  -8   0   4  651.97   13.72
   8   0  -4  703.79   13.52
   8   0  -4  682.12   13.43
   6   0  -4 9717.04  164.95
  -6   0   4 9533.39  164.96
  -4   0   4 9999.00  170.56
  -4   0   4 9898.61  170.29
   2   0  -4 2194.62   39.13
  -2   0   4 2208.12   39.36
  -2   0   4 2236.61   39.15
   0   0   4 1008.69   19.04
   0   0  -4 1006.33   18.83
  -2   0  -4   16.75    2.19
   2   0   4   18.81    2.16
  -4   0  -4 1904.87   34.68
   4   0   4 1906.96   34.87
  -6   0  -4 1121.14   21.30
   6   0   4 1072.81   21.40
  -6   0  -4 1064.58   21.19
  -8   0  -4 1356.51   25.82
   8   0   4 1330.61   26.06
  -8   0  -4 1296.57   25.78
 -10   0  -4 3706.57   65.82
 -10   0  -4 3666.23   65.88
  10   0   4 3653.25   66.20
 -10   0  -4 3622.77   65.81
 -12   0  -4  182.89    7.39
  12   0   4  186.76    7.33
 -12   0  -4  179.06    7.54
 -12   0  -4  206.04    7.36
 -12   0  -4  179.46    7.86
 -14   0  -4  166.98    7.99
 -14   0  -4  162.98    7.44
  14   0   4  181.12    7.61
 -14   0  -4  175.92    7.99
 -14   0  -4  170.52    8.37
 -16   0  -4  164.22    8.68
  16   0   4  176.87    8.19
 -16   0  -4  181.13    8.12
 -16   0  -4  163.76    8.52
 -16   0  -4  174.09    9.27
 -18   0  -4  366.71   12.29
 -18   0  -4  365.99   12.39
 -18   0  -4  332.75   11.34
 -18   0  -4  346.48   12.69
  18   0   4  341.72   11.79
 -20   0  -4   78.33    6.79
  20   0   4   78.35    6.71
 -20   0  -4   78.77    7.30
 -20   0  -4   83.34    7.07
 -22   0  -4  166.28    9.96
 -22   0  -4  169.05   10.68
  22   0   4  176.93    9.38
 -22   0  -4  185.46   10.00
 -24   0  -4   -5.72    4.62
  24   0   4   -3.21    4.06
 -24   0  -4   12.85    6.11
 -26   0  -4   35.68    7.19
 -26   0  -4   56.54    6.99
  26   0   4   50.17    6.59
  28   0   4  145.85   10.40
 -28   0  -4  134.72   10.51
  30   0   4  229.87   13.00
 -37  -1   4    9.13    7.18
  37  -1  -4    9.31    5.58
 -37   1   4   12.20   10.38
  37   1  -4   12.33    5.41
 -37   1   4    3.00    6.65
 -35  -1   4    8.70    6.33
  35  -1  -4    5.10    4.90
 -35   1   4    9.36    6.42
  35   1  -4    4.54    4.85
 -35   1   4   -0.38    6.97
  33  -1  -4   27.14    5.93
  33  -1  -4   25.59    5.41
 -33  -1   4   29.29    6.79
  33   1  -4   31.05    5.66
 -33   1   4   24.57    6.63
 -33   1   4   34.98    8.16
  31  -1  -4    4.75    4.43
  31  -1  -4    4.08    4.84
 -31  -1   4    5.31    5.70
 -31   1   4    8.23    5.62
 -31   1   4    9.92    6.38
  31   1  -4    3.84    4.19
  29  -1  -4   15.68    4.70
  29  -1  -4    6.74    4.35
 -29  -1   4   10.80    5.45
  29   1  -4   21.87    4.50
 -29   1   4    5.58    6.01
 -29   1   4    4.32    5.20
  27  -1  -4   24.52    4.73
 -27  -1   4   27.34    5.86
  27  -1  -4   30.00    5.24
 -27  -1   4   25.56    6.13
 -27   1   4   17.15    5.43
  27   1  -4   33.10    4.79
 -27   1   4   23.15    6.15
  25  -1  -4   26.82    5.00
 -25  -1   4   25.55    6.39
  25  -1  -4   28.78    4.86
 -25  -1   4   32.09    5.81
 -25   1   4   24.25    5.57
  25   1  -4   38.12    4.91
 -25   1   4   29.51    6.26
  23  -1  -4  160.62    7.61
  23  -1  -4  151.90    8.71
  23  -1  -4  155.41    7.93
 -23  -1   4  168.16    9.12
 -23  -1   4  164.18    9.71
  23   1  -4  159.09    7.58
  23   1  -4  159.95    7.61
 -23   1   4  151.95    8.80
 -23   1   4  160.19    9.92
 -23   1   4  165.99    8.51
  21  -1  -4   65.88    4.66
 -21  -1   4   97.36    7.26
 -21  -1   4   65.23    6.15
  21  -1  -4   76.78    5.90
  21  -1  -4   72.50    5.68
 -21   1   4   64.50    5.25
  21   1  -4   77.33    6.10
  21   1  -4   75.94    5.32
 -21   1   4   61.31    6.31
  21   1  -4   75.19    5.56
 -21   1   4   72.60    5.99
 -19  -1   4   -0.05    3.30
  19  -1  -4    2.12    2.92
  19  -1  -4    2.04    2.71
 -19  -1   4   -4.63    3.58
  19  -1  -4    0.75    2.52
  19   1  -4    1.52    2.52
 -19   1   4    5.19    3.04
  19   1  -4   -3.39    2.56
 -19   1   4   -3.18    3.67
  19   1  -4    1.25    2.66
 -19   1   4    1.62    3.25
 -17  -1   4  177.64    7.46
  17  -1  -4  189.11    6.52
 -17  -1   4  180.65    7.30
 -17  -1   4  178.20    7.62
  17  -1  -4  186.20    6.94
  17  -1  -4  184.84    7.23
  17   1  -4  175.78    6.49
 -17   1   4  179.65    6.87
  17   1  -4  189.42    6.87
  17   1  -4  187.26    6.59
 -17   1   4  184.20    7.74
 -17   1   4  180.10    7.46
 -17   1   4  188.72    7.53
 -15  -1   4   11.23    3.18
  15  -1  -4   13.44    2.50
  15  -1  -4    9.51    2.47
 -15  -1   4    8.24    2.90
 -15  -1   4   13.11    3.01
  15  -1  -4   11.44    2.86
 -15   1   4    5.18    3.17
 -15   1   4    8.62    3.01
  15   1  -4    6.99    2.46
 -15   1   4    8.27    2.74
  15   1  -4    9.65    2.34
 -15   1   4   10.57    2.99
 -13  -1   4    5.72    2.30
  13  -1  -4    4.05    2.05
  13  -1  -4    3.40    2.08
 -13  -1   4    3.09    2.46
 -13  -1   4    0.05    2.31
  13  -1  -4    5.49    2.45
 -13   1   4    4.07    2.49
  13   1  -4    0.93    1.95
  13   1  -4    2.69    1.82
 -13   1   4    1.91    2.44
  13   1  -4    3.15    2.35
 -13   1   4   -0.22    2.59
 -13   1   4   -0.52    2.24
  11  -1  -4  160.13    5.12
 -11  -1   4  155.82    5.40
  11  -1  -4  153.29    5.54
  11  -1  -4  150.38    5.29
 -11  -1   4  157.71    5.47
 -11   1   4  163.79    5.44
 -11   1   4  165.16    5.77
 -11   1   4  156.13    5.71
  11   1  -4  155.84    4.86
 -11   1   4  163.57    5.74
  -9  -1   4   68.12    3.54
  -9  -1   4   75.17    3.72
   9  -1  -4   74.10    4.08
   9  -1  -4   66.18    3.53
   9  -1  -4   68.43    3.53
  -9   1   4   69.80    4.20
   9   1  -4   66.64    3.07
  -9   1   4   69.24    4.03
  -9   1   4   68.30    4.09
  -9   1   4   65.09    3.76
   7  -1  -4  201.19    5.63
   7  -1  -4  195.27    5.78
   7  -1  -4  197.38    5.27
  -7  -1   4  196.68    5.38
  -7   1   4  193.50    5.90
  -7   1   4  195.90    5.86
   7   1  -4  191.75    4.76
  -7   1   4  190.13    5.78
   5  -1  -4  325.48    7.79
  -5  -1   4  328.35    7.28
   5  -1  -4  341.55    7.96
   5  -1  -4  333.25    7.44
  -5   1   4  333.16    8.20
  -5   1   4  324.22    7.91
   5   1  -4  339.28    7.39
  -5   1   4  331.56    7.97
   3  -1  -4 8596.86  148.00
   3  -1  -4 8655.88  147.94
  -3  -1   4 8551.23  147.22
   3  -1  -4 8714.84  147.95
  -3   1   4 8432.45  148.12
  -3   1   4 8680.51  147.91
   1  -1  -4  936.28   17.56
   1  -1  -4  950.06   18.17
   1  -1  -4  906.43   18.05
   1  -1  -4  948.18   18.12
  -1  -1   4  918.06   17.24
  -1   1   4  939.83   18.20
  -1   1   4  956.02   18.02
   1  -1   4   41.23    2.62
  -1  -1  -4   45.16    2.80
  -1  -1  -4   39.85    3.12
  -1  -1  -4   48.52    3.67
  -1  -1  -4   43.75    3.34
   1   1   4   48.21    3.35
   1   1   4   40.60    3.25
   3  -1   4   33.84    2.44
  -3  -1  -4   30.37    2.79
  -3  -1  -4   29.49    3.02
  -3  -1  -4   36.13    3.00
  -3   1  -4   33.90    2.52
   3   1   4   31.78    2.79
  -5  -1  -4   41.92    3.34
  -5  -1  -4   44.33    3.34
   5  -1   4   43.50    3.13
  -5  -1  -4   43.18    3.63
  -5   1  -4   40.97    3.08
   5   1   4   40.36    3.21
  -7  -1  -4  319.98    9.05
  -7  -1  -4  316.78    8.77
  -7  -1  -4  313.04    8.76
   7  -1   4  312.99    8.28
  -7   1  -4  319.20    8.10
   7   1   4  316.37    8.74
  -9  -1  -4   23.01    3.06
  -9  -1  -4   20.96    3.35
   9  -1   4   28.08    3.04
  -9  -1  -4   25.46    3.68
  -9  -1  -4   28.10    3.57
  -9   1  -4   26.46    3.13
   9   1   4   26.47    3.28
 -11  -1  -4  243.68    8.40
 -11  -1  -4  238.54    7.96
  11  -1   4  243.24    7.91
 -11  -1  -4  244.76    8.82
 -11  -1  -4  222.92    8.34
 -11   1  -4  233.01    8.05
 -11   1  -4  248.36    7.89
  11   1   4  219.10    7.97
 -13  -1  -4   96.57    6.61
  13  -1   4   94.15    5.69
 -13  -1  -4   99.45    6.20
 -13  -1  -4  103.08    6.74
 -13  -1  -4   89.45    7.07
 -13   1  -4   89.79    6.37
  13   1   4   86.82    5.78
 -13   1  -4   95.52    6.05
 -15  -1  -4   34.33    5.60
 -15  -1  -4   38.12    4.94
  15  -1   4   32.78    4.20
 -15  -1  -4   34.61    4.55
 -15  -1  -4   32.84    4.91
 -15   1  -4   39.70    4.79
 -15   1  -4   35.40    4.64
  15   1   4   24.31    4.16
 -17  -1  -4    1.52    4.30
 -17  -1  -4   10.00    5.26
  17  -1   4    3.20    3.44
 -17  -1  -4    5.62    4.44
 -17  -1  -4    3.37    4.48
 -17   1  -4    5.94    4.09
  17   1   4    8.56    3.78
 -17   1  -4   -3.03    4.05
 -19  -1  -4    0.61    4.41
  19  -1   4    1.78    3.60
 -19  -1  -4   -3.22    5.32
 -19  -1  -4   -5.09    4.38
  19   1   4   -2.69    3.55
 -19   1  -4   -2.33    4.39
 -19   1  -4    1.56    4.25
 -21  -1  -4    2.38    4.62
  21  -1   4    0.99    3.53
 -21  -1  -4   -2.63    5.03
 -21  -1  -4    4.18    4.69
 -21   1  -4    1.65    4.44
  21   1   4    0.18    3.56
 -21   1  -4    0.14    4.24
 -23  -1  -4    5.64    5.02
 -23  -1  -4    2.57    5.84
  23  -1   4   -1.93    3.82
 -23   1  -4    4.82    4.70
  23   1   4    6.58    4.22
 -23   1  -4    6.33    4.98
  25  -1   4   24.52    5.45
 -25  -1  -4   18.38    5.77
 -25  -1  -4   30.27    6.85
  25   1   4   22.11    5.26
 -25   1  -4   22.20    8.11
 -27  -1  -4   11.72    6.89
  27  -1   4   11.43    5.28
 -27  -1  -4   18.40    6.17
  27   1   4   10.24    4.81
 -29  -1  -4    3.62    7.06
 -29  -1  -4    7.29    6.29
  29  -1   4   -0.98    4.44
  29   1   4   -1.72    4.87
  36  -2  -4    1.04    5.34
 -36  -2   4    5.74    6.39
 -36   2   4   -0.67    7.44
  36   2  -4   -0.51    4.85
 -36   2   4    0.40    6.46
 -34  -2   4   58.11    8.35
  34  -2  -4   90.28    8.17
 -34   2   4   63.29    8.50
 -34   2   4   61.15    8.66
  34   2  -4   82.68    7.60
 -32  -2   4    5.27    5.90
  32  -2  -4    4.18    4.83
  32   2  -4   20.00    4.90
 -32   2   4   12.69    6.10
 -32   2   4   10.42    6.93
  30  -2  -4   86.03    7.45
 -30  -2   4   97.48    8.52
  30  -2  -4   82.54    7.66
  30   2  -4  105.88    7.82
 -30   2   4   97.42    8.59
 -30   2   4   87.33    8.63
  28  -2  -4   67.88    6.92
  28  -2  -4   84.04    7.21
  28  -2  -4   80.69    6.27
 -28  -2   4   74.16    7.53
  28   2  -4   82.59    6.58
 -28   2   4   74.42    7.57
 -28   2   4   88.75    7.87
 -26  -2   4  154.83    9.62
  26  -2  -4  139.16    8.96
  26  -2  -4  155.19    8.60
  26  -2  -4  151.33    8.07
 -26   2   4  132.26    9.20
  26   2  -4  140.46    7.82
 -26   2   4  136.86   10.39
  24  -2  -4   38.60    5.47
 -24  -2   4   42.22    5.81
  24  -2  -4   41.29    5.04
  24  -2  -4   45.78    5.05
 -24  -2   4   42.64    6.54
 -24   2   4   48.33    6.14
  24   2  -4   48.63    4.82
 -24   2   4   39.12    5.28
  24   2  -4   37.59    4.63
 -24   2   4   42.26    6.68
 -22  -2   4   92.80    7.56
  22  -2  -4   88.34    6.45
  22  -2  -4   92.48    7.21
  22  -2  -4   92.07    6.59
 -22  -2   4   95.50    7.08
 -22   2   4  100.85    7.39
 -22   2   4   93.32    7.03
 -22   2   4   98.48    7.16
  22   2  -4  102.14    6.34
  22   2  -4  100.46    6.10
 -20  -2   4  228.98    9.59
  20  -2  -4  226.15    8.77
 -20  -2   4  231.17    9.19
  20  -2  -4  228.54    8.58
  20  -2  -4  211.60    7.94
 -20   2   4  227.51    9.45
  20   2  -4  215.86    7.85
  20   2  -4  224.23    7.99
 -20   2   4  223.13    9.37
 -20   2   4  215.75    8.54
  18  -2  -4  157.36    6.46
  18  -2  -4  145.77    7.01
  18  -2  -4  163.30    6.75
 -18  -2   4  152.00    7.53
 -18  -2   4  163.46    7.35
  18   2  -4  157.13    6.19
 -18   2   4  156.08    7.76
 -18   2   4  152.76    7.45
 -18   2   4  160.47    6.98
 -18   2   4  158.56    7.44
  16  -2  -4   46.04    3.93
 -16  -2   4   54.17    4.36
  16  -2  -4   52.67    4.35
 -16  -2   4   47.85    4.28
  16  -2  -4   55.64    3.94
 -16  -2   4   54.89    4.79
 -16   2   4   53.36    4.62
 -16   2   4   55.32    4.66
 -16   2   4   57.19    4.90
  16   2  -4   51.81    3.83
  16   2  -4   57.09    3.89
 -16   2   4   49.36    4.18
  14  -2  -4   32.02    3.24
  14  -2  -4   35.67    3.55
  14  -2  -4   26.71    3.10
 -14  -2   4   28.24    3.40
 -14  -2   4   32.22    3.41
 -14   2   4   26.19    3.31
 -14   2   4   26.17    3.70
 -14   2   4   34.58    3.74
 -14   2   4   28.90    3.50
  14   2  -4   26.30    2.66
 -12  -2   4  562.61   12.50
  12  -2  -4  574.29   12.97
 -12  -2   4  565.85   12.25
  12  -2  -4  572.53   12.15
  12  -2  -4  566.01   12.92
  12   2  -4  573.76   11.86
 -12   2   4  567.77   12.99
 -12   2   4  561.26   13.02
 -12   2   4  557.40   12.55
 -12   2   4  580.57   13.01
  10  -2  -4   40.68    2.83
  10  -2  -4   37.27    3.23
 -10  -2   4   32.09    2.62
  10  -2  -4   29.93    2.86
 -10   2   4   29.18    2.82
 -10   2   4   30.16    3.07
  10   2  -4   33.85    2.35
 -10   2   4   28.48    2.93
 -10   2   4   32.05    3.12
   8  -2  -4  203.72    5.68
  -8  -2   4  189.42    5.17
   8  -2  -4  195.53    5.96
   8  -2  -4  191.84    6.15
  -8   2   4  189.96    5.86
  -8   2   4  192.59    6.19
  -8   2   4  193.92    6.13
   8   2  -4  203.56    5.47
  -8   2   4  191.67    6.13
   6  -2  -4  115.84    4.51
   6  -2  -4  124.68    4.98
   6  -2  -4  122.05    4.74
   6   2  -4  123.27    4.26
  -6   2   4  124.14    4.87
  -6   2   4  123.89    4.92
  -6   2   4  123.27    4.70
  -6   2   4  117.11    4.74
   4  -2  -4 2575.02   45.83
   4  -2  -4 2546.85   45.73
   4  -2  -4 2572.77   45.09
   4   2  -4 2515.86   45.58
  -4   2   4 2543.49   45.55
  -4   2   4 2521.96   45.59
  -4   2   4 2581.29   45.44
   2  -2  -4 2839.84   50.01
   2  -2  -4 2840.73   50.73
   2  -2  -4 2872.98   50.53
   2  -2  -4 2855.65   50.69
   2   2  -4 2844.72   50.79
  -2   2   4 2838.77   50.30
  -2   2   4 2812.64   50.43
  -2   2   4 2806.24   50.79
   0  -2  -4   17.90    2.48
   0  -2  -4   13.68    2.53
   0  -2  -4   13.94    2.45
   0  -2  -4   16.62    2.74
   0   2   4   12.37    2.30
   0   2   4   17.69    2.30
   0   2   4   19.63    2.44
  -2  -2  -4  311.81    8.34
  -2  -2  -4  314.53    8.07
  -2  -2  -4  309.95    8.13
   2   2   4  306.67    8.19
   2   2   4  304.29    7.90
   2   2   4  314.57    7.84
  -4  -2  -4  812.65   16.61
  -4  -2  -4  794.69   16.81
  -4  -2  -4  826.82   16.95
   4  -2   4  798.42   15.59
   4   2   4  799.22   16.52
   4   2   4  803.77   16.36
   4   2   4  781.02   16.71
  -6  -2  -4 1335.64   26.33
  -6  -2  -4 1352.44   26.15
  -6  -2  -4 1367.06   26.52
   6  -2   4 1333.72   25.37
   6   2   4 1352.33   25.88
   6   2   4 1334.63   26.40
  -8  -2  -4  792.69   17.05
  -8  -2  -4  775.58   17.32
   8  -2   4  777.58   16.35
  -8  -2  -4  768.72   17.20
   8   2   4  784.39   16.74
   8   2   4  780.37   17.22
  -8   2  -4  801.79   15.80
 -10  -2  -4  626.70   15.13
 -10  -2  -4  643.01   14.91
  10  -2   4  623.18   14.33
 -10  -2  -4  634.37   15.33
  10   2   4  625.42   14.99
 -10   2  -4  625.50   13.76
  10   2   4  642.82   14.56
 -12  -2  -4  183.54    8.09
 -12  -2  -4  196.85    8.18
  12  -2   4  198.54    7.37
 -12  -2  -4  204.36    8.77
 -12   2  -4  193.37    7.11
  12   2   4  208.71    7.99
 -14  -2  -4  145.78    8.23
  14  -2   4  174.39    7.40
 -14  -2  -4  164.50    8.22
 -14  -2  -4  160.58    9.19
 -14   2  -4  165.10    7.89
  14   2   4  160.54    7.79
 -14   2  -4  169.54    7.27
 -16  -2  -4  700.43   17.68
 -16  -2  -4  707.03   17.96
 -16  -2  -4  714.65   18.44
  16  -2   4  674.44   17.21
 -16   2  -4  682.39   16.65
 -16   2  -4  690.54   17.21
  16   2   4  693.01   17.73
  18  -2   4  546.63   15.38
 -18  -2  -4  543.83   16.02
 -18  -2  -4  530.94   16.38
 -18  -2  -4  532.85   15.73
 -18   2  -4  543.84   14.72
 -18   2  -4  543.96   15.42
  18   2   4  546.54   15.72
  20  -2   4   -2.88    3.28
 -20  -2  -4   -3.49    4.36
 -20  -2  -4   -7.59    5.20
 -20   2  -4   -2.70    3.91
 -20   2  -4    3.79    4.52
  20   2   4   -1.50    3.58
  22  -2   4    9.02    3.92
 -22  -2  -4    2.95    4.84
 -22  -2  -4    8.71    5.70
 -22   2  -4   -3.85    4.09
  22   2   4   -1.14    3.82
 -22   2  -4    4.07    4.73
 -24  -2  -4   30.71    7.05
 -24  -2  -4   31.24    6.31
  24  -2   4   31.43    5.24
  24   2   4   18.81    5.15
 -24   2  -4   23.18    5.88
 -26  -2  -4   29.80    6.61
  26  -2   4   32.77    5.94
 -26  -2  -4   29.06    7.54
  26   2   4   31.81    6.00
 -28  -2  -4  106.74   10.13
  28  -2   4  100.13    8.66
 -28  -2  -4   94.38    9.13
  28   2   4  112.56    9.32
 -30  -2  -4   45.00    8.86
 -30  -2  -4   50.28    8.25
  30  -2   4   49.77    7.58
  30   2   4   60.76    7.86
 -35  -3   4    3.00    6.37
  35  -3  -4   -3.51    4.78
 -35   3   4    3.81    6.19
 -35   3   4    1.83    7.00
 -33  -3   4    8.31    6.07
  33  -3  -4   15.08    5.41
 -33   3   4   10.31    7.13
 -33   3   4    5.84    5.81
  33   3  -4    7.67    5.04
 -31  -3   4   -0.90    5.39
  31  -3  -4    3.41    4.53
  31  -3  -4   -0.50    4.40
 -31   3   4  -10.51    5.00
 -31   3   4   -0.03    6.29
  31   3  -4   -5.28    3.73
 -29  -3   4    2.40    4.99
  29  -3  -4   -1.10    4.02
  29  -3  -4    2.73    4.16
  29   3  -4    6.49    3.78
 -29   3   4   15.13    6.33
 -29   3   4    2.08    5.10
  27  -3  -4    3.61    4.51
  27  -3  -4   10.42    4.40
 -27  -3   4    9.41    5.12
  27  -3  -4   12.40    4.42
 -27   3   4   13.00    5.06
  27   3  -4    4.70    3.71
 -27   3   4   10.94    5.66
  25  -3  -4  348.00   12.21
  25  -3  -4  347.83   12.56
  25  -3  -4  350.53   11.33
 -25  -3   4  336.55   12.97
 -25   3   4  321.72   11.98
 -25   3   4  346.69   13.21
  25   3  -4  338.78   11.08
 -25   3   4  359.87   12.76
  23  -3  -4   -2.79    3.96
 -23  -3   4    3.78    4.33
  23  -3  -4    3.97    3.59
  23  -3  -4    8.47    3.96
 -23   3   4   10.61    5.36
  23   3  -4    5.13    3.17
 -23   3   4    7.55    4.21
 -23   3   4    8.64    4.63
  21  -3  -4   24.95    4.39
  21  -3  -4   21.10    3.97
 -21  -3   4   20.33    4.53
  21  -3  -4   16.65    4.03
 -21  -3   4   25.58    5.22
 -21   3   4   13.36    4.41
 -21   3   4   14.90    4.21
  21   3  -4   19.51    3.41
 -21   3   4   21.00    5.39
 -19  -3   4   68.99    5.58
  19  -3  -4   76.87    5.70
 -19  -3   4   71.51    5.88
  19  -3  -4   69.35    5.56
  19  -3  -4   73.95    5.12
 -19   3   4   80.53    6.04
 -19   3   4   66.78    5.35
 -19   3   4   71.42    6.11
  19   3  -4   78.96    4.83
  19   3  -4   62.70    5.05
  17  -3  -4  101.67    6.19
  17  -3  -4   99.66    5.60
 -17  -3   4  107.37    6.17
  17  -3  -4   98.68    5.77
 -17   3   4   91.75    6.30
 -17   3   4  103.38    6.17
 -17   3   4   99.96    6.85
  17   3  -4  104.37    4.83
 -17   3   4   90.85    6.30
  15  -3  -4  266.66    8.71
 -15  -3   4  283.45    8.46
  15  -3  -4  283.67    8.01
 -15  -3   4  278.39    8.35
  15  -3  -4  272.67    8.52
  15   3  -4  276.61    7.89
  15   3  -4  281.18    7.41
 -15   3   4  257.79    8.97
 -15   3   4  272.66    8.86
 -15   3   4  273.97    8.81
 -15   3   4  274.30    8.62
 -13  -3   4   84.44    4.64
 -13  -3   4   91.54    4.89
  13  -3  -4   97.19    5.00
  13  -3  -4   89.82    5.35
  13  -3  -4   86.63    4.71
 -13   3   4   80.76    5.08
 -13   3   4   83.59    5.41
 -13   3   4   95.07    5.43
 -13   3   4   85.97    5.26
  13   3  -4   93.28    4.43
  11  -3  -4  514.56   12.11
 -11  -3   4  496.06   11.06
  11  -3  -4  508.67   11.95
  11  -3  -4  505.87   11.28
 -11   3   4  500.70   12.02
 -11   3   4  491.40   11.90
  11   3  -4  502.85   11.43
 -11   3   4  501.38   11.62
 -11   3   4  509.44   11.81
   9  -3  -4   33.52    2.98
   9  -3  -4   33.62    3.26
   9  -3  -4   36.08    3.10
  -9  -3   4   35.55    2.76
   9   3  -4   37.30    3.07
  -9   3   4   40.68    3.46
  -9   3   4   36.75    3.19
  -9   3   4   39.19    3.34
  -9   3   4   38.87    3.16
   7  -3  -4   70.65    3.96
   7  -3  -4   71.10    4.44
   7  -3  -4   69.72    4.13
   7   3  -4   70.54    3.83
  -7   3   4   73.04    4.18
  -7   3   4   70.93    4.36
  -7   3   4   69.99    4.13
  -7   3   4   70.53    4.20
   5  -3  -4  116.78    5.01
   5  -3  -4  109.44    4.51
   5  -3  -4  111.65    4.76
  -5   3   4  108.68    4.69
   5   3  -4  109.94    4.53
  -5   3   4  122.58    4.76
  -5   3   4  102.16    4.88
  -5   3   4  111.85    4.80
   3  -3  -4  196.70    5.93
   3  -3  -4  191.02    6.41
   3  -3  -4  197.52    6.22
  -3   3   4  197.70    6.06
   3   3  -4  194.52    6.20
  -3   3   4  194.12    6.18
  -3   3   4  196.75    6.09
  -3   3   4  200.60    6.38
   1  -3  -4 1001.78   19.93
   1  -3  -4  978.83   19.87
   1  -3  -4 1005.18   19.67
   1  -3  -4 1003.74   19.23
   1   3  -4 1002.72   20.20
  -1   3   4  964.18   19.48
  -1   3   4 1020.83   19.51
  -1   3   4  980.09   19.86
  -1  -3  -4  298.18    8.34
  -1  -3  -4  305.89    8.03
  -1  -3  -4  300.58    8.19
   1   3   4  297.52    7.92
   1   3   4  288.51    8.08
   1   3   4  279.52    7.79
  -1   3  -4  296.46    8.44
  -3  -3  -4  179.50    6.29
  -3  -3  -4  191.68    6.89
  -3  -3  -4  185.94    6.47
   3   3   4  190.15    6.36
   3   3   4  182.48    6.16
   3   3   4  182.01    6.22
  -5  -3  -4    2.03    2.48
  -5  -3  -4    1.73    2.54
   5  -3   4    6.75    1.63
  -5  -3  -4    5.48    3.04
   5   3   4    6.25    2.45
   5   3   4    5.23    2.36
   5   3   4    5.90    2.29
  -7  -3  -4   47.63    4.19
  -7  -3  -4   55.58    4.63
   7  -3   4   48.17    3.43
  -7  -3  -4   52.99    4.01
   7   3   4   43.86    3.72
   7   3   4   49.32    3.89
   7   3   4   50.02    3.90
  -9  -3  -4    1.69    2.98
   9  -3   4    1.11    2.01
  -9  -3  -4   -3.31    2.64
  -9  -3  -4    3.71    3.39
   9   3   4   -1.09    2.44
   9   3   4   -2.53    2.54
 -11  -3  -4   14.73    4.34
  11  -3   4   15.56    2.78
 -11  -3  -4   11.48    3.68
 -11  -3  -4   14.95    3.49
  11   3   4   12.04    3.18
  11   3   4   10.48    3.37
 -13  -3  -4    8.12    4.51
 -13  -3  -4    6.59    3.94
  13  -3   4    5.89    2.97
 -13  -3  -4    4.54    3.82
 -13   3  -4    4.41    2.97
  13   3   4    9.92    3.39
 -15  -3  -4    4.22    5.13
 -15  -3  -4    4.00    4.01
 -15  -3  -4   10.44    4.58
  15  -3   4    8.17    3.22
 -15   3  -4    5.82    3.42
  15   3   4    5.54    3.56
 -17  -3  -4  146.83    9.40
  17  -3   4  152.92    7.91
 -17  -3  -4  143.33   10.40
 -17  -3  -4  137.53    8.87
  17   3   4  147.82    8.39
 -17   3  -4  139.41    7.71
  19  -3   4    1.31    3.47
 -19  -3  -4   -4.63    4.43
 -19  -3  -4   -0.21    5.58
 -19   3  -4    1.07    3.79
 -19   3  -4   -0.29    4.10
  19   3   4    2.25    3.84
 -21  -3  -4   -1.94    4.87
 -21  -3  -4    4.44    5.68
  21  -3   4   -1.11    3.54
 -21   3  -4    2.84    4.50
  21   3   4   -1.28    3.68
  23  -3   4   10.74    4.29
 -23  -3  -4   13.62    5.82
 -23  -3  -4    6.52    6.17
  23   3   4   10.36    4.69
 -23   3  -4    2.88    4.96
  25  -3   4   -5.46    3.75
 -25  -3  -4   -3.04    6.22
 -25  -3  -4   -2.56    5.32
  25   3   4   -3.67    4.09
 -25   3  -4    1.65    5.21
 -27  -3  -4  -12.67    6.43
 -27  -3  -4   -8.99    5.50
  27  -3   4    3.25    4.15
  27   3   4    3.80    4.77
 -29  -3  -4   14.74    7.84
  29  -3   4   27.38    6.02
 -29  -3  -4   17.34    6.74
  29   3   4    7.62    5.44
  34  -4  -4  143.24   10.58
  34  -4  -4  110.77   13.07
 -34  -4   4  119.90   10.32
 -34   4   4  121.81   10.26
 -34   4   4  127.81   10.45
  32  -4  -4    4.08    4.72
  32  -4  -4   -0.11    4.65
 -32  -4   4    2.84    5.63
 -32   4   4   -8.01    6.59
 -32   4   4   -5.83    5.35
 -30  -4   4   24.50    6.24
  30  -4  -4   31.19    5.76
  30  -4  -4   21.82    5.56
 -30   4   4   27.66    6.21
 -30   4   4   26.50    6.81
  28  -4  -4    3.71    4.17
  28  -4  -4    1.23    4.29
 -28  -4   4    1.85    4.86
 -28   4   4   -3.16    4.83
 -28   4   4    5.65    5.79
  28   4  -4   -5.26    3.24
 -26  -4   4   61.47    6.69
  26  -4  -4   61.01    5.81
  26  -4  -4   65.05    6.31
  26   4  -4   53.65    5.30
 -26   4   4   56.76    6.56
 -26   4   4   59.98    6.87
 -26   4   4   62.57    6.23
  24  -4  -4   37.87    5.42
  24  -4  -4   38.23    5.25
 -24  -4   4   39.32    5.89
  24  -4  -4   34.29    5.31
 -24   4   4   25.07    5.13
 -24   4   4   44.32    5.81
  24   4  -4   37.98    4.47
 -24   4   4   29.77    6.26
 -22  -4   4   11.62    4.71
  22  -4  -4   -0.59    3.46
  22  -4  -4    7.70    4.08
  22  -4  -4    7.89    4.43
 -22   4   4    3.40    4.27
 -22   4   4   -2.43    4.26
 -22   4   4    8.46    5.25
  22   4  -4    4.64    3.09
  20  -4  -4   69.51    5.44
 -20  -4   4   79.88    6.21
  20  -4  -4   85.80    6.42
  20  -4  -4   70.23    6.09
 -20   4   4   74.91    5.92
 -20   4   4   70.05    6.47
  20   4  -4   70.15    4.89
 -20   4   4   71.09    5.82
 -20   4   4   75.53    6.12
  18  -4  -4   36.12    4.23
  18  -4  -4   36.88    4.20
  18  -4  -4   38.06    4.64
 -18  -4   4   31.95    4.41
 -18   4   4   35.65    4.43
 -18   4   4   32.17    4.49
  18   4  -4   36.84    3.42
 -18   4   4   35.30    4.67
 -18   4   4   33.63    5.09
  16  -4  -4  103.70    5.48
  16  -4  -4   85.57    6.21
 -16  -4   4  100.71    5.92
  16  -4  -4   80.17    5.42
 -16   4   4   98.33    6.24
 -16   4   4   83.60    6.45
 -16   4   4   89.65    6.18
 -16   4   4   95.71    6.19
  16   4  -4   84.76    4.29
  16   4  -4   87.48    5.25
 -16   4   4   83.21    5.97
  14  -4  -4   17.31    3.04
  14  -4  -4   18.07    3.03
  14  -4  -4   15.68    3.27
 -14  -4   4   13.85    2.96
  14   4  -4   17.71    3.10
 -14   4   4   15.06    3.38
 -14   4   4   15.30    3.41
 -14   4   4   12.17    3.15
 -14   4   4   16.17    3.59
 -14   4   4   16.84    3.34
  12  -4  -4  378.08   10.22
  12  -4  -4  370.63    9.34
  12  -4  -4  368.69   10.27
 -12  -4   4  357.89    9.07
 -12   4   4  373.28   10.10
 -12   4   4  363.06   10.06
  12   4  -4  360.51    9.69
 -12   4   4  363.81    9.81
 -12   4   4  371.70   10.09
 -12   4   4  362.38    9.81
  10  -4  -4  249.72    7.23
  10  -4  -4  256.11    7.99
  10  -4  -4  248.33    7.76
 -10   4   4  245.25    7.80
 -10   4   4  244.40    7.68
 -10   4   4  238.08    7.65
 -10   4   4  249.73    7.70
 -10   4   4  257.30    7.70
  10   4  -4  252.49    7.61
   8  -4  -4   -2.08    2.01
   8  -4  -4    0.75    2.42
   8  -4  -4    6.15    2.33
  -8   4   4    0.57    2.26
  -8   4   4   -1.87    2.55
  -8   4   4   -0.31    2.20
   8   4  -4    2.89    2.10
  -8   4   4   -0.77    2.28
  -8   4   4   -0.39    1.84
  -8   4   4    5.74    2.67
   6  -4  -4  730.12   15.78
   6  -4  -4  732.57   15.03
   6  -4  -4  704.92   15.74
   6   4  -4  714.51   15.90
  -6   4   4  771.26   15.98
  -6   4   4  719.96   15.30
  -6   4   4  717.22   15.36
  -6   4   4  732.48   15.13
  -6   4   4  760.52   16.09
  -6   4   4  728.26   15.42
   4  -4  -4   65.87    4.72
   4  -4  -4   59.54    4.33
   4  -4  -4   71.92    4.28
  -4   4   4   65.01    4.10
  -4   4   4   62.08    4.22
  -4   4   4   74.42    4.29
  -4   4   4   75.32    5.81
   4   4  -4   73.72    4.30
  -4   4   4   74.36    4.53
   2  -4  -4   36.88    3.16
   2  -4  -4   30.68    3.38
   2  -4  -4   33.32    3.22
  -2   4   4   33.74    3.11
  -2   4   4   32.53    3.03
  -2   4   4   30.63    2.99
  -2   4   4   29.25    3.05
   2   4  -4   35.94    3.49
   0  -4  -4   64.41    4.74
   0  -4  -4   61.08    4.35
   0  -4  -4   69.00    4.36
   0   4  -4   67.62    4.59
   0   4   4   72.63    4.36
   0   4   4   61.12    4.09
   0   4   4   62.44    4.22
  -2  -4  -4   11.28    2.60
  -2  -4  -4    9.71    3.08
  -2  -4  -4   15.59    2.86
   2   4   4   14.02    2.56
   2   4   4    5.68    2.46
  -2   4  -4   15.53    3.05
   2   4   4   13.54    2.66
  -4  -4  -4 1198.92   24.10
  -4  -4  -4 1176.96   23.34
  -4  -4  -4 1177.05   24.03
   4   4   4 1165.84   23.80
   4   4   4 1165.21   23.36
   4   4   4 1179.57   23.39
  -6  -4  -4  186.62    7.32
  -6  -4  -4  181.38    6.91
  -6  -4  -4  183.59    7.67
   6   4   4  183.20    7.05
   6   4   4  176.83    6.76
   6   4   4  187.88    6.95
   8  -4   4    1.54    1.89
  -8  -4  -4    7.92    3.63
  -8  -4  -4    1.78    2.79
  -8  -4  -4    3.88    3.24
   8   4   4    1.79    2.50
   8   4   4    2.14    2.59
   8   4   4    3.19    2.81
  10  -4   4   45.78    3.64
 -10  -4  -4   48.68    4.55
 -10  -4  -4   51.36    5.06
 -10  -4  -4   47.03    5.27
  10   4   4   41.69    4.23
  10   4   4   43.41    4.44
  10   4   4   40.99    4.30
 -12  -4  -4   44.39    5.77
 -12  -4  -4   42.89    4.69
  12  -4   4   43.32    4.07
 -12  -4  -4   42.40    5.19
  12   4   4   38.74    4.79
  12   4   4   46.69    4.68
  12   4   4   39.06    4.54
  14  -4   4  109.14    6.38
 -14  -4  -4  103.03    7.46
 -14  -4  -4  115.66    8.34
 -14  -4  -4  117.74    9.04
  14   4   4  109.06    6.96
  14   4   4  119.53    7.44
  16  -4   4    3.88    3.35
 -16  -4  -4    0.10    4.61
 -16  -4  -4   -3.97    5.44
  16   4   4    0.24    3.93
 -18  -4  -4   34.70    6.10
  18  -4   4   35.52    4.91
 -18  -4  -4   42.35    6.77
  18   4   4   36.20    5.50
 -18   4  -4   30.85    5.42
 -20  -4  -4   34.67    6.80
  20  -4   4   27.06    4.61
 -20  -4  -4   30.07    5.89
  20   4   4   35.90    5.39
 -20   4  -4   36.42    5.66
  22  -4   4   45.97    5.69
 -22  -4  -4   39.14    7.32
 -22  -4  -4   48.73    6.96
 -22   4  -4   38.55    6.00
  22   4   4   39.52    5.83
 -24  -4  -4   -0.28    6.43
 -24  -4  -4    0.40    5.44
  24  -4   4    0.36    4.01
  24   4   4    4.41    4.37
 -24   4  -4    4.60    5.13
  26  -4   4   59.13    6.97
 -26  -4  -4   73.01    8.45
 -26  -4  -4   57.82    8.84
  26   4   4   80.26    7.73
 -26   4  -4   62.49    7.49
 -28  -4  -4   -1.01    5.99
  28  -4   4    4.07    4.92
  28   4   4    6.62    4.79
 -33  -5   4    3.17    6.17
  33  -5  -4   11.51    5.39
 -31  -5   4   19.67    6.13
  31  -5  -4   17.83    5.38
 -31   5   4   22.57    6.39
 -31   5   4   19.57    6.89
  29  -5  -4   -0.17    4.24
 -29  -5   4   -2.85    4.99
 -29   5   4   -0.21    4.96
 -29   5   4   -2.27    5.61
 -27  -5   4   16.35    5.49
  27  -5  -4   18.02    4.87
  27  -5  -4   12.81    4.68
 -27   5   4   24.59    8.59
 -27   5   4   12.29    5.73
 -27   5   4   14.92    5.23
 -25  -5   4  133.75    9.01
  25  -5  -4  107.01    7.05
  25  -5  -4  127.01    8.35
  25   5  -4  107.17    9.48
 -25   5   4  122.61    8.72
 -25   5   4  117.77    9.40
 -25   5   4  117.51    8.65
  23  -5  -4  345.14   11.95
 -23  -5   4  335.67   12.44
  23  -5  -4  341.50   11.38
  23   5  -4  326.84   10.26
 -23   5   4  350.16   12.19
 -23   5   4  342.83   12.38
 -23   5   4  331.90   12.50
  21  -5  -4   -1.12    3.63
 -21  -5   4   -9.75    4.05
  21  -5  -4   -0.08    4.20
  21  -5  -4    0.24    3.97
 -21   5   4    1.56    4.90
  21   5  -4   -0.24    2.67
 -21   5   4    1.20    4.16
 -21   5   4    3.74    4.31
 -21   5   4    4.20    4.41
  19  -5  -4  379.93   11.05
  19  -5  -4  386.34   11.94
  19  -5  -4  371.65   12.05
 -19  -5   4  377.05   11.95
 -19   5   4  376.31   11.94
 -19   5   4  379.12   12.16
  19   5  -4  388.26    9.96
 -19   5   4  375.23   11.72
  19   5  -4  389.28   11.73
 -19   5   4  369.55   11.95
  17  -5  -4    3.02    3.31
  17  -5  -4    4.40    3.17
  17  -5  -4    0.67    3.61
 -17  -5   4    7.05    3.48
 -17   5   4   -3.72    3.51
  17   5  -4    1.10    3.01
 -17   5   4    1.41    4.17
 -17   5   4    1.20    3.51
 -17   5   4   -1.69    3.47
 -17   5   4    0.05    3.49
 -15  -5   4   10.25    3.15
  15  -5  -4    6.34    3.18
  15  -5  -4    7.85    3.43
  15  -5  -4    3.35    2.90
 -15   5   4    1.64    3.63
 -15   5   4    6.79    3.60
 -15   5   4   -0.39    3.03
 -15   5   4   -1.50    3.15
  15   5  -4    4.70    2.99
 -15   5   4    9.72    3.50
  13  -5  -4  375.91   10.80
 -13  -5   4  380.72    9.71
  13  -5  -4  372.80   10.68
  13  -5  -4  378.79    9.95
 -13   5   4  374.76   10.55
 -13   5   4  369.40   10.36
 -13   5   4  378.73   10.47
 -13   5   4  359.93   10.47
  13   5  -4  369.88   10.54
 -13   5   4  374.10   10.57
  11  -5  -4   20.34    3.14
  11  -5  -4   12.57    3.17
  11  -5  -4   10.15    2.98
 -11  -5   4   10.72    2.32
 -11   5   4   11.04    3.21
 -11   5   4   10.19    2.93
 -11   5   4   16.36    3.28
  11   5  -4   10.65    2.72
 -11   5   4   10.56    3.01
 -11   5   4   10.93    2.51
 -11   5   4   12.23    2.95
   9  -5  -4    2.37    2.50
   9  -5  -4    1.88    2.39
   9  -5  -4    0.54    2.66
  -9   5   4    0.61    2.04
  -9   5   4    2.55    2.70
   9   5  -4    0.51    2.20
  -9   5   4   -1.17    2.38
  -9   5   4    2.53    2.60
  -9   5   4   -0.75    2.58
  -9   5   4    1.17    2.76
   7  -5  -4  209.03    7.36
   7  -5  -4  208.71    7.41
   7  -5  -4  212.85    6.89
  -7   5   4  209.73    6.93
  -7   5   4  213.94    6.93
   7   5  -4  220.03    7.54
  -7   5   4  217.16    7.21
  -7   5   4  220.40    7.22
  -7   5   4  216.25    7.18
  -7   5   4  220.85    7.38
   5  -5  -4  235.93    7.84
   5  -5  -4  243.03    7.22
   5  -5  -4  238.29    7.76
  -5   5   4  217.46    7.30
  -5   5   4  241.24    7.53
  -5   5   4  238.11    7.20
  -5   5   4  230.12    7.43
   5   5  -4  218.41    7.76
  -5   5   4  228.91    7.60
  -5   5   4  235.47    7.38
   3  -5  -4  207.41    7.34
   3  -5  -4  208.01    6.87
   3  -5  -4  214.91    7.50
  -3   5   4  200.15    6.94
  -3   5   4  211.35    7.04
   3   5  -4  208.62    7.45
  -3   5   4  210.31    6.74
  -3   5   4  195.51    7.03
  -3   5   4  207.65    7.05
   1  -5  -4    1.84    2.50
   1  -5  -4    2.86    3.03
  -1   5   4    3.72    2.69
   1   5  -4    6.65    2.58
  -1   5   4    0.63    2.51
  -1   5   4    2.86    2.38
  -1   5   4   -0.45    2.44
  -1   5   4    1.03    2.17
  -1  -5  -4   92.41    5.76
  -1  -5  -4   85.91    5.16
   1   5   4   84.88    4.81
  -1   5  -4   76.35    5.21
   1   5   4   90.03    5.11
   1   5   4   92.00    4.92
   1   5   4   94.61    5.05
   1   5   4   85.84    5.02
  -3  -5  -4  610.90   14.81
  -3  -5  -4  620.96   14.77
  -3   5  -4  625.57   15.51
   3   5   4  630.41   14.29
   3   5   4  605.92   14.30
   3   5   4  600.91   13.87
   3   5   4  624.21   14.51
  -5  -5  -4    1.06    2.98
  -5  -5  -4    5.20    3.60
   5   5   4    1.49    2.46
   5   5   4    4.88    2.86
   5   5   4    8.44    2.95
   5   5   4    6.18    2.70
  -7  -5  -4    8.81    3.37
  -7  -5  -4    5.99    3.89
   7   5   4    8.81    2.86
   7   5   4   17.11    3.67
   7   5   4   10.74    3.35
   7   5   4   10.54    2.95
  -9  -5  -4  115.41    7.12
   9  -5   4  114.17    5.12
  -9  -5  -4  116.68    7.86
   9   5   4  116.97    6.37
   9   5   4  116.38    7.01
   9   5   4  124.80    6.61
  11  -5   4   67.43    4.94
 -11  -5  -4   72.96    6.64
 -11  -5  -4   67.29    6.04
 -11  -5  -4   62.54    5.16
  11   5   4   70.46    5.52
  11   5   4   57.04    5.40
  11   5   4   67.03    5.21
 -13  -5  -4    0.64    4.12
  13  -5   4   -0.30    2.78
 -13  -5  -4   -7.74    4.76
  13   5   4    0.70    4.00
  13   5   4   -1.73    3.35
  13   5   4    0.50    3.31
 -15  -5  -4   42.85    6.05
 -15  -5  -4   44.83    6.73
  15  -5   4   43.43    4.63
  15   5   4   46.64    5.23
  15   5   4   41.31    5.15
 -17  -5  -4  495.84   15.91
  17  -5   4  510.64   14.25
 -17  -5  -4  491.72   16.30
  17   5   4  514.42   15.03
  17   5   4  481.58   14.43
  19  -5   4  109.88    7.41
 -19  -5  -4  131.21    9.63
 -19  -5  -4  114.97    9.27
  19   5   4  111.51    7.95
  19   5   4  123.24    8.28
 -21  -5  -4    7.56    6.50
  21  -5   4    4.52    3.81
 -21  -5  -4    8.34    5.48
  21   5   4   -0.23    4.26
 -21   5  -4   13.87    4.87
  21   5   4    1.56    3.89
 -23  -5  -4    6.87    5.74
  23  -5   4    3.38    4.14
  23   5   4    0.60    4.24
  23   5   4    2.38    4.24
  25  -5   4    5.12    4.24
 -25  -5  -4    0.99    5.97
  25   5   4   -1.91    4.26
  25   5   4   -1.88    4.17
  27  -5   4   -5.84    4.20
 -27  -5  -4   -7.46    5.91
  27   5   4   -2.66    4.58
  27   5   4    0.57    4.77
 -27   5  -4    1.90    5.70
 -32  -6   4    1.48    5.45
  32  -6  -4    1.25    4.81
 -30  -6   4   11.18    5.77
  30  -6  -4    5.75    4.94
 -28  -6   4    5.57    5.43
  28  -6  -4    0.24    4.37
 -28   6   4    9.55    8.61
 -26  -6   4    8.94    5.08
  26  -6  -4   13.16    4.47
 -26   6   4   13.12    5.33
 -26   6   4    6.72    4.74
 -24  -6   4  122.57    9.02
  24  -6  -4  138.96    8.43
 -24   6   4  125.86    8.58
 -24   6   4  129.19    9.28
  24   6  -4  131.45    8.24
  22  -6  -4    6.40    4.16
 -22  -6   4    7.20    4.67
  22  -6  -4    2.84    4.45
 -22   6   4    8.50    4.67
  22   6  -4   16.28    4.33
 -22   6   4    3.42    4.77
 -20  -6   4   66.10    6.19
  20  -6  -4   65.22    5.64
  20  -6  -4   82.99    6.52
 -20   6   4   60.97    5.96
  20   6  -4   65.69    6.28
 -20   6   4   65.51    6.40
  18  -6  -4   73.61    5.97
  18  -6  -4   59.78    6.16
 -18  -6   4   84.52    6.15
  18  -6  -4   77.87    5.57
 -18   6   4   66.79    5.92
 -18   6   4   76.15    6.12
  18   6  -4   74.97    6.26
 -16  -6   4   18.38    4.15
  16  -6  -4   15.25    4.26
  16  -6  -4   18.83    3.85
  16  -6  -4   17.71    4.07
  16   6  -4   23.32    4.24
 -16   6   4   15.97    3.99
 -16   6   4   18.30    4.26
 -16   6   4   16.06    4.30
  14  -6  -4   26.43    3.89
  14  -6  -4   17.31    4.10
  14  -6  -4   20.62    3.64
 -14  -6   4   29.59    3.72
 -14   6   4   30.61    3.88
 -14   6   4   19.42    3.95
 -14   6   4   27.90    4.31
  14   6  -4   29.66    4.31
 -14   6   4   23.06    3.81
  12  -6  -4  109.94    6.52
  12  -6  -4  111.19    6.28
 -12  -6   4  100.14    5.23
  12  -6  -4  119.08    6.15
 -12   6   4  106.42    5.76
 -12   6   4  105.25    6.51
 -12   6   4  106.38    6.26
 -12   6   4  111.33    6.31
  12   6  -4  107.52    6.32
  10  -6  -4  221.80    7.59
  10  -6  -4  231.09    8.30
  10  -6  -4  223.26    8.35
  10   6  -4  222.68    8.30
 -10   6   4  225.02    7.67
 -10   6   4  225.53    8.21
 -10   6   4  222.50    7.62
 -10   6   4  226.20    7.90
   8  -6  -4    4.80    2.87
   8  -6  -4    2.95    3.04
   8  -6  -4    1.16    2.56
  -8   6   4    3.88    2.68
  -8   6   4    0.80    2.73
  -8   6   4    2.96    2.64
  -8   6   4    4.45    2.99
   8   6  -4    7.55    2.84
   6  -6  -4  176.10    7.10
   6  -6  -4  159.64    6.89
   6  -6  -4  169.45    6.45
  -6   6   4  172.72    6.88
  -6   6   4  173.37    6.83
  -6   6   4  155.60    6.37
   6   6  -4  169.07    7.25
  -6   6   4  160.89    6.34
   4  -6  -4   84.51    5.54
   4  -6  -4   81.04    5.17
   4  -6  -4   93.09    5.82
  -4   6   4   79.89    5.44
  -4   6   4   80.10    4.78
  -4   6   4   83.54    4.98
   4   6  -4   76.54    5.42
  -4   6   4   87.99    5.39
   2  -6  -4    0.91    2.92
   2  -6  -4   -0.78    2.58
  -2   6   4   -0.89    2.45
  -2   6   4    4.13    2.20
   2   6  -4    2.65    2.59
  -2   6   4    2.62    2.76
   0  -6  -4   -3.32    2.65
   0  -6  -4    2.75    3.06
   0   6  -4    0.37    2.59
   0   6   4    0.84    2.42
   0   6   4    2.78    2.70
   0   6   4   -1.96    1.93
  -2  -6  -4  107.13    6.62
  -2  -6  -4  104.40    6.01
   2   6   4  109.67    5.51
   2   6   4  109.39    5.90
   2   6   4   97.56    5.83
   2   6   4   99.33    5.69
   2   6   4   96.73    5.40
  -2   6  -4  107.47    6.39
  -4  -6  -4   29.67    4.51
  -4  -6  -4   30.29    4.10
  -4   6  -4   25.32    4.15
   4   6   4   30.30    3.67
   4   6   4   28.65    3.50
   4   6   4   32.24    3.82
   4   6   4   26.17    3.87
  -6  -6  -4   10.53    4.25
  -6  -6  -4   19.58    4.08
  -6   6  -4   14.46    4.00
   6   6   4    9.24    3.37
   6   6   4    8.93    3.09
   6   6   4   11.39    3.39
   6   6   4   13.97    3.43
   8  -6   4    0.79    2.06
  -8  -6  -4    2.13    4.20
  -8  -6  -4    9.88    3.79
   8   6   4    1.16    3.38
   8   6   4   -4.27    2.88
   8   6   4    3.46    3.42
   8   6   4    0.62    2.85
 -10  -6  -4   73.51    6.70
 -10  -6  -4   63.95    5.91
  10  -6   4   65.40    4.66
  10   6   4   65.41    5.44
  10   6   4   60.96    5.10
  10   6   4   71.14    5.51
  10   6   4   80.46    6.04
 -12  -6  -4  160.98    9.17
  12  -6   4  148.92    6.70
 -12  -6  -4  155.74    9.91
  12   6   4  157.83    8.70
  12   6   4  162.95    7.84
  12   6   4  157.16    8.07
  12   6   4  140.04   11.04
  14  -6   4  166.50    7.47
 -14  -6  -4  169.85    9.84
 -14  -6  -4  155.11   10.37
  14   6   4  156.07    9.09
  14   6   4  158.43    8.71
  14   6   4  152.51    8.11
 -16  -6  -4  146.30   11.68
 -16  -6  -4  151.45    9.48
  16  -6   4  141.57    7.55
  16   6   4  122.70    8.90
  16   6   4  141.81    8.30
  16   6   4  133.94    7.95
 -18  -6  -4   29.54    6.08
  18  -6   4   27.74    4.63
  18   6   4   27.74    4.84
  18   6   4   38.70    5.38
  20  -6   4   21.49    4.57
 -20  -6  -4    7.40    5.73
  20   6   4   13.87    4.60
  20   6   4   20.00    4.89
 -22  -6  -4   69.31    8.19
  22  -6   4   66.58    6.51
  22   6   4   63.88    6.57
  22   6   4   66.46    6.98
 -24  -6  -4   12.28    6.32
  24  -6   4    1.99    4.40
  24   6   4    6.18    4.56
  24   6   4    9.50    4.65
  26  -6   4   26.13    5.65
 -26  -6  -4   12.93    7.00
 -26   6  -4   18.70    6.31
  26   6   4   20.10    5.66
  26   6   4   16.48    5.42
  33   7  -4   -4.63    4.73
 -31  -7   4    0.41    5.74
  31  -7  -4   -3.10    4.92
  31   7  -4   -5.33    4.48
  29  -7  -4   -2.84    4.40
 -29  -7   4   18.36    5.81
  29   7  -4    2.44    4.41
  27  -7  -4   -5.47    4.09
 -27  -7   4    0.54    4.89
 -27   7   4   -8.86    4.89
  27   7  -4    1.26    4.22
  25  -7  -4    2.64    3.95
 -25  -7   4    5.89    4.99
 -25   7   4    5.45    5.26
  25   7  -4    3.71    4.28
  23  -7  -4   19.09    4.65
 -23  -7   4   26.55    5.51
 -23   7   4   28.94    5.69
  23   7  -4   32.67    5.61
 -23   7   4   20.73    4.84
 -21  -7   4    2.57    4.28
  21  -7  -4    0.47    3.69
  21   7  -4    4.82    3.64
 -21   7   4   -3.35    4.56
 -21   7   4   -7.42    3.76
 -19  -7   4   -1.26    4.07
  19  -7  -4   -1.04    3.64
 -19   7   4    0.89    4.32
  19   7  -4    1.43    3.46
 -19   7   4    0.03    3.96
 -17  -7   4    2.01    3.91
  17  -7  -4   15.16    4.08
  17  -7  -4    8.28    4.15
  17   7  -4   11.44    4.14
 -17   7   4    7.62    3.88
 -17   7   4    2.37    3.91
 -17   7   4    6.92    4.40
  15  -7  -4   23.55    4.20
 -15  -7   4   12.95    3.95
  15   7  -4   11.69    3.81
 -15   7   4   18.62    4.55
 -15   7   4   28.52    4.35
 -15   7   4   27.23    4.25
 -13  -7   4    2.95    3.07
  13  -7  -4    4.91    3.35
  13  -7  -4    4.94    3.77
  13   7  -4    3.75    3.34
 -13   7   4    4.81    3.41
 -13   7   4    1.56    3.71
 -13   7   4   -1.03    3.20
  11  -7  -4  150.11    7.37
  11  -7  -4  145.62    7.93
  11   7  -4  128.84    7.50
 -11   7   4  137.21    7.42
 -11   7   4  144.78    7.12
 -11   7   4  144.62    6.89
   9  -7  -4   17.94    3.63
   9  -7  -4   13.47    3.55
  -9   7   4   13.01    3.81
  -9   7   4   12.46    3.31
   9   7  -4    6.96    3.41
  -9   7   4   16.46    3.56
   7  -7  -4    2.27    2.94
  -7   7   4   -1.41    3.06
  -7   7   4   -0.13    3.00
  -7   7   4    0.72    2.78
   7   7  -4    2.45    3.06
   5  -7  -4   67.15    4.67
   5  -7  -4   64.03    5.12
  -5   7   4   65.69    4.99
  -5   7   4   75.37    5.21
  -5   7   4   62.55    4.87
  -5   7   4   74.26    5.70
   5   7  -4   69.29    5.92
   3  -7  -4  348.21   12.44
   3  -7  -4  359.44   10.91
  -3   7   4  365.41   10.50
  -3   7   4  355.51   10.52
   3   7  -4  347.48   11.40
  -3   7   4  349.03   11.10
  -3   7   4  352.59   10.12
   1  -7  -4  330.39   10.60
   1  -7  -4  337.55   10.91
  -1   7   4  344.83   10.30
  -1   7   4  342.88   11.13
   1   7  -4  346.09   11.24
  -1   7   4  333.88   10.07
  -1   7   4  340.15   10.40
  -1  -7  -4  351.19   11.33
  -1  -7  -4  365.40   11.17
   1   7   4  348.18   10.79
  -1   7  -4  370.74   11.84
   1   7   4  373.88   10.54
  -3  -7  -4  131.93    7.26
  -3  -7  -4  125.52    7.82
   3   7   4  136.63    6.58
   3   7   4  137.32    6.54
  -3   7  -4  141.81    7.85
   3   7   4  134.20    7.34
  -5  -7  -4   12.96    4.68
  -5  -7  -4   18.59    4.22
   5   7   4   15.66    3.40
   5   7   4   20.45    4.10
   5   7   4   16.14    3.46
  -5   7  -4   14.44    4.22
  -7  -7  -4   76.74    6.71
  -7  -7  -4   72.86    6.25
   7   7   4   82.11    6.12
  -7   7  -4   76.81    6.73
   7   7   4   89.64    6.02
   7   7   4   74.78    5.83
  -9  -7  -4   66.41    6.72
  -9  -7  -4   74.15    6.35
   9   7   4   58.03    5.12
   9   7   4   66.22    5.94
   9   7   4   75.48    5.72
 -11  -7  -4   52.65    6.10
  11  -7   4   56.44    4.48
  11   7   4   58.88    5.75
  11   7   4   49.57    5.71
  11   7   4   60.82    5.31
  11   7   4   55.17    5.32
  13  -7   4   19.58    3.59
 -13  -7  -4   26.96    5.41
  13   7   4   16.03    4.74
  13   7   4   17.85    4.04
  13   7   4   25.61    4.48
 -15  -7  -4    6.79    4.72
  15  -7   4    2.81    3.20
  15   7   4    1.77    3.47
  15   7   4    6.03    4.38
  15   7   4   -0.21    3.18
  17  -7   4   12.61    3.75
 -17  -7  -4    9.82    5.26
  17   7   4   10.68    4.26
  17   7   4    9.32    3.95
 -19  -7  -4   28.92    6.45
  19  -7   4   28.40    4.76
  19   7   4   33.00    5.31
  19   7   4   22.79    4.77
 -21  -7  -4   34.99    7.23
  21  -7   4   43.44    5.69
  21   7   4   38.15    5.59
  21   7   4   53.53    6.44
 -23  -7  -4    5.90    6.20
  23  -7   4   12.08    4.69
  23   7   4   17.33    5.00
  23   7   4   11.83    4.54
  25  -7   4    5.30    4.80
 -25  -7  -4   -1.42    6.33
  25   7   4    4.19    4.61
  30  -8  -4    9.12    5.59
 -30  -8   4   16.11    5.96
  30   8  -4    9.86    5.15
  28  -8  -4    5.57    4.89
 -28  -8   4    6.29    5.53
  28   8  -4    4.33    4.88
  26  -8  -4    1.13    4.34
 -26  -8   4   -1.17    4.96
 -26   8   4   -0.62    5.17
  26   8  -4   -6.24    4.02
 -24  -8   4   58.06    6.64
  24  -8  -4   51.34    6.28
  24   8  -4   70.15    7.36
 -24   8   4   40.99    6.59
 -22  -8   4   26.12    5.36
  22  -8  -4   38.23    5.47
 -22   8   4   29.83    5.74
  22   8  -4   49.66    6.47
 -20  -8   4    2.77    4.21
  20  -8  -4   -0.87    3.47
 -20   8   4   -2.82    4.42
  20   8  -4   -0.57    3.78
 -18  -8   4    3.57    4.05
  18  -8  -4   -0.50    3.74
 -18   8   4   -5.51    4.13
 -18   8   4    0.24    4.07
  18   8  -4    6.79    3.96
 -18   8   4    4.07    3.91
  16  -8  -4  133.96    8.37
 -16  -8   4  142.65    7.82
  16   8  -4  145.82    8.64
 -16   8   4  142.99    8.07
 -16   8   4  147.21    7.77
 -16   8   4  149.41    8.67
  14  -8  -4  172.99    8.84
 -14  -8   4  172.85    7.86
  14   8  -4  180.81    9.21
 -14   8   4  186.16    8.94
 -14   8   4  191.75    8.16
 -14   8   4  194.21    8.64
 -12  -8   4    4.91    3.24
  12  -8  -4    5.84    3.79
 -12   8   4    6.06    3.41
  12   8  -4    2.61    3.87
 -12   8   4    8.25    3.87
  10  -8  -4   12.20    3.93
 -10   8   4    8.21    3.95
 -10   8   4   13.94    4.24
 -10   8   4    4.31    3.33
  10   8  -4   12.77    4.05
   8  -8  -4    7.80    3.61
   8  -8  -4    7.71    3.63
  -8   8   4   13.44    3.44
   8   8  -4   15.95    4.01
  -8   8   4   12.83    3.84
   6  -8  -4  242.99    9.29
   6  -8  -4  226.54    8.58
   6   8  -4  211.70    9.65
  -6   8   4  224.85    8.99
  -6   8   4  233.03    9.37
  -6   8   4  236.24    8.13
   4  -8  -4   -1.40    3.49
   4  -8  -4   -1.59    3.52
  -4   8   4   -4.63    3.29
  -4   8   4    7.08    3.75
  -4   8   4    1.59    2.90
  -4   8   4    1.95    3.27
   4   8  -4    4.21    3.45
   2  -8  -4  104.76    6.92
   2   8  -4   99.88    7.18
  -2   8   4  113.99    5.85
  -2   8   4  113.44    6.66
  -2   8   4   98.80    6.94
  -2   8   4  100.17    7.38
   0  -8  -4   18.56    4.24
   0   8   4   18.87    4.07
   0   8   4    9.10    3.44
   0   8   4    9.80    2.97
   0   8   4   16.98    4.35
   0   8  -4   11.55    3.79
  -2  -8  -4  163.46    8.17
   2   8   4  165.34    7.84
   2   8   4  163.88    7.19
  -2   8  -4  163.67    8.76
  -4  -8  -4  155.71    8.12
   4   8   4  149.03    7.41
  -4   8  -4  127.23    8.49
   4   8   4  167.58    8.44
  -6  -8  -4    3.79    4.04
  -6   8  -4    8.82    4.31
   6   8   4    4.72    3.19
   6   8   4    6.59    4.27
  -8  -8  -4  167.14    9.26
  -8   8  -4  180.29    9.95
   8   8   4  183.90    8.20
   8   8   4  178.91    9.20
  10  -8   4  117.26    5.78
 -10  -8  -4  109.36    8.44
  10   8   4  112.01    6.90
  10   8   4  110.26    8.26
  10   8   4  123.77    7.06
  12  -8   4   39.43    4.17
 -12  -8  -4   38.81    5.85
  12   8   4   44.65    4.77
  12   8   4   39.41    4.94
  14  -8   4   66.76    5.27
 -14  -8  -4   58.06    6.61
  14   8   4   57.00    5.56
  14   8   4   57.76    6.43
 -16  -8  -4   17.79    5.47
  16  -8   4   19.57    4.25
  16   8   4   11.54    4.07
  16   8   4   22.00    4.70
  16   8   4   15.35    5.30
  18  -8   4    9.45    3.96
 -18  -8  -4    2.76    5.40
  18   8   4    3.00    4.07
  18   8   4    7.07    3.96
  20  -8   4    6.98    4.08
 -20  -8  -4    6.24    5.51
  20   8   4    7.98    4.13
  22  -8   4   -0.80    4.21
 -22  -8  -4   -0.18    5.77
  22   8   4    3.81    4.02
  24  -8   4    0.87    4.60
 -24  -8  -4   19.26    7.09
  24   8   4    8.60    4.60
 -29  -9   4    6.92    6.16
  29  -9  -4   -7.00    4.42
  29   9  -4    0.26    4.90
  27  -9  -4    2.95    4.80
 -27  -9   4    3.95    5.36
 -27   9   4   -0.95    5.82
  27   9  -4   -5.65    3.82
 -25  -9   4    3.69    5.19
  25  -9  -4    2.23    4.67
 -25   9   4   -2.60    5.47
  25   9  -4    3.12    4.61
 -23  -9   4   -1.07    4.62
  23  -9  -4   -2.00    3.97
  23   9  -4    1.86    4.49
 -23   9   4   -4.68    5.08
  21  -9  -4   -0.38    3.88
 -21  -9   4    0.10    4.37
 -21   9   4   -6.79    4.79
  21   9  -4   -0.23    3.74
 -19  -9   4   54.54    6.02
  19  -9  -4   50.41    5.88
 -19   9   4   44.47    5.99
  19   9  -4   57.94    6.46
 -19   9   4   50.75    6.27
 -17  -9   4  111.31    7.61
  17  -9  -4  118.39    8.12
  17   9  -4  104.40    8.06
 -17   9   4   94.41    7.61
 -17   9   4  103.95    7.57
 -15  -9   4   14.48    4.03
  15  -9  -4    0.83    3.75
 -15   9   4   11.61    4.54
 -15   9   4   13.35    4.72
  15   9  -4   13.79    4.51
  13  -9  -4    4.15    3.94
 -13  -9   4    3.12    3.50
 -13   9   4    6.29    3.88
  13   9  -4    4.12    3.88
  11  -9  -4   97.83    7.56
 -11   9   4  112.65    9.13
 -11   9   4  105.77    8.01
 -11   9   4  116.24    7.76
  11   9  -4  109.19    8.05
   9  -9  -4  139.72    8.36
   9   9  -4  155.03    8.90
  -9   9   4  147.93    8.38
  -9   9   4  137.76    6.95
   7  -9  -4  167.28    8.58
  -7   9   4  151.04    7.08
  -7   9   4  154.46    8.63
   7   9  -4  162.32    9.04
   5  -9  -4  178.94    8.83
   5   9  -4  162.17    9.04
  -5   9   4  173.82    7.30
  -5   9   4  159.11    8.87
   3  -9  -4    2.86    4.10
   3   9  -4    4.08    3.89
  -3   9   4    9.02    3.42
  -3   9   4    3.71    4.15
   1  -9  -4   63.87    5.92
   1   9  -4   67.31    6.74
  -1   9   4   62.97    6.63
  -1   9   4   64.76    5.02
  -1  -9  -4   39.20    5.29
   1   9   4   42.59    6.08
   1   9   4   54.14    4.79
  -1   9  -4   41.97    5.70
  -3  -9  -4   94.11    7.50
  -3   9  -4  101.94    8.19
   3   9   4   94.74    7.82
   3   9   4  100.37    6.86
   3   9   4   95.92    6.13
  -5  -9  -4    1.16    3.99
   5   9   4    0.49    4.31
  -5   9  -4   -1.05    3.97
   5   9   4    0.13    2.63
  -7  -9  -4   45.99    5.69
  -7   9  -4   41.04    6.14
   7   9   4   37.43    4.40
   7   9   4   40.44    5.46
  -9  -9  -4    3.81    4.25
  -9   9  -4    4.76    4.28
   9   9   4    0.17    4.48
   9   9   4    4.10    3.23
  11  -9   4   11.52    3.16
 -11  -9  -4    4.20    4.52
  11   9   4   10.81    4.77
  11   9   4   12.05    4.81
  13  -9   4    0.54    2.88
 -13  -9  -4    3.33    4.33
  13   9   4   -6.59    4.56
 -15  -9  -4   36.02    6.12
  15  -9   4   56.04    5.37
  15   9   4   38.14    6.41
 -17  -9  -4    0.82    5.21
  17  -9   4    6.31    3.79
 -19  -9  -4   22.17    6.53
  19  -9   4   24.80    4.95
 -21  -9  -4    7.63    6.35
  21  -9   4    7.62    4.56
 -26 -10   4    1.56    5.19
  26 -10  -4   -3.18    4.66
 -26  10   4   -1.85    5.69
  26  10  -4   -3.10    4.51
 -24 -10   4   19.49    5.60
  24 -10  -4   14.67    5.10
  24  10  -4   16.51    5.28
 -24  10   4    7.65    6.00
 -22 -10   4   59.70    6.77
  22 -10  -4   82.21    7.63
 -22  10   4   69.50    7.46
  22  10  -4   59.66    7.43
 -20 -10   4   26.08    5.34
  20 -10  -4   34.92    5.79
 -20  10   4   42.70    6.30
 -20  10   4   42.84    6.45
  20  10  -4   41.24    6.59
  18 -10  -4   11.72    4.60
 -18 -10   4   12.76    4.38
  18  10  -4    1.34    4.20
 -18  10   4   11.02    5.11
 -18  10   4    9.27    4.95
  16 -10  -4   39.87    5.66
 -16 -10   4   43.71    5.20
  16  10  -4   43.69    6.37
 -16  10   4   48.94    6.28
 -14 -10   4    1.03    3.54
  14 -10  -4    7.38    4.13
 -14  10   4    3.84    4.32
  14  10  -4   -4.39    3.81
 -12 -10   4    7.92    3.41
  12 -10  -4    0.89    3.81
 -12  10   4    5.13    4.33
 -12  10   4    0.59    4.64
  12  10  -4    9.33    4.51
  10 -10  -4    7.81    3.94
 -10  10   4   -0.29    4.09
  10  10  -4    2.01    3.88
   8 -10  -4    6.89    3.98
  -8  10   4   10.06    4.31
   8  10  -4    4.62    4.22
   6 -10  -4   16.19    4.49
  -6  10   4   12.25    4.59
   6  10  -4   16.75    4.48
   4 -10  -4   22.47    4.56
  -4  10   4   20.10    4.83
   4  10  -4   20.41    5.06
   2 -10  -4  244.26   10.46
   2  10  -4  249.34   11.20
  -2  10   4  259.20   11.19
   0 -10  -4   16.41    4.52
   0  10  -4   22.69    4.86
   0  10   4   25.87    5.33
  -2 -10  -4  254.09   10.55
   2  10   4  230.26   10.17
  -2  10  -4  244.13   11.32
   2  10   4  249.03   11.38
  -4 -10  -4   72.31    6.65
  -4  10  -4   64.26    7.14
   4  10   4   75.78    7.54
  -6 -10  -4   14.24    4.47
   6  10   4   14.02    4.92
  -6  10  -4   22.55    5.60
   6  10   4   17.17    5.07
  -8 -10  -4   37.68    5.72
   8  10   4   36.34    5.77
  -8  10  -4   29.83    5.94
 -10 -10  -4    8.89    4.78
  10  10   4   -4.98    4.54
 -10  10  -4   -3.12    4.64
  12 -10   4    8.06    3.09
 -12 -10  -4   18.45    5.28
  12  10   4    3.44    4.97
 -14 -10  -4    5.16    5.26
  14 -10   4    4.84    3.39
  14  10   4    9.07    5.16
  16 -10   4   -1.04    3.43
 -16 -10  -4   -4.71    4.98
 -18 -10  -4   12.74    6.23
  18 -10   4    3.23    3.90
  20 -10   4   -2.88    4.14
 -20 -10  -4   -7.24    5.68
  25  11  -4   22.92    6.02
 -23 -11   4    4.22    5.07
  23 -11  -4   11.62    5.25
  23  11  -4   -0.46    4.60
 -21 -11   4    9.39    4.62
  21 -11  -4    4.67    4.66
 -21  11   4    1.66    5.42
  21  11  -4    8.60    5.01
  19 -11  -4   20.06    5.37
 -19 -11   4   25.69    5.27
  19  11  -4   14.17    5.04
 -19  11   4   18.11    5.82
 -19  11   4   17.17    5.72
 -17 -11   4   -0.25    3.95
  17 -11  -4    3.93    4.35
  17  11  -4    6.34    4.64
 -17  11   4    1.05    4.69
 -15 -11   4  138.34    8.13
  15 -11  -4  128.96    8.96
 -15  11   4  125.82    9.34
  15  11  -4  129.74    9.42
  13 -11  -4  125.87    8.72
 -13 -11   4  114.17    7.20
 -13  11   4  127.37    9.02
  13  11  -4   96.20    8.67
 -13  11   4  113.97    8.27
  11 -11  -4   63.67    6.37
 -11  11   4   67.01    7.03
  11  11  -4   55.86    7.05
   9 -11  -4  110.43    8.21
  -9  11   4  104.93    8.55
   9  11  -4  106.64    8.86
   7 -11  -4  202.31    9.91
  -7  11   4  211.98   10.64
   7  11  -4  207.49   11.00
   5 -11  -4  105.79    8.12
  -5  11   4  107.53    8.40
   5  11  -4   90.75    8.37
   3 -11  -4   89.19    7.29
  -3  11   4   78.16    7.48
   3  11  -4   78.06    7.86
   1 -11  -4    8.21    4.40
   1  11  -4    2.68    4.38
  -1  11   4   10.38    4.84
  -1 -11  -4    2.19    4.02
  -1  11  -4   -2.99    3.99
   1  11   4    4.89    4.62
  -3 -11  -4    1.97    4.18
  -3  11  -4    0.06    4.14
   3  11   4    0.81    4.48
   3  11   4    4.58    4.66
  -5 -11  -4   34.77    5.67
  -5  11  -4   26.45    5.76
   5  11   4   22.77    5.66
  -7 -11  -4   49.40    6.44
   7  11   4   46.10    6.25
  -7  11  -4   41.40    6.57
   7  11   4   38.15    6.79
  -9 -11  -4   59.44    7.03
   9  11   4   48.51    7.25
   9  11   4   57.94    6.91
  -9  11  -4   37.63    6.83
 -11 -11  -4   33.06    6.15
  11  11   4   26.27    6.45
  11  11   4   45.27    6.55
 -13 -11  -4    0.80    5.01
  13 -11   4    3.79    3.17
  13  11   4    3.67    5.22
  15 -11   4    2.69    3.55
 -15 -11  -4   -4.44    5.19
  15  11   4   10.81    6.99
 -17 -11  -4    1.42    5.73
  17 -11   4   -4.22    3.58
  22  12  -4    4.33    5.19
 -20 -12   4    0.49    4.80
  20 -12  -4    1.79    5.15
 -20  12   4    5.15    5.86
  20  12  -4    2.85    4.80
 -20  12   4    9.59    6.17
 -18 -12   4   -6.42    4.21
  18 -12  -4   -0.30    4.58
  18  12  -4    3.28    4.54
 -18  12   4   -1.99    5.23
  16 -12  -4   16.77    5.25
 -16 -12   4   11.36    4.66
 -16  12   4   21.16    5.93
  16  12  -4   18.68    5.45
  14 -12  -4   36.11    5.88
 -14 -12   4   33.48    5.07
  14  12  -4   39.71    6.85
 -14  12   4   33.80    6.49
  12 -12  -4   26.58    5.66
 -12 -12   4   27.86    4.51
  12  12  -4   31.14    6.22
 -12  12   4   23.71    5.79
  10 -12  -4   53.08    6.36
 -10  12   4   55.50    7.06
  10  12  -4   57.89    7.48
   8 -12  -4   10.89    4.80
  -8  12   4   18.45    5.57
   8  12  -4   11.92    5.14
   6 -12  -4    7.16    4.34
  -6  12   4    2.58    4.74
   6  12  -4    1.09    4.11
   4 -12  -4   11.82    4.70
  -4  12   4    6.09    4.56
   4  12  -4   14.20    4.94
   2 -12  -4   81.91    7.59
  -2  12   4   74.38    7.66
   2  12  -4   65.37    7.65
   0 -12  -4  177.11   10.02
   0  12  -4  157.95   10.55
   0  12   4  162.74   10.50
  -2 -12  -4   35.57    5.72
   2  12   4   30.76    5.95
  -2  12  -4   29.95    6.24
  -4 -12  -4   12.16    5.04
  -4  12  -4   10.74    5.40
   4  12   4   12.79    5.31
   4  12   4   11.59    5.30
  -6 -12  -4   58.91    6.98
  -6  12  -4   58.42    7.86
   6  12   4   49.70    7.30
  -8 -12  -4   20.66    5.65
   8  12   4   26.07    5.95
  -8  12  -4   15.31    5.86
   8  12   4   19.27    5.44
 -10 -12  -4   -1.82    4.76
  10  12   4    9.43    5.50
  10  12   4    9.00    5.74
 -10  12  -4   11.29    5.89
 -12 -12  -4   16.47    5.85
  12 -12   4   15.15    3.88
  12  12   4    9.49    5.87
  12  12   4    7.73    6.03
 -14 -12  -4    3.01    5.79
  14 -12   4    3.71    3.65
  14  12   4    2.96    6.12
  14  12   4  -10.01    4.96
 -17 -13   4   11.58    5.08
  17 -13  -4   14.72    5.57
  17  13  -4   13.51    5.75
 -17  13   4   14.93    6.42
 -15 -13   4   -0.30    4.32
  15 -13  -4    1.75    4.74
 -15  13   4    6.06    5.46
  15  13  -4   -4.30    4.49
 -13 -13   4   10.44    4.46
  13 -13  -4   13.13    5.33
  13  13  -4   17.08    5.56
 -13  13   4    4.96    5.22
  11 -13  -4   14.63    5.33
  11  13  -4    8.71    5.52
 -11  13   4   11.11    5.50
   9 -13  -4   -5.39    4.44
  -9  13   4    5.95    5.37
   9  13  -4   11.36    5.36
   7 -13  -4   -0.52    4.54
   7  13  -4    5.90    4.95
  -7  13   4   -1.25    4.80
   5 -13  -4   -1.16    4.37
  -5  13   4    6.33    5.08
   5  13  -4    0.80    4.26
   3 -13  -4    2.11    4.74
  -3  13   4    1.51    4.70
   3  13  -4    1.58    4.49
   1 -13  -4   -2.51    4.56
  -1  13   4    5.11    5.02
   1  13  -4   -6.10    4.10
  -1 -13  -4    6.00    5.02
   1  13   4   11.09    5.20
  -3 -13  -4   12.37    5.18
  -3  13  -4   14.80    5.69
   3  13   4    9.48    5.29
  -5 -13  -4   -1.31    4.67
  -5  13  -4    3.00    5.39
   5  13   4    5.92    4.99
   5  13   4   -0.84    4.99
  -7 -13  -4    2.12    5.09
  -7  13  -4   -0.64    5.36
   7  13   4   -1.74    5.51
   7  13   4    1.95    4.96
  -9 -13  -4   30.43    6.41
   9  13   4   37.05    6.68
   9  13   4   28.29    7.05
  -9  13  -4   42.60    8.05
  11  13   4   19.02    6.22
  10  14  -4   64.60    8.68
 -10  14   4   48.69    8.21
   8 -14  -4   70.70    7.81
  -8  14   4   57.17    8.29
   8  14  -4   54.42    8.14
   6 -14  -4   13.29    5.58
  -6  14   4    2.66    5.57
   6  14  -4    7.05    5.31
   4 -14  -4    6.63    5.22
  -4  14   4   10.54    5.87
   4  14  -4   15.08    5.72
   2 -14  -4   15.67    5.73
  -2  14   4    2.44    5.92
   2  14  -4   11.51    5.45
   0 -14  -4   35.42    6.71
   0  14  -4   41.14    7.44
   0  14   4   47.62    7.63
  -2 -14  -4   72.99    8.20
  -2  14  -4   78.44    9.29
   2  14   4   86.55    9.29
  -4  14  -4   30.00    7.16
   4  14   4   32.66    6.82
  36   0  -5   11.21    5.14
 -36   0   5    2.14    6.32
  34   0  -5   -5.95    3.98
 -34   0   5   -9.81    5.55
  32   0  -5   -4.80    3.73
 -32   0   5   -0.67    5.36
  30   0  -5    0.67    4.46
  30   0  -5    5.16    4.02
 -30   0   5   -5.68    6.60
 -30   0   5    1.61    5.22
  28   0  -5    0.19    4.04
 -28   0   5   -2.36    4.75
  28   0  -5    0.64    3.44
 -28   0   5   -4.61    5.30
 -26   0   5   -2.67    4.86
  26   0  -5    1.30    4.19
 -26   0   5    1.52    5.65
  26   0  -5    0.52    3.51
  24   0  -5   -2.56    3.68
  24   0  -5   -2.31    3.23
 -24   0   5    2.00    5.16
 -24   0   5   -4.04    4.59
 -22   0   5    6.10    4.32
 -22   0   5   -0.03    4.50
  22   0  -5   -1.32    2.92
  22   0  -5    0.52    3.37
  20   0  -5   -3.44    2.81
 -20   0   5   -5.33    3.39
 -20   0   5    1.73    3.80
 -20   0   5   -3.53    4.05
  20   0  -5    1.18    2.64
  20   0  -5   -3.51    3.16
  18   0  -5   -1.79    2.70
  18   0  -5    0.90    2.58
  18   0  -5   -3.54    2.43
 -18   0   5    2.59    3.21
 -18   0   5   -3.88    2.91
  18   0  -5   -1.40    2.32
 -18   0   5   -1.12    3.48
  16   0  -5   -2.47    2.42
 -16   0   5   -4.11    2.88
 -16   0   5    1.42    2.91
  16   0  -5    0.50    2.05
  16   0  -5    2.26    2.30
 -16   0   5   -2.37    2.58
 -14   0   5    1.49    2.38
  14   0  -5    0.25    1.88
  14   0  -5   -1.69    2.26
 -14   0   5   -0.38    2.57
  14   0  -5    2.34    2.05
 -14   0   5    3.67    2.69
  12   0  -5    2.01    1.97
  12   0  -5    0.09    1.91
  12   0  -5   -0.79    1.62
 -12   0   5    0.35    2.29
 -12   0   5    0.61    2.08
 -12   0   5    3.29    2.27
 -10   0   5   -1.67    1.82
 -10   0   5    4.05    2.01
  10   0  -5   -1.81    1.70
  10   0  -5    2.23    1.62
 -10   0   5   -2.82    3.23
  10   0  -5    1.15    1.70
  -8   0   5    0.07    1.84
  -8   0   5   -2.19    1.56
   8   0  -5   -0.83    1.37
  -6   0   5    1.40    1.77
   6   0  -5    0.53    1.38
  -6   0   5   -1.52    1.66
   4   0  -5    1.47    1.40
  -4   0   5    1.49    1.77
  -4   0   5   -0.69    1.66
  -2   0   5    1.06    1.57
   2   0  -5    0.44    1.43
  -2   0   5    0.06    1.69
   0   0  -5    0.85    1.53
   0   0   5    0.43    1.61
   2   0   5    0.08    1.66
  -2   0  -5    1.25    1.71
  -4   0  -5    0.85    2.16
   4   0   5   -3.24    1.68
  -4   0  -5   -1.50    1.89
  -6   0  -5    0.15    2.21
  -6   0  -5   -1.03    2.40
   6   0   5   -1.24    1.93
   8   0   5    0.13    2.25
  -8   0  -5    2.29    2.63
  -8   0  -5   -3.23    2.72
 -10   0  -5    1.88    3.19
 -10   0  -5   -7.27    2.73
  10   0   5   -4.49    2.25
  12   0   5   -3.23    2.63
 -12   0  -5   -1.48    3.35
 -12   0  -5    0.32    3.37
 -14   0  -5   -0.37    4.38
 -14   0  -5   -0.24    3.77
 -14   0  -5   -5.32    3.46
  14   0   5   -0.19    3.19
 -14   0  -5   -2.83    3.74
  16   0   5   -1.59    3.49
 -16   0  -5    1.68    4.41
 -16   0  -5   -9.79    4.01
 -18   0  -5    3.38    4.55
  18   0   5    2.94    3.78
 -18   0  -5   -1.24    4.35
 -20   0  -5    3.21    4.27
  20   0   5    1.88    3.86
 -20   0  -5   -0.21    4.57
 -20   0  -5   -1.90    4.67
 -22   0  -5    5.24    4.98
 -22   0  -5    3.45    4.99
 -22   0  -5   -1.48    5.11
  22   0   5   -3.69    3.76
  24   0   5   -4.63    3.98
 -24   0  -5   -4.92    4.79
  26   0   5    4.61    4.58
  28   0   5   -5.66    4.29
  37  -1  -5   -4.36    4.81
 -37  -1   5   -0.39    6.38
  37   1  -5    3.41    4.93
 -37   1   5   12.84    7.28
 -35  -1   5   79.33    8.72
  35  -1  -5   75.03    7.82
  35   1  -5   83.29    7.73
 -35   1   5   80.13    9.02
  33  -1  -5    5.77    5.03
  33  -1  -5   -2.04    4.14
 -33  -1   5    0.00    5.55
  33   1  -5    1.27    4.17
 -33   1   5   -3.18    5.56
 -33   1   5    0.82    6.68
  31  -1  -5   12.71    5.12
 -31  -1   5    8.74    5.71
  31  -1  -5   14.48    4.95
  31   1  -5    9.00    4.30
 -31   1   5   -3.45    5.23
 -31   1   5   -1.44    6.20
  29  -1  -5    4.85    4.14
  29  -1  -5    6.15    4.41
 -29  -1   5    3.85    4.97
 -29   1   5    8.97    6.13
 -29   1   5    6.28    5.05
  29   1  -5   -1.96    3.70
  27  -1  -5    7.35    3.87
 -27  -1   5   12.38    5.10
 -27  -1   5   10.52    7.50
  27  -1  -5    2.46    4.23
 -27   1   5    8.12    4.94
 -27   1   5   12.58    5.84
  27   1  -5   12.84    4.10
 -25  -1   5  111.90    8.42
  25  -1  -5  103.00    7.35
 -25  -1   5  101.30    7.88
  25  -1  -5  107.12    7.42
  25  -1  -5  119.45    8.42
  25   1  -5  118.47    7.29
 -25   1   5  104.43    8.20
 -25   1   5  108.79    8.81
  23  -1  -5  206.02    8.33
  23  -1  -5  204.03    8.75
  23  -1  -5  206.51    9.18
 -23  -1   5  203.05   10.18
 -23  -1   5  215.69    9.80
 -23   1   5  228.66   10.44
 -23   1   5  213.76   10.04
 -23   1   5  204.28    8.99
  23   1  -5  199.17    8.65
  23   1  -5  209.62    8.35
  23   1  -5  203.38    8.53
  21  -1  -5   67.05    5.28
 -21  -1   5   78.72    6.44
 -21  -1   5   69.59    6.10
  21  -1  -5   63.20    4.87
  21  -1  -5   72.30    5.52
 -21   1   5   74.02    6.49
 -21   1   5   70.17    6.14
 -21   1   5   61.95    5.11
  21   1  -5   91.54    6.14
  21   1  -5   74.56    5.70
  21   1  -5   72.23    5.48
 -21   1   5   75.17    6.15
 -19  -1   5   12.25    3.86
 -19  -1   5   13.68    3.67
 -19  -1   5   10.87    3.97
  19  -1  -5   16.47    3.63
  19  -1  -5   13.47    3.15
  19  -1  -5   12.40    3.19
  19   1  -5   12.88    3.24
  19   1  -5   11.00    2.81
  19   1  -5    9.00    2.92
 -19   1   5   12.75    4.07
 -19   1   5   11.60    3.24
 -19   1   5   12.46    3.85
 -19   1   5   13.92    4.10
 -17  -1   5    0.62    3.14
  17  -1  -5    0.65    2.12
  17  -1  -5   -2.54    2.61
  17  -1  -5   -0.22    2.50
 -17  -1   5    1.20    3.15
 -17  -1   5   -0.17    2.87
 -17   1   5   -2.48    2.90
  17   1  -5    6.71    2.49
 -17   1   5    2.14    3.43
 -17   1   5   -1.07    3.07
  17   1  -5   -1.43    2.10
 -17   1   5    0.85    2.69
  17   1  -5    2.35    2.47
  15  -1  -5  244.69    7.75
  15  -1  -5  241.83    7.05
  15  -1  -5  232.12    7.34
 -15  -1   5  245.15    7.74
 -15  -1   5  241.57    7.82
 -15  -1   5  233.90    7.77
 -15   1   5  230.82    7.34
 -15   1   5  245.06    8.18
 -15   1   5  246.54    8.04
  15   1  -5  236.00    8.18
  15   1  -5  235.73    7.07
 -15   1   5  235.74    7.91
  13  -1  -5    0.58    2.28
 -13  -1   5    0.35    2.20
  13  -1  -5    1.78    2.10
 -13  -1   5   -2.25    2.21
  13  -1  -5    2.97    1.97
 -13   1   5    1.44    2.40
 -13   1   5   -0.11    2.51
 -13   1   5    3.95    2.44
  13   1  -5    1.09    1.71
 -13   1   5   -2.91    2.26
  13   1  -5    0.65    2.05
  11  -1  -5  327.36    9.23
 -11  -1   5  320.87    8.13
  11  -1  -5  324.71    8.25
  11  -1  -5  321.46    8.39
 -11  -1   5  327.78    8.32
 -11   1   5  326.52    8.74
 -11   1   5  307.37    8.59
  11   1  -5  318.89    7.65
 -11   1   5  319.29    8.49
  -9  -1   5  159.27    4.97
   9  -1  -5  160.67    4.90
  -9  -1   5  162.64    5.17
   9  -1  -5  162.49    5.54
   9  -1  -5  158.20    5.31
   9  -1  -5  152.42    5.19
   9   1  -5  155.08    4.48
  -9   1   5  152.07    5.53
  -9   1   5  157.99    5.58
  -9   1   5  153.58    5.63
  -7  -1   5  107.98    4.02
   7  -1  -5  103.25    4.11
   7  -1  -5  103.85    4.50
  -7   1   5  103.62    4.54
  -7   1   5  106.72    4.68
  -7   1   5  101.94    4.55
   7   1  -5  101.88    3.28
   5  -1  -5  386.88    9.05
   5  -1  -5  388.08    9.15
   5  -1  -5  399.18    9.14
  -5   1   5  385.44    9.11
  -5   1   5  385.00    9.41
   3  -1  -5  196.76    6.08
   3  -1  -5  206.88    5.91
   3  -1  -5  205.97    6.11
  -3  -1   5  198.86    5.37
  -3   1   5  193.52    6.18
  -3   1   5  207.25    5.93
   1  -1  -5  899.24   17.92
   1  -1  -5  910.69   17.92
   1  -1  -5  906.88   17.96
  -1  -1   5  879.75   17.25
  -1   1   5  915.02   18.10
  -1   1   5  929.58   17.89
  -1  -1  -5  101.39    4.48
  -1  -1  -5  102.51    4.85
  -1  -1  -5  105.46    4.79
   1  -1   5  109.60    4.00
   1   1   5  107.60    4.65
   1   1   5  108.49    4.46
  -3  -1  -5  131.45    5.37
  -3  -1  -5  131.26    5.54
  -3  -1  -5  121.81    5.14
   3  -1   5  134.66    4.68
   3   1   5  129.39    5.25
  -3   1  -5  129.85    4.30
  -5  -1  -5   40.00    3.61
  -5  -1  -5   45.00    3.78
   5  -1   5   41.52    3.25
  -5  -1  -5   46.56    3.92
   5   1   5   43.71    3.54
  -5   1  -5   40.60    2.95
   7  -1   5  119.71    5.16
  -7  -1  -5  128.07    5.86
  -7  -1  -5  120.63    6.23
  -7  -1  -5  118.95    5.99
   7   1   5  107.34    5.48
  -7   1  -5  120.18    4.99
  -9  -1  -5  432.60   11.19
  -9  -1  -5  431.92   11.69
  -9  -1  -5  440.98   11.61
  -9  -1  -5  431.78   11.90
   9  -1   5  430.72   11.20
   9   1   5  422.62   11.57
  -9   1  -5  452.49   10.94
 -11  -1  -5   13.57    3.71
  11  -1   5   10.82    3.10
 -11  -1  -5   17.98    4.21
 -11  -1  -5   12.56    3.82
 -11  -1  -5   15.46    3.46
  11   1   5   12.30    3.25
 -11   1  -5   12.17    3.25
 -11   1  -5   20.91    3.77
 -13  -1  -5   62.14    5.59
  13  -1   5   69.89    5.38
 -13  -1  -5   60.76    5.55
 -13  -1  -5   52.47    5.68
 -13  -1  -5   57.16    5.20
 -13   1  -5   77.40    5.55
 -13   1  -5   66.20    5.41
  13   1   5   70.48    5.58
 -15  -1  -5  287.14   11.48
 -15  -1  -5  274.91   10.29
 -15  -1  -5  277.45   10.96
 -15  -1  -5  273.89   10.83
  15  -1   5  274.59   10.13
  15   1   5  269.28   10.36
 -15   1  -5  279.51   10.76
 -15   1  -5  289.77   10.32
 -17  -1  -5   22.04    5.75
  17  -1   5   19.64    4.35
 -17  -1  -5   20.25    5.16
 -17  -1  -5   20.40    5.30
 -17   1  -5   27.30    5.02
  17   1   5   24.60    4.72
 -17   1  -5   12.76    4.93
  19  -1   5   -1.87    3.35
 -19  -1  -5   -1.15    4.39
 -19  -1  -5    1.03    4.58
 -19  -1  -5   -0.58    4.94
 -19   1  -5    0.08    4.65
 -19   1  -5    3.91    4.27
  19   1   5    4.42    3.92
 -21  -1  -5   -7.60    4.82
  21  -1   5   -2.35    3.74
 -21  -1  -5    1.19    4.73
  21   1   5   10.67    4.35
 -21   1  -5    0.79    4.57
 -21   1  -5    4.38    4.98
  23  -1   5   -1.26    4.02
 -23  -1  -5    2.79    5.61
 -23  -1  -5   -3.62    4.81
  23   1   5    1.21    4.01
 -23   1  -5   11.29    5.59
 -25  -1  -5   -4.67    5.73
 -25  -1  -5   -4.94    5.17
  25  -1   5    4.43    4.45
  25   1   5   -3.47    4.17
 -27  -1  -5    9.26    6.49
  27  -1   5    8.43    5.19
  27   1   5    4.45    5.01
  29  -1   5   -0.74    5.13
 -29  -1  -5   -5.79    6.39
  29   1   5   -0.93    5.07
 -36  -2   5  149.29   12.13
  36  -2  -5  142.43   10.43
 -36   2   5  119.11   10.18
 -36   2   5  111.99   11.12
 -34  -2   5   -2.19    5.76
  34  -2  -5    1.94    4.59
 -34   2   5   -4.25    6.72
 -34   2   5    5.84    6.15
  34   2  -5   -2.96    4.20
 -32  -2   5    1.11    5.45
  32  -2  -5    1.99    4.49
  32  -2  -5    1.84    5.05
 -32   2   5    0.45    6.37
 -32   2   5    4.60    5.45
  32   2  -5   11.19    4.33
  30  -2  -5    1.68    4.13
  30  -2  -5   -1.29    4.83
 -30  -2   5   10.61    5.52
 -30   2   5   -8.19    5.62
 -30   2   5    0.46    5.29
  30   2  -5    5.54    3.91
  28  -2  -5   39.76    5.44
  28  -2  -5   43.21    5.18
 -28  -2   5   31.54    5.98
  28  -2  -5   39.91    6.06
 -28   2   5   41.16    6.81
  28   2  -5   37.74    4.96
 -28   2   5   39.72    6.18
  26  -2  -5   22.86    4.69
  26  -2  -5   10.64    4.72
 -26  -2   5   17.40    5.41
  26  -2  -5   19.24    4.36
  26   2  -5   25.12    4.27
 -26   2   5   25.88    6.40
 -26   2   5   19.22    5.48
  24  -2  -5   17.86    4.37
 -24  -2   5   27.81    7.12
  24  -2  -5   17.33    4.79
  24  -2  -5   21.91    4.29
 -24  -2   5   17.32    5.19
  24   2  -5   20.28    4.14
  24   2  -5   19.09    4.04
 -24   2   5   29.25    5.64
 -24   2   5   16.11    4.76
 -24   2   5   24.65    5.95
 -22  -2   5  278.25   10.67
 -22  -2   5  267.14   10.90
  22  -2  -5  293.63   10.13
  22  -2  -5  282.93    9.41
  22  -2  -5  280.35   10.46
 -22   2   5  282.61   11.23
 -22   2   5  286.39   10.06
  22   2  -5  281.95    9.26
 -22   2   5  269.92   10.85
  22   2  -5  280.41    9.24
  20  -2  -5  188.70    8.28
  20  -2  -5  186.41    7.75
 -20  -2   5  184.61    8.39
  20  -2  -5  192.56    7.56
 -20  -2   5  178.22    8.80
 -20  -2   5  182.31    8.40
  20   2  -5  183.08    7.05
 -20   2   5  191.18    9.07
 -20   2   5  188.21    7.94
 -20   2   5  187.78    8.67
 -20   2   5  191.03    8.68
 -18  -2   5   -0.97    3.07
 -18  -2   5    2.09    3.42
  18  -2  -5    4.25    2.59
  18  -2  -5   -1.09    2.78
  18  -2  -5    2.61    3.03
 -18  -2   5    4.38    3.32
 -18   2   5   -2.33    3.38
 -18   2   5   -1.28    2.86
 -18   2   5    0.71    3.64
  18   2  -5   -5.36    2.34
 -18   2   5   -5.64    3.01
  18   2  -5    0.79    2.22
  16  -2  -5  120.58    5.81
  16  -2  -5  121.88    5.60
 -16  -2   5  122.09    6.15
 -16  -2   5  119.43    5.89
  16  -2  -5  128.87    6.19
 -16   2   5  127.68    6.01
  16   2  -5  111.72    4.86
 -16   2   5  121.70    6.60
 -16   2   5  125.49    6.51
  16   2  -5  121.50    5.47
 -16   2   5  121.34    6.47
  14  -2  -5   30.74    3.15
 -14  -2   5   31.72    3.32
  14  -2  -5   22.39    2.93
 -14  -2   5   25.41    3.14
  14  -2  -5   23.74    3.31
 -14   2   5   24.64    3.51
 -14   2   5   29.05    3.32
 -14   2   5   21.49    3.56
 -14   2   5   27.44    3.68
  14   2  -5   31.47    2.64
  12  -2  -5   19.34    2.67
 -12  -2   5   19.55    2.65
 -12  -2   5   18.53    2.70
  12  -2  -5   23.41    3.16
  12  -2  -5   24.78    2.75
  12   2  -5   23.77    2.15
 -12   2   5   17.51    2.99
 -12   2   5   28.06    3.28
 -12   2   5   23.70    3.00
 -12   2   5   16.50    2.99
 -10  -2   5  271.74    7.07
  10  -2  -5  290.57    7.29
  10  -2  -5  273.22    7.77
  10  -2  -5  278.66    7.85
 -10   2   5  266.18    7.93
 -10   2   5  279.38    8.02
 -10   2   5  273.30    7.58
 -10   2   5  272.41    7.89
  -8  -2   5   39.15    2.68
   8  -2  -5   30.26    3.14
   8  -2  -5   31.44    2.72
   8  -2  -5   30.33    2.85
  -8   2   5   26.38    2.90
  -8   2   5   30.14    2.99
   8   2  -5   34.04    2.75
  -8   2   5   28.77    2.96
  -8   2   5   27.95    2.78
   6  -2  -5  194.18    5.71
   6  -2  -5  188.92    6.31
   6  -2  -5  193.25    6.12
   6   2  -5  198.22    5.76
  -6   2   5  198.79    6.33
  -6   2   5  191.02    5.97
  -6   2   5  188.49    6.17
  -6   2   5  200.95    6.41
   4  -2  -5  883.67   17.84
   4  -2  -5  882.05   17.05
   4  -2  -5  892.89   17.70
   4  -2  -5  860.01   17.70
  -4   2   5  892.36   18.10
  -4   2   5  866.81   17.37
  -4   2   5  866.05   17.65
   2  -2  -5 1908.15   36.17
   2  -2  -5 1975.37   36.11
   2  -2  -5 1966.10   35.46
   2  -2  -5 1957.24   36.20
  -2   2   5 1950.41   35.99
  -2   2   5 1929.36   35.70
  -2   2   5 2045.78   36.57
   0  -2  -5  351.23    9.19
   0  -2  -5  352.25    9.08
   0  -2  -5  355.33    8.52
   0  -2  -5  354.75    9.07
   0   2   5  346.66    8.66
   0   2   5  353.74    8.85
   0   2   5  355.56    9.16
  -2  -2  -5 1628.47   31.12
  -2  -2  -5 1623.87   30.24
  -2  -2  -5 1650.74   30.89
  -2  -2  -5 1629.76   31.09
   2  -2   5 1661.19   29.70
   2   2   5 1657.28   31.28
   2   2   5 1631.50   30.83
   2   2   5 1597.91   30.49
  -4  -2  -5   16.35    2.88
  -4  -2  -5   19.45    3.31
  -4  -2  -5   16.23    3.01
   4  -2   5   17.39    2.24
   4   2   5   15.06    2.66
   4   2   5   12.62    2.67
   4   2   5   14.96    2.64
  -6  -2  -5    3.97    2.73
   6  -2   5   -0.15    1.82
  -6  -2  -5   -1.71    3.03
  -6  -2  -5   -1.27    2.54
   6   2   5   -0.40    2.34
   6   2   5    0.79    2.37
  -8  -2  -5   90.27    6.39
  -8  -2  -5   89.64    5.93
  -8  -2  -5   96.14    5.85
   8  -2   5   87.06    4.72
   8   2   5   92.36    5.48
  -8   2  -5   85.65    4.27
   8   2   5   81.62    5.21
 -10  -2  -5   10.80    3.56
 -10  -2  -5   12.16    3.54
 -10  -2  -5    7.74    3.94
  10  -2   5   10.36    2.86
  10   2   5    9.10    3.14
 -10   2  -5    9.75    2.79
  10   2   5   10.86    3.19
 -12  -2  -5  125.21    7.39
  12  -2   5   94.59    5.96
 -12  -2  -5  129.14    8.19
 -12  -2  -5  114.17    7.33
  12   2   5  106.46    6.49
 -12   2  -5  111.73    5.96
  12   2   5  116.73    6.77
  14  -2   5   -4.26    2.96
 -14  -2  -5    1.72    3.99
 -14  -2  -5    2.37    4.70
 -14  -2  -5    1.72    4.22
 -14   2  -5   -5.11    3.70
 -14   2  -5   -2.90    3.25
  14   2   5   -2.64    3.32
 -16  -2  -5  126.55    9.74
  16  -2   5  140.06    7.72
 -16  -2  -5  150.75    9.30
 -16  -2  -5  139.91    9.18
  16   2   5  156.07    8.48
 -16   2  -5  161.12    9.02
 -16   2  -5  169.58    8.14
 -18  -2  -5   53.22    6.35
 -18  -2  -5   67.39    6.83
 -18  -2  -5   63.89    7.10
  18  -2   5   71.23    6.19
  18   2   5   66.66    6.37
 -18   2  -5   63.72    5.84
 -18   2  -5   70.88    6.44
 -20  -2  -5   44.37    6.71
 -20  -2  -5   46.52    6.40
  20  -2   5   40.41    5.56
 -20   2  -5   31.81    5.57
  20   2   5   39.41    5.64
  22  -2   5   20.29    4.80
 -22  -2  -5   34.22    6.77
 -22  -2  -5   31.76    6.28
  22   2   5   30.74    5.59
 -22   2  -5   27.00    6.01
  24  -2   5    4.82    4.51
 -24  -2  -5    7.52    5.56
 -24  -2  -5   13.40    6.23
  24   2   5   10.33    4.91
 -24   2  -5    5.13    5.29
  26  -2   5   32.14    6.15
 -26  -2  -5   27.40    7.19
 -26  -2  -5   30.18    6.84
  26   2   5   40.41    6.48
 -28  -2  -5   87.25    9.43
  28  -2   5  100.09    8.94
 -28  -2  -5   86.46    9.29
  28   2   5  129.61   10.36
  35  -3  -5   33.13    6.52
 -35  -3   5   30.89    7.35
 -35   3   5   42.50    7.50
 -35   3   5   37.75    8.45
  33  -3  -5   73.81    7.57
  33  -3  -5   61.99    6.68
 -33  -3   5   50.33    7.77
 -33   3   5   71.43    8.16
 -33   3   5   60.93    8.70
  31  -3  -5   10.65    4.91
  31  -3  -5    0.06    4.31
 -31  -3   5   10.73    5.70
  31   3  -5   12.17    4.26
 -31   3   5    7.87    5.69
 -31   3   5   -0.64    5.96
 -29  -3   5  104.38    8.45
  29  -3  -5  122.82    9.31
  29  -3  -5  119.96    8.42
  29  -3  -5  122.66    8.22
  29   3  -5  120.43    7.59
 -29   3   5  132.73    9.69
 -29   3   5  121.57    9.49
  27  -3  -5    6.03    4.59
 -27  -3   5   -1.13    4.53
  27  -3  -5   -1.17    3.65
  27  -3  -5   -1.87    3.83
 -27   3   5    3.90    4.69
 -27   3   5   -1.01    5.33
  27   3  -5    0.02    3.26
 -25  -3   5  227.46   10.72
  25  -3  -5  216.08   10.25
  25  -3  -5  237.34   10.22
  25  -3  -5  217.16    9.33
 -25   3   5  198.87   14.81
 -25   3   5  218.32   11.48
  25   3  -5  209.92    8.66
 -25   3   5  235.97   10.87
  23  -3  -5  637.12   15.67
 -23  -3   5  634.62   16.92
  23  -3  -5  620.64   16.73
  23  -3  -5  645.98   16.78
 -23   3   5  601.22   16.23
  23   3  -5  635.57   15.39
 -23   3   5  604.87   17.15
 -23   3   5  617.39   17.07
  21  -3  -5   10.59    4.17
  21  -3  -5    7.50    3.36
 -21  -3   5    0.89    3.94
 -21  -3   5    1.94    4.48
  21  -3  -5    2.24    3.70
 -21   3   5    4.07    4.82
  21   3  -5    6.04    2.87
 -21   3   5    8.04    4.46
  21   3  -5    1.25    3.27
 -21   3   5    1.88    4.23
 -21   3   5    4.74    3.94
  19  -3  -5   83.19    6.01
 -19  -3   5  100.29    6.71
 -19  -3   5   93.57    6.76
  19  -3  -5   83.59    6.63
  19  -3  -5   94.79    6.13
 -19   3   5   94.56    7.15
  19   3  -5   93.94    5.11
 -19   3   5   90.62    7.01
  19   3  -5   97.33    5.01
 -19   3   5   96.08    7.55
  19   3  -5   99.32    5.82
 -19   3   5  102.43    6.74
  17  -3  -5    3.88    2.70
 -17  -3   5    6.32    3.20
  17  -3  -5    6.78    3.31
  17  -3  -5    4.65    3.04
 -17  -3   5   10.06    3.46
  17   3  -5    9.05    2.27
 -17   3   5    7.12    3.83
 -17   3   5   11.10    3.35
  17   3  -5    1.02    2.19
 -17   3   5    8.94    3.75
 -17   3   5    0.76    3.34
 -15  -3   5  295.48    8.69
  15  -3  -5  297.21    8.47
  15  -3  -5  296.22    9.37
  15  -3  -5  284.78    9.00
 -15  -3   5  313.53    8.72
 -15   3   5  296.82    9.25
 -15   3   5  300.22    9.32
 -15   3   5  307.26    9.08
  15   3  -5  298.68    7.52
 -15   3   5  296.20    9.52
  15   3  -5  299.89    8.12
  13  -3  -5   25.67    3.49
 -13  -3   5   27.09    3.06
  13  -3  -5   20.92    3.14
  13  -3  -5   27.72    3.13
 -13   3   5   24.81    3.29
 -13   3   5   23.20    3.52
  13   3  -5   29.34    2.81
 -13   3   5   26.28    3.52
 -13   3   5   22.44    3.48
  11  -3  -5   27.69    3.55
  11  -3  -5   26.03    3.04
  11  -3  -5   27.60    2.98
 -11  -3   5   28.89    2.73
 -11   3   5   24.35    3.42
 -11   3   5   24.90    3.22
  11   3  -5   27.24    2.78
 -11   3   5   18.92    3.05
 -11   3   5   28.30    3.32
   9  -3  -5  318.66    8.22
   9  -3  -5  308.65    8.83
   9  -3  -5  317.25    8.82
   9   3  -5  326.22    8.37
  -9   3   5  318.97    8.92
  -9   3   5  317.12    8.80
  -9   3   5  310.77    8.48
  -9   3   5  318.76    8.79
   7  -3  -5   85.23    4.92
   7  -3  -5   89.59    4.47
   7  -3  -5   87.95    4.61
  -7   3   5   87.27    4.75
  -7   3   5   85.36    4.61
  -7   3   5   85.51    4.61
  -7   3   5   94.88    4.78
   7   3  -5   89.15    4.20
   5  -3  -5    1.64    2.38
   5  -3  -5    3.78    2.20
   5  -3  -5    2.48    2.12
  -5   3   5    2.81    2.18
  -5   3   5    5.36    2.36
  -5   3   5    4.79    2.08
   5   3  -5    3.82    2.00
  -5   3   5    2.82    1.97
   3  -3  -5  218.86    7.17
   3  -3  -5  236.08    6.98
   3  -3  -5  221.70    6.53
   3  -3  -5  224.01    7.09
  -3   3   5  216.25    6.67
  -3   3   5  215.32    6.79
   3   3  -5  217.12    7.02
  -3   3   5  231.07    7.24
   1  -3  -5    8.93    2.45
   1  -3  -5    8.58    2.49
   1  -3  -5   11.09    2.82
   1  -3  -5   10.07    2.47
  -1   3   5    8.68    2.40
  -1   3   5   11.93    2.54
  -1   3   5   10.70    2.42
  -1  -3  -5  782.78   16.64
  -1  -3  -5  786.40   16.96
  -1  -3  -5  797.74   17.10
  -1  -3  -5  800.69   16.21
   1   3   5  767.89   16.39
   1   3   5  775.25   16.56
   1   3   5  783.14   16.92
  -3  -3  -5  570.17   13.04
  -3  -3  -5  550.28   13.27
  -3  -3  -5  556.11   13.39
   3   3   5  542.04   12.63
   3   3   5  557.01   13.20
   3   3   5  543.71   12.89
  -5  -3  -5   62.18    4.64
  -5  -3  -5   63.22    4.95
   5  -3   5   58.44    3.52
  -5  -3  -5   66.38    4.58
   5   3   5   66.63    4.49
   5   3   5   62.93    4.67
   5   3   5   69.43    4.75
  -7  -3  -5  176.01    7.27
  -7  -3  -5  179.56    7.99
  -7  -3  -5  177.74    7.50
   7  -3   5  169.25    5.84
   7   3   5  189.99    7.04
   7   3   5  170.73    7.00
   7   3   5  163.52    6.75
  -9  -3  -5   28.34    4.67
   9  -3   5   24.28    3.12
  -9  -3  -5   26.20    4.10
  -9  -3  -5   26.45    3.94
   9   3   5   21.41    3.65
   9   3   5   19.56    3.41
   9   3   5   25.50    3.82
 -11  -3  -5  155.96    8.66
  11  -3   5  144.29    6.54
 -11  -3  -5  164.12    7.95
 -11  -3  -5  162.01    8.09
  11   3   5  163.52    7.75
  11   3   5  152.93    7.44
 -13  -3  -5   58.82    5.77
 -13  -3  -5   77.08    6.80
 -13  -3  -5   61.88    5.62
  13  -3   5   69.28    5.36
  13   3   5   60.20    5.27
 -13   3  -5   59.62    4.43
  13   3   5   66.58    5.69
  15  -3   5  519.08   14.26
 -15  -3  -5  525.93   15.91
 -15  -3  -5  507.84   15.54
 -15  -3  -5  508.52   15.30
 -15   3  -5  507.75   12.95
  15   3   5  508.27   15.03
 -17  -3  -5  257.78   11.90
 -17  -3  -5  242.73   11.05
  17  -3   5  247.76    9.83
  17   3   5  223.98   10.35
 -19  -3  -5   45.42    6.46
  19  -3   5   42.27    5.26
 -19  -3  -5   28.40    6.46
  19   3   5   35.65    5.53
 -21  -3  -5    0.68    5.69
 -21  -3  -5   -8.97    4.65
  21  -3   5    2.02    3.64
 -21   3  -5   -4.28    4.77
  21   3   5    0.74    4.01
 -23  -3  -5    3.57    5.45
  23  -3   5    1.72    4.24
 -23  -3  -5    9.53    6.40
 -23   3  -5    5.01    5.20
  23   3   5    3.28    4.45
 -25  -3  -5    2.84    6.20
  25  -3   5   -0.91    4.31
 -25  -3  -5   -0.23    5.50
  25   3   5    2.50    4.55
 -25   3  -5   11.23    5.68
 -27  -3  -5    5.12    6.02
 -27  -3  -5    8.30    6.90
  27  -3   5    0.68    4.61
  27   3   5    2.27    5.05
 -36  -4   5   -3.09    6.50
  36  -4  -5   -0.15    5.54
 -36   4   5   -6.45    7.68
  34  -4  -5    9.27    5.16
 -34  -4   5   15.55    6.44
  34  -4  -5    8.51    5.52
 -34   4   5   20.57    7.76
 -34   4   5   19.80    6.50
  32  -4  -5    4.64    4.90
 -32  -4   5   12.11    5.96
  32  -4  -5    4.95    4.64
 -32   4   5   10.87    5.83
 -32   4   5    9.30    6.73
  30  -4  -5    4.27    4.33
 -30  -4   5    3.51    5.20
  30  -4  -5    5.69    4.70
 -30   4   5    7.12    6.03
 -30   4   5    6.77    5.26
  28  -4  -5   -3.33    4.10
 -28  -4   5   -4.52    4.56
  28  -4  -5   -2.24    3.79
 -28   4   5   -9.43    5.56
 -28   4   5    5.50    4.91
  26  -4  -5  203.57    9.91
 -26  -4   5  188.93   10.26
  26  -4  -5  202.01   10.21
  26  -4  -5  207.74    9.20
 -26   4   5  206.99   11.05
  26   4  -5  179.04    8.05
 -26   4   5  185.29   10.27
  24  -4  -5  211.25    9.29
 -24  -4   5  221.07   10.20
  24  -4  -5  192.96    9.43
  24  -4  -5  197.85    9.99
 -24   4   5  191.14   10.16
 -24   4   5  202.27   11.06
  24   4  -5  210.25    8.16
 -24   4   5  193.17    9.92
  22  -4  -5   37.84    5.19
  22  -4  -5   50.16    6.01
  22  -4  -5   45.35    5.14
 -22  -4   5   38.75    5.58
 -22   4   5   40.81    5.69
  22   4  -5   38.07    3.99
 -22   4   5   42.88    6.44
  22   4  -5   50.01    4.98
 -22   4   5   44.83    5.86
  20  -4  -5   26.88    4.26
  20  -4  -5   22.89    4.54
 -20  -4   5   24.74    4.74
  20  -4  -5   29.03    4.32
  20   4  -5   29.22    3.37
 -20   4   5   27.10    4.84
 -20   4   5   28.51    5.52
 -20   4   5   20.47    4.32
 -20   4   5   32.72    4.98
  20   4  -5   31.46    4.06
 -18  -4   5    4.19    3.43
  18  -4  -5   -2.42    3.20
  18  -4  -5    7.54    3.06
  18  -4  -5    4.20    3.29
  18   4  -5    3.71    2.68
 -18   4   5    3.38    3.78
 -18   4   5    6.95    4.12
 -18   4   5    5.00    4.22
 -18   4   5    4.80    3.63
  18   4  -5    4.11    2.17
  16  -4  -5   36.82    4.01
 -16  -4   5   40.15    4.19
  16  -4  -5   31.73    4.35
 -16  -4   5   30.05    3.82
  16  -4  -5   35.49    4.10
  16   4  -5   35.00    3.66
 -16   4   5   32.05    4.69
 -16   4   5   34.73    4.31
 -16   4   5   36.95    4.41
 -16   4   5   26.54    3.96
  14  -4  -5   27.28    3.83
  14  -4  -5   27.62    3.54
  14  -4  -5   23.61    3.41
 -14  -4   5   26.14    3.17
 -14   4   5   27.62    3.69
 -14   4   5   28.60    4.11
 -14   4   5   22.01    3.65
  14   4  -5   32.82    3.41
 -14   4   5   27.57    3.82
 -12  -4   5   38.35    3.11
  12  -4  -5   31.33    3.51
  12  -4  -5   35.72    3.53
  12  -4  -5   43.67    4.20
 -12   4   5   34.36    3.75
 -12   4   5   36.81    3.68
 -12   4   5   40.54    4.07
  12   4  -5   42.60    3.66
 -12   4   5   33.69    3.93
  10  -4  -5   28.56    3.63
  10  -4  -5   20.12    3.09
  10  -4  -5   25.74    3.14
  10   4  -5   33.90    3.36
 -10   4   5   30.56    3.54
 -10   4   5   28.75    3.53
 -10   4   5   30.24    3.43
 -10   4   5   31.95    3.78
   8  -4  -5  145.09    6.18
   8  -4  -5  153.75    5.85
   8  -4  -5  152.40    6.43
  -8   4   5  154.38    6.16
  -8   4   5  154.36    6.18
   8   4  -5  143.54    5.92
  -8   4   5  150.75    6.11
  -8   4   5  142.37    6.22
   6  -4  -5  180.80    6.17
   6  -4  -5  171.61    6.54
   6  -4  -5  171.63    6.65
   6   4  -5  171.20    6.32
  -6   4   5  171.97    6.64
  -6   4   5  164.51    6.29
  -6   4   5  179.36    6.57
  -6   4   5  180.07    6.33
   4  -4  -5   32.73    3.26
   4  -4  -5   38.78    3.84
   4  -4  -5   39.33    3.72
  -4   4   5   46.04    3.70
  -4   4   5   32.79    3.39
  -4   4   5   37.53    3.56
   4   4  -5   43.00    3.85
  -4   4   5   37.12    3.46
   2  -4  -5  828.20   18.04
   2  -4  -5  821.81   17.04
   2  -4  -5  849.51   17.60
   2  -4  -5  831.23   18.04
  -2   4   5  832.41   18.03
  -2   4   5  839.80   17.50
  -2   4   5  823.93   17.58
  -2   4   5  825.03   17.51
   2   4  -5  833.69   18.30
   0  -4  -5   38.24    3.79
   0  -4  -5   29.87    3.39
   0  -4  -5   35.94    3.86
   0  -4  -5   34.70    3.45
   0   4   5   27.97    3.42
   0   4   5   34.38    3.43
   0   4  -5   35.04    3.80
   0   4   5   30.87    3.27
  -2  -4  -5    4.64    2.38
  -2  -4  -5   -0.44    2.56
  -2  -4  -5    0.92    2.95
   2   4   5    1.82    2.38
   2   4   5   -2.37    2.22
   2   4   5    0.29    2.55
  -4  -4  -5  242.77    8.73
  -4  -4  -5  241.68    8.03
  -4  -4  -5  230.76    8.32
   4   4   5  232.91    8.07
   4   4   5  253.16    7.92
   4   4   5  243.72    7.98
  -6  -4  -5   14.31    3.26
  -6  -4  -5   17.78    3.72
  -6  -4  -5   17.91    4.10
   6   4   5   20.99    3.37
   6   4   5   20.19    3.29
   6   4   5   19.55    3.33
  -8  -4  -5    0.01    3.00
   8  -4   5    1.53    2.06
  -8  -4  -5    2.11    3.54
  -8  -4  -5    1.61    3.94
   8   4   5    5.81    3.10
   8   4   5   -0.40    2.79
   8   4   5    0.31    2.80
 -10  -4  -5   93.40    6.93
  10  -4   5   87.67    5.13
 -10  -4  -5   99.83    6.82
 -10  -4  -5   94.10    7.19
  10   4   5   90.62    6.58
  10   4   5   96.70    6.35
  10   4   5   85.75    6.37
  12  -4   5   84.14    5.62
 -12  -4  -5   63.44    5.68
 -12  -4  -5   99.60    7.79
 -12  -4  -5   73.70    6.84
  12   4   5   85.33    6.49
  12   4   5   83.36    6.05
  12   4   5   91.20    6.91
  14  -4   5  830.79   18.82
 -14  -4  -5  821.37   20.37
 -14  -4  -5  752.66   25.11
 -14  -4  -5  791.73   20.53
  14   4   5  732.78   20.98
  14   4   5  804.31   19.97
  14   4   5  807.73   19.35
 -16  -4  -5  311.40   13.07
 -16  -4  -5  316.39   12.71
  16  -4   5  329.37   11.12
  16   4   5  331.43   12.12
  16   4   5  328.21   11.70
 -18  -4  -5   35.18    6.15
 -18  -4  -5   36.30    6.55
  18  -4   5   34.86    4.99
  18   4   5   31.31    5.37
 -20  -4  -5   -2.44    5.64
 -20  -4  -5    5.15    5.33
  20  -4   5    6.44    3.70
  20   4   5    1.15    4.21
  22  -4   5   30.92    5.36
 -22  -4  -5   41.33    6.97
 -22  -4  -5   34.99    7.41
  22   4   5   39.65    6.15
 -22   4  -5   34.85    6.10
  24  -4   5   55.96    6.61
 -24  -4  -5   53.89    8.33
 -24  -4  -5   41.61    7.35
 -24   4  -5   50.17    7.04
  24   4   5   58.63    7.06
 -26  -4  -5    7.11    7.15
  26  -4   5   10.99    4.60
 -26  -4  -5   10.35    6.59
  26   4   5    8.36    5.41
 -26   4  -5    1.93    5.57
 -35  -5   5   52.27    8.19
  35  -5  -5   58.81    7.88
 -35   5   5   55.81    9.41
 -33  -5   5   29.45    6.95
  33  -5  -5   25.05    6.16
 -33   5   5   38.74    8.05
 -33   5   5   26.97    9.54
  31  -5  -5    8.08    5.24
 -31  -5   5    8.39    5.81
  31  -5  -5   16.16    5.60
 -31   5   5   10.05    6.62
 -31   5   5   13.64    6.11
 -29  -5   5   32.40    6.17
  29  -5  -5   30.04    5.64
  29  -5  -5   34.54    5.62
 -29   5   5   34.48    6.94
 -29   5   5   30.70    6.19
  27  -5  -5   55.91    6.56
  27  -5  -5   61.64    6.25
 -27  -5   5   52.14    6.55
 -27   5   5   59.84    7.06
  27   5  -5   54.36    5.86
 -27   5   5   64.96    7.05
 -25  -5   5  124.66    9.14
  25  -5  -5  154.54    8.76
  25  -5  -5  170.80    9.13
 -25   5   5  154.93    9.30
  25   5  -5  158.65    8.10
 -25   5   5  156.42   10.25
 -25   5   5  151.65    9.33
  23  -5  -5   45.12    6.11
  23  -5  -5   43.17    5.57
 -23  -5   5   55.69    6.23
  23  -5  -5   66.54    6.20
 -23   5   5   71.45    7.19
 -23   5   5   71.80    6.84
 -23   5   5   52.14    6.19
  23   5  -5   58.22    5.53
 -21  -5   5   43.44    5.46
  21  -5  -5   39.98    5.12
  21  -5  -5   39.50    5.40
  21  -5  -5   42.74    5.16
  21   5  -5   36.27    4.74
 -21   5   5   34.75    5.40
 -21   5   5   37.38    5.93
 -21   5   5   46.04    5.80
  19  -5  -5    0.04    3.60
  19  -5  -5   -0.21    3.32
  19  -5  -5    1.08    4.09
 -19  -5   5   -0.19    3.58
 -19   5   5   -4.07    4.44
 -19   5   5   -1.73    3.92
  19   5  -5   -1.72    2.92
 -19   5   5    0.72    4.00
 -19   5   5   -1.39    3.90
 -19   5   5   -0.60    3.81
  17  -5  -5   38.94    4.35
  17  -5  -5   40.51    5.06
 -17  -5   5   38.64    4.41
  17  -5  -5   39.72    4.67
 -17   5   5   39.42    4.83
 -17   5   5   41.43    5.44
 -17   5   5   40.64    5.06
  17   5  -5   44.68    4.54
 -17   5   5   48.34    5.10
 -17   5   5   44.73    4.64
 -17   5   5   41.67    4.83
  15  -5  -5   30.26    4.24
  15  -5  -5   32.07    4.07
 -15  -5   5   40.38    3.98
  15  -5  -5   35.67    4.19
 -15   5   5   38.13    4.65
 -15   5   5   36.15    4.87
 -15   5   5   38.77    4.60
 -15   5   5   36.47    4.33
  15   5  -5   34.36    4.11
 -15   5   5   32.28    4.47
 -13  -5   5   51.24    4.16
  13  -5  -5   59.43    5.03
  13  -5  -5   59.11    4.45
  13  -5  -5   58.57    4.68
 -13   5   5   63.87    5.11
 -13   5   5   58.19    4.84
 -13   5   5   56.78    4.79
  13   5  -5   49.02    4.43
 -13   5   5   59.72    4.83
 -13   5   5   54.50    4.52
 -13   5   5   65.58    5.16
  11  -5  -5    5.68    2.93
  11  -5  -5    0.81    2.59
  11  -5  -5    2.73    3.07
 -11   5   5    7.18    3.21
 -11   5   5    1.88    2.92
 -11   5   5    4.73    2.82
 -11   5   5    7.47    3.28
 -11   5   5    3.61    3.00
  11   5  -5    2.73    2.49
   9  -5  -5    6.41    3.11
   9  -5  -5    4.26    2.52
   9  -5  -5    6.55    2.82
  -9   5   5    3.77    2.69
  -9   5   5   -0.29    2.94
  -9   5   5    0.40    3.04
  -9   5   5    2.93    2.84
   9   5  -5    5.63    2.49
  -9   5   5    2.79    2.28
  -9   5   5    6.75    2.89
   7  -5  -5  138.77    6.32
   7  -5  -5  146.78    6.50
   7  -5  -5  150.97    6.04
  -7   5   5  139.07    6.35
   7   5  -5  136.95    6.18
  -7   5   5  135.86    6.29
  -7   5   5  138.12    6.16
  -7   5   5  138.29    6.07
  -7   5   5  137.82    6.45
  -7   5   5  146.58    6.11
  -7   5   5  140.83    5.80
   5  -5  -5  280.62    8.95
   5  -5  -5  285.06    8.20
   5  -5  -5  283.57    8.91
  -5   5   5  258.37    8.69
  -5   5   5  272.95    8.32
  -5   5   5  289.58    8.85
   5   5  -5  282.89    8.93
  -5   5   5  288.12    8.58
  -5   5   5  283.67    8.51
   3  -5  -5  330.38    9.87
   3  -5  -5  341.30    9.10
   3  -5  -5  326.33    9.86
  -3   5   5  325.74    9.36
  -3   5   5  330.30    9.51
  -3   5   5  354.46   10.64
  -3   5   5  341.64    9.44
  -3   5   5  321.99    9.63
   3   5  -5  331.57   10.02
   1  -5  -5  254.48    8.72
   1  -5  -5  255.62    7.99
   1  -5  -5  241.34    8.48
   1   5  -5  262.24    8.78
  -1   5   5  252.77    8.05
  -1   5   5  257.86    8.20
  -1   5   5  252.34    8.40
  -1   5   5  248.70    8.08
  -1  -5  -5  571.53   14.10
  -1  -5  -5  549.14   13.53
  -1  -5  -5  558.41   14.08
  -1   5  -5  545.36   14.45
   1   5   5  568.89   13.40
   1   5   5  566.11   13.41
   1   5   5  556.34   13.76
  -3  -5  -5  516.23   13.25
  -3  -5  -5  497.25   12.55
  -3  -5  -5  471.89   13.13
   3   5   5  499.06   12.55
   3   5   5  507.29   13.01
   3   5   5  488.80   12.44
  -5  -5  -5  210.24    8.38
  -5  -5  -5  198.82    8.71
  -5  -5  -5  188.86    7.64
   5   5   5  201.06    7.63
   5   5   5  193.10    7.76
   5   5   5  192.03    7.82
  -7  -5  -5   20.80    3.68
  -7  -5  -5   13.53    4.03
  -7  -5  -5   16.06    4.64
   7   5   5   15.02    3.50
   7   5   5   12.66    3.34
   7   5   5    9.01    3.55
  -9  -5  -5  224.38    8.89
  -9  -5  -5  229.41   10.16
  -9  -5  -5  219.04    9.40
   9  -5   5  224.76    7.22
   9   5   5  212.20    8.81
   9   5   5  209.19    8.59
   9   5   5  220.17    8.95
  11  -5   5  266.51    8.51
 -11  -5  -5  259.62   10.55
 -11  -5  -5  261.06   11.31
  11   5   5  259.80   10.04
  11   5   5  254.38   10.03
  11   5   5  261.95    9.74
  13  -5   5   24.91    3.93
 -13  -5  -5   14.54    5.05
 -13  -5  -5   21.81    5.98
  13   5   5   21.39    4.65
  13   5   5   23.09    4.60
  13   5   5   23.96    4.42
 -15  -5  -5   61.85    6.67
 -15  -5  -5   68.53    7.38
  15  -5   5   59.12    5.34
  15   5   5   87.76    6.87
  15   5   5   68.23    6.09
 -17  -5  -5   90.94    7.86
 -17  -5  -5   85.62    8.30
  17  -5   5   95.50    7.02
  17   5   5   82.93    6.87
  17   5   5   95.80    7.36
  19  -5   5   26.72    4.66
 -19  -5  -5   23.78    6.67
 -19  -5  -5   26.02    6.14
  19   5   5   27.88    5.27
  19   5   5   25.09    4.93
 -21  -5  -5    3.07    5.45
  21  -5   5   -0.97    3.82
 -21  -5  -5   -8.56    6.12
 -21   5  -5    3.85    4.69
  21   5   5   -0.57    4.24
  21   5   5   -2.25    4.26
  23  -5   5   25.40    5.41
 -23  -5  -5   44.42   13.06
 -23  -5  -5   27.24    6.84
 -23   5  -5   23.10    5.86
  23   5   5   26.91    5.60
  23   5   5   27.12    5.80
 -25  -5  -5    6.81    6.16
  25  -5   5   15.21    5.17
 -25   5  -5    3.95    5.35
  25   5   5    1.62    4.84
  25   5   5   -3.16    4.73
  27   5   5    0.52    4.87
  27   5   5   -0.82    5.09
 -27   5  -5    6.83    6.25
 -34  -6   5    9.83    6.50
  34  -6  -5   22.43    6.25
  34   6  -5   18.96    6.84
 -32  -6   5    9.01    5.93
  32  -6  -5   25.19    6.01
  32   6  -5   14.38    5.18
 -30  -6   5    1.13    5.14
  30  -6  -5    6.32    4.82
  30   6  -5    7.71    4.41
 -30   6   5   -4.41    6.00
  28  -6  -5  109.23    8.90
 -28  -6   5   93.23    8.33
 -28   6   5  107.75    8.57
 -28   6   5   99.47    8.27
  28   6  -5  116.01    8.11
  26  -6  -5  131.53    8.72
 -26  -6   5  117.45    9.04
  26  -6  -5  127.86   11.93
 -26   6   5  141.57   10.65
  26   6  -5  138.01    8.28
 -26   6   5  141.47    9.32
  24  -6  -5   34.33    5.33
 -24  -6   5   37.44    5.63
  24  -6  -5   29.63    5.18
 -24   6   5   43.28    5.97
 -24   6   5   50.63    6.55
 -24   6   5   33.70    5.70
  24   6  -5   44.10    5.47
  22  -6  -5  150.46    8.31
 -22  -6   5  121.28    8.39
  22  -6  -5  138.83    8.33
 -22   6   5  131.50    8.76
 -22   6   5  128.07    9.27
  22   6  -5  140.44    7.84
 -22   6   5  125.84    8.52
 -20  -6   5   18.20    4.52
  20  -6  -5    6.91    3.90
  20  -6  -5    6.89    4.12
 -20   6   5   19.79    5.05
  20   6  -5    9.61    4.08
 -20   6   5   17.66    5.21
 -20   6   5   18.18    4.93
 -20   6   5   12.74    5.71
  18  -6  -5   30.94    4.94
  18  -6  -5   21.44    4.24
  18  -6  -5   26.93    4.50
 -18  -6   5   17.70    4.18
 -18   6   5   23.83    4.97
 -18   6   5   23.26    4.74
  18   6  -5   25.88    4.25
 -18   6   5   26.53    4.84
 -18   6   5   22.68    5.14
 -18   6   5   22.10    4.77
  16  -6  -5    5.21    3.93
 -16  -6   5    9.91    3.40
  16  -6  -5    3.55    3.39
  16  -6  -5    3.35    3.64
 -16   6   5   -2.09    3.62
  16   6  -5   -1.75    2.97
 -16   6   5   -0.27    3.94
 -16   6   5   -4.02    3.51
  14  -6  -5   72.70    5.92
 -14  -6   5   76.96    5.19
  14  -6  -5   79.37    5.43
  14  -6  -5   79.66    6.23
 -14   6   5   87.43    6.50
 -14   6   5   86.47    6.58
 -14   6   5   82.97    5.95
  14   6  -5   78.84    5.90
 -14   6   5   79.87    6.46
 -14   6   5   82.16    5.84
  12  -6  -5   33.29    4.44
  12  -6  -5   35.27    4.28
  12  -6  -5   37.92    4.22
 -12   6   5   37.53    4.66
 -12   6   5   36.41    4.30
  12   6  -5   38.61    4.44
 -12   6   5   39.81    4.53
 -12   6   5   31.30    3.75
 -12   6   5   36.03    4.29
  10  -6  -5   -1.62    2.82
  10  -6  -5   -1.81    3.28
  10  -6  -5   -0.18    3.13
 -10   6   5    4.24    3.18
 -10   6   5   -2.17    3.26
 -10   6   5   -1.88    2.81
  10   6  -5    3.72    2.81
 -10   6   5    5.76    3.30
 -10   6   5   -1.59    2.49
 -10   6   5    0.56    3.26
   8  -6  -5  385.05   11.29
   8  -6  -5  384.35   10.32
   8  -6  -5  369.89   11.11
  -8   6   5  390.56   10.87
  -8   6   5  376.25   10.75
  -8   6   5  380.97   10.49
   8   6  -5  380.95   11.33
  -8   6   5  387.33   10.96
  -8   6   5  376.15   10.49
  -8   6   5  401.50   10.94
   6  -6  -5   43.22    4.36
   6  -6  -5   45.57    3.96
   6  -6  -5   40.98    4.47
  -6   6   5   42.91    4.26
  -6   6   5   37.81    4.18
  -6   6   5   44.56    4.25
   6   6  -5   45.05    4.55
  -6   6   5   42.61    4.26
  -6   6   5   46.48    4.07
   4  -6  -5  290.64    8.78
   4  -6  -5  288.95    9.59
   4  -6  -5  290.03    9.67
   4   6  -5  288.67    9.66
  -4   6   5  292.85    9.30
  -4   6   5  288.63    9.12
  -4   6   5  280.91    8.87
  -4   6   5  294.68    8.90
  -4   6   5  293.70    9.16
   2  -6  -5   -2.19    2.83
   2  -6  -5   -4.44    3.14
   2  -6  -5   -1.74    3.01
  -2   6   5   -2.52    2.79
   2   6  -5    7.37    3.02
  -2   6   5   -2.14    2.82
  -2   6   5    2.85    2.95
  -2   6   5    4.35    2.84
  -2   6   5    1.71    2.36
   0  -6  -5  182.52    7.75
   0  -6  -5  186.31    8.19
   0   6  -5  186.54    8.11
   0   6   5  183.31    7.23
   0   6   5  172.97    7.30
   0   6   5  178.22    7.47
   0   6   5  182.24    7.39
   0   6   5  173.86    7.22
  -2  -6  -5  136.28    7.61
  -2  -6  -5  151.59    7.27
   2   6   5  135.18    7.09
   2   6   5  134.71    6.61
  -2   6  -5  154.29    7.75
   2   6   5  144.16    7.12
   2   6   5  137.82    6.57
  -4  -6  -5  185.84    8.82
  -4  -6  -5  197.61    8.38
   4   6   5  186.46    7.92
   4   6   5  202.17    7.97
  -4   6  -5  196.62    9.05
   4   6   5  189.64    8.07
   4   6   5  198.94    7.66
  -6  -6  -5    2.80    4.29
  -6  -6  -5    0.42    3.64
   6   6   5    0.05    3.54
   6   6   5    3.34    3.37
   6   6   5   -4.30    2.92
   6   6   5    5.53    3.18
  -8  -6  -5  180.91    9.89
  -8  -6  -5  184.66    9.25
   8   6   5  180.54    8.06
   8   6   5  190.61    8.36
   8   6   5  192.47    8.70
   8   6   5  166.48    8.37
 -10  -6  -5   13.57    5.57
  10  -6   5   18.66    3.20
 -10  -6  -5   16.04    5.09
  10   6   5   21.25    4.23
  10   6   5   19.07    3.90
  10   6   5   18.46    4.61
 -12  -6  -5  230.06   10.72
  12  -6   5  232.54    8.33
 -12  -6  -5  224.09   11.37
  12   6   5  214.61    9.52
  12   6   5  220.81   10.02
  12   6   5  219.29    9.29
 -14  -6  -5   97.35    7.65
  14  -6   5   88.26    6.16
 -14  -6  -5   78.79    7.65
  14   6   5   77.23    6.89
  14   6   5   82.94    6.46
  14   6   5   87.76    6.94
 -16  -6  -5    6.72    5.00
  16  -6   5    2.88    3.32
 -16  -6  -5    0.03    5.80
  16   6   5    6.47    3.91
  16   6   5    5.70    4.25
  18  -6   5  148.48    8.33
 -18  -6  -5  144.36   10.15
  18   6   5  136.97    9.16
  18   6   5  124.76    8.42
 -20  -6  -5   13.66    5.79
  20  -6   5   14.72    4.42
  20   6   5   11.19    4.72
  20   6   5   16.62    4.72
  22  -6   5   39.99    5.81
 -22  -6  -5   38.24    7.07
  22   6   5   36.83    5.82
  22   6   5   47.28    6.51
 -24  -6  -5   17.57    6.70
  24  -6   5   22.50    5.38
  24   6   5   18.67    5.87
  24   6   5   31.52    5.79
  26   6   5   33.19    6.56
 -26   6  -5   24.99    6.51
  26   6   5   19.89    5.87
  33  -7  -5   53.37    7.78
  33   7  -5   35.00    6.34
  31  -7  -5  101.90    8.94
 -31  -7   5   70.05    8.03
  31   7  -5   83.25    7.98
 -29  -7   5   30.03    6.32
  29  -7  -5   19.71    5.69
  29   7  -5   20.26    5.38
 -27  -7   5   23.66    5.83
  27  -7  -5   32.32    5.70
  27   7  -5   29.87    5.47
 -25  -7   5   12.06    5.00
  25  -7  -5    7.65    4.61
 -25   7   5   12.46    4.97
 -25   7   5   12.82    5.33
  25   7  -5   15.98    4.68
 -23  -7   5    7.96    4.67
  23  -7  -5    7.93    4.30
 -23   7   5   12.34    4.77
 -23   7   5   15.86    5.31
  23   7  -5   12.69    4.38
 -21  -7   5  283.27   11.01
  21  -7  -5  302.82   11.54
 -21   7   5  298.10   11.04
 -21   7   5  283.55   11.46
  21   7  -5  274.76   10.91
  19  -7  -5  170.36    9.02
  19  -7  -5  161.02    8.53
 -19  -7   5  169.00    8.59
 -19   7   5  197.84    9.15
  19   7  -5  160.50    8.54
 -19   7   5  175.91    9.33
 -17  -7   5    1.41    3.78
  17  -7  -5   -0.49    3.94
  17  -7  -5    2.01    3.90
  17   7  -5    3.98    3.57
 -17   7   5    7.17    4.47
 -17   7   5    0.21    4.02
 -15  -7   5    8.90    3.41
  15  -7  -5    2.13    3.91
  15  -7  -5    7.14    3.82
 -15   7   5   11.68    4.07
  15   7  -5    7.66    3.72
 -15   7   5   10.68    4.27
 -15   7   5   14.47    4.29
 -15   7   5    7.46    3.49
  13  -7  -5  327.77   11.33
  13  -7  -5  319.70   10.38
  13  -7  -5  329.35   11.17
 -13   7   5  319.69   10.48
 -13   7   5  342.68   10.42
  13   7  -5  326.98   11.18
 -13   7   5  333.44   11.13
 -13   7   5  349.26   10.76
  11  -7  -5  203.86    8.12
  11  -7  -5  181.27    8.48
  11  -7  -5  194.18    8.89
  11   7  -5  208.81    8.87
 -11   7   5  209.53    8.02
 -11   7   5  208.79    8.28
 -11   7   5  202.55    8.83
 -11   7   5  197.98    8.16
   9  -7  -5   34.24    4.74
   9  -7  -5   33.03    4.21
   9  -7  -5   36.88    4.41
  -9   7   5   38.83    4.46
  -9   7   5   27.83    4.60
   9   7  -5   31.04    4.63
  -9   7   5   35.66    4.32
  -9   7   5   39.84    4.57
   7  -7  -5  166.17    8.12
   7  -7  -5  158.66    7.31
   7  -7  -5  173.88    7.86
  -7   7   5  168.21    7.79
   7   7  -5  166.53    8.01
  -7   7   5  156.74    7.26
  -7   7   5  156.63    7.24
  -7   7   5  171.12    7.62
   5  -7  -5  278.91    9.24
   5  -7  -5  288.19   10.00
   5  -7  -5  280.42   10.02
  -5   7   5  269.40    8.97
  -5   7   5  267.12    9.37
  -5   7   5  292.94    9.66
  -5   7   5  272.11    9.81
   5   7  -5  267.56    9.98
  -5   7   5  272.87    9.12
   3  -7  -5  196.83    8.87
   3  -7  -5  200.14    8.71
   3  -7  -5  192.72    8.06
   3   7  -5  202.77    8.68
  -3   7   5  200.61    8.39
  -3   7   5  207.51    8.73
  -3   7   5  188.35    7.73
  -3   7   5  207.38    8.15
   1  -7  -5  133.40    7.48
   1  -7  -5  129.45    7.81
   1   7  -5  142.24    7.69
  -1   7   5  129.23    7.28
  -1   7   5  139.39    6.80
  -1   7   5  126.88    6.64
  -1  -7  -5  123.96    7.97
  -1  -7  -5  132.78    7.42
   1   7   5  112.22    6.96
  -1   7  -5  116.45    7.45
   1   7   5  114.78    6.56
   1   7   5  114.76    6.81
  -3  -7  -5   19.69    4.22
  -3  -7  -5    6.41    4.35
   3   7   5   12.61    3.39
  -3   7  -5   20.88    4.52
   3   7   5   16.05    3.64
   3   7   5   15.13    3.73
   3   7   5   22.09    4.23
  -5  -7  -5  288.56   11.35
  -5  -7  -5  286.47   10.65
   5   7   5  271.25   10.35
   5   7   5  289.59   10.01
   5   7   5  289.29   10.05
  -5   7  -5  294.16   11.39
   5   7   5  274.07    9.52
  -7  -7  -5  331.83   11.86
  -7  -7  -5  314.45   12.32
   7   7   5  326.94   11.00
   7   7   5  308.11   10.24
   7   7   5  319.59   10.95
   7   7   5  298.38   11.15
  -9  -7  -5  337.14   12.28
  -9  -7  -5  311.38   12.81
   9   7   5  324.54   11.30
   9   7   5  303.01   11.45
   9   7   5  321.30   10.80
  11  -7   5   15.06    3.14
 -11  -7  -5   17.66    5.13
  11   7   5   16.36    4.64
  11   7   5   18.17    4.25
  11   7   5   19.81    4.02
  13  -7   5   42.90    4.47
 -13  -7  -5   51.21    6.35
  13   7   5   42.71    5.74
  13   7   5   48.35    5.63
  13   7   5   40.07    4.97
 -15  -7  -5   17.46    5.55
  15  -7   5   13.03    3.73
  15   7   5   14.94    4.40
  15   7   5   15.00    4.01
  17  -7   5  122.08    7.81
 -17  -7  -5  134.50   10.10
  17   7   5  152.76    9.02
  17   7   5  129.64    8.31
 -19  -7  -5  158.88   11.21
  19  -7   5  167.77    9.17
  19   7   5  176.94    9.46
  19   7   5  177.89   10.16
 -21  -7  -5    4.47    6.10
  21  -7   5    7.33    4.29
  21   7   5    3.46    4.38
  21   7   5    3.92    4.66
 -23  -7  -5  109.20   10.06
  23  -7   5  117.79    9.09
  23   7   5  127.96    9.75
  23   7   5  127.51    9.24
  30  -8  -5   24.24    6.19
 -30  -8   5    9.56    6.12
  30   8  -5   15.36    5.53
 -28  -8   5   -5.60    4.88
  28  -8  -5   -2.92    4.56
  28   8  -5    2.33    4.18
  26  -8  -5   17.32    5.33
 -26  -8   5   10.50    5.33
 -26   8   5   11.32    5.89
  26   8  -5   19.78    4.96
  24  -8  -5    2.48    4.38
 -24  -8   5   -4.23    4.46
  24   8  -5   -1.50    3.62
 -24   8   5   -0.24    5.04
 -22  -8   5   30.44    5.49
  22  -8  -5   46.19    6.01
 -22   8   5   34.28    5.86
  22   8  -5   37.82    5.57
  20  -8  -5   41.79    5.76
 -20  -8   5   50.78    5.73
 -20   8   5   50.61    6.25
 -20   8   5   63.28    6.04
  20   8  -5   46.90    5.93
  18  -8  -5  101.86    7.72
 -18  -8   5   97.19    7.20
 -18   8   5  115.92    7.31
 -18   8   5  114.99    8.32
  18   8  -5  113.66    7.82
 -18   8   5  113.12    7.65
  16  -8  -5  159.83    8.75
 -16  -8   5  180.94    8.20
 -16   8   5  177.25    8.58
 -16   8   5  187.44    9.41
 -16   8   5  182.27    8.46
  16   8  -5  174.46    9.08
 -14  -8   5   73.82    5.94
  14  -8  -5   74.04    6.43
 -14   8   5   70.23    6.26
  14   8  -5   85.66    6.91
 -14   8   5   82.04    6.28
 -14   8   5   69.61    5.85
  12  -8  -5    3.47    3.80
  12  -8  -5    3.73    4.02
 -12   8   5    5.54    3.67
 -12   8   5    6.92    3.90
  12   8  -5    4.26    3.84
 -12   8   5    2.44    4.32
  10  -8  -5    1.27    3.84
  10  -8  -5    6.91    3.85
 -10   8   5    1.86    3.59
 -10   8   5    3.80    4.26
 -10   8   5    3.10    3.51
  10   8  -5    8.73    3.66
   8  -8  -5  187.80    8.39
   8  -8  -5  216.28    9.35
  -8   8   5  202.11    9.11
  -8   8   5  214.98    8.36
   8   8  -5  176.60    8.98
  -8   8   5  191.95    8.65
   6  -8  -5  170.32    8.62
   6  -8  -5  181.92    8.31
  -6   8   5  192.45    7.98
   6   8  -5  198.81    9.25
  -6   8   5  165.83    8.53
  -6   8   5  176.08    8.59
   4  -8  -5  196.35    9.02
  -4   8   5  200.83    8.08
   4   8  -5  183.48    9.03
  -4   8   5  183.11    8.81
  -4   8   5  181.62    8.91
   2  -8  -5   58.29    5.37
   2  -8  -5   56.39    5.59
   2   8  -5   63.65    6.17
  -2   8   5   58.13    5.54
  -2   8   5   61.36    6.09
  -2   8   5   72.89    5.57
   0  -8  -5  253.49   10.02
   0   8   5  248.78    9.70
   0   8   5  234.48    9.06
   0   8  -5  250.97   10.49
   0   8   5  241.69    8.64
  -2  -8  -5  230.36    9.77
   2   8   5  212.44    8.55
  -2   8  -5  150.30    9.14
   2   8   5  209.54    9.34
   2   8   5  221.15    8.54
  -4  -8  -5   51.62    5.87
   4   8   5   36.76    4.74
   4   8   5   39.67    4.82
   4   8   5   52.08    5.51
  -4   8  -5   45.35    5.87
  -6  -8  -5  138.14    8.56
   6   8   5  115.67    8.42
   6   8   5  120.14    7.33
  -6   8  -5  122.30    8.84
   6   8   5  139.54    7.49
  -8  -8  -5    5.02    4.38
   8   8   5    5.23    3.63
   8   8   5   11.51    3.69
   8   8   5    5.45    4.31
 -10  -8  -5   42.93    6.05
  10   8   5   26.41    5.32
  10   8   5   33.13    4.67
  10   8   5   30.67    4.49
  12  -8   5   87.58    5.82
 -12  -8  -5   85.03    7.67
  12   8   5   75.55    6.18
  12   8   5   92.01    7.19
  12   8   5   75.14    6.91
  14  -8   5   66.02    5.45
 -14  -8  -5   75.37    7.64
  14   8   5   65.41    5.84
  14   8   5   71.68    6.59
 -16  -8  -5    6.21    5.46
  16  -8   5   15.53    3.89
  16   8   5   20.59    4.52
  16   8   5   20.18    4.74
 -18  -8  -5   49.46    7.42
  18  -8   5   42.83    5.26
  18   8   5   47.37    6.32
  18   8   5   37.48    5.41
 -20  -8  -5   42.82    7.62
  20  -8   5   41.09    5.66
  20   8   5   27.15    5.28
  22  -8   5   27.20    5.65
 -22  -8  -5   30.36    7.50
  22   8   5   39.18    5.75
  29  -9  -5   22.97    6.21
 -29  -9   5   15.86    6.04
  29   9  -5   19.64    5.53
 -27  -9   5   11.06    5.32
  27  -9  -5    3.04    4.98
  27   9  -5    4.35    4.62
 -25  -9   5   20.68    5.67
  25  -9  -5   24.01    5.48
 -25   9   5   22.33    6.25
  25   9  -5   30.35    5.76
 -23  -9   5   -5.39    4.28
  23  -9  -5    3.40    4.27
 -23   9   5   -0.13    5.39
  23   9  -5   -0.24    4.07
  21  -9  -5    8.52    4.56
 -21  -9   5   15.37    4.78
  21   9  -5    8.39    4.48
 -21   9   5   19.62    5.87
  19  -9  -5   20.09    4.81
 -19  -9   5   17.12    4.67
 -19   9   5   25.09    5.74
 -19   9   5   15.35    4.92
  19   9  -5   13.71    4.60
  17  -9  -5  119.14    8.18
 -17  -9   5  124.37    7.59
  17   9  -5  129.71    8.50
 -17   9   5  130.09    9.08
 -17   9   5  120.64    7.92
 -15  -9   5  296.06    9.80
  15  -9  -5  312.85   11.81
 -15   9   5  308.16   11.54
  15   9  -5  272.03   11.59
 -15   9   5  277.69   10.84
  13  -9  -5  115.83    8.14
 -13   9   5  141.09    8.63
  13   9  -5  132.09    8.58
 -13   9   5  130.19    8.04
 -13   9   5  134.12    8.10
  11  -9  -5  196.86    9.59
 -11   9   5  191.60    8.38
 -11   9   5  192.41    9.09
 -11   9   5  191.26    9.58
  11   9  -5  182.82    9.74
   9  -9  -5  103.13    7.70
  -9   9   5  107.76    7.58
   9   9  -5   98.95    7.98
  -9   9   5   94.50    6.99
  -9   9   5   88.35    6.55
   7  -9  -5  508.13   15.12
   7   9  -5  517.96   16.01
  -7   9   5  523.77   13.81
  -7   9   5  527.32   15.29
  -7   9   5  538.27   15.00
   5  -9  -5    0.32    4.46
  -5   9   5    7.41    3.77
  -5   9   5    5.84    4.17
   5   9  -5    8.31    4.01
   3  -9  -5   84.41    6.99
   3   9  -5   94.76    7.69
  -3   9   5   99.23    6.54
  -3   9   5   85.94    6.74
  -3   9   5   91.30    7.53
   1  -9  -5   21.05    4.72
  -1   9   5   26.32    5.31
  -1   9   5   14.69    4.61
  -1   9   5   23.08    3.85
   1   9  -5   14.50    4.61
  -1  -9  -5   93.16    7.13
   1   9   5  108.01    6.68
   1   9   5   97.24    7.89
   1   9   5   93.70    7.06
  -1   9  -5  100.28    8.18
  -3  -9  -5  112.93    8.09
   3   9   5  108.24    8.11
   3   9   5  119.31    6.88
  -3   9  -5  119.42    8.68
  -5  -9  -5  190.91    9.91
  -5   9  -5  194.92   10.52
   5   9   5  208.15    9.64
   5   9   5  224.73    9.28
  -7  -9  -5   71.85    6.71
   7   9   5   84.17    6.50
  -7   9  -5   68.04    7.41
   7   9   5   78.85    6.88
  -9  -9  -5    3.65    4.47
   9   9   5    3.13    3.49
   9   9   5   -4.47    4.40
 -11  -9  -5   23.22    5.40
  11   9   5   14.65    4.07
  11   9   5   28.47    5.43
  11   9   5   28.42    4.43
  13  -9   5   26.16    4.02
 -13  -9  -5   21.71    5.68
  13   9   5   22.06    4.47
  13   9   5   13.23    5.54
  15  -9   5   56.48    5.59
 -15  -9  -5   52.13    7.22
  15   9   5   54.96    5.68
 -17  -9  -5  220.69   12.60
  17  -9   5  216.15    9.65
  17   9   5  202.73    9.83
 -19  -9  -5  141.82   11.46
  19  -9   5  128.51    8.61
  19   9   5  127.14    8.68
  21  -9   5   36.80    5.90
 -21  -9  -5   49.61    8.19
  21   9   5   32.01    5.55
 -26 -10   5    3.39    5.23
  26 -10  -5    8.54    5.37
  26  10  -5   12.97    5.20
 -24 -10   5    4.88    5.10
  24 -10  -5    7.21    4.80
 -24  10   5    2.12    5.62
  24  10  -5    8.37    4.61
  22 -10  -5   10.20    4.87
 -22 -10   5    7.43    4.77
  22  10  -5   -1.94    4.36
 -22  10   5    7.79    5.89
 -20 -10   5    5.30    4.53
  20 -10  -5   17.31    4.90
 -20  10   5   14.04    5.93
 -20  10   5    6.50    5.16
  20  10  -5   10.33    4.82
  18 -10  -5   61.38    6.71
 -18 -10   5   47.89    5.72
 -18  10   5   57.37    6.78
  18  10  -5   59.64    7.14
 -18  10   5   49.16    6.44
 -16 -10   5  181.92    8.72
  16 -10  -5  212.97   10.20
  16  10  -5  192.32   10.43
 -16  10   5  204.41    9.93
 -16  10   5  206.56   10.61
  14 -10  -5   14.42    4.51
 -14  10   5   17.65    5.24
 -14  10   5   17.08    4.83
  14  10  -5   16.97    4.80
  12 -10  -5   41.45    5.65
  12  10  -5   45.88    6.30
 -12  10   5   31.39    5.61
 -12  10   5   38.25    5.51
  10 -10  -5   38.81    5.45
 -10  10   5   34.87    5.31
 -10  10   5   21.92    5.37
  10  10  -5   30.11    5.54
   8 -10  -5   18.28    4.48
  -8  10   5    5.69    4.52
   8  10  -5    6.36    4.02
  -8  10   5    9.10    4.31
   6 -10  -5    1.86    4.05
  -6  10   5    1.67    3.89
   6  10  -5    4.10    3.76
  -6  10   5   -1.44    4.15
   4 -10  -5  101.81    7.90
   4  10  -5   75.92    7.49
  -4  10   5   90.85    6.93
  -4  10   5   76.47    6.99
   2 -10  -5  210.09   10.12
  -2  10   5  202.43    9.92
   2  10  -5  205.23   10.35
  -2  10   5  212.87   10.60
   0 -10  -5  197.56    9.60
   0  10   5  188.83   10.38
   0  10   5  194.70    9.87
   0  10  -5  193.12   10.37
  -2 -10  -5   59.07    6.27
   2  10   5   54.75    6.94
   2  10   5   73.95    6.75
  -2  10  -5   66.60    7.18
  -4 -10  -5   75.40    7.10
   4  10   5   75.04    6.91
  -4  10  -5   66.84    7.33
   4  10   5   83.58    7.98
  -6 -10  -5   13.53    4.83
   6  10   5   15.05    4.88
  -6  10  -5   13.58    5.25
  -8 -10  -5    1.15    4.54
   8  10   5   -0.65    4.78
  -8  10  -5    7.88    5.02
 -10 -10  -5    3.93    4.89
  10  10   5    1.45    4.84
 -12 -10  -5   11.35    5.23
  12  10   5   12.60    5.58
 -14 -10  -5   16.25    5.91
  14 -10   5    6.62    3.58
  16 -10   5   15.35    4.17
 -16 -10  -5   17.73    6.07
 -18 -10  -5   21.47    6.95
  18 -10   5   17.99    4.84
  25  11  -5    9.76    5.12
 -23 -11   5   51.64    6.65
  23 -11  -5   53.76    7.20
 -23  11   5   35.37    7.27
  23  11  -5   46.46    7.35
  21 -11  -5    8.84    5.17
 -21 -11   5   18.60    5.06
 -21  11   5   14.70    5.72
  21  11  -5   11.70    5.12
 -21  11   5    9.41    5.62
  19 -11  -5  -10.14    4.00
 -19 -11   5    2.81    4.09
  19  11  -5   -3.95    3.81
 -19  11   5   -6.94    5.11
 -19  11   5   -2.89    4.69
 -17 -11   5   19.46    4.57
  17 -11  -5   17.98    5.14
 -17  11   5   17.44    5.49
  17  11  -5   20.45    5.48
 -17  11   5   11.77    5.52
 -15 -11   5   18.06    4.33
  15 -11  -5   30.32    5.58
 -15  11   5   36.27    6.02
 -15  11   5   30.30    6.16
  13 -11  -5  108.59    8.59
  13  11  -5   82.21    8.29
 -13  11   5   86.26    7.88
 -13  11   5   76.51    7.43
  11 -11  -5   19.00    5.13
 -11  11   5   13.24    4.91
  11  11  -5   24.89    5.43
 -11  11   5   19.49    5.62
   9 -11  -5   35.72    5.67
   9  11  -5   44.19    6.19
  -9  11   5   42.07    6.24
  -9  11   5   36.66    5.86
   7 -11  -5   99.41    7.94
  -7  11   5   84.65    7.62
  -7  11   5   95.11    7.57
   7  11  -5   92.45    8.70
   5 -11  -5   76.09    7.13
   5  11  -5   82.51    8.01
  -5  11   5   70.75    7.38
   3 -11  -5   92.25    7.64
  -3  11   5   93.89    7.51
  -3  11   5   89.36    8.01
   3  11  -5  106.58    8.59
   1 -11  -5    7.81    4.69
  -1  11   5   17.03    5.35
   1  11  -5    5.96    4.37
  -1  11   5    2.70    4.43
  -1 -11  -5   63.46    6.62
  -1  11  -5   62.11    7.46
   1  11   5   61.58    7.27
  -3 -11  -5   -4.04    4.19
   3  11   5    3.06    4.59
  -3  11  -5   -4.64    4.13
   3  11   5   -5.00    4.45
  -5 -11  -5  133.41    9.45
   5  11   5  134.26    9.72
   5  11   5  132.59   10.07
  -5  11  -5  130.78    9.95
  -7 -11  -5   47.81    6.53
   7  11   5   37.28    6.66
  -7  11  -5   43.28    6.99
   7  11   5   61.06    6.93
  -9 -11  -5   51.40    6.98
   9  11   5   67.40    7.38
 -11 -11  -5   -3.62    4.75
  11  11   5    1.13    5.35
 -13 -11  -5    2.90    5.48
  13 -11   5   11.76    3.61
  15 -11   5   23.97    4.47
 -15 -11  -5   18.18    6.27
 -20 -12   5   13.05    5.15
  20 -12  -5   19.81    5.86
  20  12  -5   19.40    5.99
 -20  12   5   17.74    6.20
 -20  12   5   11.86    6.25
 -18 -12   5   15.30    4.80
  18 -12  -5    9.88    5.14
 -18  12   5   18.15    6.05
  18  12  -5   10.51    5.18
 -18  12   5   14.39    6.13
  16 -12  -5   -2.47    4.42
 -16 -12   5    3.47    3.99
 -16  12   5    0.07    5.34
 -16  12   5    1.88    4.96
  16  12  -5    1.29    4.53
  14 -12  -5    3.67    4.73
  14  12  -5   -0.52    4.05
 -14  12   5    5.13    4.85
  12 -12  -5    4.27    4.49
 -12  12   5   -0.36    5.27
 -12  12   5    3.64    4.81
  12  12  -5    6.27    4.78
  10 -12  -5   37.97    6.16
 -10  12   5   32.05    6.19
  10  12  -5   20.11    5.49
   8 -12  -5    5.93    4.56
  -8  12   5   -1.92    5.08
   8  12  -5    7.33    4.71
  -8  12   5   13.16    5.04
   6 -12  -5    4.28    4.49
  -6  12   5    4.09    4.65
  -6  12   5   -1.85    5.13
   6  12  -5    3.80    4.42
   4 -12  -5    1.02    4.52
  -4  12   5    4.31    4.45
   4  12  -5    0.87    4.33
  -4  12   5   -1.66    5.01
   2 -12  -5   -0.79    4.51
   2  12  -5    2.48    4.14
  -2  12   5    2.69    4.54
  -2  12   5   -3.13    4.94
   0 -12  -5   43.26    6.25
   0  12   5   55.34    6.92
   0  12  -5   61.18    7.69
   0  12   5   61.01    7.29
  -2 -12  -5    4.88    4.72
   2  12   5    4.48    5.13
  -2  12  -5    5.80    5.01
   2  12   5   -2.57    4.65
  -4 -12  -5   39.32    6.39
   4  12   5   45.47    6.68
   4  12   5   40.82    6.81
  -4  12  -5   50.89    7.38
  -6 -12  -5    4.91    4.63
   6  12   5    2.78    5.23
   6  12   5   11.62    5.45
  -6  12  -5    9.00    5.41
  -8 -12  -5   -8.87    4.62
   8  12   5    3.73    5.49
   8  12   5   -6.48    5.49
  -8  12  -5    2.85    5.29
 -10 -12  -5   21.54    6.11
  10  12   5   16.32    5.85
  10  12   5   15.98    6.08
 -12 -12  -5   -5.24    5.30
  12  12   5   -2.37    5.39
  17  13  -5   31.36    6.95
 -17  13   5   35.78    7.20
  15 -13  -5    1.10    5.10
 -15 -13   5   -1.75    4.13
  15  13  -5    0.89    5.37
 -15  13   5    3.72    5.42
  13 -13  -5   10.39    5.31
  13  13  -5   18.52    6.24
 -13  13   5    6.06    5.51
  11 -13  -5   10.57    5.35
 -11  13   5   13.08    6.00
  11  13  -5   15.20    5.43
 -11  13   5   14.52    5.61
   9 -13  -5   24.67    5.75
  -9  13   5   15.23    5.88
   9  13  -5   13.15    5.40
   7 -13  -5   30.67    6.06
   7  13  -5   35.20    6.62
  -7  13   5   24.80    6.21
   5 -13  -5   63.03    7.24
   5  13  -5   66.34    8.45
  -5  13   5   59.38    7.85
   3 -13  -5   10.61    5.43
   3  13  -5    6.22    4.82
  -3  13   5   18.83    5.85
   1 -13  -5    8.66    5.39
  -1  13   5   11.99    5.37
   1  13  -5   15.50    5.77
  -1 -13  -5   -3.53    4.79
  -1  13  -5   -3.08    4.82
   1  13   5    1.50    5.20
  -3 -13  -5   11.03    5.53
  -3  13  -5    9.54    5.91
   3  13   5    8.39    5.70
   3  13   5   11.86    5.66
  -5 -13  -5    4.42    5.21
  -5  13  -5   -8.53    4.70
   5  13   5    3.71    5.32
   5  13   5   -6.26    4.65
  -7 -13  -5   10.16    5.94
  -7  13  -5   13.64    6.43
   7  13   5   10.88    6.06
   7  13   5    6.48    5.71
   9  13   5   -2.34    5.14
   8  14  -5    5.90    5.38
  -8  14   5   11.46    6.19
   6 -14  -5   -0.84    5.24
  -6  14   5    4.88    5.83
  -6  14   5    8.98    5.81
   6  14  -5   -2.42    4.99
   4 -14  -5   -3.08    5.05
  -4  14   5   14.45    6.33
   4  14  -5    6.18    5.24
   2 -14  -5    3.55    5.53
  -2  14   5   13.79    6.21
   2  14  -5   10.76    5.79
   0  14  -5   -0.05    5.26
   0  14   5    0.44    5.32
 -36   0   6   13.78    6.66
  36   0  -6   13.20    5.23
 -34   0   6   39.81    7.46
  34   0  -6   48.47    6.45
 -32   0   6   35.22    6.74
  32   0  -6   39.57    5.92
  30   0  -6  127.27    8.35
  30   0  -6  132.73    8.78
 -30   0   6  133.51    9.91
 -28   0   6   62.08    9.27
  28   0  -6   61.13    5.77
 -28   0   6   49.96    6.59
  28   0  -6   48.75    5.80
 -26   0   6  328.53   12.49
 -26   0   6  312.81   12.78
  26   0  -6  321.17   11.24
  26   0  -6  292.77   11.37
  24   0  -6  126.00    7.78
 -24   0   6  130.74    8.73
 -24   0   6  134.24    8.91
  24   0  -6  122.12    7.28
 -22   0   6   85.97    6.72
  22   0  -6   92.31    6.77
 -22   0   6   72.12    6.26
 -22   0   6   84.28    6.61
  22   0  -6   86.47    6.20
  22   0  -6   84.84    5.98
  20   0  -6  193.22    7.55
 -20   0   6  185.79    8.63
 -20   0   6  197.85    8.86
  20   0  -6  197.42    7.91
  20   0  -6  185.50    7.49
 -20   0   6  188.11    8.42
  18   0  -6   95.32    5.22
 -18   0   6   84.99    6.36
 -18   0   6   90.44    6.25
 -18   0   6   97.94    6.43
  18   0  -6  105.73    5.87
  18   0  -6   95.93    5.37
 -16   0   6    7.58    3.09
  16   0  -6    4.82    2.28
  16   0  -6    4.03    2.42
  16   0  -6    4.38    2.67
 -16   0   6    0.68    2.87
 -16   0   6    6.13    2.85
 -14   0   6 1080.06   22.19
  14   0  -6 1104.18   21.78
  14   0  -6 1122.38   21.94
 -14   0   6 1090.27   22.59
 -14   0   6 1106.13   22.23
  14   0  -6 1116.11   21.98
  12   0  -6  188.49    6.02
  12   0  -6  180.28    5.80
 -12   0   6  174.99    6.44
 -12   0   6  178.70    6.94
 -12   0   6  180.85    6.44
  10   0  -6 1655.87   30.49
 -10   0   6 1674.98   31.43
  10   0  -6 1666.60   30.52
 -10   0   6 1589.11   30.59
  -8   0   6  227.41    6.75
   8   0  -6  220.33    6.01
  -8   0   6  218.03    6.48
  -6   0   6   43.28    3.35
  -6   0   6   45.54    3.53
   6   0  -6   43.35    2.88
  -4   0   6  149.01    5.02
   4   0  -6  155.15    4.78
  -4   0   6  148.77    5.21
   2   0  -6  204.03    5.90
  -2   0   6  220.82    6.51
  -2   0   6  219.82    6.20
   0   0   6 1642.66   30.24
   0   0   6 1637.38   30.62
   0   0  -6 1611.45   30.10
   2   0   6   40.87    3.38
  -2   0  -6   48.86    3.58
   4   0   6  500.50   11.98
  -4   0  -6  496.93   11.59
   6   0   6  319.92    9.12
  -6   0  -6  301.99    8.67
  -8   0  -6   83.06    5.31
   8   0   6   76.26    5.23
  -8   0  -6   69.40    4.98
 -10   0  -6  121.96    7.10
  10   0   6  122.00    6.54
 -10   0  -6  116.76    6.60
 -12   0  -6  267.38    9.88
 -12   0  -6  232.68    9.21
  12   0   6  227.17    9.15
 -14   0  -6   69.27    6.44
 -14   0  -6   86.43    6.39
  14   0   6   84.14    6.73
 -16   0  -6  299.45   11.00
 -16   0  -6  279.20   11.49
  16   0   6  284.67   10.97
  18   0   6   14.79    4.20
 -18   0  -6   12.29    5.00
 -18   0  -6   15.63    4.73
  20   0   6  100.42    8.16
 -20   0  -6  116.92    8.58
 -20   0  -6  103.72    8.06
  22   0   6    5.98    4.40
  24   0   6   16.82    5.31
  26   0   6  180.63   11.06
  37  -1  -6  141.25   10.48
 -37  -1   6  114.29   10.36
 -37   1   6  166.15   12.45
 -35  -1   6   87.51    9.31
  35  -1  -6   70.29    7.63
  35  -1  -6   75.09    7.69
  35   1  -6   76.78    7.46
 -35   1   6   77.43    8.64
  33  -1  -6   18.09    5.06
  33  -1  -6   21.87    5.59
 -33  -1   6   17.53    6.25
  33   1  -6   13.94    4.62
 -33   1   6   16.54    6.34
  31  -1  -6   15.62    5.08
 -31  -1   6    3.16    5.22
  31  -1  -6    6.26    4.52
 -31   1   6    9.55    6.51
 -31   1   6   16.81    5.69
  31   1  -6   18.92    4.61
 -29  -1   6  173.03   10.23
  29  -1  -6  154.10    9.24
  29  -1  -6  158.75    8.97
  29   1  -6  161.58    8.52
 -29   1   6  152.98   11.12
 -29   1   6  169.36   10.34
 -27  -1   6  772.08   20.42
  27  -1  -6  735.22   19.34
  27  -1  -6  771.08   19.72
 -27   1   6  757.09   20.25
  27   1  -6  740.57   18.78
 -27   1   6  762.86   20.68
 -25  -1   6 1157.92   26.75
  25  -1  -6 1182.00   26.19
  25  -1  -6 1123.48   25.89
 -25  -1   6 1199.07   29.14
 -25   1   6 1178.51   26.96
  25   1  -6 1162.04   25.46
 -25   1   6 1194.00   26.87
  25   1  -6 1166.65   25.48
 -23  -1   6  558.78   15.94
 -23  -1   6  579.33   15.83
  23  -1  -6  568.35   15.26
  23  -1  -6  573.29   15.49
 -23  -1   6  582.15   16.04
 -23   1   6  560.51   16.20
 -23   1   6  583.90   16.29
  23   1  -6  580.64   14.54
 -23   1   6  574.08   15.87
  23   1  -6  584.50   14.82
  23   1  -6  546.76   14.56
  21  -1  -6  308.13    9.45
 -21  -1   6  320.97   10.81
  21  -1  -6  303.59   10.02
 -21  -1   6  306.69   10.92
  21  -1  -6  309.49   10.49
 -21  -1   6  317.75   11.00
 -21   1   6  307.95   11.01
 -21   1   6  313.67   11.09
 -21   1   6  301.83    9.91
  21   1  -6  313.19    9.66
  21   1  -6  302.63    9.49
 -21   1   6  302.17   11.24
  19  -1  -6  332.16   10.32
 -19  -1   6  337.84   10.77
 -19  -1   6  341.47   10.67
  19  -1  -6  339.02   10.24
 -19  -1   6  355.05   10.80
 -19   1   6  329.10   11.24
 -19   1   6  316.75   10.80
 -19   1   6  361.05   11.29
 -19   1   6  333.56   10.90
  19   1  -6  344.80    9.66
  17  -1  -6  749.77   16.75
 -17  -1   6  744.35   16.68
 -17  -1   6  733.12   16.78
 -17  -1   6  754.24   17.12
  17  -1  -6  739.26   16.68
  17  -1  -6  714.20   15.66
 -17   1   6  753.88   17.38
  17   1  -6  769.42   16.31
  17   1  -6  739.07   20.25
 -17   1   6  757.62   17.09
 -17   1   6  728.91   17.06
 -15  -1   6  687.61   15.17
  15  -1  -6  699.05   15.30
  15  -1  -6  681.08   14.45
  15  -1  -6  680.29   15.38
 -15  -1   6  670.34   15.49
  15  -1  -6  673.56   15.28
 -15   1   6  672.07   15.57
  15   1  -6  684.35   14.67
  15   1  -6  690.01   14.97
 -15   1   6  675.47   15.82
 -15   1   6  702.81   15.58
  13  -1  -6  753.04   16.65
 -13  -1   6  806.34   16.64
  13  -1  -6  799.69   16.88
 -13  -1   6  780.18   16.93
  13  -1  -6  818.05   16.99
  13  -1  -6  808.72   16.13
 -13   1   6  807.49   17.17
 -13   1   6  806.42   17.25
  13   1  -6  805.72   16.25
 -13   1   6  791.65   17.45
  11  -1  -6   15.99    2.79
 -11  -1   6   15.56    2.58
  11  -1  -6   17.59    2.51
  11  -1  -6   19.74    2.69
 -11  -1   6   19.58    2.58
 -11   1   6   16.94    2.84
  11   1  -6   20.27    2.21
 -11   1   6   15.03    2.73
 -11   1   6   16.36    2.81
  -9  -1   6  332.78    8.49
   9  -1  -6  337.51    8.50
   9  -1  -6  331.67    8.59
  -9   1   6  344.25    9.20
  -9   1   6  324.28    8.79
  -9   1   6  323.30    8.58
   9   1  -6  324.79    7.47
   7  -1  -6   20.90    2.78
   7  -1  -6   23.65    2.53
  -7  -1   6   23.91    2.47
  -7   1   6   20.74    2.68
  -7   1   6   17.51    2.72
  -7   1   6   19.28    2.69
  -5  -1   6  456.09   10.05
   5  -1  -6  454.26   10.43
   5  -1  -6  464.82   10.77
   5  -1  -6  457.71   10.46
  -5   1   6  449.84   10.46
  -5   1   6  443.73   10.83
   3  -1  -6  340.05    8.67
  -3  -1   6  336.60    8.18
   3  -1  -6  341.41    8.85
   3  -1  -6  340.22   11.31
   3  -1  -6  335.88    8.56
  -3   1   6  341.16    8.90
  -3   1   6  348.00    8.66
   1  -1  -6    4.08    2.33
   1  -1  -6    4.60    2.02
  -1  -1   6    4.93    1.79
   1  -1  -6    2.54    2.26
  -1   1   6    6.51    2.09
  -1   1   6    4.30    2.13
  -1  -1  -6 1499.70   28.38
  -1  -1  -6 1449.35   28.23
   1  -1   6 1481.87   27.84
  -1  -1  -6 1503.44   28.39
   1   1   6 1462.40   28.20
   1   1   6 1501.37   28.71
   3  -1   6  114.82    4.89
  -3  -1  -6  116.36    5.72
  -3  -1  -6  127.35    5.54
  -3  -1  -6  117.72    5.78
   3   1   6  128.28    5.54
  -3   1  -6  119.68    4.30
  -5  -1  -6  390.71   10.47
   5  -1   6  379.80    9.87
  -5  -1  -6  375.91   10.43
  -5  -1  -6  371.04   10.08
   5   1   6  386.67   10.43
  -5   1  -6  383.77    9.18
  -7  -1  -6  223.39    8.20
  -7  -1  -6  209.55    7.94
  -7  -1  -6  214.57    7.77
   7  -1   6  210.20    7.34
   7   1   6  226.67    7.88
  -7   1  -6  207.45    6.82
   9  -1   6  164.73    6.99
  -9  -1  -6  162.86    7.10
  -9  -1  -6  159.99    7.48
  -9  -1  -6  168.86    7.70
  -9   1  -6  167.75    6.64
   9   1   6  173.47    7.40
 -11  -1  -6  425.56   12.43
 -11  -1  -6  416.23   12.66
  11  -1   6  425.04   11.99
 -11  -1  -6  402.62   12.44
 -11  -1  -6  409.82   11.70
 -11   1  -6  424.09   11.40
  11   1   6  408.96   12.27
 -11   1  -6  409.97   12.08
  13  -1   6 1504.53   31.84
 -13  -1  -6 1577.92   32.16
 -13  -1  -6 1529.13   32.06
 -13  -1  -6 1535.00   31.91
 -13   1  -6 1536.96   31.62
  13   1   6 1577.02   32.49
 -13   1  -6 1538.62   31.06
  15  -1   6  256.34   10.20
 -15  -1  -6  279.44   11.66
 -15  -1  -6  288.32   11.35
 -15  -1  -6  257.24   10.69
  15   1   6  261.52   10.69
 -15   1  -6  266.41   10.04
 -15   1  -6  252.70   10.72
  17  -1   6   -3.15    3.33
 -17  -1  -6    3.43    4.48
 -17  -1  -6    1.52    4.85
 -17  -1  -6    7.21    4.49
  17   1   6   -3.81    3.74
 -17   1  -6    0.95    3.75
 -17   1  -6    6.61    4.45
  19  -1   6   77.40    6.79
 -19  -1  -6   77.15    7.11
 -19  -1  -6   72.85    7.07
 -19  -1  -6   67.37    7.27
 -19   1  -6   82.04    7.10
 -19   1  -6   86.35    7.66
  19   1   6   77.94    6.86
  21  -1   6   46.60    6.12
 -21  -1  -6   53.12    6.72
 -21  -1  -6   44.03    6.77
 -21   1  -6   61.36    6.85
  21   1   6   53.98    6.54
 -23  -1  -6  149.15   10.48
  23  -1   6  160.81    9.94
 -23  -1  -6  141.42   10.99
 -23   1  -6  128.50   10.08
  23   1   6  144.26    9.89
  25  -1   6  101.40    8.76
  25   1   6  100.82    8.98
  27  -1   6   13.68    5.76
  27   1   6    8.89    5.52
 -36  -2   6    7.61    6.76
  36  -2  -6    1.89    9.38
  36  -2  -6   -3.77    4.77
 -36   2   6   -6.70   10.27
 -36   2   6   -0.17    6.08
  34  -2  -6   70.85    7.30
  34  -2  -6   51.10    7.12
 -34  -2   6   78.73    8.60
 -34   2   6   63.50    8.70
 -34   2   6   61.03    7.94
 -32  -2   6   20.98    6.52
  32  -2  -6   28.35    5.61
  32  -2  -6   16.55    5.69
  32   2  -6   25.19    4.91
 -32   2   6   11.25    7.00
 -32   2   6   21.43    6.30
  30  -2  -6   36.41    5.33
  30  -2  -6   39.42    5.65
 -30  -2   6   30.24    6.20
  30  -2  -6   33.41    6.10
  30   2  -6   38.38    5.08
 -30   2   6   28.72    7.08
 -30   2   6   27.87    6.42
  28  -2  -6    4.97    4.11
  28  -2  -6    4.79    4.05
 -28  -2   6    3.95    4.63
  28  -2  -6    3.75    4.51
 -28   2   6    4.88    5.20
  28   2  -6    3.77    3.54
 -28   2   6    0.09    5.60
  26  -2  -6  118.59    7.53
  26  -2  -6  108.62    7.73
 -26  -2   6  110.46    8.77
  26  -2  -6  116.70    7.86
  26   2  -6  105.50    6.83
 -26   2   6  101.07    8.34
 -26   2   6  115.25    9.10
  24  -2  -6  211.22    9.19
  24  -2  -6  198.28    8.76
  24  -2  -6  182.90    9.52
 -24  -2   6  215.72   10.22
 -24   2   6  204.95   10.13
 -24   2   6  186.60   10.04
 -24   2   6  199.84   10.96
 -22  -2   6   19.43    5.20
  22  -2  -6   23.93    4.09
  22  -2  -6    7.04    4.04
 -22  -2   6   17.16    4.64
  22  -2  -6   25.56    4.37
 -22  -2   6   27.16    5.16
 -22   2   6   16.24    4.11
 -22   2   6   16.00    4.85
 -22   2   6   12.54    5.34
 -22   2   6   12.17    4.87
  22   2  -6   21.26    3.61
 -20  -2   6    6.67    4.17
 -20  -2   6    6.38    3.71
  20  -2  -6   11.85    3.86
  20  -2  -6    2.65    3.29
 -20  -2   6    5.44    3.90
  20  -2  -6    0.94    2.90
  20   2  -6    3.78    2.55
 -20   2   6    1.12    4.33
 -20   2   6    0.23    4.09
 -20   2   6    2.79    3.52
  20   2  -6    3.56    3.04
 -20   2   6    0.77    3.82
  18  -2  -6  160.87    7.40
  18  -2  -6  159.29    6.84
 -18  -2   6  157.93    7.18
 -18  -2   6  162.61    7.36
  18  -2  -6  156.73    6.64
 -18   2   6  153.16    7.16
 -18   2   6  155.36    7.82
 -18   2   6  145.40    7.66
 -18   2   6  155.19    7.71
  18   2  -6  153.11    5.92
  16  -2  -6    0.82    2.34
 -16  -2   6   -0.34    2.79
  16  -2  -6   -2.92    2.57
  16  -2  -6   -2.34    2.80
 -16  -2   6    2.01    2.70
 -16   2   6    0.24    2.95
 -16   2   6   -1.67    3.25
 -16   2   6    2.64    2.70
 -16   2   6    1.90    3.25
  16   2  -6    2.70    1.97
 -14  -2   6   -2.01    2.33
  14  -2  -6    4.12    2.29
  14  -2  -6    4.08    2.67
  14  -2  -6    3.95    2.50
 -14  -2   6    1.68    2.36
 -14   2   6    2.96    2.58
  14   2  -6    2.57    1.70
 -14   2   6   -1.65    2.74
 -14   2   6   -0.99    2.77
 -14   2   6    2.46    2.72
  12  -2  -6   40.24    3.72
  12  -2  -6   32.91    3.27
  12  -2  -6   27.06    2.98
 -12  -2   6   29.16    3.05
 -12   2   6   21.05    3.31
 -12   2   6   36.18    3.69
 -12   2   6   32.34    3.35
 -12   2   6   20.46    3.34
  10  -2  -6  137.74    5.79
 -10  -2   6  128.96    4.85
  10  -2  -6  135.59    5.49
  10  -2  -6  135.07    5.18
 -10   2   6  133.99    5.45
 -10   2   6  128.61    5.72
 -10   2   6  136.32    5.81
 -10   2   6  132.31    5.78
   8  -2  -6  544.51   11.66
   8  -2  -6  542.66   12.42
  -8  -2   6  533.25   11.64
   8  -2  -6  531.83   12.36
   8   2  -6  552.71   11.86
  -8   2   6  537.30   12.52
  -8   2   6  543.04   12.52
  -8   2   6  557.58   13.09
  -8   2   6  515.27   12.00
   6  -2  -6  251.91    7.65
   6  -2  -6  252.86    6.88
   6  -2  -6  247.14    7.52
   6  -2  -6  260.04    7.50
  -6   2   6  245.95    7.42
  -6   2   6  253.16    7.47
  -6   2   6  255.40    8.85
   4  -2  -6   52.53    3.45
   4  -2  -6   48.61    3.87
   4  -2  -6   55.51    4.36
   4  -2  -6   59.17    4.43
  -4   2   6   54.51    4.19
  -4   2   6   52.20    4.02
   2  -2  -6   89.93    5.11
   2  -2  -6   90.18    4.95
   2  -2  -6   93.99    4.83
  -2   2   6   95.82    4.96
  -2   2   6   98.73    4.75
   0  -2  -6   63.19    4.44
   0  -2   6   61.25    3.19
   0  -2  -6   66.09    4.28
   0  -2  -6   64.76    4.80
   0  -2  -6   61.48    4.80
   0   2   6   62.01    4.39
   0   2   6   66.02    4.32
  -2  -2  -6   14.85    3.19
  -2  -2  -6   21.43    3.12
  -2  -2  -6   17.57    2.86
   2  -2   6   18.70    2.24
  -2  -2  -6   15.35    2.93
   2   2   6   11.88    2.85
   2   2   6   17.68    2.88
  -4  -2  -6   10.01    2.97
   4  -2   6    8.13    2.12
  -4  -2  -6   11.36    2.91
  -4  -2  -6    9.42    3.30
  -4  -2  -6   10.97    2.96
   4   2   6    8.94    2.66
   4   2   6   10.06    2.88
  -6  -2  -6  131.11    6.41
  -6  -2  -6  133.37    6.68
  -6  -2  -6  137.13    7.07
   6  -2   6  140.04    5.54
   6   2   6  137.17    6.42
   6   2   6  133.62    6.13
  -8  -2  -6   11.00    3.54
  -8  -2  -6    3.40    3.24
  -8  -2  -6    4.51    3.79
   8  -2   6    3.77    2.56
   8   2   6    4.05    2.98
 -10  -2  -6   21.95    4.46
  10  -2   6   21.79    3.55
 -10  -2  -6   21.22    4.68
 -10  -2  -6   23.32    4.23
 -10   2  -6   25.79    3.35
  10   2   6   23.55    4.02
  12  -2   6   73.22    5.95
 -12  -2  -6   60.16    5.77
 -12  -2  -6   76.32    6.23
 -12  -2  -6   66.50    6.43
 -12  -2  -6   57.38    5.25
 -12   2  -6   61.89    4.69
  12   2   6   85.61    6.40
 -14  -2  -6   57.08    6.76
  14  -2   6   64.94    5.72
 -14  -2  -6   68.84    6.52
 -14  -2  -6   68.92    6.27
 -14   2  -6   62.41    6.10
 -14   2  -6   68.22    5.37
  14   2   6   64.08    6.03
  16  -2   6  204.95    9.28
 -16  -2  -6  190.01   10.18
 -16  -2  -6  211.62   10.24
 -16  -2  -6  194.67   10.89
  16   2   6  197.34    9.78
 -16   2  -6  201.70    9.70
 -16   2  -6  205.58    9.94
  18  -2   6    1.45    3.56
 -18  -2  -6   -0.15    5.31
 -18  -2  -6    7.74    4.76
 -18   2  -6    9.35    4.91
  18   2   6    3.08    3.98
  20  -2   6   47.39    5.85
 -20  -2  -6   44.77    6.88
 -20  -2  -6   47.16    6.71
  20   2   6   39.71    5.95
 -20   2  -6   43.41    6.51
 -22  -2  -6    0.58    5.74
  22  -2   6   -2.17    3.71
 -22  -2  -6   -7.50    4.82
 -22   2  -6   -0.26    5.25
  22   2   6    3.27    4.61
  24  -2   6    5.68    4.56
 -24  -2  -6    0.00    5.34
 -24  -2  -6   -1.09    6.04
  24   2   6    7.22    4.84
 -24   2  -6    6.12    5.43
  26  -2   6   -5.96    4.14
 -26  -2  -6   -5.34    6.25
  26   2   6   -4.74    4.51
  35  -3  -6   14.44    5.75
 -35  -3   6    6.87    6.33
 -35   3   6   16.65    7.83
 -35   3   6   17.23    6.68
  33  -3  -6   42.28    6.21
 -33  -3   6   49.29    7.64
  33  -3  -6   42.95    6.51
 -33   3   6   49.33    8.31
 -33   3   6   52.11    7.48
  31  -3  -6   -2.40    4.78
  31  -3  -6   -1.92    4.20
 -31  -3   6    1.53    5.19
  31  -3  -6    6.49    4.56
 -31   3   6    3.05    6.35
 -31   3   6   10.36    5.70
  29  -3  -6   15.14    4.67
 -29  -3   6   17.91    5.31
  29  -3  -6   11.05    4.61
  29  -3  -6   17.99    5.47
 -29   3   6    5.66    5.34
  29   3  -6   14.28    3.93
 -29   3   6   13.68    6.33
  27  -3  -6   39.63    5.12
  27  -3  -6   41.28    5.57
 -27  -3   6   37.37    5.91
  27  -3  -6   40.94    5.87
  27   3  -6   34.39    4.45
 -27   3   6   36.96    6.18
 -27   3   6   42.02    6.82
  25  -3  -6  124.64    7.92
  25  -3  -6  137.03    8.24
 -25  -3   6  133.40    9.00
  25  -3  -6  138.58    8.75
  25   3  -6  125.49    6.91
 -25   3   6  135.51   10.03
 -25   3   6  130.07    9.23
  23  -3  -6   24.25    5.03
  23  -3  -6   25.38    4.62
  23  -3  -6   20.08    4.36
 -23  -3   6   21.74    5.17
  23   3  -6   23.78    3.69
 -23   3   6   15.05    4.66
 -23   3   6   16.46    5.25
 -23   3   6   28.39    5.55
 -23   3   6   23.86    6.10
 -21  -3   6  265.79   10.05
  21  -3  -6  267.02   10.33
  21  -3  -6  271.39    9.99
 -21  -3   6  283.22   10.29
  21  -3  -6  277.13    9.45
  21   3  -6  261.78    8.30
 -21   3   6  269.54   11.06
 -21   3   6  271.11   10.11
 -21   3   6  272.17   10.80
 -21   3   6  268.29   10.69
 -19  -3   6   38.38    4.69
  19  -3  -6   39.52    4.19
 -19  -3   6   39.61    4.62
  19  -3  -6   42.30    4.88
  19  -3  -6   31.37    4.28
 -19   3   6   42.54    5.21
 -19   3   6   26.68    4.38
 -19   3   6   39.33    5.01
 -19   3   6   37.74    5.46
  19   3  -6   43.32    3.54
 -17  -3   6  713.60   16.56
  17  -3  -6  708.19   16.93
  17  -3  -6  716.27   16.10
  17  -3  -6  727.87   17.09
 -17  -3   6  738.96   16.40
  17   3  -6  723.33   15.08
 -17   3   6  736.51   17.15
 -17   3   6  715.84   16.75
 -17   3   6  737.08   17.52
 -17   3   6  718.82   17.31
  15  -3  -6  187.42    7.22
  15  -3  -6  201.07    7.84
 -15  -3   6  193.86    6.96
  15  -3  -6  195.06    6.83
 -15   3   6  194.62    7.89
 -15   3   6  185.15    7.32
 -15   3   6  189.42    7.71
 -15   3   6  182.30    7.75
  13  -3  -6   48.49    4.08
 -13  -3   6   49.12    3.61
  13  -3  -6   42.28    3.74
  13  -3  -6   53.38    4.41
 -13   3   6   45.38    4.31
  13   3  -6   44.20    3.47
 -13   3   6   48.06    4.30
 -13   3   6   44.78    4.14
 -13   3   6   44.70    3.99
 -11  -3   6  880.49   17.67
  11  -3  -6  891.98   19.11
  11  -3  -6  898.89   19.12
  11  -3  -6  902.08   18.21
 -11   3   6  899.89   19.06
 -11   3   6  882.15   19.01
  11   3  -6  887.78   18.22
 -11   3   6  893.42   19.30
 -11   3   6  887.57   18.62
   9  -3  -6  189.79    6.86
   9  -3  -6  188.11    6.97
   9  -3  -6  180.03    6.33
  -9   3   6  184.59    6.68
  -9   3   6  177.64    6.84
  -9   3   6  172.15    6.79
  -9   3   6  213.89    7.38
   9   3  -6  188.44    6.18
   7  -3  -6  152.91    5.84
   7  -3  -6  161.40    6.46
   7  -3  -6  158.97    6.21
  -7   3   6  158.71    6.03
  -7   3   6  155.73    6.34
   7   3  -6  144.86    5.67
  -7   3   6  155.48    6.29
  -7   3   6  142.52    6.17
   5  -3  -6   76.66    4.64
   5  -3  -6   68.69    4.87
   5  -3  -6   87.71    5.17
   5  -3  -6   85.00    4.70
   5   3  -6   74.43    4.50
  -5   3   6   77.30    4.79
  -5   3   6   86.66    4.99
  -5   3   6   78.33    5.03
  -5   3   6   81.65    4.69
   3  -3  -6  567.30   13.22
   3  -3  -6  563.88   12.54
   3  -3  -6  560.69   13.33
   3  -3  -6  573.99   13.34
  -3   3   6  567.44   13.54
  -3   3   6  556.73   13.13
  -3   3   6  558.29   12.78
   1  -3  -6  351.77    9.85
   1  -3  -6  347.96    9.65
   1  -3  -6  342.79    9.09
   1  -3  -6  352.51    9.90
  -1   3   6  340.74    9.83
  -1   3   6  352.27    9.27
  -1   3   6  350.05    9.44
  -1  -3  -6  144.39    6.66
  -1  -3  -6  135.23    5.86
  -1  -3  -6  143.47    6.24
  -1  -3  -6  136.44    6.15
   1   3   6  141.23    6.01
   1   3   6  132.25    6.04
   1   3   6  138.03    5.90
   3  -3   6    8.47    1.88
  -3  -3  -6    5.08    2.88
  -3  -3  -6    7.71    2.88
  -3  -3  -6    4.14    3.16
  -3  -3  -6    9.30    2.87
   3   3   6    3.90    2.60
   3   3   6   10.36    2.92
   3   3   6    5.49    2.60
  -5  -3  -6   56.76    5.10
  -5  -3  -6   60.07    4.61
  -5  -3  -6   66.90    5.01
   5  -3   6   55.33    3.75
   5   3   6   58.35    4.64
   5   3   6   66.50    5.02
   5   3   6   53.40    4.39
  -7  -3  -6    7.01    3.55
  -7  -3  -6    6.90    3.42
   7  -3   6    5.29    2.29
  -7  -3  -6    5.82    3.95
   7   3   6    8.86    3.16
   7   3   6    2.22    2.95
   7   3   6    2.83    3.17
  -9  -3  -6   16.99    4.22
  -9  -3  -6   13.08    4.73
   9  -3   6   16.60    3.12
  -9  -3  -6   10.22    3.76
   9   3   6   17.14    3.91
   9   3   6   16.50    3.70
   9   3   6   15.88    3.72
 -11  -3  -6   -0.21    3.82
 -11  -3  -6    0.15    4.62
 -11  -3  -6    6.06    4.26
  11  -3   6    5.18    3.00
  11   3   6    5.81    3.57
  11   3   6    4.25    3.59
  11   3   6   -1.37    3.61
 -13  -3  -6    0.21    4.28
 -13  -3  -6    4.23    4.21
 -13  -3  -6   -0.67    5.16
  13  -3   6    0.67    3.11
  13   3   6    6.30    3.93
 -15  -3  -6  198.06   10.14
 -15  -3  -6  187.43    9.82
 -15  -3  -6  193.52   10.85
  15  -3   6  190.75    8.74
  15   3   6  184.73    9.59
 -17  -3  -6   81.30    7.88
 -17  -3  -6   82.09    7.38
  17  -3   6   82.67    6.54
  17   3   6   82.23    7.10
  19  -3   6   12.17    4.10
 -19  -3  -6    3.18    5.64
 -19  -3  -6    9.66    5.21
  19   3   6    7.20    4.31
 -21  -3  -6    8.59    5.76
 -21  -3  -6   -0.14    6.05
  21  -3   6    9.30    4.34
  21   3   6   -1.03    4.37
 -21   3  -6    7.04    5.28
  23  -3   6   33.30    5.75
 -23  -3  -6   30.62    6.77
 -23  -3  -6   35.18    7.57
 -23   3  -6   42.33    6.85
  23   3   6   38.58    6.35
  25  -3   6   18.95    5.48
 -25  -3  -6    9.27    6.02
 -25  -3  -6    2.39    6.69
  25   3   6   14.25    5.61
 -25   3  -6    5.48    5.96
  27   3   6   32.37    6.57
  36  -4  -6    1.06    5.47
  36  -4  -6    7.09    5.50
 -36  -4   6    2.24    6.53
 -36   4   6    3.87    6.53
 -36   4   6   15.53    7.77
  34  -4  -6   48.68    7.09
  34  -4  -6   49.55    6.59
 -34  -4   6   32.67    7.12
 -34   4   6   40.03    7.76
 -34   4   6   71.42    8.82
 -32  -4   6   -2.24    5.36
  32  -4  -6    2.72    4.74
  32  -4  -6   -1.31    4.54
 -32   4   6   -4.05    5.30
 -32   4   6    1.63    6.47
 -30  -4   6   13.25    5.51
  30  -4  -6    1.57    4.43
  30  -4  -6   -0.65    4.63
 -30   4   6   -5.02    4.83
 -30   4   6    7.96    6.42
  28  -4  -6   18.96    4.99
 -28  -4   6   18.80    5.37
  28  -4  -6   19.22    4.88
  28  -4  -6   28.47    5.92
 -28   4   6   20.11    5.71
 -28   4   6   18.38    6.39
  26  -4  -6   -0.12    4.26
  26  -4  -6    0.52    4.04
  26  -4  -6    1.10    3.95
 -26  -4   6    3.59    4.60
 -26   4   6   -0.58    5.28
 -26   4   6   -5.58    4.55
  24  -4  -6  393.61   12.66
  24  -4  -6  348.01   12.73
 -24  -4   6  345.32   12.58
  24  -4  -6  359.82   11.76
  24   4  -6  351.57   10.69
 -24   4   6  308.00   12.84
 -24   4   6  365.61   13.41
 -24   4   6  379.70   13.30
  24   4  -6  361.49   10.55
  22  -4  -6   97.40    6.50
 -22  -4   6   95.33    7.51
  22  -4  -6   79.63    6.76
  22  -4  -6   93.66    7.20
 -22   4   6   90.39    6.96
 -22   4   6  101.68    7.26
  22   4  -6   85.38    5.74
  22   4  -6   74.65    5.10
 -22   4   6   90.13    7.14
 -22   4   6   89.58    7.52
 -20  -4   6    6.68    4.08
  20  -4  -6   -0.31    3.27
 -20  -4   6    8.31    4.03
  20  -4  -6    8.51    3.83
  20  -4  -6    3.65    3.86
 -20   4   6    2.65    3.96
  20   4  -6    2.63    2.37
 -20   4   6   11.89    4.27
 -20   4   6    5.88    4.55
  20   4  -6    2.59    2.65
 -20   4   6    2.31    4.81
  18  -4  -6   -0.81    3.30
  18  -4  -6   -3.00    3.51
 -18  -4   6   -2.40    3.17
  18  -4  -6   -2.47    2.94
 -18   4   6    0.91    4.22
 -18   4   6    3.86    3.95
  18   4  -6   -1.78    2.33
 -18   4   6   -0.79    3.47
 -18   4   6    2.97    3.80
  16  -4  -6  182.28    8.30
  16  -4  -6  192.16    7.90
  16  -4  -6  196.37    7.51
 -16  -4   6  178.15    7.11
 -16   4   6  188.04    8.59
  16   4  -6  191.05    6.80
 -16   4   6  182.45    7.97
 -16   4   6  191.06    8.27
 -16   4   6  192.47    8.32
  14  -4  -6    1.05    2.57
 -14  -4   6    2.65    2.38
  14  -4  -6   -4.42    2.72
  14  -4  -6    2.29    3.04
 -14   4   6   -4.29    2.79
 -14   4   6    3.87    3.37
  14   4  -6    0.24    2.09
 -14   4   6    2.27    3.08
 -14   4   6   -0.38    3.09
  12  -4  -6  235.92    8.16
 -12  -4   6  231.88    6.69
  12  -4  -6  225.79    7.62
  12  -4  -6  233.35    8.45
 -12   4   6  239.70    7.98
 -12   4   6  230.09    8.21
  12   4  -6  224.44    7.39
 -12   4   6  232.21    8.26
 -12   4   6  228.36    8.49
  10  -4  -6   85.56    5.13
  10  -4  -6   88.20    5.71
  10  -4  -6   74.13    5.25
 -10   4   6   82.96    5.33
 -10   4   6   79.79    5.40
 -10   4   6   89.62    5.79
 -10   4   6   88.67    5.29
  10   4  -6   89.51    4.78
   8  -4  -6    0.93    2.53
   8  -4  -6   -3.57    2.33
   8  -4  -6    5.34    2.89
  -8   4   6   -3.50    2.48
  -8   4   6   -0.14    2.56
  -8   4   6    1.33    2.20
   8   4  -6   -2.53    1.98
  -8   4   6    2.28    2.67
   6  -4  -6  112.91    5.74
   6  -4  -6  126.11    5.64
   6  -4  -6  118.08    6.05
  -6   4   6  129.85    6.00
  -6   4   6  120.22    6.04
  -6   4   6  119.66    5.76
  -6   4   6  128.72    6.00
   6   4  -6  125.58    5.73
   4  -4  -6  137.99    6.43
   4  -4  -6  145.29    5.98
   4  -4  -6  140.97    6.34
  -4   4   6  148.93    6.19
  -4   4   6  138.81    6.18
   4   4  -6  133.16    6.08
  -4   4   6  135.89    6.29
  -4   4   6  147.98    6.56
   2  -4  -6  157.28    6.64
   2  -4  -6  158.88    6.32
   2  -4  -6  146.20    6.82
   2  -4  -6  154.57    6.52
   2   4  -6  147.58    6.63
  -2   4   6  157.70    6.47
  -2   4   6  148.36    6.36
  -2   4   6  156.32    6.66
   0  -4  -6   70.95    5.30
   0  -4  -6   76.63    5.36
   0  -4  -6   84.45    5.85
   0  -4  -6   86.48    5.35
   0   4   6   70.48    5.01
   0   4   6   80.45    5.34
   0   4   6   82.28    5.19
  -2  -4  -6   15.20    3.23
  -2  -4  -6   18.42    3.30
  -2  -4  -6    9.28    3.64
   2   4   6   17.82    3.19
   2   4   6   13.15    3.16
   2   4   6   18.25    3.24
  -4  -4  -6   -1.63    3.42
  -4  -4  -6   -1.14    3.07
  -4  -4  -6    2.98    2.90
   4   4   6    1.87    2.87
   4   4   6    1.51    2.75
   4   4   6    1.05    2.69
   6  -4   6    7.56    2.23
  -6  -4  -6   14.47    3.41
  -6  -4  -6    3.86    4.06
  -6  -4  -6    7.52    3.64
   6   4   6    7.55    3.15
   6   4   6    3.59    3.24
   6   4   6    5.61    3.14
  -8  -4  -6   22.47    4.03
  -8  -4  -6   13.02    4.67
  -8  -4  -6   14.42    4.13
   8  -4   6   13.75    2.77
   8   4   6   12.94    3.64
   8   4   6   13.33    3.78
   8   4   6   17.57    3.99
 -10  -4  -6   13.23    4.50
 -10  -4  -6    8.81    4.10
  10  -4   6    8.07    2.84
 -10  -4  -6    9.24    4.95
  10   4   6   12.11    3.68
  10   4   6    8.76    3.62
  10   4   6   11.41    3.84
 -12  -4  -6   34.20    5.57
  12  -4   6   37.53    4.36
 -12  -4  -6   34.04    5.18
 -12  -4  -6   41.69    6.38
  12   4   6   37.16    4.97
  12   4   6   40.16    5.06
 -14  -4  -6  190.15   10.90
 -14  -4  -6  202.95   10.18
  14  -4   6  206.49    8.67
  14   4   6  200.73    9.52
  14   4   6  201.90    9.57
  16  -4   6   54.55    5.38
 -16  -4  -6   53.58    6.56
 -16  -4  -6   41.22    6.79
  16   4   6   57.67    6.06
  16   4   6   46.95    6.03
 -18  -4  -6    7.92    6.14
  18  -4   6   14.45    4.26
 -18  -4  -6   10.07    5.42
  18   4   6    9.25    4.23
  18   4   6    6.65    4.47
  20  -4   6   16.28    4.44
 -20  -4  -6   20.88    6.66
 -20  -4  -6    9.08    5.58
 -20   4  -6   20.39    5.69
  20   4   6   21.77    5.29
  20   4   6   15.52    5.04
 -22  -4  -6   -4.16    5.38
 -22  -4  -6   -3.47    6.37
  22  -4   6    4.26    4.21
  22   4   6    5.94    4.54
 -22   4  -6  -10.33    4.60
  22   4   6    3.24    4.79
 -24  -4  -6   29.56    6.91
 -24  -4  -6   32.05    7.59
  24  -4   6   35.40    6.02
  24   4   6   35.78    6.23
 -24   4  -6   37.48    6.83
  24   4   6   30.67    6.29
 -26  -4  -6   -2.23    6.10
  26  -4   6   -1.74    4.47
 -26  -4  -6   -1.44    7.12
 -26   4  -6    4.72    6.23
  26   4   6   -7.40    4.64
  26   4   6   -3.87    4.86
  35  -5  -6    5.50    5.31
 -35  -5   6   -4.15    6.04
  35  -5  -6   -8.97    5.86
 -35   5   6  -13.35    6.92
  33  -5  -6   -0.82    5.00
  33  -5  -6    8.80    5.35
 -33  -5   6   -9.56    5.03
 -33   5   6    5.94    5.78
 -33   5   6    3.39    6.56
  31  -5  -6   -1.73    4.41
 -31  -5   6   -3.74    4.80
  31  -5  -6   -0.01    4.78
 -31   5   6    4.86    6.60
  31   5  -6    4.83    3.75
 -31   5   6   -4.21    5.15
 -29  -5   6   -4.82    4.63
  29  -5  -6   -3.48    3.96
  29  -5  -6   -5.94    4.53
 -29   5   6    1.26    5.97
 -29   5   6   -2.79    4.96
  29   5  -6    1.70    3.48
  27  -5  -6   81.97    6.71
  27  -5  -6   78.68    7.33
 -27  -5   6   74.21    7.32
 -27   5   6   86.20    7.69
  27   5  -6   93.38    6.74
 -27   5   6   82.91    8.29
 -25  -5   6   41.03    5.67
  25  -5  -6   39.78    5.29
  25  -5  -6   40.43    5.69
  25   5  -6   42.15    4.83
 -25   5   6   37.06    6.33
 -25   5   6   45.26    6.29
  23  -5  -6  122.29    8.16
  23  -5  -6  115.02    8.66
  23  -5  -6  110.41    7.28
 -23  -5   6  130.28    8.27
 -23   5   6  124.31    8.58
  23   5  -6  129.25    6.90
 -23   5   6  104.85    8.46
 -23   5   6  116.09    8.32
 -21  -5   6    1.77    4.17
  21  -5  -6    3.02    4.02
  21  -5  -6    0.43    4.10
  21  -5  -6    6.87    3.85
  21   5  -6    0.18    2.89
 -21   5   6    2.42    4.41
 -21   5   6    1.48    5.10
 -21   5   6    0.28    4.53
 -21   5   6    6.57    4.73
  19  -5  -6   25.98    4.88
 -19  -5   6   17.90    4.46
  19  -5  -6   24.52    4.38
 -19  -5   6   28.56    4.59
  19  -5  -6   30.78    4.51
 -19   5   6   18.06    4.62
 -19   5   6   24.81    4.84
 -19   5   6   27.40    5.35
  19   5  -6   22.70    3.85
 -19   5   6   23.01    4.83
  17  -5  -6   45.57    4.90
  17  -5  -6   47.86    5.33
  17  -5  -6   52.28    4.87
 -17  -5   6   46.00    4.55
 -17   5   6   46.15    5.64
 -17   5   6   46.76    5.35
 -17   5   6   47.66    5.36
  17   5  -6   46.06    4.52
 -17   5   6   49.23    5.16
  15  -5  -6   11.56    4.01
 -15  -5   6    8.10    3.11
  15  -5  -6   10.09    3.44
  15  -5  -6    7.54    3.70
 -15   5   6    9.74    4.27
 -15   5   6   10.36    3.96
 -15   5   6   13.56    3.94
  15   5  -6   13.52    3.19
 -15   5   6    5.38    3.66
 -13  -5   6  139.89    5.52
  13  -5  -6  129.61    6.59
  13  -5  -6  134.70    6.90
  13  -5  -6  138.39    7.42
 -13   5   6  130.58    7.42
 -13   5   6  138.28    7.09
 -13   5   6  141.87    7.09
 -13   5   6  124.32    7.09
  13   5  -6  145.85    6.40
  11  -5  -6    0.22    3.21
  11  -5  -6   -1.82    2.90
  11  -5  -6    3.03    2.97
 -11   5   6   -4.84    3.00
 -11   5   6    3.69    3.14
 -11   5   6    5.63    3.13
 -11   5   6    1.45    3.41
  11   5  -6    1.78    2.41
   9  -5  -6   54.54    4.60
   9  -5  -6   51.32    4.26
   9  -5  -6   55.85    4.93
  -9   5   6   46.19    4.28
  -9   5   6   43.90    3.79
   9   5  -6   59.77    4.80
  -9   5   6   44.58    4.37
  -9   5   6   45.59    4.38
  -9   5   6   53.92    4.62
   7  -5  -6   29.99    3.73
   7  -5  -6   27.02    3.59
   7  -5  -6   31.06    3.99
  -7   5   6   23.76    3.67
   7   5  -6   31.71    3.75
  -7   5   6   27.24    3.63
  -7   5   6   30.12    3.78
  -7   5   6   29.19    3.60
   5  -5  -6   63.52    5.04
   5  -5  -6   62.94    4.93
   5  -5  -6   59.79    4.39
  -5   5   6   57.14    4.61
  -5   5   6   65.96    4.76
  -5   5   6   64.78    4.86
  -5   5   6   66.64    5.29
   5   5  -6   68.26    5.11
   3  -5  -6   50.04    4.33
   3  -5  -6   57.64    4.92
   3  -5  -6   67.03    5.42
  -3   5   6   60.38    4.58
  -3   5   6   52.66    4.35
  -3   5   6   58.72    4.59
   3   5  -6   58.53    5.09
  -3   5   6   47.84    4.49
   1  -5  -6    0.01    3.06
   1  -5  -6    2.36    3.25
   1  -5  -6    1.42    2.89
   1  -5  -6   -1.62    2.60
   1   5  -6    1.75    2.81
  -1   5   6    0.88    2.68
  -1   5   6    0.98    2.83
  -1   5   6    3.56    2.74
  -1   5   6    1.78    2.92
  -1  -5  -6   47.26    4.68
  -1  -5  -6   40.82    4.20
  -1  -5  -6   50.90    4.91
   1   5   6   38.81    4.19
   1   5   6   48.55    4.35
   1   5   6   46.66    4.24
  -3  -5  -6    0.30    3.25
  -3  -5  -6   -2.55    2.93
  -3  -5  -6    6.15    3.85
   3   5   6   -0.31    2.91
   3   5   6    4.00    3.23
   3   5   6   -3.31    2.74
  -5  -5  -6   76.80    5.88
  -5  -5  -6   70.20    5.40
  -5  -5  -6   75.74    6.32
   5   5   6   73.71    5.98
   5   5   6   74.00    5.44
   5   5   6   71.12    5.46
   7  -5   6   -0.54    2.13
  -7  -5  -6    4.25    3.40
  -7  -5  -6   -0.87    3.77
  -7  -5  -6   -1.02    4.39
   7   5   6    3.21    3.57
   7   5   6    0.75    3.23
   7   5   6    0.61    3.14
  -9  -5  -6    9.92    4.57
   9  -5   6   10.37    2.94
  -9  -5  -6    9.69    5.22
  -9  -5  -6    9.98    3.96
   9   5   6   13.11    3.95
   9   5   6   10.22    4.14
   9   5   6    5.50    3.77
 -11  -5  -6   83.92    7.15
  11  -5   6   69.83    5.53
 -11  -5  -6   81.15    7.63
  11   5   6   72.75    6.13
  11   5   6   70.46    6.23
  11   5   6   77.29    6.59
 -13  -5  -6   54.13    6.54
  13  -5   6   59.83    5.17
 -13  -5  -6   67.62    7.58
  13   5   6   61.78    6.13
  13   5   6   64.08    5.97
 -15  -5  -6  182.14   10.40
  15  -5   6  190.43    8.41
 -15  -5  -6  187.13   11.19
  15   5   6  180.53    9.65
  15   5   6  179.62    9.34
 -17  -5  -6   -3.76    4.79
 -17  -5  -6   -8.45    5.73
  17  -5   6    5.08    3.73
  17   5   6   -1.25    4.16
  17   5   6    1.97    4.29
 -19  -5  -6   42.03    6.78
  19  -5   6   46.88    5.75
 -19  -5  -6   39.69    7.66
  19   5   6   38.15    5.91
  19   5   6   40.99    6.17
 -21  -5  -6    9.88    6.55
  21  -5   6   14.77    4.62
 -21  -5  -6    6.66    5.76
  21   5   6   10.55    4.96
  21   5   6   16.86    5.22
 -23  -5  -6   42.24    8.30
 -23  -5  -6   53.30    7.82
  23  -5   6   50.62    6.47
 -23   5  -6   40.42    6.82
  23   5   6   54.38    6.91
  23   5   6   47.32    6.65
 -25  -5  -6   -4.18    6.28
  25  -5   6    6.73    4.72
  25   5   6    1.18    4.99
 -25   5  -6    6.14    5.78
  25   5   6   -3.39    4.89
  34  -6  -6   -1.69    5.26
 -34  -6   6    2.46    5.97
  32  -6  -6    4.84    5.20
 -32  -6   6    1.98    5.53
  32   6  -6   10.66    4.62
 -30  -6   6   11.86    5.72
  30  -6  -6   20.47    5.59
  30   6  -6   11.07    4.30
 -30   6   6   11.26    6.66
 -30   6   6   15.69    5.62
  28  -6  -6    8.88    4.67
 -28  -6   6    1.04    4.94
  28  -6  -6    0.32    4.67
 -28   6   6    0.18    5.83
 -28   6   6    7.67    5.24
  28   6  -6   -0.54    3.50
  26  -6  -6   17.45    5.01
  26  -6  -6   15.80    5.15
 -26  -6   6   21.34    5.37
 -26   6   6   28.32    5.75
 -26   6   6   16.85    6.01
  26   6  -6   18.15    4.33
  24  -6  -6  113.08    8.25
 -24  -6   6   91.41    7.20
  24  -6  -6   89.28    6.81
  24   6  -6   90.91    6.73
 -24   6   6  110.62    8.07
 -24   6   6  102.26    7.81
 -24   6   6   96.76    7.53
  22  -6  -6    0.69    3.91
  22  -6  -6   -0.50    3.97
 -22  -6   6    2.44    4.02
 -22   6   6    3.93    4.75
 -22   6   6    3.75    5.10
 -22   6   6    5.25    4.20
 -22   6   6    5.00    4.35
  22   6  -6    2.80    3.29
 -20  -6   6   -1.31    4.06
  20  -6  -6   -2.79    3.66
  20  -6  -6   12.57    4.33
  20  -6  -6   -0.36    4.21
  20   6  -6    4.47    3.30
 -20   6   6   -4.04    4.87
 -20   6   6    2.32    4.50
 -20   6   6    4.72    4.46
 -20   6   6    3.92    4.55
 -18  -6   6    4.60    3.55
  18  -6  -6   -2.41    3.94
  18  -6  -6   -0.15    3.86
  18  -6  -6   -5.12    3.36
 -18   6   6   -7.24    4.15
 -18   6   6   -1.12    4.61
 -18   6   6   -2.52    4.03
 -18   6   6   -3.98    4.87
  18   6  -6    0.57    3.25
 -18   6   6   -3.84    4.24
  16  -6  -6   62.08    6.00
  16  -6  -6   65.25    5.81
 -16  -6   6   63.70    4.84
  16  -6  -6   63.74    5.42
  16   6  -6   73.79    5.87
 -16   6   6   61.72    5.63
 -16   6   6   70.81    6.15
 -16   6   6   70.56    5.99
 -16   6   6   74.07    6.02
 -16   6   6   76.61    6.26
  14  -6  -6   46.25    5.16
  14  -6  -6   64.90    5.17
  14  -6  -6   48.69    5.05
 -14  -6   6   48.47    3.93
 -14   6   6   44.20    4.99
 -14   6   6   51.44    5.54
  14   6  -6   51.35    5.09
 -14   6   6   52.46    5.41
 -14   6   6   54.32    5.36
 -14   6   6   42.20    4.97
  12  -6  -6  473.72   13.25
  12  -6  -6  436.90   13.10
  12  -6  -6  452.22   12.21
 -12   6   6  470.47   12.81
 -12   6   6  456.54   12.97
 -12   6   6  451.32   12.82
 -12   6   6  441.54   12.74
  12   6  -6  454.73   12.91
 -12   6   6  454.33   12.55
  10  -6  -6  298.41   10.45
  10  -6  -6  302.16   10.37
  10  -6  -6  299.74    9.64
 -10   6   6  314.09    9.99
 -10   6   6  309.43   10.16
 -10   6   6  312.28    9.26
 -10   6   6  309.27   10.35
 -10   6   6  302.77   10.12
 -10   6   6  312.74   10.32
  10   6  -6  302.65   10.16
   8  -6  -6   11.15    3.61
   8  -6  -6   21.05    3.85
   8  -6  -6   15.67    3.96
  -8   6   6   25.52    4.16
  -8   6   6   18.78    3.87
  -8   6   6   20.08    3.80
  -8   6   6   20.87    4.17
   8   6  -6   21.55    3.76
  -8   6   6   17.69    3.68
  -8   6   6   21.63    3.58
   6  -6  -6   26.87    4.44
   6  -6  -6   35.35    4.20
   6  -6  -6   31.59    4.16
  -6   6   6   27.47    4.06
  -6   6   6   20.61    3.62
   6   6  -6   26.83    4.10
  -6   6   6   21.98    3.82
  -6   6   6   28.56    4.04
  -6   6   6   28.59    4.29
   4  -6  -6   26.80    4.11
   4  -6  -6   37.47    4.72
   4  -6  -6   36.59    4.23
  -4   6   6   36.35    4.16
  -4   6   6   26.88    4.13
  -4   6   6   34.95    4.17
  -4   6   6   34.38    4.40
  -4   6   6   38.19    4.49
   4   6  -6   38.64    4.66
   2  -6  -6    1.08    3.12
   2  -6  -6   -0.09    3.60
   2  -6  -6    4.38    3.32
  -2   6   6   -0.97    3.03
  -2   6   6    2.10    3.22
  -2   6   6    3.64    2.77
  -2   6   6   -1.72    3.18
  -2   6   6    3.68    3.38
   2   6  -6    1.99    3.27
   0  -6  -6   66.91    5.50
   0  -6  -6   62.53    5.22
   0  -6  -6   69.53    5.82
   0   6   6   62.85    5.10
   0   6  -6   64.67    5.96
   0   6   6   69.62    5.80
   0   6   6   71.43    5.39
   0   6   6   57.35    5.05
   0   6   6   68.40    5.38
  -2  -6  -6   26.63    5.00
  -2  -6  -6   27.72    4.40
   2   6   6   25.64    4.08
  -2   6  -6   26.77    4.71
   2   6   6   18.73    3.67
   2   6   6   20.20    4.10
  -4  -6  -6  119.58    7.45
  -4  -6  -6  116.99    8.34
  -4  -6  -6  116.28    7.61
   4   6   6  123.48    7.09
   4   6   6  100.07    6.51
   4   6   6  114.67    7.25
  -6  -6  -6   86.98    6.70
  -6  -6  -6   95.96    7.46
   6   6   6   97.92    7.12
   6   6   6   96.54    6.91
   6   6   6   99.21    6.58
  -8  -6  -6   13.52    5.39
  -8  -6  -6   12.98    4.80
   8   6   6   15.28    4.12
   8   6   6   14.43    4.44
   8   6   6   17.77    4.33
 -10  -6  -6    0.72    4.32
 -10  -6  -6    2.32    5.32
  10  -6   6    1.31    2.62
  10   6   6   -1.97    3.30
  10   6   6    5.35    3.90
  10   6   6    1.05    4.12
  12  -6   6   14.01    3.43
 -12  -6  -6   13.88    4.98
 -12  -6  -6    5.66    5.44
  12   6   6   14.83    4.17
  12   6   6   11.94    4.08
 -14  -6  -6  170.83   10.30
  14  -6   6  194.60    8.21
 -14  -6  -6  167.74   11.24
  14   6   6  186.82    9.19
  14   6   6  175.18    9.56
 -16  -6  -6   20.78    5.82
  16  -6   6   19.21    4.48
 -16  -6  -6   14.58    6.35
  16   6   6   23.10    5.19
  16   6   6   21.75    4.75
 -18  -6  -6   17.96    5.97
  18  -6   6   18.37    4.36
  18   6   6   22.39    5.43
  18   6   6   10.89    4.69
 -20  -6  -6    2.40    5.41
  20  -6   6    1.82    3.89
  20   6   6    6.98    4.43
  20   6   6   -6.21    3.97
  22  -6   6   -0.22    4.13
 -22  -6  -6    6.58    6.18
  22   6   6   -2.29    4.76
  22   6   6    6.17    4.91
  24  -6   6   -2.29    4.40
 -24  -6  -6   -0.98    6.49
  24   6   6   -2.05    4.89
  24   6   6    5.57    5.15
 -33  -7   6   29.54    7.12
  33  -7  -6   23.23    6.42
  33   7  -6   27.52    7.02
 -31  -7   6   -4.24    4.90
  31  -7  -6    3.15    5.13
  31   7  -6   -1.09    3.69
 -29  -7   6    8.54    5.42
  29  -7  -6   21.48    5.50
  29   7  -6   14.31    4.56
  27  -7  -6    2.49    4.52
 -27  -7   6    6.03    4.98
 -27   7   6    7.04    5.48
  27   7  -6    4.13    3.71
 -25  -7   6    0.63    4.55
  25  -7  -6    0.99    4.60
  25   7  -6   13.30    4.18
 -25   7   6   11.43    5.70
 -25   7   6    4.25    4.91
  23  -7  -6  163.79    9.11
 -23  -7   6  124.61    8.61
 -23   7   6  150.16    9.70
  23   7  -6  148.20    8.31
 -23   7   6  141.82    9.52
 -23   7   6  155.61    9.29
  21  -7  -6   21.71    4.84
 -21  -7   6   33.86    5.02
  21  -7  -6   26.84    5.14
  21   7  -6   28.91    4.76
 -21   7   6   14.09    5.39
 -21   7   6   35.24    5.44
 -21   7   6   27.11    5.58
 -19  -7   6  135.50    7.75
  19  -7  -6  146.02    8.36
  19  -7  -6  147.77    8.65
 -19   7   6  136.27    8.61
 -19   7   6  166.08    8.68
  19   7  -6  129.62    7.74
 -19   7   6  143.57    8.81
 -17  -7   6   -0.33    3.54
  17  -7  -6   -0.04    4.07
  17  -7  -6   -1.83    3.63
 -17   7   6   -3.33    4.26
 -17   7   6    0.62    4.07
 -17   7   6    5.45    5.07
 -17   7   6   11.18    4.59
  17   7  -6    0.20    3.18
  15  -7  -6    0.17    4.08
  15  -7  -6   -3.42    4.74
 -15  -7   6    1.04    3.06
  15  -7  -6   -0.44    3.54
 -15   7   6    1.16    4.22
 -15   7   6   -8.80    4.01
  15   7  -6   -0.74    3.23
 -15   7   6    1.67    4.35
 -15   7   6    3.08    4.19
 -15   7   6    0.46    3.95
  13  -7  -6   81.77    6.65
  13  -7  -6   74.49    6.11
  13  -7  -6   79.89    5.80
 -13   7   6   74.51    6.06
 -13   7   6   77.32    6.34
 -13   7   6   83.96    5.90
 -13   7   6   76.66    5.97
  13   7  -6   77.89    6.47
 -13   7   6   72.93    5.97
  11  -7  -6    3.56    3.95
  11  -7  -6    6.13    3.68
  11  -7  -6   -0.36    3.75
 -11   7   6    4.63    4.08
 -11   7   6    7.57    3.65
  11   7  -6    2.92    3.25
 -11   7   6    5.15    3.83
 -11   7   6    1.07    3.16
 -11   7   6    4.92    3.99
   9  -7  -6   -1.76    3.73
   9  -7  -6   -2.08    3.64
   9  -7  -6   -0.19    3.44
  -9   7   6   -3.77    3.05
  -9   7   6   -3.91    3.63
  -9   7   6    0.80    3.62
  -9   7   6    1.55    3.40
   9   7  -6    1.56    3.19
  -9   7   6    8.49    3.87
  -9   7   6   -1.47    4.01
   7  -7  -6   26.86    4.31
   7  -7  -6   20.80    4.18
   7  -7  -6   31.84    4.87
  -7   7   6   25.84    4.63
  -7   7   6   34.66    4.66
   7   7  -6   28.43    4.53
  -7   7   6   25.18    4.17
  -7   7   6   23.73    4.40
  -7   7   6   22.16    4.23
  -7   7   6   22.39    4.18
   5  -7  -6   25.27    4.36
   5  -7  -6   18.03    4.15
   5  -7  -6   16.73    4.43
  -5   7   6   21.22    4.19
  -5   7   6   24.17    4.24
  -5   7   6   16.43    3.81
  -5   7   6   27.48    4.59
   5   7  -6   25.05    4.41
  -5   7   6   26.29    4.08
  -5   7   6   18.63    4.12
   3  -7  -6   44.55    4.77
   3  -7  -6   38.20    5.07
   3  -7  -6   41.55    5.03
   3   7  -6   42.99    5.28
  -3   7   6   40.13    4.57
  -3   7   6   42.05    4.91
  -3   7   6   41.99    4.83
  -3   7   6   42.17    4.69
  -3   7   6   38.76    4.41
   1  -7  -6   16.51    4.24
   1  -7  -6   21.88    4.37
   1  -7  -6   19.57    4.74
  -1   7   6   10.38    3.67
  -1   7   6   26.20    4.52
   1   7  -6   15.20    4.22
  -1   7   6   13.43    3.46
  -1   7   6   19.67    4.29
  -1   7   6   16.58    4.12
  -1  -7  -6   -2.05    4.14
  -1  -7  -6    1.27    3.59
   1   7   6    1.71    3.15
   1   7   6    3.12    3.65
   1   7   6    1.89    3.84
   1   7   6   -1.34    3.33
  -1   7  -6    7.62    3.90
   1   7   6   -3.42    3.55
  -3  -7  -6    9.55    4.63
  -3  -7  -6   -0.86    3.90
  -3   7  -6   -1.97    3.58
   3   7   6    0.60    3.41
   3   7   6    2.79    3.96
   3   7   6    0.83    3.75
   3   7   6    3.34    3.77
   3   7   6    3.10    3.42
  -5  -7  -6   47.31    6.20
  -5  -7  -6   41.30    5.72
   5   7   6   34.67    4.74
   5   7   6   47.54    5.24
   5   7   6   42.98    5.31
  -7  -7  -6   22.64    5.73
  -7  -7  -6   31.78    5.35
   7   7   6   18.47    4.17
   7   7   6   22.16    4.47
   7   7   6   29.32    5.00
  -9  -7  -6   12.09    5.61
  -9  -7  -6   14.06    4.99
   9   7   6   25.90    4.62
   9   7   6   20.16    4.72
   9   7   6   15.60    4.01
 -11  -7  -6   11.32    4.86
  11  -7   6   15.30    3.27
  11   7   6   10.26    6.61
  11   7   6   10.39    4.08
  11   7   6   12.78    4.02
  13  -7   6   -1.30    3.01
 -13  -7  -6    4.46    4.84
  13   7   6    8.10    3.91
  13   7   6    5.25    4.17
 -15  -7  -6    2.58    5.17
  15  -7   6   -0.90    3.28
  15   7   6    4.33    4.10
  15   7   6    1.83    3.73
  17  -7   6   -0.65    3.52
 -17  -7  -6   -3.05    5.46
  17   7   6    0.94    3.81
  17   7   6    4.44    4.40
  19  -7   6    0.52    3.67
 -19  -7  -6   -9.15    5.21
  19   7   6    0.36    4.38
  19   7   6   -5.56    3.76
 -21  -7  -6    5.39    6.40
  21  -7   6    9.41    4.50
  21   7   6    5.29    4.75
  21   7   6   17.35    5.37
 -23  -7  -6    9.24    6.98
  23  -7   6   -3.28    4.28
  23   7   6    5.63    4.90
  23   7   6    4.19    4.85
 -30  -8   6   -1.31    5.36
  30  -8  -6    2.84    4.91
  30   8  -6    5.65    4.08
 -28  -8   6    5.32    5.15
  28  -8  -6    3.61    4.75
  28   8  -6    6.52    4.39
 -26  -8   6   57.16    6.73
  26  -8  -6   68.29    7.26
  26   8  -6   50.21    6.47
  24  -8  -6   35.35    5.87
 -24  -8   6   43.57    5.83
 -24   8   6   44.63    7.04
  24   8  -6   39.86    5.88
  22  -8  -6   25.80    5.20
 -22  -8   6   33.90    5.44
  22   8  -6   21.31    4.92
 -22   8   6   20.74    5.66
 -22   8   6   26.98    5.58
 -20  -8   6   28.26    4.74
  20  -8  -6   22.56    4.94
 -20   8   6   30.46    5.71
  20   8  -6   26.61    5.15
 -20   8   6   26.80    5.04
 -18  -8   6   11.46    4.24
  18  -8  -6   26.61    5.09
 -18   8   6    9.51    4.72
  18   8  -6   17.18    4.17
 -18   8   6   13.93    4.62
 -18   8   6   12.64    4.48
 -16  -8   6  117.43    6.67
  16  -8  -6  124.39    8.09
 -16   8   6  113.09    7.88
 -16   8   6  112.07    7.17
  16   8  -6  112.00    7.83
 -16   8   6  109.70    8.32
  14  -8  -6   33.09    4.94
  14  -8  -6   40.98    5.49
  14   8  -6   40.92    5.57
 -14   8   6   45.23    5.26
 -14   8   6   46.20    5.75
 -14   8   6   33.21    4.75
 -14   8   6   46.60    5.37
  12  -8  -6    1.24    3.91
  12  -8  -6   14.75    4.41
 -12   8   6   11.55    4.06
  12   8  -6    8.40    4.11
 -12   8   6   12.49    3.79
 -12   8   6   16.58    4.74
  10  -8  -6  125.46    8.18
  10  -8  -6  126.87    7.78
 -10   8   6  120.31    7.47
  10   8  -6  133.89    8.02
 -10   8   6  116.69    7.52
 -10   8   6  118.35    7.38
 -10   8   6  127.30    8.45
   8  -8  -6  184.77    9.24
   8  -8  -6  180.54    8.68
  -8   8   6  197.21    8.79
   8   8  -6  182.58    9.13
  -8   8   6  191.06    8.75
  -8   8   6  193.27    9.29
  -8   8   6  189.30    8.31
   6  -8  -6  112.43    7.55
   6  -8  -6  103.25    7.83
  -6   8   6  117.32    7.12
  -6   8   6  101.74    7.79
  -6   8   6  114.45    7.39
  -6   8   6  103.80    7.57
   6   8  -6  111.76    7.70
   4  -8  -6    1.21    4.18
   4  -8  -6    2.00    3.87
  -4   8   6    3.02    4.09
  -4   8   6    0.42    4.01
  -4   8   6   -2.48    3.38
  -4   8   6    2.95    3.08
   4   8  -6    4.27    3.94
   2  -8  -6   21.93    4.90
   2  -8  -6   27.58    4.82
   2   8  -6   12.69    4.59
  -2   8   6   14.15    4.06
  -2   8   6   17.42    4.62
  -2   8   6   16.87    3.93
   0  -8  -6    2.96    3.93
   0   8   6    5.83    3.86
   0   8   6    4.76    3.46
   0   8   6    6.43    4.17
   0   8  -6    5.27    4.23
  -2  -8  -6   27.39    5.13
   2   8   6   26.45    5.10
   2   8   6   21.46    4.46
   2   8   6   19.35    4.35
  -2   8  -6   35.03    5.54
   2   8   6   18.54    4.36
  -4  -8  -6    3.32    4.38
   4   8   6    5.09    3.52
   4   8   6    9.83    3.75
   4   8   6    2.11    4.27
   4   8   6   -1.46    3.84
  -4   8  -6    5.88    4.41
  -6  -8  -6    9.52    4.60
   6   8   6   12.29    3.94
   6   8   6   14.08    4.55
   6   8   6   12.24    3.79
  -8  -8  -6    2.43    4.24
   8   8   6    1.56    3.39
   8   8   6    4.86    3.59
   8   8   6    5.12    4.42
 -10  -8  -6   12.36    4.88
  10   8   6    1.95    3.49
  10   8   6    7.77    4.64
  10   8   6   11.88    3.97
  12  -8   6    8.70    3.17
 -12  -8  -6    4.19    4.98
  12   8   6   10.42    4.12
  12   8   6    4.70    3.99
  14  -8   6    9.37    3.48
 -14  -8  -6   -1.95    4.90
  14   8   6    6.68    4.39
  14   8   6    4.82    3.90
 -16  -8  -6   24.26    6.47
  16  -8   6   13.91    4.12
  16   8   6   19.70    4.87
  16   8   6    4.58    4.12
  18  -8   6   27.74    4.95
 -18  -8  -6   33.78    6.98
  18   8   6   23.92    5.19
  18   8   6   45.84    6.66
 -20  -8  -6   -3.10    5.79
  20  -8   6    6.04    4.30
  20   8   6    3.00    6.50
  20   8   6    1.88    4.27
 -29  -9   6   26.05    6.25
  29  -9  -6   38.64    6.85
  29   9  -6   37.61    6.65
  27  -9  -6   13.44    5.59
 -27  -9   6   16.22    5.54
  27   9  -6   25.17    5.19
 -25  -9   6    5.27    5.08
  25  -9  -6   12.56    4.99
  25   9  -6    8.08    4.40
  23  -9  -6   33.73    5.73
 -23  -9   6   30.93    5.55
  23   9  -6   37.23    5.78
 -23   9   6   32.06    6.52
 -21  -9   6  258.35   10.73
  21  -9  -6  267.51   11.96
  21   9  -6  265.06   11.57
 -21   9   6  270.59   12.19
 -19  -9   6   31.19    4.91
  19  -9  -6   27.82    5.40
 -19   9   6   29.98    4.89
  19   9  -6   34.29    5.61
 -19   9   6   30.01    5.73
  17  -9  -6    3.67    3.96
 -17  -9   6   -2.34    3.42
  17   9  -6    0.19    3.65
 -17   9   6    2.37    4.75
 -17   9   6    4.96    3.99
  15  -9  -6  134.41    8.63
 -15   9   6  153.21    8.30
 -15   9   6  144.84    9.14
 -15   9   6  142.46    8.30
  15   9  -6  131.51    8.50
  13  -9  -6   69.24    6.54
  13   9  -6   67.03    6.69
 -13   9   6   61.80    6.02
 -13   9   6   60.37    5.67
 -13   9   6   54.64    6.33
  11  -9  -6    2.48    3.94
 -11   9   6    4.84    3.54
  11   9  -6    4.71    3.75
 -11   9   6   -3.17    4.34
 -11   9   6    4.55    3.89
   9  -9  -6   15.49    4.66
  -9   9   6   15.45    3.95
   9   9  -6   13.82    4.55
  -9   9   6    9.53    4.64
  -9   9   6   20.14    4.54
   7  -9  -6   29.01    4.99
  -7   9   6   28.96    4.66
   7   9  -6   36.40    5.64
  -7   9   6   27.44    4.98
  -7   9   6   34.90    5.45
   5  -9  -6   -1.88    3.87
  -5   9   6   -3.38    3.20
  -5   9   6   -1.76    4.10
   5   9  -6    4.36    3.80
  -5   9   6   -7.20    3.70
   3  -9  -6    6.22    4.19
  -3   9   6    1.36    3.08
  -3   9   6    4.80    4.40
   3   9  -6    3.07    3.75
  -3   9   6   -2.31    4.06
   1  -9  -6  174.73    9.41
  -1   9   6  170.95    8.34
   1   9  -6  165.77    9.58
  -1   9   6  177.63    9.25
  -1   9   6  184.91    9.93
  -1  -9  -6   16.65    4.72
   1   9   6    5.61    3.44
  -1   9  -6   12.91    4.76
   1   9   6    8.11    4.51
  -3  -9  -6   22.40    5.01
   3   9   6   24.97    4.26
   3   9   6   19.81    4.19
  -3   9  -6   12.51    4.83
   3   9   6    7.23    4.60
  -5  -9  -6    0.83    4.00
   5   9   6    5.04    3.40
   5   9   6   -0.77    3.59
   5   9   6   -2.56    4.31
  -5   9  -6    2.45    4.17
  -7  -9  -6   17.76    5.25
   7   9   6   11.33    4.89
   7   9   6   19.14    4.19
   7   9   6   12.76    3.97
  -9  -9  -6    3.29    4.53
   9   9   6   -4.19    3.35
   9   9   6   -1.77    3.40
   9   9   6    0.56    4.60
 -11  -9  -6   11.04    5.31
  11   9   6   16.65    4.45
  11   9   6   10.03    4.02
  13  -9   6    7.03    3.40
 -13  -9  -6    1.48    5.16
  13   9   6    7.81    4.16
  13   9   6    8.60    5.05
  15  -9   6    0.01    3.43
 -15  -9  -6    4.19    5.45
  15   9   6   -5.46    3.66
  17  -9   6   14.92    4.23
 -17  -9  -6    9.37    6.21
  17   9   6    7.57    4.35
 -19  -9  -6   -1.93    6.32
  19  -9   6   -1.10    3.91
  19   9   6    5.74    4.60
  26 -10  -6    5.05    4.93
 -26 -10   6   -1.12    5.00
  26  10  -6   12.62    5.15
  24 -10  -6   20.53    5.63
 -24 -10   6   31.15    5.87
  24  10  -6   30.26    5.93
 -22 -10   6   40.37    5.68
  22 -10  -6   44.04    6.59
  22  10  -6   42.39    6.37
 -22  10   6   39.11    6.92
  20 -10  -6   -1.71    4.13
 -20 -10   6    0.55    4.02
  20  10  -6    5.92    4.48
 -20  10   6   -0.82    4.67
 -20  10   6    3.92    5.46
  18 -10  -6   12.80    4.74
 -18 -10   6    3.39    3.90
 -18  10   6   11.28    4.81
  18  10  -6    3.14    4.32
 -18  10   6   -1.01    5.17
 -16 -10   6    3.53    3.50
  16 -10  -6    2.90    4.23
 -16  10   6    5.51    4.21
  16  10  -6   -5.20    3.70
 -16  10   6   -6.31    4.78
  14 -10  -6   41.00    5.76
 -14  10   6   40.81    5.58
 -14  10   6   42.98    6.28
  14  10  -6   35.96    5.83
  12 -10  -6   -0.01    3.93
 -12  10   6   -5.40    4.69
  12  10  -6   -0.49    3.88
 -12  10   6    1.30    3.92
  10 -10  -6   19.08    4.70
 -10  10   6   31.76    5.34
  10  10  -6   22.17    5.11
 -10  10   6   23.34    5.59
   8 -10  -6  161.24    9.38
  -8  10   6  150.00    9.37
  -8  10   6  141.17    8.87
   8  10  -6  155.96    9.39
   6 -10  -6   -0.33    4.09
  -6  10   6    2.03    4.45
   6  10  -6   -0.55    4.05
  -6  10   6    7.34    4.43
   4 -10  -6    6.15    4.37
  -4  10   6    7.33    4.66
  -4  10   6    4.00    4.52
   4  10  -6   11.25    4.45
   2 -10  -6   20.56    5.18
   2  10  -6   20.36    4.98
  -2  10   6   23.55    5.17
  -2  10   6   21.69    5.27
   0 -10  -6   29.49    5.39
   0  10   6   37.26    5.64
   0  10   6   34.57    5.93
   0  10  -6   40.63    6.26
  -2 -10  -6   14.91    4.88
   2  10   6   23.51    5.27
   2  10   6   23.35    5.79
  -2  10  -6   15.91    5.01
  -4 -10  -6   21.84    5.42
   4  10   6   17.68    5.35
  -4  10  -6   17.22    5.39
  -6 -10  -6   91.88    7.88
   6  10   6   95.79    7.99
  -6  10  -6   76.91    8.22
  -8 -10  -6   36.37    6.36
   8  10   6   41.46    6.43
 -10 -10  -6    7.93    4.94
 -12 -10  -6   39.37    6.94
  14 -10   6    4.63    3.43
 -14 -10  -6   -4.58    5.20
 -16 -10  -6   -0.22    6.00
  16 -10   6    2.37    3.65
  25  11  -6    2.26    4.55
 -23 -11   6   26.48    5.75
  23 -11  -6   26.75    6.09
  23  11  -6   24.72    5.99
 -23  11   6   27.19    8.15
 -21 -11   6   56.65    6.39
  21 -11  -6   64.57    7.59
  21  11  -6   52.78    7.50
 -21  11   6   45.38    7.13
 -19 -11   6   28.60    5.07
  19 -11  -6   15.23    5.35
 -19  11   6   16.71    5.65
  19  11  -6   20.46    5.46
 -19  11   6   27.41    6.34
  17 -11  -6   14.23    5.11
 -17 -11   6    3.98    4.13
  17  11  -6   12.91    4.82
 -17  11   6   12.32    5.93
 -17  11   6   17.85    5.14
  15 -11  -6    8.66    4.84
 -15  11   6   10.44    5.67
  15  11  -6   13.27    4.98
 -15  11   6   31.25    5.54
  13 -11  -6   41.76    6.31
 -13  11   6   64.19    6.90
 -13  11   6   61.49    7.34
  13  11  -6   60.75    7.32
  11 -11  -6   97.73    8.02
  11  11  -6   92.53    8.71
 -11  11   6   91.85    8.10
 -11  11   6   93.10    7.86
   9 -11  -6    1.07    4.36
   9  11  -6   10.49    4.68
  -9  11   6   11.03    5.55
  -9  11   6    5.08    4.45
   7 -11  -6   18.37    5.12
  -7  11   6   32.80    5.90
  -7  11   6   36.77    5.91
   7  11  -6   29.68    5.93
  -5  11   6   28.99    5.87
   5  11  -6   25.63    5.53
  -5  11   6   38.33    6.11
   3 -11  -6    1.59    4.34
   3  11  -6   -2.47    4.00
  -3  11   6    4.78    4.60
  -3  11   6   -8.09    4.76
   1 -11  -6   87.50    7.65
  -1  11   6   91.40    7.97
   1  11  -6   92.11    8.80
  -1  11   6   87.26    8.35
  -1 -11  -6   39.12    6.07
   1  11   6   43.84    6.55
  -1  11  -6   39.92    6.83
   1  11   6   45.43    6.83
  -3 -11  -6    7.26    4.85
   3  11   6    4.20    4.90
   3  11   6   10.55    5.44
  -3  11  -6   -1.41    4.22
  -5 -11  -6   35.92    6.18
  -5  11  -6   26.78    6.21
   5  11   6   12.68    5.74
   5  11   6   38.74    6.54
  -7 -11  -6    3.23    4.94
   7  11   6    0.95    5.25
  -9 -11  -6    7.11    5.27
 -11 -11  -6   14.86    5.83
  13 -11   6   11.46    3.79
 -13 -11  -6   12.92    6.01
  20 -12  -6   39.22    6.91
 -20 -12   6   42.70    5.98
 -20  12   6   29.64    7.16
  20  12  -6   40.29    6.94
 -18 -12   6   10.60    4.60
  18 -12  -6    9.62    5.32
 -18  12   6    4.53    5.25
 -18  12   6    5.78    6.22
  18  12  -6    5.21    4.72
  16 -12  -6   -0.86    4.75
 -16  12   6    7.61    5.06
 -16  12   6    2.17    5.41
  16  12  -6    7.38    5.00
  14 -12  -6    7.19    4.92
  14  12  -6    0.94    4.26
 -14  12   6    4.16    5.63
 -14  12   6   10.32    4.93
  12 -12  -6   27.55    5.98
 -12  12   6   23.07    5.65
 -12  12   6   22.54    6.30
  12  12  -6   30.36    6.05
  10 -12  -6   78.25    7.78
 -10  12   6   54.25    7.61
  10  12  -6   85.57    8.87
 -10  12   6   65.17    7.39
   8 -12  -6   17.59    5.33
   8  12  -6   20.05    5.49
  -8  12   6   10.30    5.83
  -8  12   6   18.66    5.47
   6 -12  -6   13.42    5.16
   6  12  -6    5.90    4.65
  -6  12   6    9.99    5.62
  -6  12   6   13.48    5.24
   4 -12  -6    2.41    4.95
  -4  12   6    4.01    4.78
  -4  12   6   -9.61    4.85
   4  12  -6    1.88    4.46
   2 -12  -6   20.47    5.78
   2  12  -6   23.78    5.84
  -2  12   6   21.61    5.69
  -2  12   6   22.50    5.79
   0 -12  -6   10.35    5.22
   0  12   6   15.47    5.55
   0  12   6    4.46    5.56
   0  12  -6    9.28    5.10
  -2 -12  -6    6.93    5.01
  -2  12  -6    4.10    4.85
   2  12   6   -3.61    5.28
   2  12   6    5.81    5.23
  -4 -12  -6    0.27    4.72
   4  12   6   -5.00    4.64
   4  12   6   -1.75    4.97
  -4  12  -6   -4.62    4.88
  -6 -12  -6   -3.97    4.82
   6  12   6    0.58    5.11
  -6  12  -6   -1.70    4.98
   6  12   6    4.94    5.62
  -8 -12  -6   -0.58    5.21
   8  12   6   -2.21    5.45
 -10 -12  -6    1.64    5.77
  10  12   6    0.83    5.71
  15 -13  -6   96.02    8.94
 -15  13   6   86.62    8.92
  15  13  -6   87.88    9.25
 -15  13   6  104.27    9.37
  13 -13  -6   72.82    8.08
 -13  13   6   57.80    7.99
 -13  13   6   68.20    8.21
  13  13  -6   78.14    8.85
  11 -13  -6    0.83    5.21
 -11  13   6    9.39    5.47
 -11  13   6   -4.40    5.79
  11  13  -6   13.98    5.69
   9 -13  -6   43.07    6.73
  -9  13   6   33.28    7.25
  -9  13   6   33.51    6.60
   9  13  -6   38.39    7.02
   7 -13  -6   96.21    8.71
   7  13  -6  100.95    9.70
  -7  13   6  105.81    9.61
   5 -13  -6  207.01   11.56
  -5  13   6  185.93   11.68
   5  13  -6  186.29   12.04
  -5  13   6  204.32   11.78
   3 -13  -6   23.19    6.07
   3  13  -6   20.24    6.11
  -3  13   6   20.47    5.97
  -3  13   6   27.70    6.67
   1 -13  -6    7.60    5.33
  -1  13   6   12.59    5.87
  -1  13   6   14.07    6.05
   1  13  -6   15.79    6.21
  -1 -13  -6    3.90    5.41
  -1  13  -6    4.73    5.41
   1  13   6    6.88    6.04
   1  13   6    8.25    5.47
  -3 -13  -6   32.47    6.56
   3  13   6   39.82    7.35
   3  13   6   38.18    6.85
  -3  13  -6   43.86    7.36
  -5 -13  -6   52.58    7.48
  -5  13  -6   35.24    7.60
   5  13   6   51.72    8.01
   5  13   6   53.65    7.88
 -36   0   7  -14.59    5.62
  36   0  -7   -0.75    4.44
  34   0  -7    1.34    4.25
 -34   0   7    2.38    6.13
  32   0  -7    4.40    4.65
  32   0  -7    2.01    3.82
 -32   0   7    2.37    5.22
  30   0  -7    0.97    3.97
  30   0  -7    1.01    4.33
 -30   0   7    0.32    4.94
 -28   0   7    1.82    4.80
  28   0  -7   -1.28    3.67
  28   0  -7   -1.14    4.00
 -26   0   7   -4.02    4.68
  26   0  -7   -1.64    4.02
  26   0  -7   -2.06    3.29
 -26   0   7    3.35    4.88
  24   0  -7    3.60    3.88
 -24   0   7   -3.70    4.36
 -24   0   7    0.61    4.70
  24   0  -7   -1.67    3.91
  24   0  -7    2.51    3.35
 -24   0   7   -3.22    5.04
 -22   0   7    5.76    4.22
  22   0  -7   -1.56    2.95
 -22   0   7   -4.76    4.42
  22   0  -7   -1.53    2.88
  22   0  -7    0.85    3.68
 -22   0   7   -2.39    4.35
 -20   0   7   -4.10    3.80
  20   0  -7   -2.00    2.61
 -20   0   7    1.39    3.59
 -20   0   7    6.61    4.02
  20   0  -7    3.06    3.28
  20   0  -7   -0.12    2.84
 -18   0   7   -3.84    3.10
 -18   0   7   -0.41    3.34
  18   0  -7    0.91    2.31
 -18   0   7    0.84    3.55
 -16   0   7    0.32    2.96
 -16   0   7    0.23    2.69
  16   0  -7   -0.42    2.04
 -16   0   7    0.40    2.89
  14   0  -7   -1.12    1.81
 -14   0   7   -1.33    2.54
 -14   0   7   -2.34    2.48
 -14   0   7   -1.64    2.79
  14   0  -7   -3.13    2.13
 -12   0   7   -2.16    2.44
  12   0  -7    1.77    2.00
  12   0  -7   -0.07    1.86
 -12   0   7    1.54    2.09
 -12   0   7   -2.24    2.14
 -10   0   7    2.50    2.08
 -10   0   7   -1.04    2.23
  10   0  -7   -0.87    1.54
  -8   0   7    1.24    2.13
   8   0  -7    0.05    1.52
  -8   0   7    4.16    2.18
  -6   0   7   -1.06    1.99
   6   0  -7   -0.78    1.54
  -6   0   7   -1.18    1.99
  -4   0   7   -1.61    1.99
  -4   0   7   -0.06    1.87
   4   0  -7    1.78    1.56
  -2   0   7    3.58    1.97
   2   0  -7   -1.17    1.66
  -2   0   7    1.25    2.05
   0   0   7   -0.25    2.18
   0   0  -7   -0.21    1.76
   0   0   7    1.97    1.95
  -2   0  -7    0.67    2.01
   2   0   7   -1.58    2.15
  -4   0  -7   -0.93    2.19
   4   0   7   -3.21    2.27
  -6   0  -7   -1.61    2.51
  -6   0  -7   -2.09    3.16
   6   0   7   -0.26    2.56
  -8   0  -7   -1.78    2.92
   8   0   7   -0.93    2.77
  -8   0  -7   -1.86    3.42
  10   0   7   -4.24    3.05
 -10   0  -7    4.07    3.33
 -10   0  -7   -2.56    4.01
  12   0   7    0.32    3.45
 -12   0  -7   -2.67    3.67
 -12   0  -7   -5.14    4.26
 -14   0  -7   -0.86    3.81
  14   0   7    1.92    3.51
 -14   0  -7    4.81    4.46
 -16   0  -7   -1.65    3.97
  16   0   7    5.37    3.94
 -16   0  -7    1.24    4.59
 -18   0  -7    3.51    4.48
 -18   0  -7   -1.37    4.97
  18   0   7   -4.81    3.59
 -20   0  -7   -0.07    5.31
  20   0   7   -0.54    4.30
  22   0   7   -2.29    4.06
  24   0   7   -2.92    4.44
  26   0   7    5.55    5.33
  37  -1  -7    9.82    5.48
 -37  -1   7   13.61    6.98
 -37   1   7   13.98    7.02
  35  -1  -7   36.63    6.01
 -35  -1   7   29.93    6.91
  35  -1  -7   28.92    6.04
 -35   1   7   23.91    6.90
  33  -1  -7   11.08    5.20
 -33  -1   7   10.72    5.85
  33  -1  -7   10.06    4.76
 -33   1   7    7.19    5.70
  33   1  -7    8.87    4.37
 -31  -1   7   12.63    5.74
  31  -1  -7   15.40    4.79
  31  -1  -7   21.00    5.35
 -31   1   7   13.99    5.84
  31   1  -7   28.58    4.90
  29  -1  -7   53.10    6.17
  29  -1  -7   56.43    6.21
 -29  -1   7   58.17    7.05
  29   1  -7   61.33    5.89
 -29   1   7   57.84   11.44
 -29   1   7   56.07    7.16
 -27  -1   7    1.23    4.75
  27  -1  -7    1.84    3.78
  27  -1  -7    6.14    4.53
 -27   1   7   -1.89    5.35
  27   1  -7    2.82    3.50
 -27   1   7    6.74    4.82
 -25  -1   7   37.50    6.21
 -25  -1   7   31.96    5.60
  25  -1  -7   32.72    4.85
  25  -1  -7   25.07    5.28
 -25   1   7   30.34    6.56
  25   1  -7   38.13    4.76
 -25   1   7   23.34    5.52
 -25   1   7   34.89    5.97
  25   1  -7   29.29    4.81
  23  -1  -7   46.03    5.43
  23  -1  -7   46.34    4.97
 -23  -1   7   52.15    7.55
 -23  -1   7   42.66    5.73
 -23  -1   7   37.92    5.83
 -23   1   7   49.34    6.09
  23   1  -7   48.37    4.73
 -23   1   7   57.23    6.49
 -23   1   7   53.29    6.15
  21  -1  -7    8.87    3.49
  21  -1  -7    6.13    3.78
  21  -1  -7   10.72    3.46
  21  -1  -7    9.62    3.32
 -21  -1   7   10.34    4.15
 -21  -1   7    7.96    4.27
 -21  -1   7   10.30    4.69
 -21   1   7    6.61    4.38
 -21   1   7   15.67    4.74
  21   1  -7   13.92    3.19
 -21   1   7    9.16    4.25
  19  -1  -7   18.76    3.46
 -19  -1   7   19.32    4.09
 -19  -1   7   22.51    4.42
  19  -1  -7   21.71    3.42
  19  -1  -7   21.65    4.01
 -19  -1   7   19.57    4.14
 -19   1   7    9.66    4.35
 -19   1   7   18.15    4.26
 -19   1   7   18.70    4.14
  19   1  -7   22.84    3.38
  17  -1  -7   57.42    4.60
 -17  -1   7   57.45    4.89
 -17  -1   7   52.90    4.51
  17  -1  -7   56.54    4.73
  17  -1  -7   65.10    4.66
  17  -1  -7   65.12    4.15
 -17   1   7   56.20    4.95
  17   1  -7   62.05    4.29
 -17   1   7   57.62    4.96
 -17   1   7   57.13    4.97
  17   1  -7   61.33    4.36
  15  -1  -7  108.06    5.36
 -15  -1   7  107.03    5.78
  15  -1  -7  109.55    5.32
  15  -1  -7  109.92    5.18
 -15  -1   7  109.28    5.74
  15  -1  -7  104.01    5.73
 -15   1   7  101.76    5.97
  15   1  -7  109.13    5.32
  15   1  -7  105.97    4.71
 -15   1   7  103.19    6.43
 -15   1   7  122.09    6.25
  13  -1  -7   45.80    3.82
 -13  -1   7   46.03    3.73
 -13  -1   7   40.38    3.70
  13  -1  -7   39.91    3.40
 -13   1   7   39.41    3.90
  13   1  -7   42.27    3.17
 -13   1   7   41.75    4.09
 -13   1   7   37.17    3.91
 -11  -1   7   49.19    3.87
 -11  -1   7   44.67    3.38
  11  -1  -7   47.24    3.86
  11  -1  -7   46.39    3.46
  11   1  -7   38.13    2.94
 -11   1   7   35.02    3.63
 -11   1   7   52.00    4.22
 -11   1   7   38.64    3.68
   9  -1  -7   14.44    2.42
  -9  -1   7   14.41    2.41
  -9   1   7   11.18    2.77
  -9   1   7   10.41    2.72
  -9   1   7    8.42    2.41
   7  -1  -7 1012.61   20.59
  -7  -1   7 1023.59   20.18
   7  -1  -7  999.58   20.23
  -7   1   7 1038.97   21.15
  -7   1   7  988.67   20.42
   5  -1  -7   57.80    4.23
  -5  -1   7   54.58    3.89
   5  -1  -7   58.54    4.48
   5  -1  -7   60.21    3.98
  -5   1   7   65.56    4.59
  -5   1   7   55.22    4.41
   3  -1  -7   55.43    3.92
  -3  -1   7   53.85    3.79
   3  -1  -7   58.15    4.10
   3  -1  -7   48.01    3.67
  -3   1   7   55.05    4.10
  -3   1   7   55.76    4.28
   1  -1  -7   53.44    3.89
  -1  -1   7   58.19    3.81
   1  -1  -7   57.05    4.07
   1  -1  -7   58.04    4.04
  -1   1   7   53.55    4.19
  -1   1   7   61.27    4.31
  -1  -1  -7   46.09    3.91
  -1  -1  -7   44.77    3.67
   1  -1   7   45.70    3.67
   1   1   7   46.08    3.89
   1   1   7   45.85    3.73
   3  -1   7   38.20    3.45
  -3  -1  -7   37.50    3.90
  -3  -1  -7   41.02    3.76
  -3   1  -7   33.53    2.78
   3   1   7   33.62    3.46
   3   1   7   34.74    3.67
  -5  -1  -7   62.47    4.76
  -5  -1  -7   53.78    4.46
   5  -1   7   59.98    4.43
   5   1   7   60.14    4.72
  -5   1  -7   53.68    4.05
  -7  -1  -7    8.56    3.90
  -7  -1  -7   17.10    3.57
   7  -1   7   15.82    3.21
   7   1   7   15.17    3.48
  -7   1  -7   17.18    3.07
   9  -1   7   -2.56    2.75
  -9  -1  -7    7.85    3.93
  -9  -1  -7    0.74    3.38
   9   1   7    9.93    3.38
  -9   1  -7    6.45    3.03
  11  -1   7  254.35    9.49
 -11  -1  -7  235.48    9.25
 -11  -1  -7  266.84   10.52
 -11  -1  -7  265.27    9.89
 -11   1  -7  255.05    9.02
  11   1   7  252.22    9.96
 -13  -1  -7    0.52    4.14
  13  -1   7    3.62    3.48
 -13  -1  -7    0.57    4.32
 -13   1  -7    1.70    3.55
  13   1   7    6.29    3.92
 -13   1  -7    2.49    4.54
 -15  -1  -7   79.66    6.83
  15  -1   7   92.70    7.18
 -15  -1  -7   68.17    6.71
 -15  -1  -7   85.03    7.09
 -15   1  -7   73.31    6.66
 -15   1  -7   76.44    6.06
  15   1   7   95.06    7.43
  17  -1   7   40.54    5.34
 -17  -1  -7   30.22    5.89
 -17  -1  -7   33.51    5.88
 -17  -1  -7   34.50    5.70
  17   1   7   32.96    5.30
 -17   1  -7   36.21    5.97
  19  -1   7    0.36    3.78
 -19  -1  -7    2.11    8.50
 -19  -1  -7    3.80    4.86
  19   1   7   12.71    4.71
 -19   1  -7   -1.94    5.09
 -21  -1  -7   -3.72    7.73
  21  -1   7    0.23    4.11
  21   1   7   -5.69    3.98
 -21   1  -7    3.01    5.45
  23  -1   7    3.78    4.73
  23   1   7    4.32    4.69
  25  -1   7    2.43    4.85
  25   1   7   -2.14    4.70
  36  -2  -7    7.96    5.10
  36  -2  -7    9.43    5.78
 -36  -2   7   15.06    6.45
 -36   2   7    7.97    6.74
  34  -2  -7   -0.91    5.05
 -34  -2   7   -3.51    5.66
  34  -2  -7   -4.10    4.30
 -34   2   7   -4.68    5.69
 -32  -2   7   18.77    5.98
  32  -2  -7   17.22    5.13
  32  -2  -7   14.86    5.50
 -32   2   7   15.80    7.21
 -32   2   7   17.66    6.19
  30  -2  -7   -2.56    4.86
  30  -2  -7    6.46    4.26
 -30  -2   7    3.61    5.09
  30  -2  -7    2.43    4.18
  30   2  -7    3.99    3.80
 -30   2   7   -1.09    6.05
 -30   2   7    0.27    5.13
  28  -2  -7  368.70   11.77
  28  -2  -7  409.65   13.50
  28  -2  -7  386.52   13.65
 -28  -2   7  390.73   14.14
 -28   2   7  384.90   14.41
 -28   2   7  406.49   14.45
  28   2  -7  382.72   12.18
  26  -2  -7   20.38    4.94
 -26  -2   7   12.98    5.28
  26  -2  -7   11.27    4.25
  26   2  -7   15.47    3.71
 -26   2   7   20.44    5.76
 -26   2   7   10.62    5.29
 -26   2   7    6.94    5.87
 -24  -2   7  121.39    8.46
 -24  -2   7  136.73    8.93
  24  -2  -7  105.52    8.14
  24  -2  -7  133.16    7.60
  24  -2  -7  123.65    7.77
 -24   2   7  114.97    8.61
  24   2  -7  136.35    6.81
 -24   2   7  112.64    8.80
 -24   2   7  125.36    9.13
  22  -2  -7   49.40    4.84
  22  -2  -7   57.23    5.27
 -22  -2   7   59.38    5.94
  22  -2  -7   55.78    5.79
 -22  -2   7   56.89    5.89
  22   2  -7   50.81    6.34
 -22   2   7   56.07    6.13
 -22   2   7   57.51    6.17
 -22   2   7   58.26    6.58
  22   2  -7   54.12    4.47
  20  -2  -7    7.95    3.15
  20  -2  -7    1.52    3.67
 -20  -2   7   10.01    4.10
 -20  -2   7    9.50    3.73
  20  -2  -7    7.07    3.45
 -20   2   7    4.74    4.26
  20   2  -7    3.74    2.50
 -20   2   7    5.36    4.21
 -20   2   7    0.48    3.43
 -20   2   7    4.52    4.12
  18  -2  -7   23.24    4.08
  18  -2  -7   15.72    3.31
  18  -2  -7   22.81    3.55
 -18  -2   7   12.57    3.71
 -18  -2   7   18.75    3.75
 -18   2   7   23.51    4.29
 -18   2   7   13.30    4.16
  18   2  -7   20.54    2.88
 -18   2   7   17.39    3.72
 -18   2   7   14.62    4.22
  16  -2  -7    8.68    2.99
 -16  -2   7    5.77    2.90
 -16  -2   7    5.09    2.96
  16  -2  -7    8.56    2.77
  16  -2  -7    8.94    3.21
 -16   2   7    4.22    3.33
 -16   2   7   11.24    3.62
  16   2  -7    9.80    2.24
 -16   2   7    0.63    3.24
 -16   2   7    5.95    3.10
  14  -2  -7   16.92    2.95
 -14  -2   7   17.80    3.08
  14  -2  -7   18.22    3.43
  14  -2  -7   14.42    2.91
 -14   2   7   15.20    3.42
 -14   2   7   16.36    3.68
 -14   2   7   19.37    3.58
  14   2  -7   22.05    2.35
 -14   2   7   18.61    3.39
  12  -2  -7   10.11    2.59
  12  -2  -7    9.33    2.95
  12  -2  -7    9.29    2.51
 -12  -2   7   11.15    2.53
 -12   2   7    7.67    3.02
 -12   2   7   10.32    3.03
 -12   2   7   10.41    3.06
 -10  -2   7    8.42    2.18
  10  -2  -7    8.23    2.28
  10  -2  -7    5.49    2.71
 -10   2   7    5.53    2.75
 -10   2   7    5.41    2.88
 -10   2   7    8.09    2.69
   8  -2  -7  165.54    6.17
   8  -2  -7  181.63    6.61
  -8  -2   7  171.56    5.54
  -8   2   7  163.08    6.63
  -8   2   7  166.26    6.68
  -8   2   7  161.56    6.69
   6  -2  -7  201.00    7.06
   6  -2  -7  187.22    7.04
   6  -2  -7  200.59    6.81
  -6   2   7  201.23    7.00
  -6   2   7  213.63    7.51
  -6   2   7  192.25    6.96
   4  -2  -7   38.17    3.76
   4  -2  -7   48.29    4.04
  -4  -2   7   40.39    3.22
   4  -2  -7   46.06    3.41
   4  -2  -7   41.73    3.66
  -4   2   7   46.05    3.76
  -4   2   7   35.87    3.65
   2  -2  -7  415.45   10.82
   2  -2  -7  408.15   10.59
   2  -2  -7  408.37    9.83
   2  -2  -7  399.70   10.75
  -2  -2   7  406.90    9.48
  -2   2   7  433.24   10.79
  -2   2   7  419.31   11.01
   0  -2  -7   16.15    3.10
   0  -2  -7   12.78    2.85
   0  -2   7   12.52    2.23
   0  -2  -7   14.22    3.26
   0   2   7   11.96    2.84
   0   2   7   12.82    2.77
  -2  -2  -7  168.57    6.96
   2  -2   7  157.28    5.62
  -2  -2  -7  145.65    6.94
  -2  -2  -7  154.16    6.57
   2   2   7  172.39    6.61
   2   2   7  159.81    6.86
  -4  -2  -7   24.47    3.66
   4  -2   7   29.50    3.14
  -4  -2  -7   23.15    4.02
  -4  -2  -7   23.84    3.46
  -4  -2  -7   26.41    3.83
   4   2   7   25.93    3.56
   4   2   7   28.12    3.63
  -6  -2  -7  159.92    8.02
  -6  -2  -7  161.53    7.75
  -6  -2  -7  166.38    7.51
   6  -2   7  157.61    6.45
   6   2   7  156.60    7.25
   6   2   7  156.85    7.31
  -8  -2  -7   -0.99    3.96
   8  -2   7   -2.66    2.45
  -8  -2  -7   -4.30    3.56
  -8  -2  -7    4.91    3.52
   8   2   7    0.96    3.22
  10  -2   7  138.01    7.11
 -10  -2  -7  142.92    8.87
 -10  -2  -7  141.27    8.00
 -10  -2  -7  139.06    8.46
 -10  -2  -7  124.31    7.60
  10   2   7  140.25    7.90
  12  -2   7   11.06    3.73
 -12  -2  -7    9.73    4.53
 -12  -2  -7    7.78    5.17
 -12  -2  -7    7.40    4.80
 -12   2  -7    5.44    3.20
  12   2   7   11.01    4.15
 -14  -2  -7  280.56   11.99
 -14  -2  -7  280.72   11.86
 -14  -2  -7  277.75   11.35
  14  -2   7  288.20   10.69
  14   2   7  271.68   11.20
 -14   2  -7  281.62   10.94
 -16  -2  -7   21.15    5.65
 -16  -2  -7   32.71    5.81
 -16  -2  -7   25.85    5.64
  16  -2   7   28.70    4.75
  16   2   7   31.28    5.26
 -18  -2  -7   17.32    5.54
 -18  -2  -7   30.77    6.32
  18  -2   7   33.12    5.42
  18   2   7   26.28    5.26
 -18   2  -7   17.26    5.38
  20  -2   7   25.31    5.01
 -20  -2  -7   26.08    6.57
 -20  -2  -7   27.64    6.16
 -20   2  -7   14.59    5.57
  20   2   7   32.24    5.94
 -22  -2  -7   -1.36    5.03
  22  -2   7   -1.80    4.06
 -22  -2  -7    2.49    5.94
  22   2   7    1.25    4.49
 -22   2  -7   -2.96    5.12
  24  -2   7   35.72    6.41
 -24  -2  -7   33.36    7.27
  24   2   7   33.80    6.44
 -35  -3   7    3.05    5.82
  35  -3  -7   -3.77    4.70
 -35   3   7    3.44    6.10
 -35   3   7    4.76    6.95
 -33  -3   7   12.16    6.06
  33  -3  -7   17.43    5.27
  33  -3  -7   25.28    6.52
  33  -3  -7   18.61    5.35
 -33   3   7   19.25    7.19
 -33   3   7   13.48    6.26
  31  -3  -7   35.93    5.27
  31  -3  -7   33.81    5.63
  31  -3  -7   27.26    6.05
 -31  -3   7   31.85    6.57
 -31   3   7   31.01    6.47
 -31   3   7   33.85    7.52
  29  -3  -7   -2.80    3.83
  29  -3  -7   -0.09    4.81
 -29  -3   7    8.23    5.14
  29  -3  -7    3.77    4.39
 -29   3   7    0.10    5.95
 -29   3   7   -2.59    5.08
 -27  -3   7  -10.74    4.22
  27  -3  -7   -1.05    3.76
  27  -3  -7    1.43    4.02
  27  -3  -7    2.37    4.64
  27   3  -7    3.04    3.69
 -27   3   7    0.50    4.88
 -27   3   7   -2.79    5.48
  25  -3  -7   42.36    5.39
  25  -3  -7   52.49    6.14
  25  -3  -7   34.62    5.02
 -25  -3   7   29.25    5.54
 -25   3   7   24.06    5.45
 -25   3   7   30.03    5.86
  25   3  -7   37.90    4.16
 -25   3   7   39.75    6.66
  23  -3  -7    4.67    3.64
 -23  -3   7   -1.01    4.53
 -23  -3   7    8.40    4.43
  23  -3  -7    1.20    4.08
  23  -3  -7    6.64    4.56
 -23   3   7   -3.52    4.54
 -23   3   7    5.47    5.60
 -23   3   7    4.74    4.88
  23   3  -7    6.54    2.91
  21  -3  -7   68.60    6.06
 -21  -3   7   77.37    6.16
 -21  -3   7   84.55    6.29
  21  -3  -7   75.81    6.03
  21  -3  -7   65.01    5.44
 -21   3   7   79.16    6.77
 -21   3   7   65.58    6.33
  21   3  -7   70.28    4.75
 -21   3   7   71.80    6.85
 -21   3   7   67.90    5.85
  19  -3  -7   13.72    3.90
  19  -3  -7   11.60    3.95
 -19  -3   7   16.79    3.86
  19  -3  -7    7.56    3.33
 -19  -3   7   11.53    3.88
 -19   3   7   10.96    4.32
 -19   3   7   11.34    4.32
  19   3  -7   17.94    2.67
 -19   3   7   17.68    4.90
 -19   3   7    4.80    3.78
 -17  -3   7  150.56    6.85
  17  -3  -7  146.91    7.02
  17  -3  -7  139.83    6.72
  17  -3  -7  165.95    7.70
 -17   3   7  134.83    7.87
 -17   3   7  159.27    7.98
 -17   3   7  149.66    7.20
 -17   3   7  136.83    7.76
  15  -3  -7    3.43    3.31
  15  -3  -7    3.13    2.95
  15  -3  -7    3.30    2.62
 -15  -3   7    0.34    2.56
 -15   3   7    2.77    3.54
 -15   3   7    8.51    3.28
 -15   3   7    3.85    3.15
 -15   3   7    6.40    3.40
  13  -3  -7   20.04    3.27
  13  -3  -7   21.36    3.66
 -13  -3   7   13.86    2.71
  13  -3  -7   17.66    3.23
 -13   3   7   14.97    3.53
 -13   3   7   21.86    3.69
 -13   3   7   17.59    3.32
 -13   3   7   16.45    3.59
 -11  -3   7   15.36    2.34
  11  -3  -7   18.36    2.98
  11  -3  -7   13.78    3.41
  11  -3  -7   15.65    3.05
 -11   3   7   20.59    3.32
 -11   3   7    8.90    3.03
  11   3  -7   16.30    2.55
 -11   3   7   13.82    3.26
 -11   3   7   19.02    3.15
   9  -3  -7   18.08    3.06
   9  -3  -7   10.44    3.18
   9  -3  -7   14.10    2.86
  -9   3   7   12.45    3.00
  -9   3   7   17.35    3.34
  -9   3   7   16.83    3.25
   9   3  -7   17.88    2.72
  -9   3   7   15.60    3.17
   7  -3  -7    3.53    2.35
   7  -3  -7    2.85    2.79
   7  -3  -7    6.01    2.68
   7   3  -7    3.18    2.09
  -7   3   7    3.54    2.37
  -7   3   7    3.18    2.60
  -7   3   7    3.28    2.76
  -7   3   7    3.20    2.81
   5  -3  -7   60.05    4.07
   5  -3  -7   62.51    4.65
   5  -3  -7   54.70    4.25
   5  -3  -7   66.14    4.55
  -5   3   7   64.98    4.97
  -5   3   7   58.81    4.35
  -5   3   7   59.46    4.51
  -5   3   7   64.43    4.75
   3  -3  -7   93.42    5.20
   3  -3  -7  101.89    5.88
   3  -3  -7  104.67    5.90
   3  -3  -7  104.45    5.43
  -3   3   7  107.67    5.53
  -3   3   7   97.26    5.33
  -3   3   7  100.18    5.69
   1  -3  -7    6.78    2.89
   1  -3  -7    5.41    2.84
   1  -3  -7    6.95    3.13
  -1   3   7   11.74    2.73
  -1   3   7   12.01    2.90
  -1   3   7    7.69    2.92
  -1  -3  -7   81.12    5.55
  -1  -3  -7   67.99    4.58
  -1  -3  -7   67.97    5.15
  -1  -3  -7   64.09    4.85
   1   3   7   66.89    5.00
   1   3   7   63.09    4.65
   1   3   7   64.40    4.92
  -3  -3  -7    9.09    3.25
   3  -3   7   -0.66    1.92
  -3  -3  -7   -0.12    3.36
  -3  -3  -7    1.41    3.02
   3   3   7   -0.99    2.72
   3   3   7   -1.91    2.64
   3   3   7    0.77    2.78
  -5  -3  -7   14.11    4.22
  -5  -3  -7    8.92    3.61
   5  -3   7   15.27    2.83
  -5  -3  -7   15.39    3.79
  -5  -3  -7   12.22    3.68
   5   3   7   14.04    3.38
   5   3   7   11.92    3.37
   5   3   7   16.45    3.66
  -7  -3  -7   14.86    4.13
  -7  -3  -7   10.47    3.98
   7  -3   7   19.16    3.15
  -7  -3  -7   12.92    4.50
   7   3   7   17.59    3.91
   7   3   7   14.49    3.59
   7   3   7   17.34    3.80
   9  -3   7   36.24    4.13
  -9  -3  -7   42.95    5.27
  -9  -3  -7   29.38    5.48
  -9  -3  -7   33.66    4.98
   9   3   7   37.02    4.85
   9   3   7   42.59    4.97
  11  -3   7  107.22    6.60
 -11  -3  -7   93.29    7.05
 -11  -3  -7  107.13    8.14
 -11  -3  -7   95.06    7.73
  11   3   7  101.55    7.38
  11   3   7  114.71    7.68
 -13  -3  -7   28.83    5.93
 -13  -3  -7   27.50    5.44
  13  -3   7   34.38    4.70
 -13  -3  -7   32.29    5.45
  13   3   7   30.11    5.14
  13   3   7   33.65    5.01
 -15  -3  -7   14.59    5.59
 -15  -3  -7   10.18    4.78
  15  -3   7   10.82    4.01
  15   3   7   15.58    4.60
 -17  -3  -7   -6.71    5.26
  17  -3   7   -1.05    3.46
 -17  -3  -7   -0.81    4.92
  17   3   7    8.75    4.65
  19  -3   7    5.99    4.18
 -19  -3  -7   -5.95    5.89
 -19  -3  -7   12.36    5.35
  19   3   7    7.78    4.74
 -19   3  -7   19.18    5.55
 -21  -3  -7    8.35    5.79
 -21  -3  -7   13.86    6.63
  21  -3   7   10.56    4.47
 -21   3  -7   13.19    5.72
  21   3   7   15.46    5.12
 -23  -3  -7    4.15    6.49
  23  -3   7   19.98    5.44
 -23  -3  -7   16.59    6.20
  23   3   7    6.35    5.30
 -23   3  -7   12.19    5.79
  25  -3   7    9.98    5.15
 -25  -3  -7    3.97    6.92
  25   3   7    9.43    5.58
 -25   3  -7   -1.07    7.83
  36  -4  -7    6.65    5.45
  36  -4  -7   13.03    5.70
 -36  -4   7   13.19    6.79
 -36   4   7   11.34    6.73
 -36   4   7    4.06    7.44
  34  -4  -7   11.15    4.99
 -34  -4   7   11.24    5.89
  34  -4  -7   15.66    5.73
 -34   4   7   -2.53    5.73
 -34   4   7   13.42    7.51
 -32  -4   7    7.42    5.66
  32  -4  -7    3.51    4.64
  32  -4  -7   17.41    5.31
 -32   4   7   -3.30    6.58
 -32   4   7   12.29    6.12
 -30  -4   7   10.35    5.30
  30  -4  -7   19.38    5.99
  30  -4  -7   14.73    5.25
  30  -4  -7   11.90    4.97
 -30   4   7   24.95    7.03
 -30   4   7    9.38    5.72
 -28  -4   7   34.68    5.95
  28  -4  -7   30.92    5.44
  28  -4  -7   26.56    5.18
  28  -4  -7   27.48    5.76
 -28   4   7   40.38    6.78
 -28   4   7   42.73    6.51
  26  -4  -7   23.46    5.35
 -26  -4   7   26.51    5.55
  26  -4  -7   27.54    4.91
  26  -4  -7   30.89    5.18
 -26   4   7   26.98    5.71
 -26   4   7   13.65    5.95
  24  -4  -7   74.62    6.79
  24  -4  -7   70.17    6.43
 -24  -4   7   52.86    6.21
  24  -4  -7   64.99    5.90
 -24   4   7   63.27    6.65
 -24   4   7   52.44    6.41
 -24   4   7   62.71    6.97
  22  -4  -7   15.85    4.53
  22  -4  -7   32.46    4.85
 -22  -4   7   16.24    4.67
 -22  -4   7   10.66    4.67
  22  -4  -7   19.52    4.90
 -22   4   7   32.32    6.30
 -22   4   7   13.27    5.21
 -22   4   7   21.95    5.24
 -22   4   7   18.85    4.86
  20  -4  -7  259.49    9.53
  20  -4  -7  246.72    9.86
 -20  -4   7  254.41    9.54
  20  -4  -7  270.24   10.35
 -20  -4   7  270.55    9.74
 -20   4   7  237.77   10.68
 -20   4   7  266.65   10.83
 -20   4   7  263.66   10.09
 -20   4   7  249.73   10.50
  18  -4  -7   87.52    6.50
  18  -4  -7   84.62    5.63
 -18  -4   7   91.91    6.16
  18  -4  -7   84.81    6.44
 -18   4   7   90.46    6.75
 -18   4   7  100.30    8.02
  18   4  -7   82.91    5.08
 -18   4   7   94.45    7.40
 -18   4   7   89.89    7.23
  16  -4  -7  230.43    8.85
  16  -4  -7  222.23    9.02
 -16  -4   7  215.30    7.76
  16  -4  -7  213.36    8.02
 -16   4   7  228.35    9.23
  16   4  -7  231.60    7.57
 -16   4   7  223.49    8.68
 -16   4   7  216.09    9.04
 -16   4   7  225.87    9.35
  14  -4  -7   92.63    6.05
  14  -4  -7   87.58    6.01
  14  -4  -7   92.41    6.62
 -14  -4   7   97.53    5.16
 -14   4   7   88.77    6.45
 -14   4   7   84.82    6.08
 -14   4   7   83.19    6.02
 -14   4   7   88.61    6.41
  14   4  -7   93.96    5.09
  12  -4  -7   12.21    3.33
 -12  -4   7   13.23    2.51
  12  -4  -7   15.92    3.68
  12  -4  -7   17.40    3.30
 -12   4   7   16.83    3.93
 -12   4   7   13.26    3.32
 -12   4   7   17.49    3.61
 -12   4   7   19.24    3.77
  12   4  -7   17.40    2.91
  10  -4  -7  181.56    6.86
  10  -4  -7  190.00    7.70
  10  -4  -7  175.17    7.24
 -10   4   7  158.92    6.96
 -10   4   7  176.90    7.49
  10   4  -7  180.73    6.76
 -10   4   7  176.30    7.35
 -10   4   7  176.29    7.51
   8  -4  -7   12.53    3.45
   8  -4  -7   10.44    3.13
   8  -4  -7   19.25    3.26
  -8   4   7   10.56    3.21
  -8   4   7   14.81    3.19
  -8   4   7   23.39    3.51
   8   4  -7   22.52    3.24
  -8   4   7   15.32    3.58
   6  -4  -7  188.11    7.41
   6  -4  -7  210.87    8.02
   6  -4  -7  193.22    7.13
   6   4  -7  207.49    7.58
  -6   4   7  193.28    7.65
  -6   4   7  201.98    7.79
  -6   4   7  206.71    7.81
  -6   4   7  187.03    7.37
   4  -4  -7    0.31    2.69
   4  -4  -7   -1.10    2.86
   4  -4  -7   -0.59    3.12
   4  -4  -7    1.38    2.76
  -4   4   7    2.75    2.81
  -4   4   7   -0.34    2.72
  -4   4   7    2.38    2.71
  -4   4   7    2.66    2.88
   2  -4  -7   -1.21    3.11
   2  -4  -7    1.17    2.81
   2  -4  -7    0.70    2.94
   2  -4  -7    0.43    2.69
  -2   4   7    0.51    2.75
  -2   4   7   -1.29    2.62
  -2   4   7   -2.82    2.58
   0  -4  -7    6.79    3.32
   0  -4  -7   11.45    3.41
   0  -4  -7    9.15    3.70
   0  -4  -7   11.48    3.24
   0   4   7   13.71    3.26
   0   4   7    7.64    3.11
   0   4   7    9.45    3.08
  -2  -4  -7  176.02    7.97
  -2  -4  -7  184.47    7.84
  -2  -4  -7  187.26    8.41
  -2  -4  -7  176.97    7.62
   2   4   7  172.71    7.77
   2   4   7  161.21    7.42
   2   4   7  166.09    7.40
  -4  -4  -7    1.82    4.12
  -4  -4  -7    4.70    3.70
  -4  -4  -7    4.01    3.44
  -4  -4  -7    1.73    3.48
   4   4   7   -1.35    3.02
   4   4   7    4.42    3.35
   4   4   7   -3.09    2.93
   6  -4   7   11.27    2.63
  -6  -4  -7   18.59    4.34
  -6  -4  -7   16.65    4.00
  -6  -4  -7    9.18    4.46
   6   4   7    9.93    3.76
   6   4   7   11.46    3.71
   6   4   7    9.73    3.60
  -8  -4  -7   91.32    7.32
  -8  -4  -7   88.84    6.39
  -8  -4  -7  100.90    7.42
   8  -4   7   92.95    5.52
   8   4   7   88.42    6.63
   8   4   7   94.22    6.93
   8   4   7   80.49    6.66
 -10  -4  -7   56.33    6.15
  10  -4   7   61.98    4.89
 -10  -4  -7   63.81    6.12
 -10  -4  -7   70.64    7.05
  10   4   7   57.08    5.73
  10   4   7   56.04    5.86
 -12  -4  -7   12.43    5.56
  12  -4   7    7.89    3.39
 -12  -4  -7    6.09    4.42
  12   4   7    4.89    3.91
  12   4   7   12.16    4.29
 -14  -4  -7    2.73    5.23
 -14  -4  -7    0.85    4.64
  14  -4   7    0.71    3.27
  14   4   7    1.79    4.05
  14   4   7   -1.05    3.65
 -16  -4  -7   -6.85    5.56
 -16  -4  -7    0.08    4.95
  16  -4   7   -0.96    3.47
  16   4   7   -0.45    4.06
  16   4   7    0.50    4.22
 -18  -4  -7   40.97    7.23
 -18  -4  -7   32.27    6.60
  18  -4   7   39.29    5.49
  18   4   7   33.83    5.69
  18   4   7   34.42    5.72
 -20  -4  -7    3.30    6.31
 -20  -4  -7   -0.84    5.31
  20  -4   7    0.99    4.01
  20   4   7    2.48    4.54
  20   4   7   -1.57    4.39
 -22  -4  -7   -3.13    6.38
  22  -4   7    0.42    4.19
 -22  -4  -7    6.61    5.69
  22   4   7    3.84    5.05
  22   4   7    1.93    4.78
 -22   4  -7    6.54    5.55
 -24  -4  -7   -9.45    6.76
  24  -4   7   -0.65    4.46
 -24  -4  -7   10.87    6.29
 -24   4  -7   10.78    6.21
  24   4   7    1.05    4.95
  24   4   7    4.31    5.15
  35  -5  -7    3.41    5.30
 -35  -5   7    4.91    6.01
  35  -5  -7   -2.92    5.47
 -35   5   7   -8.23    5.72
 -35   5   7   -4.47    6.89
 -33  -5   7   13.20    5.95
  33  -5  -7    8.80    5.37
  33  -5  -7    8.93    5.28
 -33   5   7    2.03    5.77
 -33   5   7   19.34    7.41
  31  -5  -7    0.89    4.58
 -31  -5   7   -0.77    4.97
  31  -5  -7   -3.56    4.57
 -31   5   7   16.27    6.65
 -31   5   7    0.90    5.31
  29  -5  -7   13.45    5.27
 -29  -5   7   14.75    5.26
  29  -5  -7    5.61    4.78
 -29   5   7   10.33    5.79
 -29   5   7   13.10    6.58
  27  -5  -7   63.05    6.66
  27  -5  -7   55.86    6.00
 -27  -5   7   66.44    6.84
  27   5  -7   58.33    5.23
 -27   5   7   58.28    7.32
 -27   5   7   61.91    7.28
  25  -5  -7    2.58    4.45
 -25  -5   7    1.10    4.26
  25  -5  -7   -0.96    3.81
  25  -5  -7    6.26    4.31
 -25   5   7    7.80    5.59
 -25   5   7   -6.15    4.41
  25   5  -7    2.44    2.83
 -25   5   7   -6.26    4.43
  23  -5  -7   24.89    4.91
 -23  -5   7   20.71    4.98
  23  -5  -7   26.94    4.94
  23  -5  -7   18.83    5.00
 -23   5   7   16.80    5.81
 -23   5   7   24.56    5.36
  23   5  -7   25.25    4.03
 -23   5   7   17.03    5.28
  21  -5  -7  138.73    8.09
  21  -5  -7  141.57    8.00
 -21  -5   7  136.94    8.15
 -21  -5   7  140.54    8.17
  21  -5  -7  138.19    8.83
  21   5  -7  138.16    6.70
 -21   5   7  124.08    8.60
 -21   5   7  133.42    9.08
 -21   5   7  148.67    9.71
 -21   5   7  149.15    9.23
  19  -5  -7   19.44    4.27
 -19  -5   7   25.18    4.30
  19  -5  -7   17.19    4.75
  19  -5  -7   12.59    4.00
  19   5  -7   13.71    3.43
 -19   5   7   18.49    4.92
 -19   5   7    9.71    5.08
 -19   5   7   28.44    5.07
 -19   5   7   14.52    4.67
  17  -5  -7    2.87    3.68
  17  -5  -7   -2.01    3.70
 -17  -5   7   -0.43    3.17
  17  -5  -7    1.34    3.27
  17   5  -7    1.80    2.70
 -17   5   7    0.92    3.92
 -17   5   7    0.64    4.47
 -17   5   7    6.91    4.01
 -17   5   7   -1.29    4.17
  15  -5  -7   32.58    4.51
  15  -5  -7   29.38    4.86
  15  -5  -7   25.57    4.14
 -15  -5   7   36.40    3.77
 -15   5   7   28.40    4.52
 -15   5   7   29.93    5.03
 -15   5   7   33.52    4.77
 -15   5   7   42.21    5.03
  15   5  -7   36.12    4.15
  13  -5  -7  185.41    7.72
  13  -5  -7  182.78    8.16
  13  -5  -7  173.46    8.35
  13   5  -7  180.04    7.30
 -13   5   7  168.59    7.89
 -13   5   7  184.66    8.26
 -13   5   7  184.28    8.84
 -13   5   7  172.53    8.25
  11  -5  -7   71.51    5.47
  11  -5  -7   84.61    5.36
  11  -5  -7   86.90    6.57
 -11   5   7   75.39    6.04
 -11   5   7   82.16    6.22
 -11   5   7   78.88    5.88
  11   5  -7   83.67    5.44
 -11   5   7   72.66    5.55
   9  -5  -7  219.90    8.60
   9  -5  -7  226.42    8.06
   9  -5  -7  212.49    8.79
  -9   5   7  232.12    8.48
   9   5  -7  226.72    8.26
  -9   5   7  214.26    8.55
  -9   5   7  209.51    8.51
  -9   5   7  220.47    8.38
   7  -5  -7   88.30    6.56
   7  -5  -7   77.15    5.82
   7  -5  -7   79.87    5.78
  -7   5   7   83.00    6.40
  -7   5   7   77.69    5.90
  -7   5   7   83.15    5.95
  -7   5   7   87.96    6.05
   7   5  -7   86.73    5.65
   5  -5  -7    6.84    3.67
   5  -5  -7    6.21    3.12
   5  -5  -7    3.47    3.29
  -5   5   7   10.59    3.31
   5   5  -7   13.80    3.28
  -5   5   7    5.26    3.15
  -5   5   7    4.56    2.80
  -5   5   7    4.95    3.34
   3  -5  -7    7.00    3.45
   3  -5  -7    6.05    3.19
   3  -5  -7    1.81    3.52
   3  -5  -7    5.78    3.07
  -3   5   7    6.64    3.40
   3   5  -7    7.81    3.08
  -3   5   7    3.73    3.07
  -3   5   7    5.12    3.17
  -3   5   7    5.58    3.12
   1  -5  -7   29.84    4.24
   1  -5  -7   26.83    4.34
   1  -5  -7   25.59    4.47
   1  -5  -7   30.27    4.05
  -1   5   7   18.12    3.75
  -1   5   7   26.58    4.01
  -1   5   7   28.15    3.99
  -1  -5  -7   42.79    4.96
  -1  -5  -7   41.18    5.19
  -1  -5  -7   46.02    4.60
  -1  -5  -7   45.85    4.82
   1   5   7   51.54    4.69
   1   5   7   45.20    4.67
   1   5   7   41.15    4.53
  -3  -5  -7    0.87    3.69
  -3  -5  -7    1.10    3.29
  -3  -5  -7    1.23    3.62
  -3  -5  -7    1.01    4.01
   3   5   7   -3.58    3.07
   3   5   7    3.09    3.43
   3   5   7    0.86    3.09
  -5  -5  -7   97.97    7.19
  -5  -5  -7   89.63    7.06
  -5  -5  -7   86.93    7.11
   5   5   7  100.83    6.78
   5   5   7   93.96    6.91
   5   5   7   94.31    6.90
  -7  -5  -7   32.79    5.70
  -7  -5  -7   37.23    4.95
   7  -5   7   33.01    3.56
  -7  -5  -7   26.42    5.12
   7   5   7   29.38    4.78
   7   5   7   25.04    4.34
   7   5   7   32.11    4.68
  -9  -5  -7    6.42    5.22
  -9  -5  -7    4.25    4.53
   9  -5   7   -0.03    2.65
   9   5   7    0.35    3.63
   9   5   7    5.44    3.89
 -11  -5  -7    9.91    4.80
  11  -5   7    8.49    3.25
 -11  -5  -7   11.46    5.61
  11   5   7    0.42    3.73
  11   5   7    9.02    4.01
 -13  -5  -7   22.43    6.26
  13  -5   7   44.39    4.87
 -13  -5  -7   44.32    6.37
  13   5   7   43.19    5.45
  13   5   7   42.10    5.94
  15  -5   7  196.94    9.05
 -15  -5  -7  208.91   11.34
 -15  -5  -7  188.01   11.83
  15   5   7  197.23   10.51
  15   5   7  199.00   10.07
 -17  -5  -7   53.77    7.19
  17  -5   7   51.66    5.75
 -17  -5  -7   49.98    7.62
  17   5   7   45.88    6.38
  17   5   7   53.11    6.41
 -19  -5  -7   19.03    7.08
  19  -5   7   38.46    5.48
 -19  -5  -7   35.78    6.88
  19   5   7   19.00    5.46
  19   5   7   33.52    5.98
 -21  -5  -7   -1.53    6.60
  21  -5   7   14.74    4.68
 -21  -5  -7    6.02    5.92
  21   5   7    8.68    4.97
  21   5   7    6.73    5.01
 -23  -5  -7   -7.71    6.73
  23  -5   7    0.73    4.53
 -23  -5  -7    5.58    6.34
  23   5   7   -5.86    4.78
  23   5   7    0.38    5.19
  34  -6  -7    8.81    5.83
 -34  -6   7   10.64    5.98
 -34   6   7    6.25    7.27
  32  -6  -7   -0.93    4.84
  32  -6  -7    0.11    5.72
 -32  -6   7   -1.04    5.20
 -32   6   7    1.30    6.71
 -32   6   7   -3.12    5.27
 -30  -6   7   12.33    5.52
  30  -6  -7    5.14    5.14
  30  -6  -7   11.42    5.34
 -30   6   7   10.46    6.71
  30   6  -7   20.58    4.14
 -30   6   7   18.67    5.80
  28  -6  -7  198.19   10.73
 -28  -6   7  193.31   11.02
  28  -6  -7  186.76   10.27
 -28   6   7  198.15   12.08
 -28   6   7  217.71   11.49
  28   6  -7  199.62    9.06
 -26  -6   7  147.97    9.35
  26  -6  -7  158.52    9.34
  26  -6  -7  165.99    9.75
 -26   6   7  165.63   10.90
 -26   6   7  160.85   10.25
  26   6  -7  170.28    8.16
 -24  -6   7   36.21    5.58
  24  -6  -7   35.87    5.50
  24  -6  -7   43.77    5.74
 -24   6   7   55.95    6.42
  24   6  -7   50.55    5.22
 -24   6   7   45.27    6.11
 -24   6   7   52.52    6.83
  22  -6  -7  111.93    8.03
  22  -6  -7   95.52    6.76
 -22  -6   7   97.17    7.56
  22   6  -7   93.93    6.56
 -22   6   7  108.94    8.43
 -22   6   7  106.20    7.80
 -22   6   7  107.86    7.62
 -22   6   7  114.34    9.11
  20  -6  -7   97.61    6.70
  20  -6  -7  104.72    7.48
 -20  -6   7  103.36    7.31
  20  -6  -7  106.01    8.46
 -20   6   7  111.46    8.39
 -20   6   7   99.10    7.36
 -20   6   7  100.86    7.82
 -20   6   7  101.77    8.31
  20   6  -7  105.11    6.70
  18  -6  -7   71.79    6.29
 -18  -6   7   73.90    5.64
  18  -6  -7   81.53    6.27
  18  -6  -7   82.79    6.91
  18   6  -7   85.91    6.22
 -18   6   7   70.59    6.33
 -18   6   7   71.59    6.57
 -18   6   7   98.43    7.14
 -18   6   7   79.95    6.94
  16  -6  -7  264.48    9.82
  16  -6  -7  262.42   10.88
  16  -6  -7  279.82   10.55
 -16  -6   7  261.68    8.72
 -16   6   7  265.21   10.38
  16   6  -7  273.18    9.80
 -16   6   7  261.87   10.88
 -16   6   7  282.08   10.74
 -16   6   7  266.03   10.43
  14  -6  -7  302.31   11.18
  14  -6  -7  311.09   10.25
  14  -6  -7  291.24   10.85
 -14   6   7  325.72   10.97
  14   6  -7  325.34   10.57
 -14   6   7  315.34   10.93
 -14   6   7  327.04   12.99
 -14   6   7  317.56   11.12
 -14   6   7  304.86   11.13
  12  -6  -7  223.38    9.63
  12  -6  -7  219.58    8.82
  12  -6  -7  231.87    9.54
 -12   6   7  214.90    9.31
 -12   6   7  222.08    9.14
  12   6  -7  233.57    8.83
 -12   6   7  199.42    9.54
 -12   6   7  214.69    9.19
  10  -6  -7   97.82    6.97
  10  -6  -7  106.08    6.88
  10  -6  -7  103.12    7.40
 -10   6   7  106.91    7.13
 -10   6   7   95.95    7.48
 -10   6   7  103.25    7.11
 -10   6   7   97.17    6.86
 -10   6   7  104.85    6.05
  10   6  -7  102.63    6.42
   8  -6  -7   19.39    4.37
   8  -6  -7   12.12    3.81
   8  -6  -7   10.90    3.88
  -8   6   7   11.84    3.59
   8   6  -7    8.34    3.46
  -8   6   7    8.81    3.66
  -8   6   7    6.79    3.68
  -8   6   7    5.88    3.95
   6  -6  -7    1.57    3.29
   6  -6  -7    3.34    3.64
   6  -6  -7   -2.28    3.66
   6   6  -7    7.51    3.32
  -6   6   7    6.32    3.13
  -6   6   7   -1.61    3.36
  -6   6   7    2.48    3.73
  -6   6   7    1.00    3.33
   4  -6  -7  170.27    8.45
   4  -6  -7  179.00    8.94
   4  -6  -7  185.90    8.06
  -4   6   7  185.52    8.17
  -4   6   7  194.09    8.39
  -4   6   7  192.66    8.56
  -4   6   7  189.54    8.23
   4   6  -7  189.61    8.50
   2  -6  -7   -2.35    3.67
   2  -6  -7    1.01    3.65
   2  -6  -7    1.86    3.97
  -2   6   7    0.14    2.95
   2   6  -7    1.78    3.38
  -2   6   7    3.39    3.43
  -2   6   7    7.26    3.61
  -2   6   7    0.32    3.56
   0  -6  -7   30.46    4.26
   0  -6  -7   32.04    5.10
   0  -6  -7   36.82    4.83
   0  -6  -7   38.85    4.96
   0   6   7   41.87    4.86
   0   6   7   39.17    4.63
   0   6   7   32.40    4.69
   0   6   7   32.21    4.60
  -2  -6  -7   45.54    5.36
  -2  -6  -7   47.50    5.70
  -2  -6  -7   42.38    5.22
  -2  -6  -7   42.67    5.64
   2   6   7   45.61    4.92
   2   6   7   52.49    5.37
   2   6   7   52.65    5.27
  -4  -6  -7   27.12    5.61
  -4  -6  -7   36.75    5.57
   4   6   7   40.82    5.15
   4   6   7   34.81    5.01
   4   6   7   33.05    4.66
  -6  -6  -7  148.86    9.74
  -6  -6  -7  158.55    9.00
   6   6   7  150.66    8.09
   6   6   7  133.21    8.41
   6   6   7  147.24    8.36
  -8  -6  -7   58.40    6.37
  -8  -6  -7   57.36    7.06
   8  -6   7   57.72    4.69
   8   6   7   52.01    5.77
   8   6   7   68.17    5.98
 -10  -6  -7    4.78    5.40
 -10  -6  -7   10.18    4.67
  10  -6   7    6.25    2.98
  10   6   7   10.81    4.35
  10   6   7    7.60    3.82
 -12  -6  -7    7.30    5.80
 -12  -6  -7   12.37    5.14
  12  -6   7   21.48    3.80
  12   6   7   21.20    4.53
  12   6   7   20.50    4.66
 -14  -6  -7   66.96    8.10
 -14  -6  -7   67.34    7.42
  14  -6   7   73.94    6.00
  14   6   7   74.80    6.74
  14   6   7   82.55    7.39
 -16  -6  -7  -11.71    5.88
 -16  -6  -7   -2.23    5.28
  16  -6   7   -1.70    3.68
  16   6   7    8.63    4.48
  16   6   7   -0.32    4.24
 -18  -6  -7   10.20    6.08
  18  -6   7   20.09    4.77
 -18  -6  -7   18.49    7.86
  18   6   7   16.92    5.53
  18   6   7    7.39    4.87
  20  -6   7   -3.54    3.71
 -20  -6  -7    7.36    6.07
  20   6   7    2.39    4.45
  20   6   7    8.97    5.06
 -22  -6  -7   39.73    8.11
  22  -6   7   51.44    6.56
  22   6   7   60.30    7.63
  22   6   7   64.36    7.42
 -33  -7   7   -3.66    5.91
  33  -7  -7   -4.21    5.07
 -31  -7   7   58.09    7.46
  31  -7  -7   58.89    7.54
  31   7  -7   60.98    6.28
 -31   7   7   63.58    8.34
  29  -7  -7   24.51    6.02
 -29  -7   7   33.58    6.24
  29   7  -7   44.00    5.53
 -29   7   7   34.42    9.55
 -29   7   7   32.17    7.20
  27  -7  -7    4.11    4.57
 -27  -7   7   -9.35    4.15
 -27   7   7    4.67    6.26
 -27   7   7    2.69    5.00
  27   7  -7    7.89    3.72
  25  -7  -7   47.28    6.39
 -25  -7   7   50.07    6.11
  25  -7  -7   37.38    6.21
  25   7  -7   44.58    5.71
 -25   7   7   44.72    6.36
 -25   7   7   39.99    6.80
  23  -7  -7    1.04    4.09
  23  -7  -7   -5.88    4.25
 -23  -7   7   -1.15    4.14
 -23   7   7    1.76    4.64
  23   7  -7   -0.20    3.25
 -23   7   7   -3.74    4.35
  21  -7  -7   65.33    6.07
  21  -7  -7   55.67    6.15
 -21  -7   7   50.27    5.56
 -21   7   7   63.14    6.75
 -21   7   7   57.18    6.23
  21   7  -7   60.40    5.96
 -21   7   7   62.49    6.75
 -21   7   7   67.16    6.57
  19  -7  -7   45.62    5.75
  19  -7  -7   45.33    5.48
 -19  -7   7   62.54    5.55
 -19   7   7   53.39    6.06
 -19   7   7   50.00    6.01
 -19   7   7   56.09    6.32
 -19   7   7   43.37    6.02
  19   7  -7   60.12    5.68
  17  -7  -7  118.50    7.91
  17  -7  -7  116.54    8.11
 -17  -7   7  121.14    6.83
 -17   7   7  127.80    8.50
 -17   7   7  127.19    8.75
  17   7  -7  123.81    7.41
 -17   7   7  123.31    8.17
 -17   7   7  114.03    8.14
  15  -7  -7   82.87    6.86
  15  -7  -7  102.84    6.77
  15  -7  -7  114.24    7.91
 -15   7   7   98.80    6.98
 -15   7   7   99.09    7.81
  15   7  -7  103.36    7.01
 -15   7   7  109.39    8.56
 -15   7   7   97.38    7.75
  13  -7  -7   41.20    5.65
  13  -7  -7   45.47    5.26
  13  -7  -7   38.27    5.24
 -13   7   7   34.45    6.40
 -13   7   7   43.69    5.67
  13   7  -7   45.19    5.45
 -13   7   7   32.35    5.19
 -13   7   7   45.22    5.30
 -13   7   7   41.37    5.18
  11  -7  -7    2.90    3.91
  11  -7  -7    7.60    3.98
  11  -7  -7    5.87    4.24
 -11   7   7    1.84    4.50
 -11   7   7   -0.53    3.79
 -11   7   7    3.87    4.09
 -11   7   7    2.02    4.18
 -11   7   7    3.70    3.97
 -11   7   7    8.05    3.60
  11   7  -7    4.94    3.46
   9  -7  -7  269.64   10.59
   9  -7  -7  242.03   10.17
   9  -7  -7  258.39    9.51
  -9   7   7  258.59    9.95
  -9   7   7  261.75    9.49
   9   7  -7  242.10    9.79
  -9   7   7  249.06   10.19
  -9   7   7  237.21   10.09
  -9   7   7  237.27   10.03
  -9   7   7  240.40    9.54
   7  -7  -7  244.76   10.10
   7  -7  -7  241.78    9.41
   7  -7  -7  238.52   10.24
  -7   7   7  231.85    9.61
  -7   7   7  239.60    9.81
  -7   7   7  227.55    9.82
  -7   7   7  248.72    9.57
  -7   7   7  235.64    9.22
   7   7  -7  238.98    9.80
  -7   7   7  244.24    9.85
   5  -7  -7  147.71    8.63
   5  -7  -7  130.61    7.92
   5  -7  -7  129.53    7.69
  -5   7   7  136.12    8.04
  -5   7   7  123.01    7.85
  -5   7   7  137.26    7.77
  -5   7   7  128.88    7.44
   5   7  -7  142.47    8.06
  -5   7   7  114.83    7.78
   3  -7  -7  364.44   12.17
   3  -7  -7  342.94   12.18
   3  -7  -7  332.97   11.20
  -3   7   7  354.69   11.28
   3   7  -7  341.16   12.27
  -3   7   7  339.57   11.41
  -3   7   7  326.88   11.38
  -3   7   7  326.38   11.38
  -3   7   7  322.68   11.29
   1  -7  -7  149.35    9.31
   1  -7  -7  166.79    8.55
   1  -7  -7  182.18    9.13
  -1   7   7  157.86    8.68
  -1   7   7  146.40    8.59
  -1   7   7  156.24    8.59
   1   7  -7  163.94    9.03
  -1   7   7  158.59    8.25
  -1   7   7  154.92   10.01
  -1  -7  -7   49.26    5.66
  -1  -7  -7   49.62    5.75
  -1  -7  -7   51.97    6.15
   1   7   7   46.52    5.32
  -1   7  -7   58.66    6.59
   1   7   7   48.34    5.63
   1   7   7   46.93    5.44
   1   7   7   48.23    5.22
  -3  -7  -7  368.42   12.81
  -3  -7  -7  346.34   13.08
   3   7   7  359.82   12.16
   3   7   7  361.56   12.12
   3   7   7  335.22   11.48
  -5  -7  -7   18.35    5.06
  -5  -7  -7   18.31    5.51
   5   7   7   21.67    4.75
   5   7   7    7.92    4.03
   5   7   7   17.38    4.39
  -7  -7  -7   -3.56    5.00
  -7  -7  -7    5.09    4.65
   7   7   7   11.04    4.11
   7   7   7   10.76    4.02
   7   7   7    8.47    4.49
  -9  -7  -7  131.58   10.14
  -9  -7  -7  143.05    9.29
   9   7   7  132.75    8.33
   9   7   7  127.93    7.95
  11  -7   7   40.09    4.25
 -11  -7  -7   41.07    6.37
  11   7   7   35.53    5.21
  11   7   7   33.84    5.44
 -13  -7  -7   53.57    6.92
  13  -7   7   44.55    4.80
  13   7   7   52.02    5.82
  13   7   7   53.24    6.37
  15  -7   7    5.39    3.46
 -15  -7  -7    0.03    5.33
  15   7   7    6.73    4.05
  15   7   7    0.36    4.40
 -17  -7  -7   37.40    7.06
  17  -7   7   41.53    5.41
  17   7   7   43.66    6.12
  17   7   7   31.46    5.56
  19  -7   7   51.60    6.05
 -19  -7  -7   55.67    7.96
  19   7   7   33.10    5.81
  19   7   7   43.40    6.53
  21  -7   7   30.20    5.55
 -21  -7  -7   34.73    7.71
  21   7   7   21.35    5.61
  21   7   7   25.12    6.04
  30  -8  -7   47.19    7.09
 -30  -8   7   36.19    6.84
  30   8  -7   40.96    5.73
 -28  -8   7    6.22    5.13
  28  -8  -7   -6.10    4.67
  28   8  -7   -0.66    3.46
  26  -8  -7  104.23    8.71
 -26  -8   7   82.93    7.56
  26   8  -7   98.28    7.91
 -24  -8   7   10.94    4.89
  24  -8  -7   15.27    5.14
 -24   8   7   23.17    6.27
  24   8  -7   18.03    4.73
  22  -8  -7   -0.90    4.06
 -22  -8   7   -0.32    4.10
  22   8  -7    3.34    3.65
 -22   8   7    1.03    5.24
 -22   8   7    3.27    4.66
 -22   8   7   -1.88    4.35
  20  -8  -7  202.89   10.25
 -20  -8   7  186.96    8.89
 -20   8   7  184.31   10.45
 -20   8   7  222.03   10.28
  20   8  -7  196.27    9.68
 -20   8   7  196.33    9.76
  18  -8  -7   85.91    7.36
 -18  -8   7   99.09    6.56
  18  -8  -7   85.61    8.02
 -18   8   7   98.02    7.44
 -18   8   7   86.39    7.33
 -18   8   7   91.93    7.06
  18   8  -7   89.53    7.17
 -18   8   7  103.69    7.97
 -16  -8   7  415.76   11.38
  16  -8  -7  432.69   14.10
  16  -8  -7  412.94   12.88
  16   8  -7  416.95   13.77
 -16   8   7  417.30   13.87
 -16   8   7  416.65   12.97
 -16   8   7  409.08   13.36
  14  -8  -7  276.73   11.15
  14  -8  -7  262.17   10.32
 -14   8   7  285.76   10.75
 -14   8   7  262.94    9.57
  14   8  -7  246.60   10.62
 -14   8   7  241.51   10.20
 -14   8   7  256.22   10.94
  12  -8  -7  174.49    9.35
  12  -8  -7  177.67    8.80
  12   8  -7  175.00    9.02
 -12   8   7  188.10    8.88
 -12   8   7  187.42    9.12
 -12   8   7  170.68    8.11
 -12   8   7  170.99    9.39
  10  -8  -7   41.32    5.23
  10  -8  -7   52.54    5.90
 -10   8   7   44.77    5.32
 -10   8   7   46.96    5.66
  10   8  -7   52.56    6.05
 -10   8   7   51.66    5.39
 -10   8   7   55.10    6.06
 -10   8   7   43.23    5.35
   8  -8  -7   55.45    5.73
   8  -8  -7   57.92    6.25
  -8   8   7   70.00    5.97
  -8   8   7   65.56    6.19
  -8   8   7   75.61    6.28
  -8   8   7   74.22    7.37
  -8   8   7   57.96    5.87
   8   8  -7   78.77    6.79
   6  -8  -7  835.65   20.88
   6  -8  -7  825.59   19.32
  -6   8   7  810.16   19.27
  -6   8   7  776.73   19.98
  -6   8   7  815.74   22.17
   6   8  -7  831.70   21.21
  -6   8   7  818.02   20.09
  -6   8   7  834.85   20.32
   4  -8  -7  362.56   12.10
   4  -8  -7  369.23   13.15
   4   8  -7  358.47   13.03
  -4   8   7  387.75   12.67
  -4   8   7  358.20   12.47
  -4   8   7  380.62   12.31
  -4   8   7  371.99   12.03
   2  -8  -7   55.59    6.33
   2  -8  -7   44.57    5.63
  -2   8   7   57.39    5.77
  -2   8   7   61.75    6.14
  -2   8   7   53.63    5.40
   2   8  -7   49.45    6.24
  -2   8   7   57.06    6.07
   0  -8  -7   96.36    7.39
   0  -8  -7   91.82    7.02
   0   8   7   92.42    7.08
   0   8   7   92.10    6.99
   0   8   7   90.68    6.90
   0   8  -7   95.37    8.19
   0   8   7  101.86    7.19
  -2  -8  -7   81.58    7.06
  -2   8  -7   93.32    8.15
   2   8   7   81.73    6.37
   2   8   7   95.48    6.81
   2   8   7   79.71    6.64
   2   8   7   66.36    5.98
  -4  -8  -7   26.93    5.22
   4   8   7   34.37    4.98
   4   8   7   35.79    5.07
   4   8   7   36.37    5.58
   4   8   7   32.92    5.25
  -6  -8  -7   54.48    6.37
   6   8   7   53.59    6.22
   6   8   7   41.62    5.34
   6   8   7   44.87    5.31
  -8  -8  -7   23.55    5.51
   8   8   7   29.59    5.08
   8   8   7   33.30    4.94
 -10  -8  -7    5.97    4.97
  10   8   7   17.38    4.53
  10   8   7    7.30    4.01
  12  -8   7   19.12    3.71
 -12  -8  -7   28.90    6.09
  12   8   7   14.41    4.62
  12   8   7   25.67    5.06
  14  -8   7  195.38    8.74
 -14  -8  -7  170.48   11.56
  14   8   7  208.87   10.53
  14   8   7  189.28    9.74
 -16  -8  -7    5.97    5.88
  16  -8   7   -4.36    3.39
  16   8   7    0.84    4.18
  16   8   7   -2.69    4.06
 -18  -8  -7   53.45    8.09
  18  -8   7   59.24    6.30
  18   8   7   59.65    7.06
  18   8   7   58.62    6.57
  20   8   7  138.89   13.63
  29  -9  -7    9.19    5.92
 -29  -9   7   10.13    5.81
  29   9  -7   15.86    5.17
  27  -9  -7   -6.01    4.78
 -27  -9   7   -3.79    4.70
  27   9  -7   10.85    4.54
  25  -9  -7   18.67    5.63
 -25  -9   7   21.56    5.47
  25   9  -7    9.30    4.33
  23  -9  -7    8.69    5.03
 -23  -9   7   15.29    5.00
  23   9  -7   17.78    4.94
  21  -9  -7   44.26    6.28
 -21  -9   7   61.02    6.11
  21   9  -7   61.88    6.77
 -21   9   7   57.13    7.15
  19  -9  -7    3.48    4.39
 -19  -9   7    3.05    3.71
 -19   9   7   -2.44    4.97
  19   9  -7   -3.07    3.53
  17  -9  -7   18.32    5.02
  17   9  -7   12.54    4.45
 -17   9   7   10.06    5.13
 -17   9   7   15.49    4.79
 -17   9   7   14.65    4.41
  15  -9  -7    4.19    4.02
  15   9  -7    3.42    3.82
 -15   9   7    6.59    4.03
 -15   9   7   15.78    4.70
 -15   9   7    9.28    5.17
  13  -9  -7   21.94    4.93
 -13   9   7   15.77    4.63
 -13   9   7   15.94    4.35
 -13   9   7   29.30    5.61
  13   9  -7   15.76    4.56
  11  -9  -7    5.86    4.17
 -11   9   7    4.55    3.69
 -11   9   7    1.66    4.65
 -11   9   7    5.80    4.12
  11   9  -7    7.76    4.20
   9  -9  -7   61.66    6.39
  -9   9   7   66.29    6.35
  -9   9   7   68.93    6.82
   9   9  -7   80.09    7.27
  -9   9   7   88.40    6.78
   7  -9  -7  393.38   13.37
  -7   9   7  373.65   12.98
   7   9  -7  359.60   13.42
  -7   9   7  380.58   12.32
  -7   9   7  357.01   11.58
  -7   9   7  377.90   12.93
   5  -9  -7  123.94   11.17
   5  -9  -7  103.53    8.03
  -5   9   7  132.70    7.89
  -5   9   7  124.77    7.56
  -5   9   7  117.35    7.90
  -5   9   7  128.85    8.56
   5   9  -7  114.42    8.32
  -5   9   7  113.92    7.46
   3  -9  -7  231.08   10.64
   3  -9  -7  199.22   11.69
  -3   9   7  221.13   10.25
   3   9  -7  209.00   10.44
  -3   9   7  195.08    9.34
  -3   9   7  231.35   10.66
   1  -9  -7   94.20    7.67
   1  -9  -7   96.16    7.95
  -1   9   7   99.49    7.07
  -1   9   7   96.28    7.44
   1   9  -7  114.00    8.46
  -1   9   7   99.26    7.18
  -1  -9  -7   81.43    7.25
  -1  -9  -7   92.12    8.38
   1   9   7   95.47    7.30
   1   9   7   90.98    6.64
  -1   9  -7   88.73    8.08
   1   9   7   87.16    6.93
  -3  -9  -7   58.82    6.64
   3   9   7   69.24    6.54
   3   9   7   66.13    6.34
  -3   9  -7   60.07    7.15
   3   9   7   58.21    5.74
  -5  -9  -7   93.14    7.91
   5   9   7  107.81    7.99
   5   9   7   95.49    7.41
   5   9   7   93.04    6.93
   5   9   7  102.07    8.06
  -7  -9  -7  207.02   11.16
   7   9   7  190.60   10.14
   7   9   7  196.80    9.36
   7   9   7  205.97    9.87
  -9  -9  -7  133.65    9.84
   9   9   7  140.89    8.33
   9   9   7  131.15    8.65
 -11  -9  -7   -2.02    5.01
  11   9   7    3.12    4.07
  11   9   7   -1.40    3.76
 -13  -9  -7   23.74    6.07
  13  -9   7   23.08    4.05
  13   9   7   17.76    5.06
  13   9   7   22.11    4.81
  15  -9   7   75.74    6.23
 -15  -9  -7   93.24    9.25
  15   9   7   80.49    7.16
 -17  -9  -7   -2.25    6.29
  17  -9   7    2.96    3.96
  17   9   7   -1.39    4.23
 -26 -10   7   20.46    5.82
  26 -10  -7   12.25    5.52
  26  10  -7    8.96    5.17
 -24 -10   7   28.46    5.69
  24 -10  -7   33.44    6.39
  24  10  -7   27.73    5.72
  22 -10  -7    1.22    4.48
 -22 -10   7    9.12    4.63
  22  10  -7   10.47    4.79
 -20 -10   7   75.40    6.38
  20 -10  -7   76.77    7.74
 -20  10   7   63.40    7.50
  20  10  -7   60.22    7.18
  18 -10  -7  100.52    8.29
 -18  10   7  109.20    8.03
 -18  10   7  101.55    8.63
  18  10  -7  110.65    9.22
  16 -10  -7   58.97    6.92
 -16  10   7   58.54    6.22
  16  10  -7   75.99    7.45
 -16  10   7   43.37    6.58
  14 -10  -7   10.90    4.73
  14  10  -7   21.33    5.05
 -14  10   7   23.46    5.00
 -14  10   7   17.02    5.60
  12 -10  -7   94.11    7.84
  12  10  -7   94.07    8.17
 -12  10   7   85.12    7.77
 -12  10   7   96.57    7.72
  10 -10  -7  129.24    8.94
 -10  10   7  140.66    8.62
 -10  10   7  128.95    9.71
  10  10  -7  117.91    8.81
   8 -10  -7  265.48   11.68
  -8  10   7  249.94   11.10
   8  10  -7  258.97   11.71
  -8  10   7  253.28   11.70
   6 -10  -7  288.40   12.19
  -6  10   7  303.93   12.15
   6  10  -7  288.03   12.51
  -6  10   7  295.54   12.28
   4 -10  -7  211.08   11.07
   4  10  -7  224.77   11.39
  -4  10   7  220.86   12.87
  -4  10   7  225.97   10.97
  -4  10   7  232.71   11.06
   2 -10  -7   47.93    6.51
  -2  10   7   47.58    6.31
  -2  10   7   42.50    6.37
  -2  10   7   59.54    7.11
   2  10  -7   48.38    6.61
   0 -10  -7   27.50    5.48
   0  10  -7   12.28    5.21
   0  10   7   20.43    5.46
   0  10   7   18.34    5.61
   0  10   7   20.51    6.60
  -2 -10  -7  217.53   10.94
   2  10   7  209.11   10.74
  -2  10  -7  204.61   11.46
  -4 -10  -7   45.43    6.53
   4  10   7   40.94    6.23
  -4  10  -7   48.69    7.11
   4  10   7   52.17    5.59
  -6 -10  -7   23.28    5.83
   6  10   7   33.02    4.98
  -8 -10  -7   32.93    6.32
 -10 -10  -7   53.99    7.52
  10  10   7   54.03    5.80
 -12 -10  -7   -1.89    5.44
  12  10   7   11.65    4.48
  14 -10   7    5.72    3.69
 -14 -10  -7   -9.90    5.50
  14  10   7   14.12    4.63
  23 -11  -7   30.10    6.64
 -23 -11   7   30.75    5.92
  23  11  -7   28.51    6.23
  21 -11  -7   26.31    6.20
 -21 -11   7   35.16    5.48
  21  11  -7   30.06    6.15
  19 -11  -7   72.02    7.86
 -19 -11   7   76.15    6.35
 -19  11   7   80.78    8.21
  19  11  -7   76.92    8.32
  17 -11  -7    2.92    4.65
 -17  11   7   -1.14    5.52
 -17  11   7    0.71    4.44
  17  11  -7    6.44    4.55
  15 -11  -7   -5.57    4.25
 -15  11   7    3.26    4.51
 -15  11   7   -5.80    5.37
  15  11  -7    4.09    4.23
  13 -11  -7    0.30    4.29
  13  11  -7    2.82    4.15
 -13  11   7    4.20    5.65
 -13  11   7    5.47    4.55
  11 -11  -7    4.66    4.82
 -11  11   7    8.98    4.59
  11  11  -7   10.86    4.66
 -11  11   7    9.58    5.62
   9 -11  -7   79.31    7.71
  -9  11   7   85.85    7.68
  -9  11   7   84.63    7.98
   9  11  -7   86.86    8.45
   7 -11  -7  114.49    9.09
  -7  11   7  129.03    9.83
  -7  11   7  124.87    9.02
   7  11  -7  110.87    9.12
   5 -11  -7   24.95    5.83
  -5  11   7   24.76    5.94
  -5  11   7   30.43    5.82
   5  11  -7   25.64    5.70
   3 -11  -7  126.20    9.51
   3  11  -7  115.94    9.68
  -3  11   7  121.12    8.75
  -3  11   7  122.87    9.62
   1 -11  -7    3.83    4.88
   1  11  -7   14.22    5.53
  -1  11   7   13.44    5.04
  -1  11   7    5.06    5.32
  -1 -11  -7  124.98    9.67
  -1  11  -7   95.81    9.22
   1  11   7  114.18    9.65
   1  11   7  129.02    9.22
  -3 -11  -7   64.34    7.29
  -3  11  -7   50.78    7.44
   3  11   7   52.58    7.23
   3  11   7   58.75    7.75
  -5 -11  -7   49.43    7.02
  -7 -11  -7   -9.70    4.64
  -9 -11  -7    6.03    5.46
 -11 -11  -7   24.65    6.77
 -20 -12   7   -4.03    4.20
  20 -12  -7    3.59    5.31
  20  12  -7    7.80    5.14
  18 -12  -7    5.82    5.19
  18  12  -7   -0.60    4.80
 -18  12   7   -9.24    5.96
 -18  12   7   10.77    8.01
  16 -12  -7    5.10    5.04
 -16  12   7    2.33    4.55
  16  12  -7    9.82    5.13
 -16  12   7   -1.44    5.63
  14 -12  -7    0.82    4.87
 -14  12   7    5.68    5.92
  14  12  -7   -4.50    4.01
 -14  12   7    5.46    4.76
  12 -12  -7   48.58    7.14
 -12  12   7   50.48    7.50
  12  12  -7   53.31    7.39
 -12  12   7   52.47    6.82
  10 -12  -7   56.48    7.36
 -10  12   7   70.84    7.76
  10  12  -7   62.37    7.77
 -10  12   7   59.89    7.74
   8 -12  -7   17.58    5.51
  -8  12   7    9.55    5.79
   8  12  -7   17.18    5.47
  -8  12   7   13.52    4.96
   6 -12  -7    0.85    4.68
   6  12  -7    9.09    4.92
  -6  12   7   -0.35    5.14
  -6  12   7    3.59    4.64
   4 -12  -7   89.27    8.42
  -4  12   7   74.62    8.19
  -4  12   7   94.81    8.36
   4  12  -7   76.88    8.49
   2 -12  -7   90.78    8.57
   2  12  -7   95.52    9.35
  -2  12   7  110.62    8.80
  -2  12   7  104.20    9.16
   0 -12  -7   21.24    5.94
   0  12   7   13.20    5.78
   0  12   7   10.29    5.86
   0  12  -7   20.03    5.91
  -2 -12  -7    6.91    5.36
   2  12   7    2.35    7.52
   2  12   7    8.30    5.28
  -2  12  -7    5.26    5.32
  -4 -12  -7  100.32    9.09
   4  12   7   82.56    9.33
  -4  12  -7   86.59    9.43
  -6 -12  -7   28.16    6.59
   6  12   7   15.70    6.38
  -8 -12  -7   -2.23    5.41
   8  12   7  -11.04    5.05
  13 -13  -7   17.05    5.93
 -13  13   7   19.61    6.05
  13  13  -7   17.67    5.97
 -13  13   7    6.35    6.12
  11 -13  -7    1.65    5.34
 -11  13   7    0.52    5.08
 -11  13   7    5.43    6.23
  11  13  -7    1.41    5.22
   9 -13  -7   -3.13    4.84
  -9  13   7    0.80    5.14
   9  13  -7    3.97    4.88
  -9  13   7    3.77    6.11
   7 -13  -7    1.72    5.16
   7  13  -7    2.49    4.89
  -7  13   7    1.18    4.93
  -7  13   7    5.68    6.32
   5 -13  -7   -5.47    4.53
  -5  13   7   -0.80    5.57
  -5  13   7   -6.37    4.63
   5  13  -7    2.44    4.93
   3 -13  -7   24.27    6.27
  -3  13   7   19.34    6.68
  -3  13   7   30.96    6.63
   3  13  -7   15.05    6.35
   1 -13  -7   82.36    8.65
  -1  13   7   88.72    9.14
  -1  13   7   91.58   10.03
   1  13  -7   78.15    9.60
  -1 -13  -7   10.66    5.87
  -1  13  -7   12.21    6.16
   1  13   7    9.01    6.02
  -3  13  -7    4.11    5.69
   3  13   7    7.70    6.14
 -36   0   8   11.21    6.39
  34   0  -8    4.62    4.41
 -34   0   8    3.60    5.57
  32   0  -8   15.15    4.54
  32   0  -8   16.67    4.82
 -32   0   8   23.53    6.28
 -30   0   8  400.21   15.07
  30   0  -8  422.47   13.46
  30   0  -8  402.18   13.57
  28   0  -8   12.28    4.05
  28   0  -8   11.46    4.56
 -28   0   8   12.74    5.51
 -28   0   8   10.04    4.98
 -26   0   8   81.83    7.44
  26   0  -8   91.31    6.96
 -26   0   8   86.64    7.44
  26   0  -8   78.79    6.50
 -24   0   8   49.94    6.01
  24   0  -8   39.70    5.39
  24   0  -8   39.44    4.93
  24   0  -8   35.80    4.72
 -24   0   8   51.85    6.38
 -22   0   8   36.16    5.42
  22   0  -8   31.83    4.18
 -22   0   8   28.89    5.10
 -22   0   8   34.61    5.41
 -20   0   8    7.26    3.93
 -20   0   8    9.80    4.22
  20   0  -8   10.19    3.02
 -20   0   8   13.14    4.45
 -18   0   8  277.84    9.89
 -18   0   8  280.52    9.78
  18   0  -8  281.95    8.73
 -18   0   8  281.14    9.65
  16   0  -8  279.16   12.71
 -16   0   8  293.03    9.44
  16   0  -8  295.20    8.55
 -16   0   8  270.90    9.49
 -16   0   8  306.41    9.75
  14   0  -8  322.02    8.84
 -14   0   8  332.96    9.97
 -14   0   8  328.67    9.63
 -12   0   8  257.95    8.49
 -12   0   8  256.21    8.06
  12   0  -8  239.98    7.17
 -10   0   8  899.60   19.25
 -10   0   8  894.34   18.62
  10   0  -8  864.09   17.91
   8   0  -8  290.76    7.80
  -8   0   8  306.14    8.56
  -8   0   8  300.59    9.01
  -6   0   8  455.78   11.45
   6   0  -8  450.20   10.45
  -6   0   8  452.46   11.04
  -4   0   8  488.61   11.87
  -4   0   8  512.32   12.37
   4   0  -8  499.89   11.30
   2   0  -8  238.69    7.06
  -2   0   8  246.24    7.86
  -2   0   8  249.94    7.55
   0   0   8    9.52    2.55
   0   0  -8   10.27    2.33
   0   0   8    6.65    2.61
   2   0   8  149.84    6.58
  -2   0  -8  157.32    5.95
  -4   0  -8 1719.98   33.47
  -4   0  -8 1737.01   33.74
  -4   0  -8 1716.36   33.06
   4   0   8 1713.41   34.02
  -6   0  -8  490.14   12.51
   6   0   8  494.59   13.41
  -8   0  -8  118.37    7.86
  -8   0  -8  121.99    6.67
  10   0   8  300.36   10.92
 -10   0  -8  308.34   10.42
 -10   0  -8  313.91   11.54
 -12   0  -8   -2.64    4.23
  12   0   8   -3.27    3.17
 -12   0  -8    4.45    3.67
 -14   0  -8  457.36   13.80
 -14   0  -8  474.22   14.98
  14   0   8  451.88   14.50
  16   0   8  272.22   11.64
 -16   0  -8  276.61   12.39
  18   0   8    6.68    4.36
 -18   0  -8   12.99    5.56
  20   0   8  102.15    8.44
  22   0   8  127.35    9.93
  24   0   8   49.67    7.14
 -37  -1   8  -10.18    6.04
  37  -1  -8   -6.32    4.21
  37  -1  -8   -1.82    5.20
 -37   1   8   -1.55    6.28
 -35  -1   8    3.34    5.89
  35  -1  -8   -1.27    4.39
  35  -1  -8    6.81    5.02
 -35   1   8   -9.89    5.63
 -33  -1   8   -0.21    5.41
  33  -1  -8    0.65    4.81
  33  -1  -8   -5.51    3.91
 -33   1   8   -1.14    5.62
  31  -1  -8    7.22    4.21
 -31  -1   8    6.40    5.63
  31  -1  -8    3.27    4.77
  31   1  -8   10.71    4.01
 -31   1   8    5.93    5.37
  29  -1  -8   -4.85    3.62
  29  -1  -8   -5.18    4.20
 -29  -1   8   -2.28    4.95
 -29   1   8    7.47    5.25
  29   1  -8   -6.64    3.12
  27  -1  -8   16.51    4.30
 -27  -1   8   27.00    5.69
 -27  -1   8   18.53    5.45
  27  -1  -8   16.92    4.79
 -27   1   8   24.35    5.81
 -27   1   8   19.32    5.45
  27   1  -8   22.38    4.28
 -25  -1   8    2.30    4.75
 -25  -1   8   11.81    5.22
  25  -1  -8   11.33    3.82
  25  -1  -8    0.74    4.25
 -25   1   8    4.63    4.84
 -25   1   8    8.63    5.30
 -25   1   8   -0.53    4.75
  25   1  -8   11.44    3.55
  23  -1  -8   37.83    5.09
 -23  -1   8   24.38    5.08
  23  -1  -8   25.10    4.26
 -23  -1   8   33.72    5.72
 -23   1   8   34.09    6.14
  23   1  -8   34.43    4.23
 -23   1   8   33.44    5.76
 -23   1   8   30.14    5.51
 -21  -1   8  115.37    7.77
  21  -1  -8  108.64    6.62
 -21  -1   8  117.53    7.62
  21  -1  -8  113.12    6.57
  21  -1  -8  111.60    7.10
 -21   1   8  107.33    8.10
 -21   1   8  105.85    7.91
 -21   1   8  110.93    7.78
  21   1  -8  108.87    5.95
  19  -1  -8   16.32    3.35
 -19  -1   8   16.07    4.19
  19  -1  -8   17.04    3.94
 -19  -1   8   14.94    4.10
  19  -1  -8   17.07    3.34
  19   1  -8   20.54    3.67
 -19   1   8   13.60    4.18
  19   1  -8   16.05    3.10
 -19   1   8   23.46    4.60
 -19   1   8   20.03    4.45
  17  -1  -8   26.99    3.46
 -17  -1   8   27.23    4.06
  17  -1  -8   30.56    4.10
 -17  -1   8   27.26    4.05
  17  -1  -8   28.59    3.62
 -17   1   8   19.67    3.95
  17   1  -8   24.01    3.38
  17   1  -8   30.86    3.30
 -17   1   8   24.83    4.34
 -17   1   8   29.48    4.38
 -15  -1   8   68.76    4.86
  15  -1  -8   69.71    4.89
 -15  -1   8   61.61    4.77
  15  -1  -8   63.82    4.59
  15   1  -8   62.68    3.91
 -15   1   8   61.68    5.05
 -15   1   8   60.46    5.05
 -15   1   8   62.25    5.03
 -13  -1   8    3.76    2.37
  13  -1  -8    2.14    2.21
 -13  -1   8    1.50    2.48
  13  -1  -8    3.77    2.80
 -13   1   8    0.80    2.42
 -13   1   8    8.14    3.03
  13   1  -8    5.34    2.01
 -13   1   8    1.54    2.82
 -11  -1   8   42.83    3.74
  11  -1  -8   37.90    3.45
  11   1  -8   37.50    2.96
 -11   1   8   48.42    4.50
 -11   1   8   42.01    3.96
 -11   1   8   47.06    4.17
  -9  -1   8  154.69    6.08
   9  -1  -8  153.67    5.86
  -9   1   8  143.67    6.40
  -9   1   8  161.04    6.50
  -9   1   8  141.72    6.31
   7  -1  -8 1040.13   21.62
   7  -1  -8 1016.39   21.03
  -7  -1   8 1053.97   21.15
   7  -1  -8 1039.84   21.20
  -7   1   8 1043.14   22.04
  -7   1   8 1055.10   21.45
   5  -1  -8   35.51    3.80
   5  -1  -8   29.61    4.17
  -5  -1   8   41.94    3.65
   5  -1  -8   50.33    3.93
  -5   1   8   45.50    3.93
  -5   1   8   35.81    3.91
  -3  -1   8    3.65    2.25
   3  -1  -8   -2.54    2.44
   3  -1  -8   -1.89    2.78
   3  -1  -8    3.95    2.25
  -3   1   8    8.50    2.75
  -3   1   8    2.73    2.40
   1  -1  -8  165.87    6.96
   1  -1  -8  166.44    6.62
  -1  -1   8  169.09    6.28
   1  -1  -8  161.38    6.19
  -1   1   8  174.77    6.65
  -1   1   8  163.52    6.75
   1  -1   8   51.34    4.09
  -1  -1  -8   49.37    4.38
  -1  -1  -8   55.64    4.22
  -1  -1  -8   55.66    4.67
   1   1   8   59.28    4.69
   1   1   8   64.42    4.60
  -3  -1  -8   34.63    4.01
   3  -1   8   31.28    3.61
  -3  -1  -8   35.12    4.33
   3   1   8   35.43    3.93
  -3   1  -8   34.58    3.00
   3   1   8   31.31    4.02
  -5  -1  -8  111.70    6.28
   5  -1   8  101.04    6.02
  -5  -1  -8  126.14    7.43
   5   1   8  109.67    6.50
  -5   1  -8  114.80    5.16
   5   1   8  107.91    6.37
  -7  -1  -8  632.51   15.84
  -7  -1  -8  651.96   16.43
   7  -1   8  647.85   15.98
   7   1   8  646.26   16.58
  -9  -1  -8    7.78    3.76
  -9  -1  -8    0.81    4.16
   9  -1   8    8.50    3.71
   9   1   8    4.59    3.56
  -9   1  -8    8.52    3.28
 -11  -1  -8   13.65    4.35
  11  -1   8    8.28    3.83
 -11  -1  -8   14.72    5.01
 -11   1  -8   13.63    4.68
 -11   1  -8   21.14    3.86
  11   1   8   23.33    4.65
 -13  -1  -8   54.29    6.03
 -13  -1  -8   50.53    5.70
  13  -1   8   54.02    5.70
  13   1   8   52.47    5.79
 -13   1  -8   56.14    6.12
  15  -1   8   18.91    4.61
 -15  -1  -8   24.94    5.50
 -15  -1  -8   19.07    4.93
 -15   1  -8   22.37    5.25
  15   1   8   20.28    4.87
 -17  -1  -8   10.64    4.75
 -17  -1  -8    0.67    4.81
  17  -1   8   11.16    4.24
 -17   1  -8    1.22    4.81
  17   1   8   -5.17    3.90
  19  -1   8   -2.90    3.89
 -19   1  -8    0.15    5.09
  19   1   8    5.54    4.46
  21  -1   8   60.85    7.12
  21   1   8   53.69    7.20
 -21   1  -8   55.27    7.25
  23  -1   8    4.39    4.87
  23   1   8    7.70    5.21
 -36  -2   8    3.91    6.11
  36  -2  -8    1.41    5.42
  36  -2  -8    5.06    5.23
 -36   2   8   18.14    6.59
  34  -2  -8   20.05    5.38
  34  -2  -8   12.17    5.37
 -34  -2   8   29.07    6.77
 -34   2   8   17.54    6.51
  32  -2  -8   13.52    5.48
 -32  -2   8    8.62    5.54
  32  -2  -8    3.01    4.41
 -32   2   8    2.46    5.48
  30  -2  -8   65.26    6.97
 -30  -2   8   70.27    7.43
  30  -2  -8   65.63    6.12
  30  -2  -8   72.85    6.93
 -30   2   8   68.48    7.60
 -28  -2   8   15.94    5.30
  28  -2  -8   13.56    4.65
  28  -2  -8   18.44    5.09
 -28   2   8   12.09    5.47
 -28   2   8   12.37    5.38
 -28   2   8   12.94    6.27
  28   2  -8   14.57    3.97
  26  -2  -8   12.43    4.14
 -26  -2   8   17.89    4.94
  26  -2  -8    9.69    4.12
  26  -2  -8   18.27    4.96
 -26  -2   8   22.09    5.39
 -26   2   8    1.52    5.07
 -26   2   8    6.90    5.55
  26   2  -8   11.28    3.53
 -26   2   8   21.80    5.54
  24  -2  -8   24.62    4.50
  24  -2  -8   17.02    4.25
  24  -2  -8   23.55    5.20
 -24  -2   8   31.69    5.63
 -24  -2   8   28.89    5.51
 -24   2   8   10.19    5.74
  24   2  -8   19.32    3.65
 -24   2   8   37.69    6.07
 -24   2   8   27.62    5.56
  22  -2  -8   60.01    5.01
 -22  -2   8   60.29    5.84
  22  -2  -8   58.63    5.73
 -22  -2   8   58.54    6.14
  22  -2  -8   53.97    5.17
 -22   2   8   60.06    6.45
 -22   2   8   44.53    5.88
 -22   2   8   52.09    6.12
  22   2  -8   64.36    5.03
 -20  -2   8   91.92    7.11
  20  -2  -8   85.82    6.19
  20  -2  -8   90.26    6.95
 -20  -2   8   79.37    6.05
  20   2  -8   92.76    5.04
 -20   2   8   87.32    6.89
 -20   2   8   88.18    6.83
 -20   2   8   91.80    7.41
 -18  -2   8   39.01    4.49
  18  -2  -8   34.74    4.62
  18  -2  -8   36.11    4.26
 -18  -2   8   34.28    4.39
  18  -2  -8   39.93    4.25
 -18   2   8   33.78    4.78
  18   2  -8   34.94    3.37
 -18   2   8   32.38    4.89
 -18   2   8   30.09    4.71
 -16  -2   8  233.98    8.03
  16  -2  -8  239.03    8.20
  16  -2  -8  227.33    8.61
 -16  -2   8  219.95    8.19
  16  -2  -8  225.66    8.19
 -16   2   8  222.32    9.06
 -16   2   8  221.82    9.22
 -16   2   8  244.61    9.04
  14  -2  -8    8.99    3.32
  14  -2  -8    0.55    2.37
 -14  -2   8    1.29    2.57
 -14   2   8    5.22    3.38
 -14   2   8    3.82    3.34
 -14   2   8    5.89    3.12
  12  -2  -8   21.25    3.05
 -12  -2   8   25.76    3.28
  12  -2  -8   20.68    3.09
  12  -2  -8   23.20    3.55
 -12   2   8   26.35    3.77
 -12   2   8   21.12    3.66
 -12   2   8   20.45    3.63
 -10  -2   8   88.55    4.64
  10  -2  -8   89.84    5.73
  10  -2  -8   95.22    5.11
 -10   2   8   94.05    5.75
 -10   2   8   95.05    5.76
 -10   2   8   78.56    5.68
   8  -2  -8 2134.01   38.95
   8  -2  -8 2124.25   38.76
  -8   2   8 2114.14   39.03
  -8   2   8 1804.96   39.62
  -8   2   8 2076.61   39.01
   6  -2  -8   -6.20    3.34
  -6  -2   8    3.04    2.59
   6  -2  -8    2.27    3.32
   6  -2  -8    8.47    3.06
  -6   2   8    3.34    3.33
  -6   2   8    5.31    3.27
   4  -2  -8   70.30    5.00
   4  -2  -8   63.28    5.14
   4  -2  -8   71.58    5.13
  -4  -2   8   75.16    4.28
  -4   2   8   69.55    5.18
  -4   2   8   76.57    5.43
   2  -2  -8  125.93    6.23
   2  -2  -8  117.89    5.77
  -2  -2   8  117.31    4.96
   2  -2  -8  113.47    6.37
  -2   2   8  127.29    6.29
  -2   2   8  120.01    6.11
   0  -2   8   93.07    4.71
   0  -2  -8   87.52    5.47
   0  -2  -8   87.16    6.16
   0  -2  -8   94.87    6.07
   0   2   8   91.91    5.89
   0   2   8   80.17    5.47
   2  -2   8  337.91    9.28
  -2  -2  -8  335.74   10.56
  -2  -2  -8  337.23   10.54
  -2  -2  -8  346.68   10.33
   2   2   8  338.65   10.22
   2   2   8  333.32   10.56
   4  -2   8   68.65    5.04
  -4  -2  -8   82.59    5.82
  -4  -2  -8   67.83    5.51
  -4  -2  -8   75.57    5.87
   4   2   8   70.63    5.56
   4   2   8   74.41    5.90
  -6  -2  -8  334.26   11.28
  -6  -2  -8  321.98   11.22
   6  -2   8  314.88    9.83
  -6  -2  -8  344.97   10.94
   6   2   8  325.17   11.11
   6   2   8  340.15   10.72
  -8  -2  -8  225.40    9.99
  -8  -2  -8  216.33   10.11
   8  -2   8  233.32    8.81
  -8  -2  -8  233.46    9.66
   8   2   8  226.78    9.31
   8   2   8  228.41    9.47
 -10  -2  -8  390.07   13.12
 -10  -2  -8  385.52   12.61
 -10  -2  -8  383.83   13.14
  10  -2   8  381.15   11.91
  10   2   8  377.67   12.87
 -12  -2  -8  229.37   10.21
 -12  -2  -8  242.22   10.81
  12  -2   8  237.18    9.68
 -12  -2  -8  224.62   10.66
  12   2   8  232.31   10.46
 -14  -2  -8   61.66    6.44
  14  -2   8   66.50    6.04
 -14  -2  -8   54.79    6.47
  14   2   8   56.07    6.28
 -14   2  -8   65.59    6.49
 -16  -2  -8   18.28    5.79
 -16  -2  -8   19.95    5.21
  16  -2   8   22.78    4.84
  16   2   8   26.14    5.21
 -16   2  -8   19.60    5.30
 -18  -2  -8   44.73    6.87
 -18  -2  -8   59.17    6.87
  18  -2   8   53.97    6.32
  18   2   8   53.53    6.69
 -18   2  -8   65.52    7.33
 -20  -2  -8   61.79    7.71
  20  -2   8   59.54    6.60
  20   2   8   75.58    7.72
 -20   2  -8   75.63    7.98
  22  -2   8   76.64    7.85
  22   2   8   81.26    8.19
 -22   2  -8   89.28    8.77
  24  -2   8   53.75    7.35
  24   2   8   53.87    7.64
  35  -3  -8    4.21    4.97
  35  -3  -8    3.37    5.18
 -35  -3   8   12.62    6.08
  35  -3  -8   -1.00    5.49
 -35   3   8   13.42    6.19
 -33  -3   8   36.56    6.83
  33  -3  -8   34.99    5.64
  33  -3  -8   43.20    6.34
  33  -3  -8   38.30    6.63
 -33   3   8   40.04    9.09
 -33   3   8   38.72    7.17
  31  -3  -8   26.47    5.22
  31  -3  -8   22.67    5.98
 -31  -3   8    9.59    5.39
  31  -3  -8   25.42    5.49
 -31   3   8   31.32    6.53
 -31   3   8   23.65    7.17
  29  -3  -8   79.56    7.66
  29  -3  -8   73.56    6.98
 -29  -3   8   63.66    7.22
 -29   3   8   80.70    7.91
 -29   3   8   75.05    8.20
  27  -3  -8   -0.42    3.99
  27  -3  -8    0.38    4.46
 -27  -3   8    1.47    4.66
  27  -3  -8   -2.15    3.99
 -27   3   8   -1.71    5.63
 -27   3   8   -6.42    4.61
 -27   3   8   -3.66    4.72
  25  -3  -8   79.46    6.13
 -25  -3   8   88.76    7.13
  25  -3  -8   85.93    6.93
  25  -3  -8   93.00    7.35
 -25  -3   8   86.51    7.26
 -25   3   8   87.02    7.62
 -25   3   8   75.59    7.57
 -25   3   8   85.75    7.42
  23  -3  -8   21.08    4.49
  23  -3  -8   14.79    4.82
 -23  -3   8   18.99    4.89
 -23  -3   8   26.08    5.08
 -23   3   8   24.90    5.59
  23   3  -8   22.08    3.63
 -23   3   8   19.45    5.85
 -23   3   8   22.12    5.45
 -21  -3   8   48.85    5.41
 -21  -3   8   49.75    5.41
  21  -3  -8   41.64    4.95
  21  -3  -8   61.89    5.68
  21  -3  -8   56.95    5.70
 -21   3   8   54.99    6.10
 -21   3   8   51.56    5.90
 -21   3   8   49.02    6.45
  19  -3  -8  100.72    6.15
 -19  -3   8   95.66    6.77
  19  -3  -8  103.60    6.57
 -19  -3   8  105.22    6.92
  19  -3  -8   98.23    7.12
 -19   3   8   94.01    6.88
 -19   3   8   92.79    6.92
 -19   3   8  103.74    7.72
 -19   3   8   83.30    6.68
  17  -3  -8    9.88    3.25
  17  -3  -8    6.86    3.83
 -17  -3   8    9.85    3.40
 -17  -3   8    7.19    3.32
  17  -3  -8    8.68    3.44
 -17   3   8    6.64    3.52
 -17   3   8    6.26    4.16
 -17   3   8   -1.29    3.56
 -17   3   8    6.69    4.06
 -15  -3   8  154.90    6.72
  15  -3  -8  156.77    7.80
  15  -3  -8  160.06    7.17
  15  -3  -8  160.07    6.81
 -15   3   8  158.61    7.38
 -15   3   8  163.64    8.23
 -15   3   8  165.20    8.02
 -15   3   8  172.37    8.20
  13  -3  -8   68.23    4.69
  13  -3  -8   75.12    5.43
 -13  -3   8   58.04    4.29
  13  -3  -8   70.31    5.41
 -13   3   8   74.32    6.00
 -13   3   8   72.65    5.53
 -13   3   8   59.81    5.26
 -13   3   8   69.88    5.38
 -11  -3   8   17.51    2.69
  11  -3  -8    9.34    3.40
  11  -3  -8    6.73    2.73
  11  -3  -8   10.35    3.15
  11   3  -8   12.95    2.62
 -11   3   8   11.34    3.42
 -11   3   8   13.20    3.39
 -11   3   8   10.91    3.14
 -11   3   8   12.87    3.45
   9  -3  -8  164.50    7.30
   9  -3  -8  162.91    6.79
   9  -3  -8  154.14    6.37
  -9   3   8  159.02    7.09
  -9   3   8  146.70    7.17
  -9   3   8  151.18    7.21
  -9   3   8  148.41    6.59
   7  -3  -8  360.39   10.39
   7  -3  -8  349.49   10.59
  -7   3   8  370.12   10.55
  -7   3   8  351.93   10.52
  -7   3   8  360.35   10.21
   5  -3  -8  810.04   17.10
   5  -3  -8  795.58   18.25
   5  -3  -8  811.82   18.22
   5  -3  -8  794.68   18.23
  -5   3   8  829.26   18.33
  -5   3   8  821.41   18.93
   3  -3  -8   70.89    5.41
   3  -3  -8   71.53    5.40
   3  -3  -8   76.41    5.31
   3  -3  -8   76.88    4.78
  -3   3   8   74.24    5.62
  -3   3   8   71.49    5.08
   1  -3  -8    1.57    3.31
   1  -3  -8    1.67    2.90
   1  -3  -8    2.99    3.08
  -1  -3   8    3.78    2.00
  -1   3   8    7.49    3.07
  -1   3   8    7.08    3.02
  -1  -3  -8    5.84    3.70
  -1  -3  -8   -3.00    2.99
   1  -3   8   -1.85    1.92
  -1  -3  -8   -2.88    3.11
   1   3   8   -2.88    2.67
   1   3   8   -3.77    2.83
  -3  -3  -8   99.58    7.31
  -3  -3  -8   94.83    6.47
  -3  -3  -8   98.55    6.48
   3  -3   8   99.33    5.09
  -3  -3  -8   97.67    7.05
   3   3   8   90.67    6.38
   3   3   8   95.18    6.34
  -5  -3  -8   -0.23    3.69
  -5  -3  -8   -2.10    3.42
   5  -3   8    5.60    2.64
  -5  -3  -8   -1.32    4.00
  -5  -3  -8   -0.49    3.57
   5   3   8    5.60    3.45
   5   3   8    2.06    3.23
  -7  -3  -8  136.36    8.03
   7  -3   8  133.55    6.53
  -7  -3  -8  137.62    8.87
  -7  -3  -8  125.14    8.26
   7   3   8  140.71    8.06
   7   3   8  132.15    7.74
   9  -3   8  133.68    7.00
  -9  -3  -8  121.28    8.40
  -9  -3  -8  122.27    8.61
  -9  -3  -8  127.35    9.24
   9   3   8  122.03    8.14
   9   3   8  115.30    7.80
  11  -3   8   -0.02    3.10
 -11  -3  -8    4.89    4.34
 -11  -3  -8    6.97    4.49
 -11  -3  -8    5.41    4.94
  11   3   8    5.16    3.96
  11   3   8    0.99    3.78
  13  -3   8   63.35    5.71
 -13  -3  -8   54.80    7.43
 -13  -3  -8   74.56    7.04
 -13  -3  -8   71.20    7.32
  13   3   8   60.65    6.34
  13   3   8   68.09    6.60
 -15  -3  -8   12.56    5.38
  15  -3   8   18.09    4.31
 -15  -3  -8   12.88    5.85
  15   3   8    9.80    4.69
  15   3   8   14.93    4.74
 -17  -3  -8   -4.41    4.77
  17  -3   8    2.23    3.71
 -17  -3  -8    3.47    5.89
  17   3   8   -0.51    4.38
  17   3   8   -0.75    4.13
 -19  -3  -8    1.68    5.20
 -19  -3  -8    7.50    6.24
  19  -3   8    4.77    4.11
  19   3   8    2.87    4.75
  19   3   8    6.71    4.69
 -21  -3  -8    3.88    6.14
 -21  -3  -8    0.83    5.49
  21  -3   8   -0.54    4.23
  21   3   8    5.59    4.86
 -21   3  -8   -1.99    5.32
  23  -3   8   11.52    5.22
 -23  -3  -8   -2.48    6.61
  23   3   8   10.74    5.46
 -23   3  -8   13.30    6.36
 -36  -4   8    9.03    6.47
  36  -4  -8   18.19    6.04
  36  -4  -8   14.64    5.57
 -36   4   8    3.79    7.65
 -36   4   8    9.56    6.76
 -34  -4   8    1.22    5.90
  34  -4  -8    6.23    5.12
  34  -4  -8    2.24    4.81
 -34   4   8    5.82    6.15
 -34   4   8    1.39    6.78
  32  -4  -8   32.58    7.62
  32  -4  -8   18.80    5.62
 -32  -4   8   35.93    6.88
  32  -4  -8   24.48    5.43
 -32   4   8   22.29    6.70
 -32   4   8   23.05    7.52
  30  -4  -8   53.85    6.20
  30  -4  -8   65.70    7.00
  30  -4  -8   56.47    7.10
 -30  -4   8   49.76    6.76
 -30   4   8   58.77    7.82
 -30   4   8   55.00    7.40
 -28  -4   8    4.49    4.83
  28  -4  -8    7.28    4.45
  28  -4  -8   -2.84    4.04
  28  -4  -8    3.36    4.76
 -28   4   8    9.99    6.16
 -28   4   8    1.82    5.05
 -28   4   8    7.73    5.08
 -26  -4   8  146.30    9.20
  26  -4  -8  131.82    8.19
  26  -4  -8  132.24    8.25
  26  -4  -8  130.60    9.05
 -26   4   8  144.60   10.17
 -26   4   8  137.79    9.64
 -26   4   8  144.55    9.64
  24  -4  -8   58.35    6.34
 -24  -4   8   68.09    6.55
  24  -4  -8   57.72    5.73
  24  -4  -8   65.45    6.34
 -24  -4   8   54.01    6.06
 -24   4   8   57.30    6.56
 -24   4   8   64.18    7.24
 -24   4   8   69.06    6.86
 -22  -4   8   13.91    4.40
  22  -4  -8   13.54    4.52
  22  -4  -8   17.38    4.34
  22  -4  -8   14.77    4.73
 -22  -4   8   11.83    4.68
 -22   4   8    9.53    5.05
 -22   4   8   16.98    5.14
 -22   4   8   18.92    5.66
 -20  -4   8   60.28    5.53
  20  -4  -8   59.50    5.58
 -20  -4   8   76.18    5.86
  20  -4  -8   73.28    6.39
  20  -4  -8   61.84    5.64
 -20   4   8   60.81    6.31
 -20   4   8   51.08    6.04
 -20   4   8   59.93    6.78
 -20   4   8   45.79    7.40
  18  -4  -8   28.13    4.28
  18  -4  -8   27.52    4.31
  18  -4  -8   25.56    4.82
 -18  -4   8   26.94    4.16
 -18   4   8   21.26    4.90
 -18   4   8   17.13    4.85
 -18   4   8   36.24    4.87
 -18   4   8   26.03    5.26
 -16  -4   8   47.83    4.35
  16  -4  -8   44.71    5.15
  16  -4  -8   40.14    4.71
  16  -4  -8   38.33    4.41
 -16   4   8   49.30    5.01
  16   4  -8   43.04    4.03
 -16   4   8   43.08    5.18
 -16   4   8   46.20    5.52
 -16   4   8   51.42    5.50
  14  -4  -8    2.17    3.62
  14  -4  -8    0.59    3.28
 -14  -4   8   -2.04    2.53
  14  -4  -8    1.96    2.86
 -14   4   8    4.03    3.60
  14   4  -8    3.97    2.44
 -14   4   8    0.96    3.70
 -14   4   8   -1.72    3.28
 -14   4   8    0.72    3.91
  12  -4  -8   67.50    5.64
  12  -4  -8   69.65    5.53
  12  -4  -8   69.26    4.87
  12   4  -8   66.84    4.87
 -12   4   8   65.12    5.45
 -12   4   8   71.32    5.93
 -12   4   8   66.94    5.15
 -12   4   8   63.08    5.48
 -12   4   8   58.69    5.31
  10  -4  -8   17.31    3.64
  10  -4  -8   16.61    3.45
  10  -4  -8   13.06    3.91
 -10   4   8   22.61    3.88
 -10   4   8   15.08    3.71
 -10   4   8   21.83    3.81
 -10   4   8   21.25    4.03
  10   4  -8   18.76    3.24
   8  -4  -8   11.89    3.56
   8  -4  -8   21.38    3.55
   8  -4  -8   16.84    3.88
  -8   4   8   16.05    3.60
  -8   4   8    9.72    3.45
  -8   4   8   10.05    3.43
  -8   4   8   17.44    3.75
   8   4  -8   15.17    3.10
   6  -4  -8  151.25    7.21
   6  -4  -8  162.89    7.66
   6  -4  -8  153.51    6.91
  -6   4   8  149.21    7.33
  -6   4   8  156.02    7.51
  -6   4   8  144.71    7.72
  -6   4   8  158.72    7.12
   4  -4  -8   14.19    3.48
   4  -4  -8   11.21    3.86
   4  -4  -8   11.94    3.54
   4  -4  -8    3.62    3.10
  -4   4   8   14.81    3.43
  -4   4   8   12.15    3.42
  -4   4   8   15.32    3.82
   2  -4  -8   12.10    3.63
   2  -4  -8    8.20    3.54
   2  -4  -8   11.99    4.08
   2  -4  -8   10.22    3.37
  -2   4   8    5.28    3.19
  -2   4   8   10.39    3.42
  -2   4   8   17.21    3.56
   0  -4  -8  370.05   11.85
   0  -4  -8  371.02   10.78
   0  -4  -8  370.89   11.40
   0  -4  -8  372.90   11.61
   0   4   8  361.61   11.61
   0   4   8  366.85   10.94
   0   4   8  365.80   11.18
  -2  -4  -8   10.44    3.87
  -2  -4  -8   17.99    3.99
  -2  -4  -8    6.90    3.88
  -2  -4  -8    8.89    4.34
   2   4   8    5.67    3.49
   2   4   8   18.04    4.01
   2   4   8   14.12    3.81
  -4  -4  -8   60.93    5.76
  -4  -4  -8   58.93    5.40
   4  -4   8   56.60    4.40
  -4  -4  -8   66.30    6.33
   4   4   8   63.23    5.82
   4   4   8   57.40    5.56
   4   4   8   62.52    5.50
   6  -4   8   60.44    4.49
  -6  -4  -8   47.23    6.10
  -6  -4  -8   55.20    5.56
  -6  -4  -8   59.09    5.58
  -6  -4  -8   60.56    5.87
   6   4   8   53.59    5.50
   6   4   8   51.37    5.47
  -8  -4  -8    9.09    4.34
  -8  -4  -8   -6.84    3.98
   8  -4   8   -1.49    2.81
  -8  -4  -8    7.75    5.09
   8   4   8   -0.78    3.69
   8   4   8    5.84    3.86
 -10  -4  -8    2.49    4.92
 -10  -4  -8    3.29    4.45
 -10  -4  -8    1.90    6.07
  10  -4   8    9.61    3.25
  10   4   8    8.02    4.10
  10   4   8   13.53    4.29
 -12  -4  -8   46.36    6.71
  12  -4   8   60.38    5.48
 -12  -4  -8   58.93    6.49
  12   4   8   61.31    6.41
  12   4   8   42.31    5.72
 -14  -4  -8  317.04   13.61
  14  -4   8  313.90   11.42
 -14  -4  -8  315.28   12.96
  14   4   8  307.71   12.25
  14   4   8  332.73   12.92
 -16  -4  -8   25.20    6.72
 -16  -4  -8   26.02    6.22
  16  -4   8   32.23    4.96
  16   4   8   25.35    5.67
  16   4   8   25.94    5.71
  18  -4   8   -1.03    3.75
 -18  -4  -8   -6.93    5.72
 -18  -4  -8    7.86    5.57
  18   4   8    3.71    4.59
  18   4   8   -1.96    4.37
 -20  -4  -8   12.91    5.90
 -20  -4  -8   -1.54    6.35
  20  -4   8   11.89    4.65
  20   4   8    6.38    5.33
  20   4   8   11.05    5.17
  22  -4   8   58.68    7.27
 -22  -4  -8   46.85    7.72
 -22  -4  -8   40.28    8.20
  22   4   8   40.74    7.24
  22   4   8   40.65    7.08
  35  -5  -8   26.78    6.18
 -35  -5   8   15.68    6.64
  35  -5  -8   31.77    6.60
 -35   5   8   35.31    8.44
 -35   5   8   38.64    7.39
 -33  -5   8    1.45    5.61
  33  -5  -8   -0.89    4.83
 -33   5   8   19.80    6.85
 -33   5   8    1.51    5.69
  31  -5  -8    2.04    4.84
  31  -5  -8    2.06    4.69
 -31  -5   8   -0.03    4.93
 -31   5   8    3.70    5.37
 -31   5   8    6.53    6.65
  29  -5  -8   49.39    6.64
 -29  -5   8   61.09    6.91
  29  -5  -8   55.99    6.29
 -29   5   8   56.73    7.31
 -29   5   8   59.68    8.08
  27  -5  -8   14.30    4.83
 -27  -5   8   -2.91    4.80
  27  -5  -8    9.18    5.09
  27  -5  -8    9.83    4.81
 -27   5   8   18.17    6.43
 -27   5   8    8.64    5.40
 -27   5   8    8.54    5.36
  25  -5  -8  128.92    8.36
 -25  -5   8  129.20    8.68
  25  -5  -8  129.08    8.76
  25  -5  -8  126.87    9.02
 -25   5   8  130.05    9.63
 -25   5   8  132.69   10.01
 -25   5   8  132.29    9.35
  23  -5  -8   15.49    4.89
 -23  -5   8    0.71    4.28
 -23  -5   8    5.96    4.52
  23  -5  -8    6.13    4.42
  23  -5  -8   20.13    4.68
 -23   5   8   18.52    5.69
 -23   5   8   19.90    5.13
 -23   5   8   19.67    5.36
  21  -5  -8   10.75    4.19
  21  -5  -8   12.40    5.03
 -21  -5   8   18.94    4.35
 -21  -5   8   14.49    4.41
  21  -5  -8   20.43    4.57
  21   5  -8   21.05    3.57
 -21   5   8   23.70    5.38
 -21   5   8   15.33    5.04
 -21   5   8   13.31    5.55
  19  -5  -8   61.72    6.36
  19  -5  -8   77.44    6.43
 -19  -5   8   72.88    5.78
  19  -5  -8   76.52    5.93
 -19   5   8   70.32    6.22
 -19   5   8   68.66    6.56
 -19   5   8   69.52    6.72
  19   5  -8   60.76    5.04
 -19   5   8   68.26    7.07
  17  -5  -8   28.33    4.63
  17  -5  -8   28.96    5.11
 -17  -5   8   35.96    4.26
  17  -5  -8   28.40    4.69
 -17   5   8   20.15    4.90
 -17   5   8   28.49    4.84
 -17   5   8   24.76    5.47
 -17   5   8   31.90    5.09
  17   5  -8   28.18    3.91
  15  -5  -8   94.40    6.78
  15  -5  -8   91.58    6.94
 -15  -5   8   76.03    5.37
  15  -5  -8   84.81    5.83
 -15   5   8   95.31    7.02
 -15   5   8   75.69    6.26
  15   5  -8   85.08    5.64
 -15   5   8   86.34    6.55
 -15   5   8   93.12    6.96
  13  -5  -8    7.66    3.59
  13  -5  -8   10.81    3.98
  13  -5  -8   10.56    3.85
 -13   5   8    7.23    4.01
  13   5  -8   15.09    3.43
 -13   5   8   15.38    4.18
 -13   5   8    4.25    3.72
 -13   5   8   11.65    4.44
  11  -5  -8   14.43    3.92
  11  -5  -8   24.99    4.55
  11  -5  -8   16.69    3.91
  11   5  -8   22.93    3.78
 -11   5   8   21.01    4.22
 -11   5   8   12.63    4.34
 -11   5   8   15.34    3.80
 -11   5   8   19.89    4.18
   9  -5  -8  179.19    8.24
   9  -5  -8  182.64    7.84
   9  -5  -8  177.49    8.52
  -9   5   8  155.99    8.06
   9   5  -8  172.38    7.80
  -9   5   8  175.20    8.36
  -9   5   8  176.08    8.12
  -9   5   8  179.57    8.11
   7  -5  -8   99.68    7.18
   7  -5  -8   88.68    6.50
   7  -5  -8   99.45    6.55
  -7   5   8   91.36    6.63
  -7   5   8   96.95    6.64
  -7   5   8   88.96    6.25
  -7   5   8   88.75    6.99
   7   5  -8   97.98    6.46
   5  -5  -8  130.02    7.32
   5  -5  -8  144.67    8.03
   5  -5  -8  140.51    7.27
  -5   5   8  131.74    7.65
  -5   5   8  139.78    7.57
  -5   5   8  122.06    7.13
   5   5  -8  137.64    7.39
  -5   5   8  141.84    7.52
   3  -5  -8   15.15    4.45
   3  -5  -8   12.52    3.94
   3  -5  -8   11.02    3.80
   3  -5  -8   18.42    3.97
  -3   5   8   15.13    3.91
  -3   5   8    9.45    3.67
  -3   5   8    8.54    3.63
  -3   5   8    8.43    3.98
   1  -5  -8    0.37    3.47
   1  -5  -8    3.93    4.07
   1  -5  -8    0.78    3.74
   1  -5  -8   -1.95    3.28
  -1   5   8   -1.54    3.22
  -1   5   8    2.75    3.36
  -1   5   8    4.39    3.37
  -1  -5  -8   74.72    5.85
  -1  -5  -8   96.18    7.04
  -1  -5  -8   76.46    5.92
  -1  -5  -8   94.02    6.95
   1   5   8   71.32    5.94
   1   5   8   75.84    5.83
   1   5   8   85.10    6.15
  -3  -5  -8   41.29    5.04
  -3  -5  -8   41.39    5.24
  -3  -5  -8   43.56    5.41
  -3  -5  -8   38.89    5.77
   3   5   8   46.58    5.21
   3   5   8   38.67    5.03
   3   5   8   37.90    4.85
  -5  -5  -8   61.76    6.51
  -5  -5  -8   57.68    5.77
  -5  -5  -8   57.44    5.97
  -5  -5  -8   67.52    6.20
   5  -5   8   55.41    4.41
   5   5   8   53.31    5.68
   5   5   8   57.48    5.65
  -7  -5  -8   28.68    5.86
   7  -5   8   30.38    3.65
  -7  -5  -8   29.94    5.30
   7   5   8   30.02    5.13
   7   5   8   27.88    4.77
  -9  -5  -8    1.81    4.47
   9  -5   8    0.21    2.74
  -9  -5  -8   -1.12    4.91
   9   5   8   -7.37    3.38
   9   5   8   -0.45    3.60
 -11  -5  -8   10.58    4.74
 -11  -5  -8   10.25    5.64
  11  -5   8   12.19    3.40
  11   5   8    1.79    4.00
  11   5   8    8.65    4.22
 -13  -5  -8   58.61    6.95
  13  -5   8   53.77    5.36
 -13  -5  -8   40.30    7.03
  13   5   8   48.87    6.13
  13   5   8   65.07    6.72
  15  -5   8   48.31    5.54
 -15  -5  -8   53.60    7.73
 -15  -5  -8   60.25    7.39
  15   5   8   52.99    6.21
  15   5   8   52.03    6.68
 -17  -5  -8    8.00    5.70
  17  -5   8    2.63    3.87
 -17  -5  -8   -4.66    6.21
  17   5   8   -5.62    4.11
  17   5   8    3.57    4.42
 -19  -5  -8   40.10    7.99
 -19  -5  -8   25.27    6.62
  19  -5   8   48.07    6.11
  19   5   8   38.80    6.50
  19   5   8   45.28    6.69
 -21  -5  -8   -7.17    5.81
 -21  -5  -8   -4.34    6.88
  21  -5   8   -2.29    4.20
  21   5   8    9.63    5.51
  21   5   8    7.14    5.38
  34  -6  -8    4.11    5.69
 -34  -6   8   -4.37    5.44
  34  -6  -8   20.73    6.42
 -34   6   8   13.39    8.18
 -34   6   8    4.47    7.26
 -32  -6   8    7.54    5.79
  32  -6  -8   13.77    5.78
  32  -6  -8    4.20    5.19
 -32   6   8   10.29    5.92
 -32   6   8    3.71    6.66
  30  -6  -8    0.20    4.63
  30  -6  -8    3.21    4.96
 -30  -6   8    6.49    5.03
 -30   6   8    6.17    6.37
 -30   6   8    4.34    5.66
 -28  -6   8    9.98    4.97
  28  -6  -8   10.75    5.03
  28  -6  -8    7.71    5.08
  28   6  -8   10.16    3.66
 -28   6   8   11.83    5.56
 -28   6   8   12.98    6.50
 -26  -6   8   98.58    7.80
  26  -6  -8   93.34    8.00
  26  -6  -8   92.56    7.31
 -26   6   8   99.09    8.00
  26   6  -8  105.64    6.93
 -26   6   8  116.47    9.21
 -26   6   8  115.62    9.00
 -24  -6   8   45.98    5.51
  24  -6  -8   40.52    5.70
  24  -6  -8   54.75    6.27
 -24   6   8   47.42    6.47
  24   6  -8   43.81    4.97
 -24   6   8   47.25    7.08
 -24   6   8   42.29    6.32
  22  -6  -8    6.49    4.69
  22  -6  -8   -2.51    3.93
 -22  -6   8   -5.13    3.62
  22  -6  -8    9.93    4.41
  22   6  -8    7.58    3.11
 -22   6   8   -3.99    5.05
 -22   6   8    8.63    4.85
 -22   6   8   -1.13    4.66
  20  -6  -8    9.57    4.78
 -20  -6   8   13.02    3.96
  20  -6  -8    8.01    4.19
  20  -6  -8   10.40    4.39
 -20   6   8    6.12    5.02
 -20   6   8    5.82    5.72
  20   6  -8    6.88    3.27
 -20   6   8    8.85    4.71
 -20   6   8    2.46    4.44
  18  -6  -8  105.52    7.60
 -18  -6   8  113.32    6.72
  18  -6  -8   94.99    7.49
  18  -6  -8   96.88    6.66
  18   6  -8   89.63    6.36
 -18   6   8  101.02    7.91
 -18   6   8  104.26    7.42
 -18   6   8   92.98    7.13
 -18   6   8   91.32    7.46
  16  -6  -8   -3.03    4.21
 -16  -6   8   -1.35    3.07
  16  -6  -8   -3.52    4.06
  16  -6  -8    1.20    3.68
 -16   6   8    2.05    4.14
 -16   6   8    1.60    4.35
 -16   6   8   -0.35    4.72
 -16   6   8   -5.23    3.97
  16   6  -8   -1.21    2.93
  14  -6  -8   25.75    4.71
  14  -6  -8   31.33    4.75
  14  -6  -8   17.21    4.70
 -14   6   8   22.72    4.92
 -14   6   8   25.46    4.81
  14   6  -8   19.62    4.15
 -14   6   8   27.01    4.97
 -14   6   8   34.84    5.62
  12  -6  -8   54.77    5.30
  12  -6  -8   52.44    6.02
  12  -6  -8   46.80    5.38
 -12   6   8   44.19    5.30
 -12   6   8   43.90    5.29
 -12   6   8   58.28    5.71
  12   6  -8   48.80    5.14
 -12   6   8   40.97    5.66
  10  -6  -8    4.10    4.19
  10  -6  -8    4.05    3.63
  10  -6  -8    2.67    3.70
 -10   6   8    6.94    4.26
 -10   6   8    3.33    3.26
  10   6  -8   10.12    3.51
 -10   6   8   -3.66    3.79
 -10   6   8    7.91    3.90
 -10   6   8    3.89    3.35
   8  -6  -8  104.91    7.06
   8  -6  -8  125.07    7.48
   8  -6  -8  109.39    7.99
  -8   6   8  115.08    7.58
  -8   6   8   94.89    7.08
   8   6  -8  109.22    7.05
  -8   6   8  109.22    7.38
  -8   6   8  105.32    7.55
   6  -6  -8  145.41    8.03
   6  -6  -8  161.34    7.82
   6  -6  -8  123.62    8.36
  -6   6   8  137.98    8.32
  -6   6   8  138.76    7.88
   6   6  -8  152.65    7.97
  -6   6   8  135.98    7.88
  -6   6   8  127.65    7.78
   4  -6  -8    4.62    4.22
   4  -6  -8    6.16    3.92
   4  -6  -8   10.67    4.18
  -4   6   8   -3.92    3.63
  -4   6   8   -1.59    3.63
  -4   6   8    2.70    3.94
   4   6  -8    4.13    3.60
  -4   6   8    9.30    3.59
   2  -6  -8   -2.97    3.91
   2  -6  -8    3.35    4.09
   2  -6  -8   -3.58    3.75
   2  -6  -8    0.56    4.26
  -2   6   8   -0.23    3.22
  -2   6   8    1.91    3.69
  -2   6   8    0.01    3.80
  -2   6   8    1.34    3.58
   0  -6  -8  106.27    6.93
   0  -6  -8  104.47    8.39
   0  -6  -8  101.84    7.72
   0   6   8  105.70    7.49
   0   6   8  100.46    7.25
   0   6   8  103.19    7.40
  -2  -6  -8   36.82    5.78
  -2  -6  -8   29.78    5.05
  -2  -6  -8   23.33    4.98
   2   6   8   28.56    4.79
   2   6   8   38.18    4.82
   2   6   8   24.68    4.65
  -4  -6  -8   15.81    4.91
  -4  -6  -8    7.60    5.10
  -4  -6  -8   12.86    4.68
   4   6   8   11.12    4.15
   4   6   8   19.19    4.62
  -6  -6  -8  124.85    9.72
  -6  -6  -8  118.81    8.85
   6   6   8  117.23    7.94
   6   6   8  118.12    7.74
  -8  -6  -8  158.56    9.48
   8  -6   8  149.14    6.65
  -8  -6  -8  144.91   10.23
   8   6   8  148.12    8.57
   8   6   8  158.08    9.00
 -10  -6  -8   52.46    7.26
  10  -6   8   56.76    4.83
 -10  -6  -8   47.06    6.53
  10   6   8   54.86    6.18
  10   6   8   53.55    5.80
  12  -6   8    5.61    3.27
 -12  -6  -8   10.84    5.11
 -12  -6  -8    8.03    6.00
  12   6   8   10.00    4.30
  12   6   8    8.54    4.57
  14  -6   8  123.68    7.53
 -14  -6  -8   97.28    9.30
 -14  -6  -8  103.24    8.81
  14   6   8  116.40    8.96
  14   6   8  103.86    8.03
  16  -6   8    7.10    3.87
 -16  -6  -8   -0.70    6.32
 -16  -6  -8   -2.41    5.27
  16   6   8    6.65    4.61
  16   6   8    6.01    4.93
  18  -6   8    0.41    3.93
 -18  -6  -8   -2.57    6.64
 -18  -6  -8   -5.21    5.52
  18   6   8    1.45    4.45
  18   6   8   10.16    4.98
 -20  -6  -8    4.04    9.69
  20  -6   8    5.55    4.62
 -20  -6  -8   -2.53    6.22
  20   6   8    4.73    5.55
  20   6   8   12.64    5.37
 -31  -7   8   -0.49    4.96
  31  -7  -8    5.13    5.10
 -31   7   8   12.99    7.16
 -29  -7   8    5.59    5.17
  29  -7  -8   -7.63    7.45
  29  -7  -8    1.25    4.70
 -29   7   8    0.52    5.31
 -29   7   8    8.39    6.59
  29   7  -8    6.19    3.75
  27  -7  -8   -1.07    5.21
  27  -7  -8    1.76    4.59
 -27  -7   8   -6.07    4.14
  27   7  -8    2.45    3.63
 -27   7   8    7.87    5.93
 -27   7   8    2.18    5.09
  25  -7  -8   -0.45    4.67
  25  -7  -8    6.66    4.58
 -25  -7   8    1.84    4.33
 -25   7   8    2.90    4.86
  25   7  -8    3.86    3.42
 -25   7   8    8.69    6.01
 -25   7   8   -2.71    4.74
  23  -7  -8   21.31    5.08
 -23  -7   8   25.35    4.89
  23  -7  -8   22.25    5.08
 -23   7   8   21.37    6.13
 -23   7   8   22.04    5.38
 -23   7   8   20.58    5.44
  23   7  -8   19.69    4.20
  21  -7  -8   24.41    5.28
  21  -7  -8   32.34    5.03
 -21  -7   8   20.41    4.39
 -21   7   8   26.20    5.51
 -21   7   8   17.96    5.24
 -21   7   8   24.90    5.97
  21   7  -8   19.66    4.29
  19  -7  -8   -0.74    4.00
  19  -7  -8    0.41    4.01
 -19  -7   8    4.41    3.48
 -19   7   8    7.14    4.99
 -19   7   8   -1.13    4.56
  19   7  -8   -1.17    3.01
 -19   7   8   -4.00    4.31
 -19   7   8    1.28    4.21
  17  -7  -8   45.96    5.26
  17  -7  -8   42.74    5.65
 -17  -7   8   37.28    4.22
  17  -7  -8   39.76    7.09
 -17   7   8   37.58    5.57
 -17   7   8   43.48    5.66
 -17   7   8   31.92    5.88
  17   7  -8   39.32    5.29
 -17   7   8   29.96    5.46
  15  -7  -8  152.69    9.24
  15  -7  -8  166.87    8.68
  15  -7  -8  158.21    8.98
 -15   7   8  159.16    8.69
 -15   7   8  169.57    9.24
 -15   7   8  147.95    8.97
 -15   7   8  156.52    9.49
  15   7  -8  162.12    8.20
  13  -7  -8    3.32    3.92
  13  -7  -8   -1.05    4.15
  13  -7  -8    4.75    4.65
 -13   7   8    3.05    4.28
  13   7  -8   -1.82    3.24
 -13   7   8    2.63    4.38
 -13   7   8    0.40    4.06
 -13   7   8   -1.10    4.67
  11  -7  -8   16.50    4.87
  11  -7  -8    9.86    4.42
  11  -7  -8   13.49    4.43
 -11   7   8   15.50    5.07
 -11   7   8    3.78    3.72
 -11   7   8    6.26    4.53
 -11   7   8    8.50    4.27
  11   7  -8   11.80    4.12
 -11   7   8   13.78    4.58
   9  -7  -8   61.17    5.77
   9  -7  -8   61.77    6.58
   9  -7  -8   70.84    6.27
  -9   7   8   65.88    6.36
  -9   7   8   63.18    6.28
  -9   7   8   73.65    5.94
   9   7  -8   60.28    6.13
  -9   7   8   58.43    5.87
  -9   7   8   69.35    5.99
   7  -7  -8   82.05    7.06
   7  -7  -8   81.56    6.71
   7  -7  -8   88.21    6.40
  -7   7   8   90.43    6.70
  -7   7   8   85.31    6.56
  -7   7   8   75.73    6.48
  -7   7   8   81.79    6.65
   7   7  -8   97.25    7.64
   5  -7  -8    0.76    4.19
   5  -7  -8   -0.74    4.53
   5  -7  -8    0.18    3.98
  -5   7   8    0.24    3.47
   5   7  -8   -3.79    3.33
  -5   7   8   -0.43    4.17
  -5   7   8   -0.40    3.80
  -5   7   8   -2.94    4.23
   3  -7  -8   -2.81    4.53
   3  -7  -8    0.91    3.99
   3  -7  -8    0.97    4.26
  -3   7   8    0.99    3.88
  -3   7   8   -2.43    4.09
  -3   7   8   -0.11    4.39
  -3   7   8    0.18    3.37
   3   7  -8   -3.34    3.78
   1  -7  -8   23.71    5.38
   1  -7  -8   24.44    5.15
   1  -7  -8   23.03    5.04
  -1   7   8   20.22    4.96
  -1   7   8   18.32    4.63
  -1   7   8   20.57    4.49
  -1   7   8   25.68    4.83
  -1  -7  -8   -1.65    4.56
  -1  -7  -8    5.78    4.45
  -1  -7  -8    9.89    4.66
   1   7   8    3.23    3.80
   1   7   8   10.31    4.45
   1   7   8    5.76    4.07
   1   7   8    7.95    4.25
  -3  -7  -8   34.68    5.90
  -3  -7  -8   39.56    5.63
  -3  -7  -8   37.23    5.65
   3   7   8   38.53    5.10
   3   7   8   46.59    5.57
   3   7   8   43.25    8.00
  -5  -7  -8   64.42    6.39
  -5  -7  -8   66.77    7.12
  -5  -7  -8   62.82    6.69
   5   7   8   57.60    5.62
   5   7   8   68.76    6.46
  -7  -7  -8  140.48   10.50
  -7  -7  -8  143.36    9.53
   7   7   8  146.63    8.87
   7   7   8  137.54    8.36
  -9  -7  -8    7.64    4.93
  -9  -7  -8   14.13    5.88
   9   7   8   15.21    4.57
   9   7   8   15.07    4.35
 -11  -7  -8   13.11    7.92
 -11  -7  -8    4.05    5.41
  11  -7   8   14.19    3.49
  11   7   8    7.19    4.61
  11   7   8   13.94    4.51
  13  -7   8    3.70    3.30
 -13  -7  -8   -3.67    4.88
  13   7   8    3.33    4.23
  13   7   8    3.81    4.45
  15  -7   8   55.69    5.73
 -15  -7  -8   62.88    7.75
  15   7   8   50.88    6.46
  15   7   8   52.37    6.80
 -17  -7  -8   47.24    8.14
  17  -7   8   38.76    5.61
  17   7   8   57.98    6.79
  17   7   8   53.61    6.99
 -19  -7  -8   -4.15    6.38
  19  -7   8   -2.09    4.11
  19   7   8   -4.20    4.85
  19   7   8    0.40    4.67
 -30  -8   8   16.00    5.85
  30  -8  -8   14.83    6.10
  30   8  -8    6.89    4.23
 -30   8   8    9.57    7.03
 -28  -8   8   20.55    5.67
  28  -8  -8   20.88    5.85
 -28   8   8   26.18    7.16
  28   8  -8   27.06    5.23
 -26  -8   8   -4.63    4.49
  26  -8  -8   -3.14    4.43
  26   8  -8    4.26    3.79
 -26   8   8   -9.36    5.67
 -24  -8   8   15.28    4.70
  24  -8  -8   16.27    5.39
 -24   8   8   23.43    6.56
 -24   8   8   20.32    5.74
 -24   8   8   14.54    5.22
  24   8  -8   18.21    4.43
  22  -8  -8   71.57    7.32
 -22  -8   8   79.25    6.29
 -22   8   8   71.08    7.73
  22   8  -8   76.18    7.03
 -22   8   8   76.09    7.50
 -22   8   8   71.47    7.12
  20  -8  -8  179.42   10.18
  20  -8  -8  161.94    9.39
 -20  -8   8  190.65    8.44
 -20   8   8  166.62    9.76
  20   8  -8  173.68    9.17
 -20   8   8  180.02   10.29
 -20   8   8  192.83   10.27
  18  -8  -8    9.77    4.43
  18  -8  -8    5.68    4.55
 -18  -8   8   16.07    3.79
 -18   8   8    3.04    4.75
 -18   8   8   13.85    5.24
  18   8  -8   15.12    4.25
 -18   8   8    1.75    4.63
 -18   8   8    9.67    4.59
  16  -8  -8  112.41    8.16
  16  -8  -8   99.88    7.09
 -16   8   8   91.43    7.28
 -16   8   8  101.80    8.08
 -16   8   8   97.03    7.30
  16   8  -8   96.21    7.43
 -16   8   8   93.66    7.73
  14  -8  -8   22.55    4.95
  14  -8  -8   25.12    4.86
 -14   8   8   28.84    5.57
 -14   8   8   26.57    5.07
  14   8  -8   26.11    4.93
 -14   8   8   28.62    5.24
 -14   8   8   20.78    5.18
  12  -8  -8   -4.15    3.97
  12  -8  -8    0.27    3.90
 -12   8   8    3.95    3.48
 -12   8   8    4.04    4.65
 -12   8   8   -3.48    4.14
  12   8  -8   -2.33    3.16
 -12   8   8    1.34    3.98
 -12   8   8    3.93    4.07
  10  -8  -8   17.67    4.85
  10  -8  -8   32.78    5.16
 -10   8   8   25.57    5.22
 -10   8   8   24.53    4.83
 -10   8   8   20.91    4.49
  10   8  -8   38.71    5.42
 -10   8   8   35.59    5.76
 -10   8   8   26.78    4.91
   8  -8  -8  356.15   12.80
   8  -8  -8  338.23   11.69
   8   8  -8  338.06   12.56
  -8   8   8  320.92   12.12
  -8   8   8  343.04   12.01
  -8   8   8  344.34   12.22
  -8   8   8  346.44   11.78
  -8   8   8  355.43   11.88
  -8   8   8  336.66   12.30
   6  -8  -8    5.68    4.47
   6  -8  -8   10.47    4.40
  -6   8   8   10.04    4.59
  -6   8   8    7.53    4.10
   6   8  -8   10.00    4.47
  -6   8   8   15.85    4.79
  -6   8   8   10.22    4.53
  -6   8   8    6.50    3.91
   4  -8  -8   -4.39    4.11
   4  -8  -8    1.08    4.27
  -4   8   8   -0.99    4.24
  -4   8   8   -1.89    3.69
  -4   8   8   -1.58    4.21
  -4   8   8   -4.03    3.27
   4   8  -8   -2.16    3.55
   2  -8  -8   10.28    4.69
   2  -8  -8   20.81    4.98
  -2   8   8   15.86    4.68
   2   8  -8    9.83    4.68
  -2   8   8   21.99    4.99
  -2   8   8   12.00    3.99
  -2   8   8   15.38    4.35
   0  -8  -8   17.76    4.83
   0  -8  -8    0.18    4.18
   0   8   8    8.84    4.10
   0   8  -8    5.76    4.44
   0   8   8    1.97    4.56
   0   8   8    5.47    3.88
   0   8   8    0.24    4.22
  -2  -8  -8   22.21    5.30
  -2  -8  -8   24.25    5.20
   2   8   8   21.19    4.34
   2   8   8   21.02    4.91
   2   8   8   27.13    4.78
   2   8   8   25.00    6.68
  -4  -8  -8   56.54    6.50
  -4  -8  -8   39.66    5.91
   4   8   8   43.71    5.19
   4   8   8   43.66    5.81
   4   8   8   40.85    5.58
  -6  -8  -8    0.42    4.52
   6   8   8    8.80    3.99
   6   8   8    4.50    3.82
  -8  -8  -8    1.57    4.66
   8   8   8   -1.22    3.99
   8   8   8    2.55    3.84
 -10  -8  -8   14.95    5.54
  10   8   8   14.55    4.53
  10   8   8   12.22    4.55
 -12  -8  -8   93.85    8.79
  12  -8   8   85.84    6.24
  12   8   8   75.03    7.20
  12   8   8   78.87    7.20
 -14  -8  -8   -2.21    5.32
  14  -8   8    2.93    3.33
  14   8   8    2.78    4.23
  14   8   8    1.02    4.18
  16  -8   8   17.56    4.45
 -16  -8  -8   20.48    6.82
  16   8   8   12.69    4.88
  16   8   8   20.05    5.50
  18   8   8    5.99    5.27
  18   8   8    0.51    4.60
  29  -9  -8    8.89    5.75
 -29  -9   8   16.69    6.00
  29   9  -8   13.80    4.92
 -27  -9   8   13.85    5.48
  27  -9  -8   19.95    5.79
  27   9  -8   17.83    4.88
 -25  -9   8    2.24    4.46
  25  -9  -8    1.19    4.91
  25   9  -8    1.65    3.80
 -23  -9   8   34.51    5.51
  23  -9  -8   40.34    6.39
  23   9  -8   34.84    5.70
 -21  -9   8    6.41    4.25
  21  -9  -8   19.71    5.56
  21   9  -8   11.83    4.55
 -21   9   8    6.13    5.07
  19  -9  -8    5.80    4.86
 -19  -9   8   -4.46    3.48
 -19   9   8   -4.38    4.48
  19   9  -8    0.13    3.58
 -19   9   8    7.14    4.76
  17  -9  -8    3.68    4.46
 -17   9   8    9.26    4.68
  17   9  -8    5.44    4.15
 -17   9   8   10.23    4.85
 -17   9   8    2.16    5.26
  15  -9  -8   -3.89    4.01
  15   9  -8    1.43    3.83
 -15   9   8   -0.41    4.22
 -15   9   8    1.89    5.01
 -15   9   8    1.38    3.68
 -15   9   8    1.30    4.22
  13  -9  -8    6.02    4.18
 -13   9   8   -1.41    3.95
 -13   9   8    5.24    3.72
  13   9  -8    1.93    3.97
 -13   9   8    2.06    4.81
 -13   9   8    3.78    4.19
  11  -9  -8   23.01    5.05
 -11   9   8   34.30    5.06
  11   9  -8   31.62    5.27
 -11   9   8   35.41    5.51
 -11   9   8   32.47    5.02
 -11   9   8   30.06    5.73
   9  -9  -8   55.13    6.29
   9  -9  -8   55.18    6.20
  -9   9   8   64.82    6.72
  -9   9   8   64.58    6.43
   9   9  -8   72.38    7.18
  -9   9   8   54.02    5.91
  -9   9   8   54.93    5.61
   7  -9  -8    4.46    4.44
   7  -9  -8    7.85    4.41
   7   9  -8   -0.19    3.87
  -7   9   8    1.60    4.05
  -7   9   8    7.81    4.21
  -7   9   8   -1.75    4.43
  -7   9   8    7.19    4.30
   5  -9  -8   30.40    5.55
   5  -9  -8   34.05    5.34
   5   9  -8   38.25    6.01
  -5   9   8   33.22    4.82
  -5   9   8   26.13    4.82
  -5   9   8   17.27    5.21
  -5   9   8   38.84    5.80
   3  -9  -8   17.41    5.09
   3  -9  -8   22.19    5.23
  -3   9   8   15.48    4.98
  -3   9   8   18.85    4.78
  -3   9   8   11.72    4.21
  -3   9   8   10.01    4.03
   3   9  -8   13.78    4.63
   1  -9  -8  124.19    8.99
   1  -9  -8  126.20    9.19
  -1   9   8  130.89    8.27
  -1   9   8  151.14    8.27
  -1   9   8  148.12    9.15
  -1   9   8  123.51    8.98
   1   9  -8  139.98    9.50
  -1  -9  -8    3.96    4.88
  -1  -9  -8    5.05    4.72
   1   9   8    7.56    3.92
   1   9   8   14.21    4.23
   1   9   8    4.07    6.75
  -1   9  -8    3.27    4.45
  -3  -9  -8   41.74    6.12
  -3  -9  -8   46.72    6.40
   3   9   8   47.67    6.12
   3   9   8   41.54    5.49
   3   9   8   36.89    5.56
  -5  -9  -8   84.69    7.56
  -5  -9  -8   71.73    7.61
   5   9   8   74.60    6.51
   5   9   8   87.83    7.66
   5   9   8   64.89    6.57
  -7  -9  -8    9.18    5.25
   7   9   8    4.61    4.12
   7   9   8    9.00    4.40
   7   9   8    6.56    4.97
  -9  -9  -8   36.29    6.73
   9   9   8   40.56    5.73
   9   9   8   39.35    5.51
 -11  -9  -8   34.64    6.95
  11   9   8   33.42    5.55
  11   9   8   31.15    5.77
 -13  -9  -8   12.63    6.33
  13  -9   8   16.66    3.94
  13   9   8   17.37    5.03
  13   9   8   17.71    4.68
 -15  -9  -8    0.66    6.15
  15  -9   8    6.53    3.90
  15   9   8    6.25    4.57
 -26 -10   8   -0.43    4.78
  26 -10  -8    0.64    5.24
  26  10  -8   -1.46    4.51
 -24 -10   8    0.31    4.63
  24 -10  -8   -3.12    4.62
  24  10  -8   -0.69    4.22
 -22 -10   8   19.76    4.90
  22 -10  -8   21.58    5.75
  22  10  -8   18.87    4.90
 -20 -10   8   53.12    5.58
  20 -10  -8   49.97    7.06
  20  10  -8   72.59    7.59
  18 -10  -8   -0.61    4.49
  18  10  -8    0.01    4.03
  16 -10  -8    5.23    4.68
 -16  10   8    6.43    5.67
  16  10  -8    3.16    3.93
 -16  10   8    9.55    4.40
  14 -10  -8    5.50    4.76
  14  10  -8    3.24    3.95
 -14  10   8   -0.72    3.78
 -14  10   8    1.14    5.34
  12 -10  -8    0.38    4.31
  12  10  -8   -0.57    3.63
 -12  10   8   -1.71    5.28
 -12  10   8    0.69    3.92
  10 -10  -8   -1.13    4.09
  10  10  -8   -5.89    3.54
 -10  10   8    1.37    5.11
 -10  10   8    0.56    3.98
   8 -10  -8   13.20    4.87
  -8  10   8    4.13    5.31
   8  10  -8    6.72    4.41
  -8  10   8    4.34    5.03
  -8  10   8    6.04    4.42
   6 -10  -8   58.29    6.78
  -6  10   8   50.34    6.57
   6  10  -8   66.63    7.58
  -6  10   8   55.01    5.93
  -6  10   8   58.81    6.65
  -6  10   8   66.20    6.61
   4 -10  -8    3.36    4.47
  -4  10   8   -3.01    4.71
  -4  10   8   -1.55    4.34
   4  10  -8    5.69    4.57
  -4  10   8    5.94    3.89
   2 -10  -8    3.63    4.47
  -2  10   8    2.99    3.91
  -2  10   8   -2.53    4.55
  -2  10   8   -3.91    3.52
   2  10  -8   -1.80    4.16
  -2  10   8    4.47    5.14
   0 -10  -8    3.19    4.69
   0  10  -8    3.87    4.72
   0  10   8    3.27    4.00
   0  10   8    1.37    3.66
  -2 -10  -8    4.49    5.07
   2  10   8   18.61    4.62
   2  10   8   12.13    5.14
  -4 -10  -8    7.65    5.25
   4  10   8   11.58    4.38
  -6 -10  -8    3.87    5.28
   6  10   8   14.92    4.46
  -8 -10  -8    3.93    5.42
   8  10   8   -2.22    4.06
   8  10   8   -0.01    5.20
 -10 -10  -8    6.64    5.88
  10  10   8    3.48    4.28
 -12 -10  -8   19.11    6.71
  12  10   8   36.23    5.78
  23 -11  -8   -2.86    5.14
 -23 -11   8   10.80    4.97
  23  11  -8    8.31    5.08
  21 -11  -8   24.12    6.24
 -21 -11   8   37.43    5.31
  21  11  -8   30.50    6.13
  19 -11  -8   84.18    8.22
  19  11  -8   96.13    8.88
  17 -11  -8   -0.14    4.64
 -17  11   8    4.36    5.57
  17  11  -8    3.92    4.80
  15 -11  -8   16.53    5.81
  15  11  -8   18.03    5.17
 -15  11   8   22.10    5.20
  13 -11  -8   61.87    7.39
 -13  11   8   46.81    6.20
 -13  11   8   44.91    7.07
  13  11  -8   49.17    7.07
  11 -11  -8   45.55    6.86
 -11  11   8   49.75    6.26
 -11  11   8   57.59    7.36
  11  11  -8   50.41    6.88
   9 -11  -8   -4.55    4.45
  -9  11   8    3.35    4.20
  -9  11   8   -1.31    5.38
   9  11  -8   -3.65    3.58
   7 -11  -8   20.54    5.80
  -7  11   8   14.19    5.87
  -7  11   8   19.17    5.26
   7  11  -8   24.34    5.69
   5 -11  -8   20.53    5.76
  -5  11   8   20.16    6.15
   5  11  -8   20.34    5.44
  -5  11   8   19.13    5.39
   3 -11  -8    1.73    4.82
  -3  11   8    8.29    4.79
   3  11  -8    2.79    4.63
  -3  11   8    4.86    8.87
   1 -11  -8   44.16    6.73
  -1  11   8   48.81    7.29
   1  11  -8   39.95    7.12
  -1 -11  -8   47.67    7.06
  -1  11  -8   58.64    7.89
   1  11   8   37.78    7.03
  -3 -11  -8    3.51    5.05
  -5 -11  -8    1.30    5.32
  -7 -11  -8   -0.83    5.69
  -9 -11  -8   13.10    6.51
   9  11   8    4.28    4.53
  18 -12  -8    5.80    5.67
  18  12  -8    5.07    4.71
  16 -12  -8    0.62    5.33
  16  12  -8    3.20    4.57
 -16  12   8    1.07    5.26
  14 -12  -8    4.91    5.23
 -14  12   8    4.54    4.90
  14  12  -8    4.62    4.89
  12 -12  -8   10.45    5.77
 -12  12   8   22.54    5.57
  12  12  -8    9.73    4.94
  10 -12  -8    8.02    5.46
  10  12  -8    8.44    4.61
 -10  12   8    7.18    4.78
   8 -12  -8    5.08    5.31
  -8  12   8    6.70    4.79
   8  12  -8   -0.29    4.49
   6 -12  -8   52.34    7.28
   6  12  -8   55.57    7.77
  -6  12   8   44.07    6.71
   4 -12  -8   27.97    6.39
   4  12  -8   17.69    5.81
  -4  12   8   30.79    6.31
   2 -12  -8   18.67    6.19
  -2  12   8   27.21    6.45
   2  12  -8   24.42    6.21
   0 -12  -8  101.48    9.39
   0  12   8   98.23    9.53
   0  12  -8   93.21    9.75
  -2 -12  -8   32.91    7.16
   2  12   8   38.58    7.31
  -2  12  -8   30.69    7.03
  -4 -12  -8   11.22    6.26
   4  12   8   -4.20    5.90
   6  12   8    3.32    6.09
  11  13  -8   26.94    6.68
 -11  13   8   31.74    6.65
   9 -13  -8   17.60    6.12
  -9  13   8   26.70    6.45
   9  13  -8   30.63    6.79
   7 -13  -8    6.30    5.86
   7  13  -8   17.45    6.31
  -7  13   8   20.77    6.24
   5 -13  -8   29.50    6.92
   5  13  -8   28.06    6.96
  -5  13   8   30.83    6.79
   3  13  -8   39.08    7.76
  -3  13   8   33.08    7.13
 -36   0   9   -6.04    5.66
  34   0  -9   -1.95    4.39
 -34   0   9    0.65    5.63
 -32   0   9   -1.20    5.16
  32   0  -9   -4.99    4.08
  32   0  -9   -2.78    3.97
 -30   0   9   -9.74    5.27
  30   0  -9    0.77    3.69
 -30   0   9   -3.86    4.95
 -28   0   9    2.17    5.13
  28   0  -9    2.66    4.09
 -28   0   9  -12.73    4.22
  28   0  -9    2.88    3.71
 -26   0   9    0.21    4.19
  26   0  -9    0.34    3.23
 -26   0   9    9.01    5.06
  24   0  -9   -1.45    3.02
 -24   0   9    1.06    4.47
 -24   0   9   -0.47    4.61
  22   0  -9    2.02    3.07
 -22   0   9   -4.60    4.04
 -22   0   9    0.78    4.59
 -20   0   9   -5.14    5.42
 -20   0   9    3.71    4.11
  20   0  -9   -0.03    2.67
 -20   0   9    2.60    3.92
 -18   0   9    5.58    3.81
 -18   0   9   -3.31    3.37
 -18   0   9    0.34    3.86
  18   0  -9    1.73    2.56
  16   0  -9   -1.22    2.69
  16   0  -9   -2.27    2.13
 -16   0   9    1.10    3.44
 -16   0   9   -1.99    3.17
 -16   0   9    2.79    5.31
  14   0  -9    3.14    2.20
  14   0  -9   -1.21    2.57
 -14   0   9    3.14    2.65
 -14   0   9    2.59    3.15
 -12   0   9   -6.50    2.63
 -12   0   9    0.22    2.48
  12   0  -9   -0.63    1.87
 -10   0   9   -1.03    2.59
  10   0  -9   -1.69    1.76
 -10   0   9    1.23    2.47
  -8   0   9    0.82    2.48
   8   0  -9    2.25    1.85
  -8   0   9    0.54    2.54
  -6   0   9   -0.94    2.43
   6   0  -9    0.38    1.74
  -6   0   9    0.87    2.44
  -4   0   9    2.42    2.50
   4   0  -9    2.41    1.93
  -4   0   9   -0.03    2.44
   2   0  -9    2.58    2.08
  -2   0   9    5.75    2.79
  -2   0   9   -1.92    2.36
   0   0   9   -1.02    2.72
   0   0  -9   -1.36    2.14
   0   0   9   -1.13    2.59
  -2   0  -9    0.29    2.33
   2   0   9   -2.81    2.67
   2   0   9    2.92    2.98
   4   0   9   -6.17    2.79
  -4   0  -9   -3.01    2.54
  -4   0  -9    7.09    3.76
  -6   0  -9   -1.12    4.01
   6   0   9   -0.61    3.25
  -6   0  -9   -2.70    2.94
  -8   0  -9   -0.98    4.27
   8   0   9    2.70    3.44
  -8   0  -9    2.95    3.37
 -10   0  -9   -5.80    3.26
 -10   0  -9   -3.23    4.05
  10   0   9   -6.01    3.28
 -12   0  -9   -3.00    4.30
  12   0   9    4.15    3.84
 -14   0  -9   -3.08    4.77
  14   0   9   -2.07    3.59
 -16   0  -9   -2.71    5.06
  16   0   9   -4.40    3.67
 -18   0  -9    0.83    5.19
  18   0   9    4.20    4.53
  20   0   9    5.93    4.89
  22   0   9    0.49    5.11
  37  -1  -9    7.57    5.26
 -37  -1   9    1.89    6.09
 -37   1   9   -0.07    6.08
  35  -1  -9    4.18    4.86
  35  -1  -9   -0.18    4.29
 -35  -1   9   -1.84    5.74
 -35   1   9   -0.34    6.10
  33  -1  -9   -3.55    3.99
  33  -1  -9   -0.64    4.47
 -33  -1   9    4.43    5.25
 -33   1   9   -1.43    5.34
  31  -1  -9   45.56    6.09
 -31  -1   9   40.49    6.76
  31  -1  -9   33.12    5.50
 -31   1   9   38.63    6.74
  29  -1  -9   -4.97    3.54
  29  -1  -9    0.76    4.56
 -29  -1   9   -3.91    5.16
 -29  -1   9    4.65    4.91
 -29   1   9    0.64    5.41
 -29   1   9    4.84    5.08
  29   1  -9    0.75    3.46
  27  -1  -9   77.19    6.38
 -27  -1   9   69.38    6.89
  27  -1  -9   79.35    6.85
 -27  -1   9   65.09    7.09
 -27   1   9   60.32    7.03
  27   1  -9   82.76    6.42
 -27   1   9   63.43    6.98
 -25  -1   9   31.32    5.65
  25  -1  -9   38.24    4.93
 -25  -1   9   28.80    5.31
  25  -1  -9   38.09    5.34
 -25   1   9   35.39    5.84
 -25   1   9   34.45    5.85
 -23  -1   9   31.17    5.37
  23  -1  -9   29.96    4.44
 -23  -1   9   28.68    5.52
  23  -1  -9   25.76    4.82
  23   1  -9   29.11    3.90
 -23   1   9   33.45    5.68
 -23   1   9   31.46    5.68
  21  -1  -9   -0.39    3.69
  21  -1  -9    1.90    3.14
 -21  -1   9   -0.26    3.88
  21  -1  -9   -2.56    2.83
 -21  -1   9    4.31    4.27
  21   1  -9    0.42    2.75
 -21   1   9   -2.17    4.36
 -21   1   9   -1.46    4.30
 -21   1   9    9.68    4.33
  19  -1  -9   46.34    4.44
 -19  -1   9   43.48    5.14
 -19  -1   9   50.65    5.28
  19   1  -9   41.63    4.29
 -19   1   9   49.04    5.51
 -19   1   9   46.17    5.57
 -19   1   9   41.89    5.22
  19   1  -9   49.45    4.07
  17  -1  -9    6.45    2.91
  17  -1  -9    9.67    3.52
 -17  -1   9    5.01    3.55
 -17  -1   9    4.83    3.62
 -17   1   9    2.47    3.88
  17   1  -9   11.78    2.69
 -17   1   9    0.60    3.64
 -17   1   9   10.63    4.16
 -15  -1   9    4.69    3.39
  15  -1  -9    1.11    2.47
 -15  -1   9    5.21    3.28
  15   1  -9    7.42    2.29
 -15   1   9    6.66    3.58
 -15   1   9    6.06    3.49
 -15   1   9    5.38    3.42
 -13  -1   9  126.84    6.29
  13  -1  -9  113.34    5.50
 -13   1   9  103.04    6.42
 -13   1   9   95.89    6.49
  13   1  -9  102.06    4.58
 -13   1   9  116.62    6.57
 -11  -1   9   93.46    5.53
 -11  -1   9   98.71    5.51
  11  -1  -9   89.73    4.96
 -11   1   9   85.29    6.04
 -11   1   9   87.73    5.94
 -11   1   9   92.57    6.08
   9  -1  -9   74.24    5.17
  -9  -1   9   59.05    4.65
   9  -1  -9   66.36    4.55
  -9   1   9   70.25    5.38
  -9   1   9   66.14    4.84
  -9   1   9   75.28    5.77
   7  -1  -9  210.44    7.19
   7  -1  -9  206.61    7.58
   7  -1  -9  212.79    8.17
  -7  -1   9  215.86    7.50
  -7   1   9  211.22    7.84
  -7   1   9  219.83    8.18
   5  -1  -9  170.37    7.49
   5  -1  -9  170.46    6.87
  -5  -1   9  160.29    6.58
   5  -1  -9  159.16    6.36
  -5   1   9  172.77    7.05
  -5   1   9  142.68    6.86
   3  -1  -9   -0.51    2.43
  -3  -1   9   -0.60    2.38
   3  -1  -9   -4.73    2.65
  -3   1   9   -0.01    2.72
  -3   1   9   -3.08    2.54
  -1  -1   9    6.90    2.70
  -1  -1   9   -0.26    2.63
   1  -1  -9    1.13    3.37
   1  -1  -9    4.66    2.62
  -1   1   9    3.51    2.88
  -1   1   9    7.01    3.21
  -1  -1  -9    3.45    3.56
  -1  -1  -9   -1.10    3.20
   1  -1   9   -0.38    2.70
  -1  -1  -9    0.81    2.61
   1   1   9   13.07    3.32
   1   1   9    2.81    3.21
   3  -1   9   -0.56    2.89
  -3  -1  -9    1.79    3.66
  -3  -1  -9    7.44    3.02
   3   1   9    5.56    3.23
   3   1   9    3.85    3.21
  -5  -1  -9  174.72    7.86
   5  -1   9  171.41    7.75
  -5  -1  -9  171.20    8.78
  -5   1  -9  171.79    6.39
   5   1   9  179.16    8.28
   5   1   9  181.38    8.46
  -7  -1  -9    1.10    3.37
   7  -1   9   -4.01    3.16
  -7  -1  -9    0.64    4.36
  -7   1  -9    0.74    2.81
   7   1   9   -4.93    3.14
   7   1   9    2.91    3.39
   9  -1   9    4.23    3.57
  -9  -1  -9    2.10    3.76
  -9  -1  -9    2.99    4.33
   9   1   9    1.87    3.83
  11  -1   9    3.65    3.67
 -11  -1  -9    4.28    3.63
 -11  -1  -9   19.21    4.86
 -11   1  -9    2.76    4.47
  11   1   9    9.63    4.09
 -13  -1  -9   18.45    5.63
  13  -1   9   11.96    4.24
 -13  -1  -9    7.16    4.31
  13   1   9    8.18    4.30
  15  -1   9   19.91    4.70
 -15  -1  -9   15.50    5.97
  15   1   9   21.08    5.07
  17  -1   9    6.23    4.48
 -17   1  -9    9.22    5.70
  17   1   9   21.77    5.12
  19  -1   9    0.55    4.46
 -19   1  -9   -1.79    5.43
  19   1   9    1.14    4.46
  21  -1   9    3.70    4.74
  21   1   9    2.94    4.77
  36  -2  -9   -4.74    5.35
  36  -2  -9    7.44    4.88
 -36  -2   9    0.47    5.65
 -36   2   9    8.57    6.62
  34  -2  -9    0.48    4.32
  34  -2  -9    5.38    5.09
 -34  -2   9    3.52    5.48
 -34   2   9    6.89    5.83
 -32  -2   9    3.81    5.14
  32  -2  -9    7.52    5.35
  32  -2  -9    4.28    4.52
 -32   2   9    2.24    5.75
 -30  -2   9    0.18    4.92
  30  -2  -9    3.47    4.71
  30  -2  -9   -0.85    3.96
 -30   2   9    2.10    5.01
 -30   2   9    3.89    5.41
 -28  -2   9    0.21    5.03
 -28  -2   9   -0.53    4.33
  28  -2  -9   -2.38    3.67
  28  -2  -9    4.76    4.52
 -28   2   9    3.37    4.89
 -28   2   9    1.05    5.38
  26  -2  -9   89.71    7.15
  26  -2  -9   78.37    6.02
 -26  -2   9   83.45    7.34
 -26  -2   9   85.31    7.37
  26  -2  -9  102.65    7.42
 -26   2   9   85.93    7.56
 -26   2   9   80.29    7.57
 -24  -2   9   33.73    5.74
  24  -2  -9   22.75    4.40
 -24  -2   9   21.72    5.06
  24  -2  -9   24.93    4.96
 -24   2   9   29.14    5.52
  24   2  -9   26.82    3.84
 -24   2   9   20.78    5.44
 -24   2   9   25.03    5.54
 -22  -2   9  101.28    7.88
 -22  -2   9   96.99    7.84
  22  -2  -9   97.73    7.58
  22  -2  -9   94.32    6.69
 -22   2   9   93.38    7.33
 -22   2   9  106.11    7.86
  22   2  -9   88.54    5.50
 -22   2   9   90.16    7.45
  20  -2  -9   21.77    4.11
 -20  -2   9   17.67    4.45
  20  -2  -9   16.25    3.92
  20  -2  -9   20.95    4.52
 -20  -2   9   18.22    4.30
 -20   2   9   20.15    4.99
  20   2  -9   29.70    3.33
 -20   2   9   21.13    5.00
 -20   2   9   25.36    5.14
  18  -2  -9   45.59    4.62
  18  -2  -9   45.16    4.91
 -18  -2   9   49.53    4.89
 -18  -2   9   52.54    5.13
 -18   2   9   61.31    5.74
 -18   2   9   49.09    5.57
 -18   2   9   39.78    5.42
 -16  -2   9    1.87    3.21
  16  -2  -9    8.35    3.01
 -16  -2   9    2.34    3.19
  16  -2  -9    7.05    3.51
 -16   2   9    6.33    3.84
 -16   2   9    8.30    4.00
 -16   2   9    3.20    3.94
  14  -2  -9   75.63    5.42
  14  -2  -9   79.19    5.61
 -14  -2   9   66.28    5.17
 -14   2   9   70.44    5.55
 -14   2   9   72.19    5.82
 -14   2   9   68.74    5.53
 -14   2   9   57.78    5.17
  12  -2  -9   64.44    4.73
  12  -2  -9   63.72    5.01
 -12  -2   9   62.56    4.88
 -12   2   9   72.63    5.89
 -12   2   9   56.29    5.07
 -12   2   9   58.61    5.19
  10  -2  -9   20.68    3.70
 -10  -2   9   22.54    3.15
  10  -2  -9   24.53    3.36
 -10   2   9   19.33    3.82
 -10   2   9   19.76    3.65
 -10   2   9   28.51    4.13
  -8  -2   9  452.45   11.26
   8  -2  -9  447.79   11.77
   8  -2  -9  446.74   11.98
   8  -2  -9  451.13   12.38
  -8   2   9  467.60   12.95
  -8   2   9  441.02   12.29
  -8   2   9  446.72   12.30
   6  -2  -9  178.75    8.01
   6  -2  -9  183.77    7.68
  -6  -2   9  181.68    6.58
   6  -2  -9  177.51    7.17
  -6   2   9  169.47    7.62
  -6   2   9  188.10    7.85
   4  -2  -9    5.74    3.45
  -4  -2   9    9.91    2.65
   4  -2  -9    8.70    2.98
   4  -2  -9    6.68    3.70
  -4   2   9    6.64    3.07
  -4   2   9    5.61    3.26
   2  -2  -9  115.02    7.00
   2  -2  -9  117.06    6.16
  -2  -2   9  116.55    5.62
  -2   2   9  116.77    6.59
  -2   2   9  119.44    6.70
   0  -2  -9   27.50    3.82
   0  -2   9   32.41    3.53
   0  -2  -9   26.89    4.28
   0   2   9   32.38    4.21
   0   2   9   27.48    4.15
  -2  -2  -9    1.73    3.83
  -2  -2  -9    7.06    3.37
  -2  -2  -9    6.11    3.81
   2  -2   9   12.29    3.00
   2   2   9    1.45    3.16
   2   2   9    1.66    3.18
  -4  -2  -9   22.10    4.15
   4  -2   9   24.45    3.75
  -4  -2  -9   12.87    4.46
  -4  -2  -9   15.80    4.30
   4   2   9   17.57    4.10
   4   2   9   23.55    4.17
  -6  -2  -9   72.15    6.15
   6  -2   9   69.45    5.40
  -6  -2  -9   79.34    6.13
   6   2   9   72.07    5.99
   6   2   9   63.62    6.05
   8  -2   9   34.96    4.75
  -8  -2  -9   39.19    5.57
  -8  -2  -9   36.33    5.07
  -8  -2  -9   30.61    5.38
   8   2   9   34.43    5.19
   8   2   9   51.11    5.60
  10  -2   9   18.62    4.06
 -10  -2  -9   18.99    4.47
 -10  -2  -9   17.43    4.93
 -10  -2  -9   19.09    5.05
  10   2   9   23.24    4.71
  10   2   9   19.69    4.50
  12  -2   9    2.14    3.56
 -12  -2  -9   -6.45    4.03
 -12  -2  -9   -0.59    4.62
  12   2   9    6.06    4.24
  12   2   9    2.92    3.80
 -14  -2  -9    0.24    5.00
  14  -2   9   -0.61    3.57
 -14  -2  -9   -5.69    4.86
 -14  -2  -9   -1.97    4.33
  14   2   9   -4.20    3.95
  16  -2   9    1.42    3.89
 -16  -2  -9    3.42    4.89
 -16   2  -9    0.45    5.01
  16   2   9   -3.65    3.98
  18  -2   9    2.25    4.23
  18   2   9    0.07    4.42
 -18   2  -9   -1.66    5.09
  20  -2   9    1.77    4.45
 -20   2  -9   -7.12    5.19
  20   2   9   -2.93    4.82
  22  -2   9    8.21    5.32
  22   2   9   10.69    5.71
 -22   2  -9   11.07    8.48
  35  -3  -9   12.92    6.37
  35  -3  -9   13.58    5.35
 -35  -3   9    0.57    5.43
 -35   3   9    7.96    6.20
  33  -3  -9   24.71    5.62
  33  -3  -9   20.43    6.10
  33  -3  -9   28.68    5.42
 -33  -3   9   26.19    6.33
 -33   3   9   30.61    7.14
 -31  -3   9    7.79    5.13
  31  -3  -9   -0.94    4.20
  31  -3  -9   -4.86    4.57
 -31   3   9    4.27    5.55
  29  -3  -9   76.76    7.62
  29  -3  -9   65.55    6.88
 -29  -3   9   65.42    7.19
  29  -3  -9   72.52    6.20
 -29   3   9   84.74    9.17
 -29   3   9   62.20    7.32
 -29   3   9   74.61    7.48
 -27  -3   9   71.48    7.19
 -27  -3   9   70.62    6.81
  27  -3  -9   78.45    7.20
  27  -3  -9   79.24    6.92
 -27   3   9   78.24    7.45
 -27   3   9   82.99    7.74
 -27   3   9   89.72    8.44
  25  -3  -9   81.06    7.00
 -25  -3   9   86.06    7.05
  25  -3  -9   78.94    6.15
 -25  -3   9   70.84    6.78
  25  -3  -9   85.80    6.84
 -25   3   9   81.96    7.55
 -25   3   9   75.28    7.37
 -25   3   9   80.23    7.76
 -23  -3   9  171.51    9.22
  23  -3  -9  183.24    9.43
 -23  -3   9  187.81    9.16
  23  -3  -9  186.39    8.92
 -23   3   9  189.00    9.82
 -23   3   9  169.87   10.00
 -23   3   9  179.57   10.51
  21  -3  -9   -0.53    3.46
  21  -3  -9    1.41    4.31
  21  -3  -9   -3.89    3.75
 -21  -3   9   -0.40    4.09
 -21  -3   9    0.01    4.01
 -21   3   9   -5.94    4.85
 -21   3   9   -3.69    4.33
 -21   3   9   -4.18    4.56
  19  -3  -9   18.44    4.59
  19  -3  -9   13.20    3.76
 -19  -3   9   18.04    4.20
 -19  -3   9   22.60    4.36
 -19   3   9    9.44    4.56
 -19   3   9   19.68    5.01
 -19   3   9    8.25    4.54
 -17  -3   9   74.93    5.99
  17  -3  -9   71.28    5.23
  17  -3  -9   74.12    5.94
  17  -3  -9   64.97    5.96
 -17   3   9   73.99    6.46
 -17   3   9   66.49    6.21
 -17   3   9   78.28    6.37
  15  -3  -9   16.92    3.63
 -15  -3   9   10.78    3.38
  15  -3  -9   17.38    4.11
  15  -3  -9   12.11    3.51
 -15   3   9   13.72    4.26
 -15   3   9   11.56    3.98
 -15   3   9   10.70    4.26
 -13  -3   9   69.09    4.97
  13  -3  -9   64.58    4.79
  13  -3  -9   63.19    5.43
  13  -3  -9   56.76    4.97
 -13   3   9   63.80    5.44
 -13   3   9   77.20    6.15
 -13   3   9   63.40    5.64
  11  -3  -9   17.86    3.42
  11  -3  -9   22.08    3.65
  11  -3  -9   20.73    4.04
 -11  -3   9   14.45    2.78
 -11   3   9   13.69    3.81
 -11   3   9   15.15    4.11
 -11   3   9   15.65    3.79
   9  -3  -9   84.68    6.39
   9  -3  -9   80.45    5.62
  -9   3   9   92.87    6.57
  -9   3   9   78.41    5.91
  -9   3   9   78.04    6.03
   7  -3  -9  560.42   14.33
   7  -3  -9  558.55   14.16
   7  -3  -9  546.75   14.32
   7  -3  -9  540.56   13.06
  -7   3   9  542.82   14.30
  -7   3   9  562.70   14.40
  -7   3   9  543.07   14.94
   5  -3  -9    3.85    3.21
   5  -3  -9    2.32    3.30
   5  -3  -9   -1.43    3.52
   5  -3  -9    7.83    3.76
  -5   3   9    0.95    3.39
  -5   3   9    5.40    3.52
   3  -3  -9   36.43    4.70
   3  -3  -9   45.06    4.54
  -3  -3   9   50.57    3.73
   3  -3  -9   34.41    4.62
  -3   3   9   43.18    4.74
  -3   3   9   44.02    4.66
   1  -3  -9   37.65    4.51
   1  -3  -9   35.27    4.96
  -1  -3   9   44.38    3.71
   1  -3  -9   44.45    4.97
  -1   3   9   50.87    4.81
  -1   3   9   38.88    4.73
  -1  -3  -9    6.17    3.48
  -1  -3  -9    5.35    3.98
   1  -3   9    4.38    2.65
  -1  -3  -9    9.90    3.85
   1   3   9    0.33    3.32
   1   3   9    1.42    3.33
   3  -3   9   -1.11    2.48
  -3  -3  -9   -1.11    3.78
  -3  -3  -9   -0.89    3.48
  -3  -3  -9   -0.98    4.09
   3   3   9   -0.82    3.45
   3   3   9   -0.31    3.39
  -5  -3  -9  126.59    7.67
  -5  -3  -9  107.37    8.53
   5  -3   9  114.36    6.26
  -5  -3  -9  109.41    8.15
   5   3   9  104.13    7.54
   5   3   9  122.99    7.83
  -7  -3  -9  152.44    8.67
  -7  -3  -9  162.17    9.13
  -7  -3  -9  147.82    9.45
   7  -3   9  156.49    7.34
   7   3   9  146.90    8.36
   7   3   9  151.19    9.02
  -9  -3  -9    1.13    4.52
   9  -3   9   -2.32    2.91
  -9  -3  -9   -0.46    3.84
  -9  -3  -9   -1.89    4.22
   9   3   9    4.73    3.83
   9   3   9    2.92    3.91
 -11  -3  -9  467.07   14.83
  11  -3   9  457.06   13.65
 -11  -3  -9  423.24   14.88
  11   3   9  461.39   14.52
  11   3   9  448.48   14.96
 -13  -3  -9  130.61   10.22
 -13  -3  -9  143.53    9.44
  13  -3   9  124.74    8.16
  13   3   9  116.92    9.05
  13   3   9  137.95    9.14
  15  -3   9    2.21    3.66
 -15  -3  -9   -3.44    4.89
 -15  -3  -9    0.57    5.52
  15   3   9   -2.24    4.17
  15   3   9   10.03    4.88
 -17  -3  -9    8.98    5.19
  17  -3   9   10.91    4.44
 -17  -3  -9   15.00    6.11
  17   3   9   -0.51    4.47
  17   3   9    3.31    4.78
  19  -3   9    5.52    4.37
 -19  -3  -9    0.92    5.70
  19   3   9    5.88    4.82
  19   3   9    1.67    4.91
 -21  -3  -9   25.25    7.16
  21  -3   9   24.90    5.82
 -21   3  -9   21.67    6.70
  21   3   9   28.04    6.50
  21   3   9   48.84    7.18
  36  -4  -9    4.93    5.21
  34  -4  -9    9.85    5.11
  34  -4  -9    4.66    6.30
 -34  -4   9    7.11    5.83
 -34   4   9    8.69    6.07
 -34   4   9   10.61    9.20
 -32  -4   9   11.38    5.45
  32  -4  -9   10.70    5.11
  32  -4  -9    7.19    5.56
  32  -4  -9   11.89    5.07
 -32   4   9    7.35    6.45
 -32   4   9   10.23    5.94
  30  -4  -9  101.78    8.42
  30  -4  -9  114.57    7.69
  30  -4  -9  111.63    9.05
 -30  -4   9  102.70    8.55
 -30   4   9  107.70    8.73
 -30   4   9  115.39    9.71
 -30   4   9  115.12    9.39
 -28  -4   9   25.74    5.83
  28  -4  -9   22.64    4.98
  28  -4  -9   27.59    5.46
  28  -4  -9   19.45    5.40
 -28  -4   9   19.52    5.80
 -28   4   9   22.07    5.92
 -28   4   9   23.55    6.04
 -28   4   9   28.86    6.88
  26  -4  -9   97.32    8.02
 -26  -4   9  109.37    8.23
 -26  -4   9  107.13    7.92
  26  -4  -9  113.73    8.23
  26  -4  -9  106.51    7.16
 -26   4   9  121.62    9.23
 -26   4   9  106.95    8.81
 -26   4   9  102.76    8.29
 -24  -4   9    5.65    4.22
  24  -4  -9    3.49    4.39
  24  -4  -9    7.23    4.25
  24  -4  -9   -0.99    3.55
 -24  -4   9    7.07    4.66
 -24   4   9    6.65    4.95
 -24   4   9    8.15    5.65
 -24   4   9   -1.68    4.62
  22  -4  -9    3.32    3.69
 -22  -4   9    5.42    4.24
 -22  -4   9    2.94    3.78
  22  -4  -9   -1.15    4.04
 -22   4   9   -6.91    5.00
 -22   4   9   -4.03    4.30
 -22   4   9    0.64    4.64
  20  -4  -9   76.43    6.33
 -20  -4   9   67.66    5.82
  20  -4  -9   67.72    5.78
  20  -4  -9   73.29    6.51
 -20   4   9   74.09    6.91
 -20   4   9   69.88    6.91
 -20   4   9   63.56    6.72
  18  -4  -9    0.27    3.35
 -18  -4   9    7.90    3.54
  18  -4  -9    3.50    3.89
  18  -4  -9    0.25    4.27
 -18   4   9    1.27    4.56
 -18   4   9    1.80    4.34
 -18   4   9    7.15    4.45
 -16  -4   9  176.27    7.43
  16  -4  -9  177.38    7.87
  16  -4  -9  179.80    8.87
  16  -4  -9  177.34    8.40
 -16   4   9  171.66    9.10
 -16   4   9  173.02    8.89
 -16   4   9  182.21    9.47
 -16   4   9  160.02   10.56
 -14  -4   9    6.14    2.95
  14  -4  -9    5.41    4.00
  14  -4  -9   -1.87    2.99
  14  -4  -9    3.45    3.69
 -14   4   9    2.71    3.93
  14   4  -9    6.93    2.70
 -14   4   9    2.35    3.65
 -14   4   9    3.00    3.94
 -14   4   9    5.21    4.28
  12  -4  -9   13.00    3.56
  12  -4  -9    1.39    3.52
  12  -4  -9    3.92    3.90
 -12   4   9    3.31    3.61
 -12   4   9    9.11    3.69
 -12   4   9    5.39    3.87
  12   4  -9   12.67    3.01
 -12   4   9    7.16    4.02
  10  -4  -9  112.22    6.74
  10  -4  -9  121.76    7.52
  10  -4  -9  122.46    6.82
 -10   4   9  119.85    7.33
 -10   4   9  127.83    7.81
 -10   4   9  115.15    6.86
 -10   4   9  110.46    7.28
   8  -4  -9   22.32    3.91
   8  -4  -9   25.27    4.61
  -8   4   9   26.14    4.62
  -8   4   9   24.11    4.24
  -8   4   9   24.08    4.25
  -8   4   9   17.60    3.85
   6  -4  -9  134.80    7.27
   6  -4  -9  134.20    6.95
   6  -4  -9  128.29    7.50
   6  -4  -9  124.98    7.83
  -6   4   9  122.41    7.24
  -6   4   9  115.48    7.30
  -6   4   9  135.11    7.41
  -6   4   9  130.44    7.61
   4  -4  -9   98.16    7.21
   4  -4  -9  105.13    6.67
   4  -4  -9   92.86    6.52
   4  -4  -9   99.04    7.09
  -4   4   9  100.21    6.52
  -4   4   9  104.66    6.97
  -4   4   9  104.61    7.15
   2  -4  -9  167.74    8.10
   2  -4  -9  159.47    8.59
   2  -4  -9  143.85    8.17
   2  -4  -9  152.67    7.52
  -2   4   9  169.08    8.30
  -2   4   9  158.32    7.81
  -2   4   9  160.99    7.86
   0  -4  -9  153.25    8.73
   0  -4  -9  136.01    8.12
   0  -4  -9  154.27    8.12
   0  -4  -9  152.06    7.75
   0   4   9  146.71    8.17
   0   4   9  154.85    7.90
  -2  -4  -9   21.25    4.48
  -2  -4  -9   29.12    4.76
   2  -4   9   25.60    3.30
  -2  -4  -9   22.99    5.12
  -2  -4  -9   17.04    4.59
   2   4   9   23.00    4.60
   2   4   9   30.06    4.69
  -4  -4  -9   15.69    4.50
  -4  -4  -9   18.78    4.62
  -4  -4  -9   10.58    5.04
   4  -4   9   15.36    3.14
  -4  -4  -9   16.42    4.42
   4   4   9   11.50    3.99
   4   4   9   18.42    4.45
  -6  -4  -9   57.55    6.64
  -6  -4  -9   53.68    5.94
  -6  -4  -9   66.59    6.35
  -6  -4  -9   53.50    5.46
   6  -4   9   65.02    4.99
   6   4   9   68.49    6.19
   6   4   9   71.31    6.41
  -8  -4  -9    5.56    4.24
  -8  -4  -9   -6.99    4.55
  -8  -4  -9   -3.79    4.55
   8  -4   9    2.31    2.92
  -8  -4  -9    4.88    4.10
   8   4   9    1.77    3.77
   8   4   9    2.97    3.84
 -10  -4  -9   39.14    6.33
  10  -4   9   33.01    4.36
 -10  -4  -9   37.88    5.60
  10   4   9   27.51    5.08
  10   4   9   31.06    5.14
 -12  -4  -9  167.73   11.03
  12  -4   9  177.05    8.68
 -12  -4  -9  188.86   10.46
  12   4   9  191.24   10.23
  12   4   9  187.91   10.02
 -14  -4  -9  236.11   12.46
  14  -4   9  241.49   10.22
 -14  -4  -9  215.33   11.52
  14   4   9  215.49   11.11
  14   4   9  227.95   11.67
 -16  -4  -9   -1.49    4.90
  16  -4   9    2.30    3.76
 -16  -4  -9   -7.68    5.38
  16   4   9    7.88    4.96
  16   4   9    3.27    4.85
 -18  -4  -9   26.68    7.29
 -18  -4  -9   39.18    6.67
  18  -4   9   36.94    5.76
  18   4   9   24.67    6.08
  18   4   9   26.75    6.03
 -20  -4  -9    5.22    6.60
  20  -4   9   14.23    5.07
 -20  -4  -9   10.26    7.26
  20   4   9   12.13    5.62
  20   4   9    6.36    5.47
  35  -5  -9   12.99    5.71
  33  -5  -9   24.74    5.90
  33  -5  -9   49.01    7.40
 -33  -5   9   35.05    6.75
 -33   5   9   48.06    8.65
 -33   5   9   45.47    7.49
 -31  -5   9   70.27    7.72
  31  -5  -9   68.62    7.89
  31  -5  -9   79.71    7.22
 -31   5   9   75.24    8.74
 -31   5   9   88.11    8.80
 -29  -5   9   80.45    7.57
  29  -5  -9   84.51    7.87
  29  -5  -9   80.35    7.93
 -29   5   9   94.73    8.55
 -29   5   9   67.45    7.61
 -29   5   9   75.62    8.66
  27  -5  -9   14.98    5.50
 -27  -5   9   19.11    5.40
  27  -5  -9   24.32    5.45
  27  -5  -9   16.23    5.05
 -27   5   9   20.40    6.05
 -27   5   9   12.99    5.81
 -27   5   9   22.04    6.76
  25  -5  -9   11.68    5.12
  25  -5  -9   14.39    4.79
  25  -5  -9    7.74    4.32
 -25  -5   9   18.29    4.86
 -25   5   9   20.40    6.36
 -25   5   9   27.45    5.92
 -25   5   9   13.81    5.52
  23  -5  -9   67.58    6.03
 -23  -5   9   66.06    5.99
  23  -5  -9   55.66    6.43
  23  -5  -9   61.24    6.25
 -23   5   9   55.37    6.90
 -23   5   9   68.89    7.26
 -23   5   9   65.05    6.65
  21  -5  -9  227.11   10.14
 -21  -5   9  219.38    9.21
  21  -5  -9  222.45   10.42
  21  -5  -9  221.84    9.33
 -21   5   9  217.73   11.18
 -21   5   9  217.56   10.52
 -21   5   9  221.72   10.70
 -19  -5   9   69.41    5.61
  19  -5  -9   62.02    6.14
  19  -5  -9   59.71    6.54
  19  -5  -9   69.40    5.91
 -19   5   9   63.80    6.70
 -19   5   9   64.93    6.74
 -19   5   9   67.94    7.01
  19   5  -9   68.35    5.26
  17  -5  -9    6.29    4.26
 -17  -5   9   11.33    3.59
  17  -5  -9   11.16    4.12
  17  -5  -9   17.35    4.75
  17   5  -9   10.92    3.31
 -17   5   9   20.07    4.99
 -17   5   9   17.73    5.31
 -17   5   9   10.11    4.77
  15  -5  -9  119.06    7.54
  15  -5  -9  104.19    8.26
  15  -5  -9  108.97    7.45
 -15   5   9  116.48    8.10
  15   5  -9  108.65    6.45
 -15   5   9  102.43    7.63
 -15   5   9  109.80    8.69
 -15   5   9  107.67    8.11
  13  -5  -9   30.61    4.68
  13  -5  -9   39.70    5.47
  13  -5  -9   36.43    4.72
 -13   5   9   37.06    5.38
 -13   5   9   31.77    5.06
  13   5  -9   26.13    4.24
 -13   5   9   36.79    4.94
 -13   5   9   36.98    5.29
  11  -5  -9   82.03    6.49
  11  -5  -9   72.37    6.44
  11  -5  -9   81.97    5.85
  11   5  -9   84.29    6.16
 -11   5   9   77.89    6.47
 -11   5   9   82.40    6.51
 -11   5   9   82.16    6.46
 -11   5   9   82.43    6.10
   9  -5  -9  176.53    8.41
   9  -5  -9  177.70    8.56
   9  -5  -9  179.80    9.16
  -9   5   9  188.61    9.04
  -9   5   9  183.87    8.80
  -9   5   9  182.71    8.53
   9   5  -9  192.22    8.28
  -9   5   9  192.96    9.36
   7  -5  -9  187.09    9.28
   7  -5  -9  202.68    8.92
   7  -5  -9  168.77    8.22
  -7   5   9  194.55    8.70
  -7   5   9  174.37    8.69
  -7   5   9  180.17    8.80
  -7   5   9  197.85    9.21
   5  -5  -9    1.59    3.54
   5  -5  -9   -0.73    3.90
   5  -5  -9    1.87    3.81
  -5   5   9    4.82    4.13
  -5   5   9    2.50    3.66
  -5   5   9    3.07    3.56
  -5   5   9    2.85    3.59
   3  -5  -9   35.83    4.83
   3  -5  -9   31.87    4.89
   3  -5  -9   35.58    5.40
   3  -5  -9   48.32    5.30
  -3   5   9   36.12    4.77
  -3   5   9   35.88    5.08
  -3   5   9   47.44    5.49
  -3   5   9   52.94    5.38
   1  -5  -9   12.02    4.59
   1  -5  -9    6.76    3.96
   1  -5  -9    8.00    4.12
   1  -5  -9    8.10    4.23
  -1   5   9   12.23    4.15
  -1   5   9   14.32    4.17
  -1  -5  -9   26.95    5.48
  -1  -5  -9   33.55    5.06
  -1  -5  -9   33.55    5.38
  -1  -5  -9   27.05    5.00
   1   5   9   31.64    4.93
   1   5   9   31.55    4.83
  -3  -5  -9   58.09    6.02
  -3  -5  -9   38.38    5.98
  -3  -5  -9   37.01    5.31
   3   5   9   40.46    5.39
   3   5   9   29.54    4.90
  -5  -5  -9  309.46   11.88
  -5  -5  -9  308.64   11.00
  -5  -5  -9  291.94   12.17
   5  -5   9  294.96    8.97
   5   5   9  281.49   11.01
   5   5   9  294.20   11.65
  -7  -5  -9   95.75    7.87
  -7  -5  -9   98.26    7.53
  -7  -5  -9  104.35    7.09
   7  -5   9  105.31    5.95
   7   5   9  104.97    7.72
   7   5   9   86.13    7.19
  -9  -5  -9   57.05    6.57
   9  -5   9   48.44    4.67
  -9  -5  -9   45.25    5.64
  -9  -5  -9   49.32    6.71
   9   5   9   56.57    6.36
   9   5   9   52.33    5.89
  11  -5   9  125.04    7.20
 -11  -5  -9  139.16   10.61
 -11  -5  -9  119.72    9.45
  11   5   9  111.43    8.61
  11   5   9  126.55    8.99
 -13  -5  -9   94.12    8.65
  13  -5   9   88.79    6.80
 -13  -5  -9   87.57    8.18
  13   5   9   89.32    7.97
  13   5   9   86.81    7.53
 -15  -5  -9   57.63    7.91
 -15  -5  -9   62.94    7.60
  15  -5   9   60.69    6.21
  15   5   9   78.34    7.92
  15   5   9   57.72    7.35
 -17  -5  -9   35.41    6.67
  17  -5   9   14.24    4.73
 -17  -5  -9   21.11    7.12
 -19  -5  -9   86.76    9.07
  19  -5   9  106.77    8.65
 -19  -5  -9   98.64   10.06
  19   5   9   90.90    8.45
  19   5   9   90.84    8.97
  34  -6  -9   -0.33    5.40
  32  -6  -9    5.67    5.25
 -32  -6   9    4.49    5.40
  32  -6  -9    6.63    5.38
 -32   6   9    2.37    7.00
 -32   6   9    5.53    6.13
 -30  -6   9   10.00    5.26
  30  -6  -9   15.53    5.34
  30  -6  -9   13.62    5.47
 -30   6   9    7.79    6.76
 -30   6   9   13.25    6.19
  28  -6  -9   60.55    6.60
  28  -6  -9   68.90    7.51
 -28  -6   9   53.28    6.60
 -28   6   9   66.90    8.04
 -28   6   9   73.68    8.63
 -28   6   9   52.32    6.85
 -26  -6   9   28.20    5.57
  26  -6  -9   22.35    5.37
  26  -6  -9   32.04    5.85
 -26   6   9   41.05    7.25
 -26   6   9   25.63    6.09
 -26   6   9   33.04    6.23
  26   6  -9   28.90    4.44
 -24  -6   9   20.94    4.78
  24  -6  -9   10.97    4.71
  24  -6  -9   13.53    5.21
  24  -6  -9   20.25    5.14
 -24   6   9   14.16    5.68
 -24   6   9   14.00    5.50
 -24   6   9   14.87    6.34
  24   6  -9   14.30    3.58
 -22  -6   9   20.80    4.40
  22  -6  -9   11.99    4.62
  22  -6  -9   14.54    4.59
  22  -6  -9   23.63    5.57
 -22   6   9   14.09    5.04
  22   6  -9   19.16    3.75
 -22   6   9   24.14    5.69
 -22   6   9   18.77    5.72
  20  -6  -9   65.39    6.53
  20  -6  -9   59.67    6.57
  20  -6  -9   64.30    5.93
 -20  -6   9   55.68    5.27
 -20   6   9   53.84    6.42
 -20   6   9   67.17    7.33
 -20   6   9   57.31    6.44
  20   6  -9   58.96    5.28
  18  -6  -9  341.76   12.43
 -18  -6   9  332.77   10.32
  18  -6  -9  332.27   11.44
  18  -6  -9  328.39   12.38
 -18   6   9  337.15   12.72
  18   6  -9  342.24   11.09
 -18   6   9  363.81   12.52
 -18   6   9  341.50   12.64
  16  -6  -9   47.56    6.12
  16  -6  -9   42.74    5.47
  16  -6  -9   41.30    5.30
 -16  -6   9   34.90    4.10
 -16   6   9   46.25    6.22
 -16   6   9   39.30    5.60
 -16   6   9   41.14    5.74
  16   6  -9   47.59    5.10
  14  -6  -9   42.33    5.42
  14  -6  -9   37.78    5.64
  14  -6  -9   36.14    5.17
 -14   6   9   52.79    6.28
 -14   6   9   46.97    6.28
 -14   6   9   45.47    5.75
 -14   6   9   38.23    5.36
  14   6  -9   43.16    4.98
  12  -6  -9   82.72    6.71
  12  -6  -9   75.84    6.84
  12  -6  -9   72.10    5.97
 -12   6   9   68.19    6.60
 -12   6   9   77.16    7.03
 -12   6   9   65.47    6.37
 -12   6   9   77.11    6.33
  12   6  -9   84.18    6.47
  10  -6  -9   89.00    6.80
  10  -6  -9   82.97    7.00
  10  -6  -9  100.32    6.66
 -10   6   9   81.23    6.59
 -10   6   9   65.13    6.45
 -10   6   9   68.87    6.49
 -10   6   9   85.50    6.80
  10   6  -9   83.81    6.59
   8  -6  -9   25.44    5.24
   8  -6  -9   19.58    4.61
   8  -6  -9   16.25    4.42
  -8   6   9   11.65    4.10
  -8   6   9   10.44    4.44
   8   6  -9   17.62    4.15
  -8   6   9   19.80    4.57
  -8   6   9   13.78    4.84
   6  -6  -9   88.68    6.95
   6  -6  -9  110.81    8.27
   6  -6  -9   91.91    6.55
  -6   6   9   97.99    6.82
  -6   6   9  109.57    7.75
  -6   6   9  101.72    8.04
   6   6  -9   95.13    7.32
  -6   6   9   99.74    7.40
   4  -6  -9   -3.64    4.29
   4  -6  -9    0.41    4.32
   4  -6  -9    7.58    4.28
  -4   6   9    6.05    4.26
  -4   6   9    6.69    4.02
  -4   6   9    7.46    4.15
  -4   6   9    4.39    4.05
   2  -6  -9  107.15    7.02
   2  -6  -9  107.65    8.02
   2  -6  -9  113.06    8.76
  -2   6   9  100.41    7.66
  -2   6   9  108.92    8.33
  -2   6   9   96.21    7.76
   0  -6  -9   -6.49    4.49
   0  -6  -9   -1.42    4.40
   0  -6  -9   -4.33    4.05
   0   6   9    0.24    3.79
   0   6   9    1.85    3.78
  -2  -6  -9   31.29    5.34
  -2  -6  -9   20.44    5.03
  -2  -6  -9   21.71    5.57
   2   6   9   25.16    4.64
   2   6   9   22.57    4.71
  -4  -6  -9   23.12    5.55
  -4  -6  -9   12.97    4.57
  -4  -6  -9   18.23    4.75
   4   6   9    8.43    4.28
   4   6   9   17.34    4.53
  -6  -6  -9   81.85    7.71
  -6  -6  -9   74.19    6.66
  -6  -6  -9   91.55    7.62
   6   6   9   80.82    6.70
   6   6   9   77.57    6.94
  -8  -6  -9    0.22    5.23
  -8  -6  -9   -9.87    4.24
  -8  -6  -9    0.66    4.63
   8  -6   9    2.10    2.68
   8   6   9   -2.25    3.91
   8   6   9   -5.65    3.65
  10  -6   9   57.76    5.08
 -10  -6  -9   75.95    8.14
 -10  -6  -9   52.50    6.91
 -10  -6  -9   52.10    6.34
  10   6   9   49.22    6.05
  10   6   9   63.06    6.87
  12  -6   9   87.03    6.72
 -12  -6  -9   83.73    8.14
 -12  -6  -9   83.01    8.57
  12   6   9   85.89    7.27
  12   6   9   94.17    8.13
 -14  -6  -9    2.12    5.36
  14  -6   9    0.03    3.47
 -14  -6  -9   -7.97    5.86
  14   6   9    0.02    4.64
  14   6   9    4.40    4.47
 -16  -6  -9   39.94    7.95
 -16  -6  -9   23.58    6.56
  16  -6   9   28.65    5.12
  16   6   9   13.74    5.27
  16   6   9   20.32    5.61
  18  -6   9   36.72    5.64
 -18  -6  -9   12.50    7.54
 -18  -6  -9   24.62    6.98
  18   6   9   48.87    7.13
  18   6   9   53.05    7.37
  31  -7  -9   70.64    7.54
 -31  -7   9   81.04    8.33
  31  -7  -9   90.58    8.76
 -31   7   9   97.17    9.78
 -31   7   9   86.72    9.07
  29  -7  -9  103.67    8.96
 -29  -7   9   95.10    8.15
  29  -7  -9  103.28    8.07
 -29   7   9  103.26    9.17
 -29   7   9  104.86    9.69
  27  -7  -9   72.91    7.84
  27  -7  -9   59.17    7.01
 -27  -7   9   70.17    7.06
 -27   7   9   74.48    8.00
 -27   7   9   59.06    6.98
 -27   7   9   79.82    8.74
  27   7  -9   67.74    6.16
 -25  -7   9  218.90   10.28
  25  -7  -9  215.25   10.56
  25  -7  -9  229.68   11.38
 -25   7   9  220.92   11.48
  25   7  -9  213.39    9.51
 -25   7   9  214.19   11.73
 -25   7   9  209.62   12.27
  23  -7  -9   16.82    5.22
  23  -7  -9   20.67    5.33
 -23  -7   9   24.54    4.88
  23   7  -9   22.07    4.15
 -23   7   9   17.54    5.48
 -23   7   9   19.63    6.53
 -23   7   9   32.57    6.22
  21  -7  -9   15.25    4.87
  21  -7  -9   15.27    4.88
 -21  -7   9   22.85    4.44
 -21   7   9    8.61    4.89
  21   7  -9   24.47    4.38
 -21   7   9   16.06    5.39
 -21   7   9   29.78    6.19
  19  -7  -9  191.23    9.94
 -19  -7   9  155.51    7.62
  19  -7  -9  168.29    9.15
 -19   7   9  185.54   10.11
 -19   7   9  169.88    9.57
 -19   7   9  169.91   10.56
  19   7  -9  169.54    8.33
  17  -7  -9   78.58    6.41
  17  -7  -9   81.05    7.09
  17  -7  -9   74.81    7.22
 -17   7   9   86.13    7.28
 -17   7   9   74.72    6.63
 -17   7   9   87.79    7.57
  17   7  -9   92.49    6.73
  15  -7  -9    6.31    4.30
  15  -7  -9    6.33    4.57
  15  -7  -9    0.27    3.98
  15   7  -9    3.25    3.50
 -15   7   9   15.87    4.79
 -15   7   9   11.33    4.97
 -15   7   9   11.07    4.51
  13  -7  -9   -6.67    3.79
  13  -7  -9    0.42    4.49
  13  -7  -9   -5.26    3.68
 -13   7   9   -2.31    3.87
  13   7  -9    2.09    3.33
 -13   7   9   -3.85    4.32
 -13   7   9    0.71    4.15
 -13   7   9    3.37    4.75
  11  -7  -9  136.71    9.28
  11  -7  -9  159.33    8.94
  11  -7  -9  157.95    8.67
 -11   7   9  165.07    7.89
 -11   7   9  155.42    9.01
 -11   7   9  153.89    9.01
 -11   7   9  164.39    8.88
 -11   7   9  159.95    9.55
  11   7  -9  161.10    8.45
   9  -7  -9  297.09   11.55
   9  -7  -9  282.80   11.78
   9  -7  -9  294.33   10.71
  -9   7   9  256.04   10.94
  -9   7   9  250.53   11.08
   9   7  -9  279.25   11.09
  -9   7   9  296.25   10.92
  -9   7   9  292.00   11.48
   7  -7  -9   53.25    6.37
   7  -7  -9   55.72    6.12
   7  -7  -9   49.66    5.68
   7   7  -9   64.29    6.72
  -7   7   9   54.33    5.77
  -7   7   9   42.51    5.82
  -7   7   9   53.93    6.20
  -7   7   9   53.04    5.67
   5  -7  -9   38.84    6.11
   5  -7  -9   46.77    5.57
   5  -7  -9   44.10    5.68
  -5   7   9   40.46    5.65
  -5   7   9   49.97    5.75
  -5   7   9   39.62    5.42
   5   7  -9   41.93    5.83
  -5   7   9   54.76    6.25
   3  -7  -9  141.77    8.50
   3  -7  -9  158.39    9.24
   3  -7  -9  129.97    9.20
  -3   7   9  135.82    8.51
  -3   7   9  142.54    8.43
  -3   7   9  149.99    9.11
   1  -7  -9  171.90    9.17
   1  -7  -9  183.01    9.69
   1  -7  -9  179.39   10.21
  -1   7   9  169.72    8.85
  -1   7   9  186.06    9.37
  -1   7   9  174.97    9.40
  -1  -7  -9  243.46   11.23
  -1  -7  -9  262.31   11.62
  -1  -7  -9  254.08   10.64
   1   7   9  232.25   10.23
   1   7   9  242.82   10.74
   1   7   9  254.50   10.83
  -3  -7  -9  265.63   11.67
  -3  -7  -9  251.60   10.73
  -3  -7  -9  252.51   12.20
   3   7   9  259.44   10.57
   3   7   9  269.71   11.28
  -5  -7  -9   11.32    5.00
  -5  -7  -9   18.80    5.24
  -5  -7  -9   14.44    5.52
   5   7   9   20.45    4.56
   5   7   9    3.51    4.25
  -7  -7  -9   -0.20    4.59
  -7  -7  -9    2.21    5.34
  -7  -7  -9    0.64    5.05
   7   7   9    5.83    4.18
   7   7   9    6.47    4.32
   9  -7   9  263.63    9.21
  -9  -7  -9  255.74   12.37
  -9  -7  -9  276.79   11.83
  -9  -7  -9  292.48   13.86
   9   7   9  263.93   11.37
   9   7   9  292.10   12.27
 -11  -7  -9   56.97    8.36
 -11  -7  -9   50.58    7.55
  11  -7   9   60.42    5.26
  11   7   9   55.09    6.27
  11   7   9   49.10    6.36
  13  -7   9  105.84    7.17
 -13  -7  -9  109.29    9.40
  13   7   9   95.67    8.12
  13   7   9  119.12    9.43
 -15  -7  -9  184.95   12.16
  15  -7   9  185.28    9.32
  15   7   9  177.28   10.60
  15   7   9  182.85   11.26
  17  -7   9   80.85    7.25
 -17  -7  -9   94.33    9.88
  17   7   9   90.72    8.96
  17   7   9   93.48    8.42
  30  -8  -9    8.79    5.89
 -30  -8   9    5.05    5.25
 -30   8   9    7.59    7.34
 -28  -8   9   55.29    6.71
  28  -8  -9   45.91    7.25
 -28   8   9   45.99    7.79
  28   8  -9   43.31    5.77
  26  -8  -9  199.20   11.35
 -26  -8   9  196.67   10.27
 -26   8   9  200.44   12.30
 -26   8   9  197.82   11.47
 -26   8   9  198.27   11.05
  26   8  -9  190.23    9.79
  24  -8  -9  105.87    8.82
  24  -8  -9  117.18    8.61
 -24  -8   9   97.48    7.38
  24   8  -9  109.73    7.79
 -24   8   9  117.72    9.46
 -24   8   9  105.96    8.75
 -24   8   9   84.64    7.93
  22  -8  -9  137.50    9.32
 -22  -8   9  128.05    8.05
  22  -8  -9  159.69   10.17
 -22   8   9  133.40    9.68
 -22   8   9  132.68    9.51
  22   8  -9  129.75    8.18
 -22   8   9  113.64    8.56
 -20  -8   9  210.93    8.88
  20  -8  -9  239.30   10.65
  20  -8  -9  202.59   10.95
  20   8  -9  224.48   10.14
 -20   8   9  201.98   10.78
 -20   8   9  217.78   11.29
 -20   8   9  219.51   10.67
  18  -8  -9   55.59    6.53
  18  -8  -9   77.25    6.66
 -18   8   9   77.31    7.34
  18   8  -9   71.50    6.76
 -18   8   9   63.53    6.64
 -18   8   9   79.26    7.73
  16  -8  -9    9.91    4.57
  16  -8  -9   11.97    4.86
 -16   8   9   11.21    5.49
 -16   8   9   12.77    4.91
  16   8  -9    9.50    4.12
 -16   8   9    4.01    4.51
  14  -8  -9   15.91    5.00
  14  -8  -9   16.09    4.85
 -14   8   9   12.64    4.68
 -14   8   9   23.65    5.35
 -14   8   9   24.10    5.70
  14   8  -9   15.12    4.24
  12  -8  -9  219.39   10.69
  12  -8  -9  217.07    9.91
  12   8  -9  222.86   10.16
 -12   8   9  201.17    8.79
 -12   8   9  211.16    9.77
 -12   8   9  215.30   10.85
 -12   8   9  223.33   10.56
 -12   8   9  238.83   14.70
  10  -8  -9   56.47    6.57
  10  -8  -9   65.41    6.12
 -10   8   9   73.15    7.08
 -10   8   9   63.17    6.11
  10   8  -9   64.92    6.66
 -10   8   9   55.31    7.27
 -10   8   9   69.40    5.94
 -10   8   9   71.04    6.78
   8  -8  -9   63.74    5.99
   8  -8  -9   54.47    6.45
  -8   8   9   58.16    7.14
  -8   8   9   49.80    5.57
   8   8  -9   52.02    6.38
  -8   8   9   56.12    6.07
  -8   8   9   74.35    6.78
  -8   8   9   55.72    6.35
   6  -8  -9   44.70    5.56
   6  -8  -9   42.93    5.91
  -6   8   9   53.09    6.16
  -6   8   9   43.92    5.42
  -6   8   9   46.35    9.01
  -6   8   9   42.61    5.63
   6   8  -9   51.33    6.69
   4  -8  -9   -3.55    4.03
   4  -8  -9    2.67    4.35
  -4   8   9    3.54    3.60
  -4   8   9   -0.51    4.41
  -4   8   9    4.12    3.61
   4   8  -9   -1.25    3.70
   2  -8  -9   12.13    4.71
   2  -8  -9   14.77    4.82
  -2   8   9   16.41    4.31
  -2   8   9    6.54    4.60
  -2   8   9   15.97    4.44
   0  -8  -9   53.42    6.54
   0  -8  -9   54.56    6.23
   0   8   9   46.85    5.78
   0   8   9   55.51    6.28
   0   8   9   56.37    5.91
  -2  -8  -9    8.45    5.05
  -2  -8  -9    4.99    4.87
   2   8   9    6.71    4.66
   2   8   9    9.35    4.13
   2   8   9    5.31    4.13
  -4  -8  -9    9.29    4.70
  -4  -8  -9    5.23    5.07
   4   8   9   -4.84    4.38
   4   8   9    8.52    4.15
   4   8   9    7.53    4.21
  -6  -8  -9   -3.01    4.87
  -6  -8  -9   -2.11    4.68
   6   8   9    0.30    3.91
   6   8   9    1.00    4.02
  -8  -8  -9    9.13    5.45
  -8  -8  -9   17.07    5.55
   8   8   9   15.87    4.94
   8   8   9   11.56    4.47
 -10  -8  -9  105.92    9.22
  10  -8   9   82.13    6.16
  10   8   9   93.16    7.95
  10   8   9  104.88    8.30
 -12  -8  -9   68.06    8.50
  12  -8   9   71.36    5.87
  12   8   9   81.62    7.89
  12   8   9   72.15    7.35
 -14  -8  -9   34.90    7.42
  14  -8   9   45.47    5.30
  14   8   9   29.29    5.74
  14   8   9   42.10    6.47
 -27  -9   9   22.91    5.61
  27  -9  -9   25.92    6.51
  27   9  -9   15.67    4.87
  25  -9  -9  130.21   10.37
 -25  -9   9  118.32    8.97
 -25   9   9  121.43    9.86
 -25   9   9  101.52    8.50
  25   9  -9  126.04    8.80
  23  -9  -9   71.26    7.98
 -23  -9   9   62.16    6.06
  23   9  -9   61.56    6.90
 -23   9   9   54.99    6.95
 -23   9   9   70.43    8.06
  21  -9  -9   27.63    6.06
 -21  -9   9   28.11    4.80
 -21   9   9   36.56    7.48
  21   9  -9   40.05    6.05
 -21   9   9   33.38    6.05
  19  -9  -9   52.74    6.75
  19   9  -9   46.05    6.17
 -19   9   9   39.67    6.02
 -19   9   9   61.55    7.04
  17  -9  -9   35.33    5.94
 -17   9   9   39.80    5.82
  17   9  -9   47.95    6.25
 -17   9   9   41.67    6.16
 -17   9   9   35.41    6.56
  15  -9  -9   64.42    6.99
 -15   9   9   58.05    6.42
 -15   9   9   63.36    6.87
  15   9  -9   65.05    6.80
 -15   9   9   56.31    5.69
  13  -9  -9   23.26    5.58
  13  -9  -9   28.77    5.75
 -13   9   9   37.14    5.51
 -13   9   9   26.05    4.73
  13   9  -9   31.93    5.50
 -13   9   9   43.75    6.01
 -13   9   9   23.36    5.78
  11  -9  -9    6.74    4.84
  11  -9  -9   10.39    4.96
  11   9  -9   16.62    4.69
 -11   9   9   13.04    5.61
 -11   9   9   15.29    4.35
 -11   9   9   20.46    5.03
 -11   9   9   12.33    4.70
   9  -9  -9   96.28    8.06
   9  -9  -9  100.64    7.37
  -9   9   9  104.47    7.93
  -9   9   9  110.27    8.16
   9   9  -9   95.80    8.26
  -9   9   9   95.98    7.65
  -9   9   9  109.78    8.00
   7  -9  -9   13.24    4.93
   7  -9  -9   15.30    5.10
  -7   9   9    9.80    5.16
  -7   9   9   14.88    4.85
  -7   9   9    8.01    4.08
  -7   9   9    7.76    4.20
   7   9  -9   12.42    4.66
   5  -9  -9  128.82    9.15
   5  -9  -9  145.34    9.50
   5   9  -9  144.60    9.59
  -5   9   9  138.24    8.88
  -5   9   9  133.33    8.52
  -5   9   9  149.29    9.47
   3  -9  -9  181.42    9.94
   3  -9  -9  151.89   10.03
  -3   9   9  167.20    8.88
   3   9  -9  164.40   10.19
  -3   9   9  164.11    9.89
  -3   9   9  172.53    9.54
   1  -9  -9  156.16   10.01
   1  -9  -9  158.70   10.21
  -1   9   9  183.92   10.31
  -1   9   9  173.77    9.50
  -1   9   9  176.25    9.38
  -1  -9  -9  123.18    8.52
  -1  -9  -9  103.80    8.61
   1   9   9  102.39    8.13
   1   9   9  120.52    9.19
   1   9   9  112.15    8.33
  -3  -9  -9   97.04    8.34
  -3  -9  -9   92.28    7.58
   3   9   9   84.44    7.21
   3   9   9   88.89    7.58
   3   9   9   67.95    6.92
  -5  -9  -9   22.32    5.60
  -5  -9  -9    8.53    5.50
   5   9   9   20.30    4.41
   5   9   9   23.48    5.66
   5   9   9   15.94    4.63
  -7  -9  -9    1.01    5.33
  -7  -9  -9   10.64    5.49
   7   9   9    6.39    5.17
   7   9   9    8.18    4.22
   7   9   9   14.81    4.80
  -9  -9  -9   54.69    7.84
  -9  -9  -9   27.58    6.31
   9   9   9   40.63    5.98
   9   9   9   33.48    5.89
 -11  -9  -9  147.16   11.58
  11   9   9  143.57    9.47
  11   9   9  153.68   10.00
  13  -9   9  119.26    7.71
 -13  -9  -9  115.63   10.48
  13   9   9  125.87    9.36
  13   9   9  121.85    9.84
  26  10  -9   44.05    6.62
  24 -10  -9   88.54    8.81
 -24 -10   9   90.02    7.50
  24  10  -9   93.10    8.63
 -22 -10   9  255.08   10.65
  22 -10  -9  267.35   13.30
  22  10  -9  243.06   11.93
  20 -10  -9   54.22    7.40
  20  10  -9   50.55    6.71
  18 -10  -9  -11.19    4.15
  18  10  -9   -2.58    3.83
  16 -10  -9    1.99    4.54
  16  10  -9    2.14    3.75
 -16  10   9    5.14    4.99
 -16  10   9    6.01    4.56
  14 -10  -9    1.53    4.76
 -14  10   9   10.14    4.41
 -14  10   9    7.75    4.77
  14  10  -9    6.61    4.37
  12 -10  -9   22.64    5.76
 -12  10   9   33.58    5.43
  12  10  -9   26.27    5.64
 -12  10   9   33.13    5.41
  10 -10  -9   -1.14    4.57
  10  10  -9    7.25    4.53
 -10  10   9   13.46    4.62
 -10  10   9   11.70    4.53
 -10  10   9   11.35    5.27
   8 -10  -9   57.43    7.20
  -8  10   9   57.85    6.58
   8  10  -9   67.85    7.70
  -8  10   9   64.16    6.99
  -8  10   9   60.82    6.17
   6 -10  -9   70.05    7.48
  -6  10   9   66.07    6.49
  -6  10   9   71.27    7.29
   6  10  -9   62.82    7.49
  -6  10   9   75.07    7.06
   4 -10  -9   58.19    7.36
  -4  10   9   61.68    6.19
   4  10  -9   63.42    7.62
  -4  10   9   60.86    7.34
  -4  10   9   55.54    6.55
   2 -10  -9   59.47    7.40
   2  10  -9   68.70    8.01
  -2  10   9   81.84    7.41
  -2  10   9   60.79    6.39
  -2  10   9   67.61    7.04
   0 -10  -9   80.29    8.17
   0  10   9   84.33    6.90
   0  10   9   83.81    7.97
   0  10   9   63.91    6.90
  -2 -10  -9   11.39    5.49
   2  10   9   13.47    4.74
   2  10   9   12.41    5.41
   2  10   9   17.91    4.93
  -4 -10  -9   15.92    5.85
   4  10   9   18.04    4.91
  -6 -10  -9   65.02    8.08
   6  10   9   74.71    7.09
   6  10   9   62.11    7.40
  -8 -10  -9   30.74    7.05
   8  10   9   33.59    5.45
   8  10   9   36.25    6.89
 -10 -10  -9   34.82    7.47
  10  10   9   37.27    7.31
  10  10   9   25.40    5.67
  21 -11  -9    7.13    5.66
  21  11  -9   -6.08    4.12
  19 -11  -9   39.40    6.86
  19  11  -9   41.08    6.70
  17 -11  -9   68.55    8.23
  17  11  -9   65.20    7.69
  15 -11  -9   39.35    6.60
  15  11  -9   32.08    6.16
 -15  11   9   39.76    6.18
  13 -11  -9   62.70    7.55
  13  11  -9   65.17    7.78
 -13  11   9   61.33    6.93
  11 -11  -9   22.09    5.93
  11  11  -9   42.65    6.64
 -11  11   9   37.51    5.98
   9 -11  -9   35.89    6.42
  -9  11   9   48.66    6.47
   9  11  -9   52.15    7.06
   7 -11  -9   91.19    8.52
  -7  11   9   75.88    7.83
   7  11  -9   99.65    9.36
   5 -11  -9   32.45    6.37
  -5  11   9   26.28    5.95
   5  11  -9   28.80    6.25
   3 -11  -9   53.47    7.25
   3  11  -9   48.17    7.51
  -3  11   9   52.80    7.23
   1 -11  -9  163.03   11.20
   1  11  -9  152.59   11.04
  -1  11   9  138.07   10.77
  -1 -11  -9  151.15   11.28
   1  11   9  143.40    9.10
  -3 -11  -9   47.24    7.57
  -5 -11  -9   12.05    6.14
   5  11   9    5.74    4.61
  -7 -11  -9   20.77    6.92
   7  11   9   28.15    5.66
  16 -12  -9    7.34    5.62
  16  12  -9    9.05    5.21
  14 -12  -9   14.50    5.90
 -14  12   9   -3.35    4.42
  14  12  -9   -0.85    4.45
  12 -12  -9    1.12    5.27
 -12  12   9    7.07    5.11
  12  12  -9   -6.63    3.97
  10 -12  -9   -2.41    5.17
 -10  12   9   -4.67    4.23
  10  12  -9    5.51    4.78
   8 -12  -9   16.77    6.06
   8  12  -9   21.65    5.90
  -8  12   9   26.23    5.83
   6 -12  -9   12.02    5.96
   6  12  -9    1.28    5.16
  -6  12   9   17.96    5.63
   4 -12  -9  187.96   11.71
  -4  12   9  145.24   10.78
   4  12  -9  137.81   11.26
   2 -12  -9   79.21    8.90
   2  12  -9   82.76    9.65
  -2  12   9   83.30    8.91
   0 -12  -9  193.42   12.45
   0  12  -9  132.44   11.90
   0  12   9  130.14   10.85
   2  12   9   39.81    7.62
 -36   0  10    0.61    5.92
 -34   0  10   33.95    7.10
 -32   0  10   22.65    6.72
 -32   0  10   33.27    6.61
 -30   0  10   -0.42    5.30
 -30   0  10   10.00    5.29
  30   0 -10    4.73    4.33
 -28   0  10   33.10    6.36
  28   0 -10   29.83    4.75
 -28   0  10   26.57    5.82
 -26   0  10  202.75   10.55
  26   0 -10  198.37    8.75
 -26   0  10  194.05   10.33
 -24   0  10   27.89    5.32
  24   0 -10   38.96    4.56
 -24   0  10   31.13    5.74
 -22   0  10  115.02    8.45
  22   0 -10  118.81    6.60
 -22   0  10  111.26    8.54
 -20   0  10   11.85    4.48
 -20   0  10   17.41    4.78
  20   0 -10   18.24    3.55
 -18   0  10   69.57    6.02
  18   0 -10   65.58    5.62
 -18   0  10   64.80    5.89
  18   0 -10   53.32    4.41
 -16   0  10   52.99    5.22
 -16   0  10   56.35    5.49
  16   0 -10   54.75    4.66
  16   0 -10   55.74    4.30
 -14   0  10   41.97    4.64
  14   0 -10   34.26    3.52
 -14   0  10   34.92    4.58
 -12   0  10   32.06    4.37
  12   0 -10   39.00    3.46
 -12   0  10   26.65    4.05
 -10   0  10   22.81    3.77
  10   0 -10   25.06    2.99
 -10   0  10   20.43    3.74
   8   0 -10   71.16    4.36
  -8   0  10   69.23    4.91
  -8   0  10   63.46    5.25
  -6   0  10   30.70    3.84
  -6   0  10   29.31    4.17
   6   0 -10   36.10    3.28
  -4   0  10  122.13    6.46
  -4   0  10  125.48    6.83
   4   0 -10  128.47    5.45
   2   0 -10  105.46    5.14
  -2   0  10  102.09    6.18
  -2   0  10   94.31    6.23
   0   0  10  110.41    6.63
   0   0 -10  131.81    5.94
   0   0  10  134.21    7.20
  -2   0 -10   -1.77    2.58
   2   0  10   -0.94    3.18
   2   0  10    1.40    3.14
   4   0  10    4.18    3.40
  -4   0 -10    3.26    2.95
   4   0  10    4.41    3.51
  -6   0 -10   -1.53    2.97
  -6   0 -10    4.57    4.26
   6   0  10   -2.78    3.16
  -8   0 -10    2.23    4.38
   8   0  10    8.86    3.91
 -10   0 -10    0.43    4.53
  10   0  10   -3.01    3.49
 -12   0 -10    2.99    5.12
  12   0  10    1.66    3.97
 -14   0 -10   -0.28    5.35
  14   0  10    2.92    4.28
 -16   0 -10   12.34    5.91
  16   0  10    0.18    4.30
  18   0  10   22.80    5.67
  20   0  10   -5.51    4.83
  37  -1 -10    1.10    5.15
 -35  -1  10   12.45    6.20
  35  -1 -10    6.91    5.38
 -35   1  10   10.61    6.49
 -33  -1  10  158.21   11.34
  33  -1 -10  168.67    9.76
  33  -1 -10  146.33    9.82
 -33   1  10  169.83   11.55
 -31  -1  10   93.08    8.41
 -31  -1  10  101.37    8.75
  31  -1 -10   89.04    7.41
  31  -1 -10   99.41    7.91
 -31   1  10   97.13    8.75
 -31   1  10   98.94    8.79
 -29  -1  10  128.71   10.15
  29  -1 -10  136.23    8.39
  29  -1 -10  114.55    9.03
 -29  -1  10  127.87    9.67
 -29   1  10  137.92   10.13
 -29   1  10  128.80   10.02
 -27  -1  10   73.63    7.43
 -27  -1  10   69.36    6.87
  27  -1 -10   76.06    6.40
  27  -1 -10   68.40    6.52
 -27   1  10   62.60    7.23
 -27   1  10   56.21    6.75
  25  -1 -10   33.55    5.20
 -25  -1  10   24.30    5.17
  25  -1 -10   31.35    4.60
 -25  -1  10   34.34    5.69
  25   1 -10   27.22    4.18
 -25   1  10   26.20    5.46
 -25   1  10   36.97    5.74
 -23  -1  10   91.12    7.20
  23  -1 -10   94.74    6.60
 -23  -1  10   89.77    7.10
 -23   1  10   79.93    7.11
  23   1 -10   93.27    5.92
 -23   1  10   89.27    7.40
 -21  -1  10  222.11    9.99
  21  -1 -10  204.69    8.55
 -21  -1  10  227.15    9.88
  21   1 -10  218.85    7.95
 -21   1  10  225.78   10.18
 -21   1  10  220.89   10.26
 -19  -1  10  424.82   12.60
  19  -1 -10  405.15   11.85
 -19  -1  10  417.79   12.90
 -19   1  10  404.66   12.99
  19   1 -10  396.45   10.77
 -19   1  10  428.64   13.52
 -17  -1  10  451.30   13.01
 -17  -1  10  453.09   12.63
  17  -1 -10  437.55   11.96
 -17   1  10  435.97   13.37
 -17   1  10  416.03   13.25
 -17   1  10  428.90   13.18
  17   1 -10  444.46   10.96
  15  -1 -10  344.57   10.31
 -15  -1  10  365.91   10.97
 -15  -1  10  364.41   11.38
  15   1 -10  356.36    9.30
 -15   1  10  386.47   12.12
 -15   1  10  386.77   11.85
 -15   1  10  357.10   11.51
  13  -1 -10  788.57   17.69
 -13  -1  10  801.88   17.98
 -13  -1  10  813.50   18.84
 -13   1  10  757.90   18.53
 -13   1  10  789.51   18.53
 -13   1  10  802.18   19.56
 -11  -1  10  492.20   13.30
 -11  -1  10  486.63   12.69
  11  -1 -10  495.39   12.40
  11  -1 -10  496.21   13.47
 -11   1  10  496.83   13.89
 -11   1  10  485.66   13.32
 -11   1  10  487.76   13.37
   9  -1 -10 1017.26   22.42
   9  -1 -10 1007.03   21.37
  -9  -1  10 1020.85   21.33
   9  -1 -10 1024.01   21.74
  -9  -1  10  995.03   21.94
  -9   1  10 1015.72   22.99
  -9   1  10 1018.31   22.11
  -9   1  10 1019.49   22.93
  -7  -1  10  987.82   21.69
   7  -1 -10 1007.22   22.36
   7  -1 -10 1019.50   21.81
   7  -1 -10  998.48   21.20
  -7   1  10 1031.68   22.78
  -7   1  10 1014.24   21.99
  -5  -1  10  266.21    8.78
  -5  -1  10  281.29    9.27
   5  -1 -10  267.88   10.22
   5  -1 -10  270.38    9.37
   5  -1 -10  258.46    8.65
  -5   1  10  282.87    9.61
  -5   1  10  239.87    9.57
   3  -1 -10  151.91    6.58
   3  -1 -10  158.65    7.63
   3  -1 -10  141.74    7.98
  -3  -1  10  150.46    6.86
  -3  -1  10  142.24    6.65
  -3   1  10  142.00    7.43
  -3   1  10  157.74    7.31
   1  -1 -10   56.53    5.36
   1  -1 -10   46.10    4.97
   1  -1 -10   56.12    4.56
  -1  -1  10   54.81    4.78
  -1  -1  10   60.30    4.62
  -1   1  10   54.61    4.99
  -1   1  10   54.15    5.14
  -1  -1 -10  265.83   10.98
   1  -1  10  261.60    9.41
  -1  -1 -10  261.15   10.17
  -1  -1 -10  257.28    8.96
   1  -1  10  279.65    9.10
   1   1  10  265.89    9.63
   1   1  10  258.07    9.81
  -3  -1 -10  112.39    8.13
   3  -1  10   94.49    6.71
  -3  -1 -10  100.34    6.46
   3   1  10  104.17    7.27
   3   1  10  101.58    7.05
  -5  -1 -10  199.87   10.01
  -5  -1 -10  218.28    8.69
   5  -1  10  209.15    9.12
   5   1  10  219.80    9.31
   5   1  10  210.90    9.50
   7  -1  10  165.33    8.35
  -7  -1 -10  165.57    9.33
  -7  -1 -10  154.33    7.97
   7   1  10  173.05    8.81
   7   1  10  172.02    8.86
  -9  -1 -10   84.42    6.84
   9  -1  10   98.72    7.31
  -9  -1 -10  118.92    8.89
   9   1  10   87.61    6.85
   9   1  10   95.46    7.43
 -11  -1 -10  126.73    9.58
  11  -1  10  136.44    8.51
 -11   1 -10  119.20    9.10
  11   1  10  119.10    8.66
  13  -1  10   31.27    5.43
 -13  -1 -10   33.67    6.22
 -13   1 -10   20.90    5.63
  13   1  10   28.45    5.41
 -15  -1 -10   17.13    5.95
  15  -1  10   30.71    5.55
  15   1  10   20.02    5.20
 -15   1 -10   24.12    6.08
  17  -1  10  133.56    9.70
  17   1  10  121.37    9.82
 -17   1 -10  120.11    9.48
  19  -1  10   96.20    8.91
 -19   1 -10   69.79    8.49
  19   1  10   73.24    8.19
  36  -2 -10   30.17    6.75
  36  -2 -10   45.74    6.79
 -36  -2  10   35.20    7.40
 -36   2  10   49.87    7.92
  34  -2 -10   12.76    4.73
 -34  -2  10    4.85    5.58
  34  -2 -10    7.76    5.37
 -34   2  10   -7.98    5.62
  32  -2 -10   74.81    7.71
  32  -2 -10   76.78    7.25
 -32  -2  10   65.67    7.71
 -32   2  10   60.35    8.00
 -32   2  10   70.43    8.32
 -30  -2  10   39.26    6.79
 -30  -2  10   37.11    6.35
  30  -2 -10   26.42    5.35
  30  -2 -10   23.14    5.54
 -30   2  10   28.96    6.56
 -30   2  10   31.11    6.39
 -28  -2  10  350.82   13.41
 -28  -2  10  333.85   13.00
  28  -2 -10  329.96   12.73
  28  -2 -10  335.52   12.42
 -28   2  10  333.24   13.60
 -28   2  10  328.38   13.61
  26  -2 -10   57.59    6.32
  26  -2 -10   66.29    6.18
 -26  -2  10   59.89    6.49
 -26  -2  10   71.85    7.05
 -26   2  10   66.68    7.02
 -26   2  10   73.37    7.08
 -24  -2  10   64.59    6.44
 -24  -2  10   74.62    6.73
  24  -2 -10   63.14    6.15
  24  -2 -10   68.06    6.15
 -24   2  10   63.92    6.74
 -24   2  10   64.08    6.80
 -22  -2  10    0.34    4.45
 -22  -2  10    6.74    4.40
  22  -2 -10   10.39    3.74
  22  -2 -10    6.03    4.29
 -22   2  10    3.03    4.85
 -22   2  10   14.10    4.94
  20  -2 -10  223.28    8.96
 -20  -2  10  219.88    9.61
  20  -2 -10  201.25    9.37
 -20  -2  10  214.81    9.47
 -20   2  10  221.01   10.26
 -20   2  10  221.71   10.30
 -20   2  10  220.09   10.29
  18  -2 -10   23.69    3.98
  18  -2 -10   31.33    4.76
 -18  -2  10   28.77    4.56
 -18  -2  10   26.75    4.57
 -18   2  10   21.39    5.06
 -18   2  10   22.59    5.07
 -18   2  10   25.60    5.07
 -16  -2  10   -3.16    3.16
  16  -2 -10   -1.29    2.83
  16  -2 -10   -6.64    3.45
 -16  -2  10    3.65    3.52
 -16   2  10   -0.28    3.94
 -16   2  10    1.35    4.10
 -16   2  10   -1.39    3.92
 -14  -2  10   15.14    3.51
  14  -2 -10   11.59    3.30
 -14   2  10   17.78    4.41
 -14   2  10   11.59    3.94
 -14   2  10   13.55    3.96
 -12  -2  10   20.22    3.33
  12  -2 -10   24.35    3.68
  12  -2 -10   20.43    4.02
 -12   2  10   23.26    4.41
 -12   2  10   16.15    3.84
 -12   2  10   16.53    4.22
  10  -2 -10    1.28    2.43
 -10  -2  10    4.55    2.86
 -10   2  10    5.96    3.12
 -10   2  10    4.46    3.59
 -10   2  10   -5.08    3.41
   8  -2 -10   -2.88    3.29
  -8  -2  10    0.80    2.59
   8  -2 -10    2.17    2.59
  -8   2  10    3.70    3.43
  -8   2  10    0.59    3.36
  -8   2  10    5.26    3.42
   6  -2 -10   40.57    4.82
   6  -2 -10   37.06    4.07
  -6  -2  10   31.82    3.71
  -6   2  10   38.20    4.57
  -6   2  10   31.28    4.51
   4  -2 -10   13.47    3.39
   4  -2 -10   28.54    4.49
  -4  -2  10   25.13    3.44
  -4   2  10   23.32    4.03
  -4   2  10   17.66    3.95
   2  -2 -10   68.64    5.77
   2  -2 -10   76.05    5.75
  -2  -2  10   69.48    5.28
  -2   2  10   65.08    5.66
  -2   2  10   78.65    5.82
   0  -2  10   56.65    4.69
   0  -2 -10   59.47    5.06
   0  -2 -10   53.87    5.46
   0   2  10   42.57    4.94
   0   2  10   59.88    5.44
  -2  -2 -10    2.22    4.09
  -2  -2 -10    6.81    3.60
   2  -2  10    0.84    3.00
   2   2  10   -3.67    3.34
   2   2  10    1.26    3.46
  -4  -2 -10   17.49    4.23
  -4  -2 -10   16.38    4.75
   4  -2  10   18.34    3.84
   4   2  10   17.78    4.44
   4   2  10   13.06    4.09
   6  -2  10   66.07    5.59
  -6  -2 -10   59.79    5.76
   6   2  10   58.05    5.74
   6   2  10   58.26    6.01
   8  -2  10    1.85    3.24
  -8  -2 -10    5.09    3.83
  -8  -2 -10    0.03    4.39
   8   2  10    2.22    3.89
   8   2  10   -0.47    3.52
 -10  -2 -10  133.94    9.78
  10  -2  10  159.81    8.44
 -10  -2 -10  150.31    8.70
  10   2  10  130.76    8.71
  10   2  10  149.43    9.08
 -12  -2 -10  201.04   10.46
 -12  -2 -10  213.23   11.53
  12  -2  10  209.51   10.03
  12   2  10  192.85   10.56
  12   2  10  224.70   10.86
  14  -2  10    0.86    4.04
  14   2  10    2.23    4.39
  14   2  10    4.92    4.34
  16  -2  10    2.74    4.21
  16   2  10    2.74    4.51
 -16   2 -10    7.30    5.41
  16   2  10   -0.63    4.36
  18  -2  10    2.63    4.47
  18   2  10    3.82    4.87
  18   2  10   -3.16    4.82
  20  -2  10    4.23    5.03
  20   2  10   17.40    6.09
  20   2  10   -3.97    5.13
 -35  -3  10    3.56    5.67
  35  -3 -10   -1.44    5.44
  35  -3 -10   -6.99    4.58
 -35   3  10   -1.93    6.23
  33  -3 -10    9.73    5.66
 -33  -3  10    5.03    5.53
  33  -3 -10   12.19    4.85
 -33   3  10    1.87    6.01
  31  -3 -10   89.78    7.90
  31  -3 -10   84.36    7.91
 -31  -3  10   88.08    8.26
 -31   3  10   72.02    7.92
 -31   3  10   68.42    8.02
  29  -3 -10  216.01   10.71
  29  -3 -10  212.29   11.21
 -29  -3  10  219.90   11.09
 -29  -3  10  247.41   11.86
 -29   3  10  195.11   11.57
 -29   3  10  236.11   12.27
  27  -3 -10   -4.44    3.62
 -27  -3  10    2.69    4.62
 -27  -3  10    0.89    4.85
  27  -3 -10   -2.95    4.55
  27  -3 -10    3.22    4.15
 -27   3  10    3.43    5.13
 -27   3  10    4.06    5.29
  25  -3 -10   -1.27    3.47
 -25  -3  10    5.08    4.25
  25  -3 -10   10.59    4.68
 -25  -3  10    1.19    4.69
 -25   3  10   10.80    7.80
 -25   3  10    1.12    4.92
 -25   3  10   -1.82    4.63
 -23  -3  10  123.32    8.18
 -23  -3  10  120.05    8.27
  23  -3 -10  118.19    8.35
  23  -3 -10  128.41    8.05
 -23   3  10  142.55    9.33
 -23   3  10  131.20    9.05
 -23   3  10  121.56    9.68
  21  -3 -10  515.66   13.71
  21  -3 -10  538.03   15.05
  21  -3 -10  495.30   14.87
 -21  -3  10  523.07   14.81
 -21   3  10  539.97   15.94
 -21   3  10  509.56   15.52
 -21   3  10  514.89   15.89
  19  -3 -10   83.40    6.32
 -19  -3  10   74.75    5.87
  19  -3 -10   87.65    6.77
 -19  -3  10   77.79    6.10
 -19   3  10   69.90    6.69
 -19   3  10   77.31    7.10
 -19   3  10   80.50    7.04
  17  -3 -10  248.08   10.29
 -17  -3  10  254.02    9.43
  17  -3 -10  255.34    9.58
 -17   3  10  241.69   10.51
 -17   3  10  262.14   10.85
 -17   3  10  253.14   10.83
  15  -3 -10  122.59    7.76
 -15  -3  10  128.72    6.73
  15  -3 -10  106.36    6.81
 -15  -3  10  117.06    6.57
 -15   3  10  118.96    8.03
 -15   3  10  127.23    8.27
 -15   3  10  138.67    8.12
 -13  -3  10   25.34    3.60
  13  -3 -10   24.23    3.85
  13  -3 -10   24.35    4.32
 -13   3  10   20.16    4.70
 -13   3  10   24.08    4.43
 -13   3  10   24.75    4.65
 -11  -3  10  459.43   12.32
  11  -3 -10  461.97   13.18
  11  -3 -10  453.63   12.82
 -11   3  10  464.79   14.08
 -11   3  10  453.01   13.48
 -11   3  10  464.09   13.47
   9  -3 -10  266.67    9.86
   9  -3 -10  275.27    9.52
  -9   3  10  268.12   10.41
  -9   3  10  275.40   10.31
  -9   3  10  272.62   10.14
   7  -3 -10  448.84   11.75
   7  -3 -10  455.45   13.17
   7  -3 -10  450.67   12.79
   7  -3 -10  445.71   13.30
  -7   3  10  462.20   13.32
  -7   3  10  442.53   13.77
  -7   3  10  465.34   13.31
   5  -3 -10   73.11    5.71
   5  -3 -10   84.91    6.34
   5  -3 -10   78.70    6.19
  -5  -3  10   68.05    4.88
  -5   3  10   73.89    6.09
  -5   3  10   78.30    6.11
   3  -3 -10    5.12    3.42
   3  -3 -10    3.34    3.97
  -3  -3  10    3.82    2.68
   3  -3 -10   -1.15    3.80
  -3   3  10    3.17    3.60
  -3   3  10   -0.36    3.35
   1  -3 -10   -0.46    3.72
   1  -3 -10   -1.56    3.94
   1  -3 -10    1.80    3.49
  -1  -3  10    3.92    2.72
  -1   3  10   -1.78    3.47
  -1   3  10    3.83    3.36
  -1  -3 -10   73.71    6.56
   1  -3  10   73.49    5.40
  -1  -3 -10   81.90    6.31
  -1  -3 -10   76.49    6.34
   1   3  10   78.71    6.41
   1   3  10   86.41    6.40
  -3  -3 -10   14.96    4.70
  -3  -3 -10   14.50    4.44
   3  -3  10   14.61    3.51
  -3  -3 -10   12.25    4.61
   3   3  10   14.08    4.39
   3   3  10   17.73    4.40
   5  -3  10   35.52    4.36
  -5  -3 -10   26.10    4.88
  -5  -3 -10   27.10    5.16
  -5  -3 -10   28.42    5.41
   5   3  10   36.36    5.27
   5   3  10   34.89    5.12
  -7  -3 -10    5.43    4.07
  -7  -3 -10   12.91    4.95
  -7  -3 -10   14.23    4.83
   7  -3  10   16.05    3.67
   7   3  10   16.71    4.37
   7   3  10   16.67    4.39
  -9  -3 -10  129.85    9.57
  -9  -3 -10  146.67    9.80
   9  -3  10  144.31    7.97
  -9  -3 -10  153.35    9.09
   9   3  10  143.74    8.94
   9   3  10  145.78    9.05
 -11  -3 -10  149.31   10.20
 -11  -3 -10  147.95    9.40
  11  -3  10  143.03    8.46
  11   3  10  145.45    9.33
  11   3  10  147.82    9.71
 -13  -3 -10   11.54    4.84
  13   3  10    2.26    4.43
  13   3  10   13.25    4.96
 -15  -3 -10   -7.44    5.08
  15  -3  10   -2.93    3.75
  15   3  10    4.82    4.76
  15   3  10   -2.83    4.52
 -17  -3 -10   54.83    7.52
  17  -3  10   94.34    8.07
  17   3  10   80.21    8.32
  17   3  10   97.51    8.46
  19  -3  10   90.50    8.56
 -19   3 -10   95.14    8.88
  19   3  10   77.58    8.60
  19   3  10   92.19    8.70
 -34  -4  10   17.41    6.67
  34  -4 -10   22.02    5.66
  34  -4 -10   18.59    5.83
  34  -4 -10   17.36    6.24
 -34   4  10   26.68    6.99
  32  -4 -10   15.24    5.41
 -32  -4  10   16.65    5.76
  32  -4 -10    6.44    5.66
 -32   4  10    4.59    5.96
 -32   4  10   13.42    5.93
 -30  -4  10   66.73    7.76
  30  -4 -10   47.29    7.00
  30  -4 -10   70.13    7.24
 -30  -4  10   55.12    7.14
 -30   4  10   68.82    8.10
 -30   4  10   51.23    7.26
  28  -4 -10   73.93    7.03
  28  -4 -10   70.64    7.65
 -28  -4  10   69.52    7.14
  28  -4 -10   66.41    6.42
 -28  -4  10   60.16    7.17
 -28   4  10   76.06    8.78
 -28   4  10   62.01    7.47
 -28   4  10   78.86    8.07
  26  -4 -10    5.94    4.44
  26  -4 -10    2.31    4.73
 -26  -4  10    0.23    4.75
 -26  -4  10   -2.37    4.25
  26  -4 -10    7.37    4.41
 -26   4  10   -3.39    4.97
 -26   4  10   -0.68    5.91
 -26   4  10   -6.36    4.71
  24  -4 -10   59.19    6.14
  24  -4 -10   40.78    5.96
 -24  -4  10   59.64    6.33
 -24  -4  10   58.43    6.06
 -24   4  10   57.64    7.47
 -24   4  10   53.61    6.57
 -24   4  10   53.45    6.74
  22  -4 -10   -0.70    4.18
 -22  -4  10    5.09    4.25
  22  -4 -10    7.17    4.07
  22  -4 -10   -0.50    3.51
 -22  -4  10   -3.26    3.68
 -22   4  10    8.86    4.77
 -22   4  10   -8.55    4.31
 -22   4  10    0.93    5.03
  20  -4 -10    3.40    3.64
 -20  -4  10    0.02    3.77
  20  -4 -10    3.63    4.00
  20  -4 -10    2.59    4.23
 -20   4  10   10.50    4.91
 -20   4  10   -6.14    4.61
 -20   4  10    0.03    4.43
  18  -4 -10   22.19    5.03
  18  -4 -10   22.06    4.52
 -18  -4  10   21.45    4.30
 -18   4  10   32.86    5.50
 -18   4  10   24.76    5.62
 -18   4  10   17.15    5.24
  16  -4 -10   57.98    5.36
  16  -4 -10   59.23    6.05
 -16  -4  10   65.16    5.11
  16  -4 -10   60.18    5.85
 -16   4  10   55.41    6.27
 -16   4  10   55.07    6.49
 -16   4  10   56.19    6.01
  14  -4 -10   61.83    6.09
 -14  -4  10   50.06    4.59
  14  -4 -10   47.19    5.01
  14  -4 -10   49.55    5.07
 -14   4  10   44.74    5.62
 -14   4  10   47.18    5.70
 -14   4  10   54.27    6.00
 -14   4  10   60.51    6.01
 -12  -4  10  123.31    5.96
  12  -4 -10  110.77    7.92
  12  -4 -10  114.93    7.17
  12  -4 -10  118.02    7.23
 -12   4  10  122.95    8.27
 -12   4  10  132.15    7.97
 -12   4  10  113.73    7.91
  10  -4 -10   59.21    5.82
  10  -4 -10   57.66    5.35
 -10   4  10   57.33    5.82
 -10   4  10   64.17    6.16
 -10   4  10   52.52    5.81
   8  -4 -10  149.70    8.56
   8  -4 -10  147.12    7.77
  -8   4  10  159.55    8.61
  -8   4  10  145.72    8.43
  -8   4  10  153.82    8.33
   6  -4 -10  135.07    8.42
   6  -4 -10  135.97    7.58
   6  -4 -10  126.91    8.03
   6  -4 -10  123.31    7.45
  -6   4  10  126.55    8.05
  -6   4  10  113.04    7.89
  -6   4  10  144.59    8.25
   4  -4 -10    7.03    3.79
   4  -4 -10    2.01    3.88
   4  -4 -10    7.67    4.40
   4  -4 -10    7.57    4.14
  -4   4  10   10.34    4.12
  -4   4  10    6.01    4.03
   2  -4 -10   14.21    4.02
   2  -4 -10    3.35    4.11
   2  -4 -10    9.69    4.76
   2  -4 -10    8.73    3.96
  -2  -4  10    9.00    2.74
  -2   4  10    2.96    3.79
  -2   4  10   10.33    4.04
   0  -4 -10   38.14    5.62
   0  -4  10   33.46    3.64
   0  -4 -10   26.91    4.97
   0  -4 -10   27.66    4.65
   0  -4 -10   37.48    5.17
   0   4  10   29.29    4.95
   0   4  10   28.09    4.97
  -2  -4 -10   -0.41    4.04
   2  -4  10   -0.24    2.61
  -2  -4 -10    4.59    4.06
  -2  -4 -10   -4.69    4.26
   2   4  10    2.93    3.91
   2   4  10    4.86    3.80
  -4  -4 -10   68.67    6.36
  -4  -4 -10   66.29    6.34
  -4  -4 -10   62.80    6.67
   4  -4  10   68.14    5.42
   4   4  10   74.09    6.41
   4   4  10   76.34    6.80
  -6  -4 -10   25.68    5.44
  -6  -4 -10   34.47    5.30
  -6  -4 -10   29.43    6.40
   6  -4  10   35.63    4.25
   6   4  10   33.81    5.33
   6   4  10   26.74    5.11
  -8  -4 -10   30.18    5.92
  -8  -4 -10   25.34    5.29
   8  -4  10   41.34    4.71
   8   4  10   27.31    5.34
   8   4  10   38.66    5.73
 -10  -4 -10    7.40    5.32
  10  -4  10   21.16    4.28
 -10  -4 -10   20.80    5.29
  10   4  10   22.29    5.03
  10   4  10   21.43    5.15
  12  -4  10   21.98    4.49
 -12  -4 -10   26.84    5.58
 -12  -4 -10   19.94    5.92
  12   4  10   33.85    5.80
  12   4  10   26.14    5.73
  14  -4  10   17.36    4.48
 -14  -4 -10   18.88    5.89
 -14  -4 -10   26.02    6.41
  14   4  10   18.83    5.35
  14   4  10   21.48    5.38
 -16  -4 -10   -3.87    5.60
  16  -4  10    0.41    4.23
 -16  -4 -10   10.59    5.59
  16   4  10    6.70    5.07
  16   4  10   -3.60    4.57
 -18  -4 -10    0.28    6.37
  18  -4  10   16.12    5.07
  18   4  10   16.40    5.61
  18   4  10    4.32    5.30
  33  -5 -10   26.75    6.36
 -33  -5  10   10.54    6.00
  33  -5 -10   25.44    5.77
 -33   5  10   16.50    6.62
 -33   5  10   22.68    7.66
 -31  -5  10   46.42    6.93
  31  -5 -10   40.72    6.46
  31  -5 -10   52.68    7.55
 -31   5  10   69.41    8.64
 -31   5  10   33.30    6.86
 -31   5  10   40.72    7.27
  29  -5 -10    2.36    5.35
 -29  -5  10    1.50    4.94
  29  -5 -10   -0.46    4.52
  29  -5 -10    4.88    4.56
 -29   5  10    7.61    6.64
 -29   5  10    2.50    5.67
 -29   5  10   -0.02    5.28
 -27  -5  10   -3.91    4.36
  27  -5 -10   -0.90    4.85
  27  -5 -10   -0.07    4.28
  27  -5 -10   -4.77    4.19
 -27   5  10   -6.74    4.97
 -27   5  10    0.53    5.87
 -27   5  10    3.22    5.40
  25  -5 -10    3.21    4.83
  25  -5 -10    2.94    4.36
  25  -5 -10    3.19    4.16
 -25  -5  10   -1.53    4.12
 -25   5  10   -0.65    4.91
 -25   5  10   -8.00    5.50
 -25   5  10    6.47    5.21
 -23  -5  10   61.92    5.85
  23  -5 -10   68.12    6.52
  23  -5 -10   58.36    6.04
  23  -5 -10   67.65    6.76
 -23   5  10   60.99    6.87
 -23   5  10   65.91    7.59
 -23   5  10   50.35    6.34
  21  -5 -10  105.05    7.88
  21  -5 -10   93.28    6.63
 -21  -5  10   90.08    7.00
  21  -5 -10   97.34    7.81
 -21   5  10   88.84    7.85
 -21   5  10  101.24    8.15
 -21   5  10  106.93    7.91
  19  -5 -10    3.28    4.23
  19  -5 -10    4.95    3.98
 -19  -5  10   -3.69    3.23
  19  -5 -10   -0.91    3.55
  19   5 -10   -2.62    2.74
 -19   5  10    3.49    4.72
 -19   5  10    2.32    4.35
 -19   5  10    4.31    4.29
  17  -5 -10   18.26    4.39
  17  -5 -10   16.85    4.52
  17  -5 -10   16.76    4.85
 -17  -5  10   18.15    3.86
  17   5 -10   23.17    3.78
 -17   5  10   19.75    5.06
 -17   5  10   22.24    5.11
 -17   5  10   13.13    5.39
 -15  -5  10   21.17    3.71
  15  -5 -10   13.48    4.16
  15  -5 -10   20.53    4.65
  15  -5 -10   21.49    5.25
  15   5 -10   21.81    3.92
 -15   5  10   13.03    4.83
 -15   5  10   20.27    5.63
 -15   5  10   17.81    4.94
  13  -5 -10   57.42    6.19
  13  -5 -10   55.92    5.68
  13  -5 -10   47.57    5.25
 -13   5  10   48.92    5.68
 -13   5  10   48.17    6.02
 -13   5  10   55.62    5.93
  13   5 -10   51.97    4.95
  11  -5 -10   16.13    4.37
  11  -5 -10   24.27    4.61
  11  -5 -10   17.52    4.78
 -11   5  10   13.42    4.68
 -11   5  10    8.45    4.09
 -11   5  10   16.34    4.95
   9  -5 -10  123.77    7.69
   9  -5 -10  120.30    7.79
   9  -5 -10  110.68    8.55
  -9   5  10  129.89    8.70
  -9   5  10  104.18    7.82
  -9   5  10  116.93    8.43
   7  -5 -10  178.79    9.60
   7  -5 -10  180.45    8.68
   7  -5 -10  187.54    9.06
  -7   5  10  190.48    9.69
  -7   5  10  175.40    9.38
  -7   5  10  182.78    9.25
   5  -5 -10  128.56    8.16
   5  -5 -10  137.14    8.95
   5  -5 -10  115.21    7.79
   5  -5 -10  128.18    8.29
  -5   5  10  144.76    8.57
  -5   5  10  132.65    8.41
  -5   5  10  120.10    8.21
   3  -5 -10    2.52    3.80
   3  -5 -10   11.68    4.42
   3  -5 -10   11.14    4.23
   3  -5 -10    6.84    4.68
  -3   5  10   12.75    4.35
  -3   5  10    9.16    4.20
   1  -5 -10   15.46    4.54
   1  -5 -10   13.58    4.58
   1  -5 -10    7.16    4.28
   1  -5 -10   15.81    4.94
  -1   5  10   14.70    4.48
  -1   5  10   21.68    4.65
  -1  -5 -10  200.09    9.78
  -1  -5 -10  190.28   10.24
   1   5  10  187.69    9.36
   1   5  10  207.87    9.65
  -3  -5 -10    3.60    4.76
  -3  -5 -10    4.68    4.32
   3   5  10    5.01    4.15
   3   5  10    1.66    3.82
  -5  -5 -10   23.51    5.80
   5  -5  10   26.33    3.84
  -5  -5 -10   41.75    6.01
   5   5  10   34.14    5.34
   5   5  10   26.16    5.06
  -7  -5 -10   93.98    7.04
  -7  -5 -10  108.83    8.67
  -7  -5 -10  105.70    8.50
   7  -5  10  104.20    6.43
   7   5  10  113.62    8.41
   7   5  10   95.89    7.41
   9  -5  10   11.52    3.56
  -9  -5 -10   15.43    5.21
  -9  -5 -10    6.32    5.53
   9   5  10   10.51    4.63
   9   5  10    7.32    4.20
  11  -5  10   65.98    5.99
 -11  -5 -10   73.82    8.02
 -11  -5 -10   69.86    7.55
  11   5  10   71.24    7.21
  11   5  10   79.06    7.55
  13  -5  10   98.24    7.59
 -13  -5 -10   88.98    8.42
 -13  -5 -10   80.14    8.45
  13   5  10   95.11    8.38
  13   5  10  108.22    8.73
  15  -5  10   48.80    5.99
 -15  -5 -10   35.49    6.76
 -15  -5 -10   31.12    7.31
  15   5  10   41.15    6.80
  15   5  10   42.44    6.66
 -17  -5 -10    8.39    6.85
  17  -5  10   11.05    4.73
 -17  -5 -10   13.73    6.33
  17   5  10   11.79    5.71
  17   5  10   19.43    6.10
  32  -6 -10   14.38    5.55
  32  -6 -10    6.54    5.40
 -32  -6  10    9.58    5.73
 -32   6  10    6.87    6.44
 -32   6  10    9.75    7.30
 -30  -6  10   19.25    5.80
  30  -6 -10   17.85    5.55
  30  -6 -10   20.17    5.51
 -30   6  10   18.73    6.09
 -30   6  10   23.24    6.62
 -30   6  10   20.12    7.27
  28  -6 -10   -5.43    4.51
  28  -6 -10   -1.43    4.65
 -28  -6  10   -4.59    4.36
 -28   6  10    1.15    5.19
 -28   6  10    1.42    5.51
 -28   6  10   -4.43    6.30
 -26  -6  10   45.21    6.14
  26  -6 -10   45.55    6.43
  26  -6 -10   54.45    6.36
  26  -6 -10   46.75    7.72
 -26   6  10   54.76    7.13
 -26   6  10   48.30    7.63
 -26   6  10   47.86    7.15
  24  -6 -10   14.54    4.93
  24  -6 -10   29.15    5.49
 -24  -6  10   22.41    4.94
  24  -6 -10   24.86    5.83
  24   6 -10   31.23    4.37
 -24   6  10   28.32    6.11
 -24   6  10   21.97    5.55
 -24   6  10   21.93    6.46
 -22  -6  10  176.45    8.62
  22  -6 -10  174.81    9.11
  22  -6 -10  150.86   10.16
  22  -6 -10  173.93    9.89
 -22   6  10  186.20   10.21
 -22   6  10  181.89   10.58
 -22   6  10  177.12   11.19
  22   6 -10  177.07    7.97
 -20  -6  10    5.59    3.82
  20  -6 -10    2.75    4.70
  20  -6 -10    7.20    4.30
  20  -6 -10    6.10    4.18
 -20   6  10    4.72    4.75
  20   6 -10    3.37    3.15
 -20   6  10    8.14    5.02
  18  -6 -10  108.32    7.79
 -18  -6  10  103.49    6.48
  18  -6 -10  117.26    8.68
  18  -6 -10  111.39    8.28
 -18   6  10  107.10    8.25
  18   6 -10  111.85    6.87
 -18   6  10  118.78    8.57
 -18   6  10  109.56    8.41
  16  -6 -10   33.37    5.15
 -16  -6  10   28.51    3.86
  16  -6 -10   24.16    5.34
  16  -6 -10   28.57    5.12
 -16   6  10   34.69    5.50
 -16   6  10   29.55    5.54
  16   6 -10   37.22    4.81
 -16   6  10   44.13    6.33
  14  -6 -10    8.88    4.29
  14  -6 -10    2.89    4.06
  14  -6 -10   -1.27    4.19
 -14   6  10    5.26    4.37
 -14   6  10    1.89    4.36
  14   6 -10   -0.52    2.86
 -14   6  10   -0.85    4.84
  12  -6 -10   11.14    4.65
  12  -6 -10    0.56    4.05
  12  -6 -10    4.40    3.99
 -12   6  10   -1.25    4.04
  12   6 -10    1.25    3.18
 -12   6  10   -2.04    3.56
 -12   6  10    1.46    4.43
  10  -6 -10    8.07    4.66
  10  -6 -10    7.58    4.14
  10  -6 -10    7.71    4.34
  10   6 -10    0.06    3.23
 -10   6  10    4.85    4.36
 -10   6  10    3.71    3.86
 -10   6  10    7.14    4.33
   8  -6 -10   31.43    5.08
   8  -6 -10   39.84    5.85
   8  -6 -10   34.40    5.13
  -8   6  10   34.41    5.46
  -8   6  10   32.72    5.63
  -8   6  10   37.01    5.32
   6  -6 -10  355.62   12.27
   6  -6 -10  327.40   12.53
   6  -6 -10  348.71   11.40
  -6   6  10  324.83   12.29
  -6   6  10  314.39   12.15
  -6   6  10  325.22   11.94
   4  -6 -10   93.10    7.61
   4  -6 -10   90.43    7.26
   4  -6 -10   96.31    6.85
  -4   6  10  112.83    7.96
  -4   6  10   84.23    7.29
  -4   6  10   91.30    7.00
   2  -6 -10    6.66    4.29
   2  -6 -10    3.45    4.41
   2  -6 -10    5.81    4.83
  -2   6  10    7.56    4.07
  -2   6  10   10.15    4.68
  -2   6  10    0.56    3.81
   0  -6 -10   50.89    5.73
   0  -6 -10   55.72    6.07
   0  -6 -10   49.35    6.42
   0   6  10   44.53    5.83
   0   6  10   58.05    6.11
  -2  -6 -10  123.30    8.35
  -2  -6 -10  124.21    8.82
  -2  -6 -10  106.05    8.25
   2   6  10  107.08    8.21
   2   6  10  104.25    7.75
  -4  -6 -10   44.35    6.36
   4  -6  10   54.92    4.42
  -4  -6 -10   46.32    6.80
   4   6  10   54.88    6.04
   4   6  10   57.30    6.43
   6  -6  10   13.28    3.05
  -6  -6 -10    6.49    4.84
  -6  -6 -10    3.48    5.46
  -6  -6 -10    9.96    4.91
   6   6  10   -3.24    3.98
   6   6  10    8.39    4.37
  -8  -6 -10   11.66    5.11
  -8  -6 -10    5.07    5.68
   8  -6  10    4.21    3.00
   8   6  10    7.06    4.41
   8   6  10   -0.72    4.15
  10  -6  10   12.45    3.58
 -10  -6 -10   10.54    5.37
 -10  -6 -10    1.86    5.63
 -10  -6 -10   -2.38    4.94
  10   6  10    6.84    4.76
  10   6  10    7.34    4.43
 -12  -6 -10   64.24    8.22
 -12  -6 -10   77.35    8.17
  12  -6  10   81.91    6.63
 -12  -6 -10   73.95    7.37
  12   6  10   82.04    7.63
  12   6  10   85.48    8.22
 -14  -6 -10   64.33    7.86
 -14  -6 -10   49.42    8.26
  14  -6  10   63.85    6.41
  14   6  10   65.49    7.40
  14   6  10   77.74    7.72
 -16  -6 -10    0.17    5.88
 -16  -6 -10    6.23    7.02
  16  -6  10    8.57    4.58
  16   6  10    8.54    5.41
  16   6  10    1.77    5.31
  31  -7 -10    1.65    5.41
 -31  -7  10    2.45    5.36
  31  -7 -10   -1.34    5.47
 -31   7  10    3.15    6.30
 -31   7  10   -9.75    6.80
  29  -7 -10   58.28    7.75
 -29  -7  10   41.99    6.72
  29  -7 -10   55.19    6.92
 -29   7  10   37.60    6.84
 -29   7  10   64.60    7.83
 -29   7  10   61.43    8.68
  27  -7 -10   -3.54    5.02
 -27  -7  10   -1.67    4.59
  27  -7 -10    3.10    5.03
 -27   7  10   -0.63    6.38
 -27   7  10    4.93    5.32
 -27   7  10    7.17    5.53
  25  -7 -10    4.08    4.76
 -25  -7  10    6.59    4.58
  25  -7 -10    6.99    4.91
 -25   7  10    2.67    5.06
 -25   7  10    7.55    6.11
  25   7 -10    9.90    3.62
 -25   7  10    9.57    5.94
  23  -7 -10   20.26    5.37
  23  -7 -10   26.44    5.46
 -23  -7  10   23.91    4.84
 -23   7  10   29.35    6.84
 -23   7  10   27.43    6.15
  23   7 -10   17.12    4.23
 -23   7  10   10.47    5.29
  21  -7 -10    6.79    4.67
 -21  -7  10   -3.62    3.56
  21  -7 -10   12.43    4.77
 -21   7  10    2.46    5.06
 -21   7  10   -3.93    5.48
  21   7 -10    2.69    3.30
 -21   7  10    2.62    4.75
  19  -7 -10   43.60    5.96
  19  -7 -10   37.25    5.68
  19  -7 -10   49.33    6.66
 -19  -7  10   41.86    4.73
 -19   7  10   43.71    6.35
 -19   7  10   44.42    6.97
  19   7 -10   44.07    5.52
 -19   7  10   33.68    5.88
  17  -7 -10   48.78    6.00
  17  -7 -10   39.51    5.50
  17  -7 -10   34.22    6.08
 -17   7  10   43.57    5.89
 -17   7  10   48.63    6.46
  17   7 -10   38.62    5.32
 -17   7  10   47.68    6.53
  15  -7 -10   52.69    6.63
  15  -7 -10   50.42    6.02
  15  -7 -10   43.52    5.52
 -15   7  10   50.06    6.46
 -15   7  10   41.19    5.75
 -15   7  10   44.70    6.63
  15   7 -10   46.84    5.54
  13  -7 -10  162.09    9.19
  13  -7 -10  154.69    9.79
  13  -7 -10  152.96    8.77
 -13   7  10  168.07   10.04
 -13   7  10  163.36    9.49
  13   7 -10  159.68    8.74
 -13   7  10  144.30    9.00
  11  -7 -10  214.57   10.81
  11  -7 -10  210.32   10.15
  11  -7 -10  218.49    9.85
 -11   7  10  221.35    9.96
 -11   7  10  217.67   10.61
 -11   7  10  217.24   10.35
 -11   7  10  193.34    8.80
  11   7 -10  189.91    9.58
   9  -7 -10  214.98    9.67
   9  -7 -10  232.08   11.01
   9  -7 -10  223.26   10.62
  -9   7  10  221.60   10.38
  -9   7  10  213.44   10.55
   9   7 -10  209.09    9.99
  -9   7  10  226.20   10.23
   7  -7 -10   -5.49    4.26
   7  -7 -10    1.63    4.12
   7  -7 -10    5.36    4.19
  -7   7  10    5.66    4.78
  -7   7  10   -8.21    3.19
  -7   7  10   -5.53    3.68
   5  -7 -10    2.54    4.11
   5  -7 -10   -2.68    4.51
   5  -7 -10    3.86    4.49
  -5   7  10    2.71    3.70
  -5   7  10    0.82    4.42
  -5   7  10   -2.55    3.79
   3  -7 -10   13.02    4.74
   3  -7 -10    8.99    4.47
   3  -7 -10   12.28    5.04
  -3   7  10    5.98    4.18
  -3   7  10    6.79    4.71
  -3   7  10   14.86    4.54
   1  -7 -10   52.13    6.02
   1  -7 -10   52.34    6.74
   1  -7 -10   44.95    6.15
  -1   7  10   45.53    5.83
  -1   7  10   54.93    5.95
  -1   7  10   51.93    6.30
  -1  -7 -10   44.71    6.31
  -1  -7 -10   36.54    6.38
  -1  -7 -10   30.00    5.48
   1   7  10   39.90    5.92
   1   7  10   34.48    5.59
   1   7  10   41.32    5.57
  -3  -7 -10    4.08    5.26
  -3  -7 -10   17.07    5.21
  -3  -7 -10   10.50    5.19
   3   7  10   14.59    4.82
   3   7  10   14.14    4.65
  -5  -7 -10   -2.91    4.39
  -5  -7 -10    1.66    5.39
  -5  -7 -10   -0.33    4.84
   5   7  10   -2.25    4.12
   5   7  10    3.98    4.15
  -7  -7 -10    0.10    5.54
  -7  -7 -10    9.49    5.15
  -7  -7 -10   -4.50    4.87
   7   7  10    8.10    4.77
   7   7  10   -0.40    4.28
  -9  -7 -10   32.98    6.51
   9  -7  10   30.91    4.26
  -9  -7 -10   26.57    7.03
  -9  -7 -10   25.67    5.99
   9   7  10   39.62    5.90
   9   7  10   37.01    6.17
  11  -7  10   12.15    3.85
 -11  -7 -10   11.39    5.84
 -11  -7 -10    5.34    6.38
 -11  -7 -10   12.56    5.63
  11   7  10    9.74    4.88
  11   7  10    8.44    4.82
 -13  -7 -10    8.98    7.00
 -13  -7 -10   33.82    6.78
  13  -7  10   19.54    4.51
 -13  -7 -10    8.08    5.72
  13   7  10   14.14    5.44
  13   7  10   18.33    5.42
  15  -7  10    7.26    4.15
  15   7  10    4.91    5.28
  15   7  10   19.90    5.82
 -28  -8  10    4.05    4.85
  28  -8 -10   11.22    6.24
  28  -8 -10    4.19    5.59
 -28   8  10   14.14    7.07
 -28   8  10    4.98    7.00
 -28   8  10    8.58    5.83
 -26  -8  10   86.60    7.42
  26  -8 -10   59.17    7.00
  26  -8 -10   90.21    8.37
 -26   8  10   72.81    7.76
 -26   8  10   87.25    9.08
 -26   8  10   67.14    8.08
  26   8 -10   74.29    6.98
  24  -8 -10  192.74   11.33
  24  -8 -10  182.64   10.44
 -24  -8  10  180.32    9.31
 -24   8  10  196.74   11.56
 -24   8  10  194.64   12.08
  24   8 -10  183.96    9.47
 -24   8  10  179.75   10.95
  22  -8 -10   61.42    7.27
 -22  -8  10   53.18    5.70
  22  -8 -10   63.28    6.75
 -22   8  10   70.88    7.94
 -22   8  10   61.98    7.82
 -22   8  10   63.17    7.04
  22   8 -10   60.75    6.34
  20  -8 -10   26.49    5.80
  20  -8 -10   35.53    6.01
 -20  -8  10   30.04    4.60
 -20   8  10   22.78    5.41
 -20   8  10   33.05    6.91
  20   8 -10   30.66    5.01
 -20   8  10   48.75    6.88
  18  -8 -10    5.18    4.50
  18  -8 -10    6.56    4.95
 -18   8  10   -3.85    4.44
  18   8 -10    2.04    3.63
 -18   8  10    9.04    5.81
 -18   8  10    5.28    4.89
  16  -8 -10   21.88    5.12
  16  -8 -10   24.46    5.48
 -16   8  10   12.38    5.90
 -16   8  10   15.55    4.97
  16   8 -10   16.47    4.50
 -16   8  10   13.78    5.32
  14  -8 -10    9.08    4.51
  14  -8 -10    9.79    4.95
  14   8 -10   16.84    4.47
 -14   8  10    9.74    5.02
 -14   8  10   15.21    5.06
 -14   8  10   23.58    6.16
  12  -8 -10    9.36    4.50
  12  -8 -10    6.29    4.91
 -12   8  10   13.43    4.20
 -12   8  10   23.90    5.90
 -12   8  10   14.62    5.05
  12   8 -10   22.23    4.82
 -12   8  10   13.20    4.69
  10  -8 -10    0.07    4.40
  10  -8 -10    2.66    4.37
 -10   8  10    1.02    3.75
  10   8 -10    0.05    3.61
 -10   8  10   -1.98    3.94
 -10   8  10    0.96    4.05
 -10   8  10    1.23    4.84
   8  -8 -10   -3.55    3.94
   8  -8 -10   -3.73    4.32
  -8   8  10    9.05    4.98
   8   8 -10   -5.33    3.45
  -8   8  10   -4.22    3.87
  -8   8  10    1.94    3.57
   6  -8 -10   22.41    5.38
   6  -8 -10   13.45    4.92
  -6   8  10   12.67    4.40
  -6   8  10   19.14    5.37
  -6   8  10   19.92    4.69
   6   8 -10   15.75    4.93
   4  -8 -10   38.65   10.16
   4  -8 -10   36.05    6.02
   4  -8 -10   58.99    6.34
  -4   8  10   46.33    5.82
  -4   8  10   54.15    6.37
  -4   8  10   49.68    6.44
   2  -8 -10   68.04    7.56
   2  -8 -10   70.38    6.79
  -2   8  10   68.41    6.88
  -2   8  10   81.70    7.43
  -2   8  10   71.17    6.64
   0  -8 -10   13.48    5.31
   0  -8 -10   18.78    5.47
   0   8  10    7.92    4.58
   0   8  10    3.46    4.20
   0   8  10   22.86    5.48
  -2  -8 -10   -1.17    4.89
  -2  -8 -10   -1.26    4.73
   2   8  10    8.01    4.90
   2   8  10   -1.22    4.14
   2   8  10   -2.77    3.82
  -4  -8 -10   -4.27    4.79
  -4  -8 -10    6.05    4.80
   4   8  10    1.06    4.24
   4   8  10   -0.62    4.09
  -6  -8 -10   -1.91    4.96
  -6  -8 -10   -3.22    4.94
   6   8  10   10.52    4.54
   6   8  10    9.72    4.75
  -8  -8 -10   18.72    5.81
  -8  -8 -10    8.13    5.41
   8   8  10    3.24    4.59
   8   8  10    7.06    4.73
 -10  -8 -10   -0.87    5.43
  10  -8  10   -1.05    2.88
 -10  -8 -10    4.96    5.65
  10   8  10    2.01    4.44
  10   8  10   -0.99    4.25
 -12  -8 -10    0.52    5.96
  12  -8  10   -3.38    3.29
 -12  -8 -10    0.00    5.70
  12   8  10    3.73    5.06
  12   8  10    0.27    4.57
 -27  -9  10   18.49    5.56
  27  -9 -10   20.15    6.31
  27   9 -10   28.58    5.51
 -27   9  10   22.98    6.18
 -25  -9  10  100.83    7.70
  25  -9 -10  118.82    9.86
 -25   9  10  105.56    8.71
 -25   9  10  113.19    9.87
  25   9 -10  114.87    8.54
 -23  -9  10   -0.61    4.13
  23  -9 -10   21.96    6.22
 -23   9  10    8.04    6.46
  23   9 -10    8.77    4.43
 -23   9  10    7.24    5.41
 -21  -9  10   22.06    4.55
  21  -9 -10   34.93    6.39
 -21   9  10   22.36    5.82
  21   9 -10   25.80    5.09
 -21   9  10   23.57    6.15
 -21   9  10   32.65    6.96
  19  -9 -10   28.83    5.85
 -19   9  10   34.46    6.06
  19   9 -10   31.31    5.49
 -19   9  10   35.39    6.46
 -19   9  10   57.01    7.54
  17  -9 -10    0.73    5.06
  17  -9 -10   -7.93    4.15
 -17   9  10   -3.79    5.61
  17   9 -10   -3.15    3.56
 -17   9  10   -2.16    4.52
 -17   9  10   -4.27    4.75
  15  -9 -10   10.21    5.32
  15  -9 -10    8.92    5.03
 -15   9  10    7.06    4.94
 -15   9  10    2.60    4.58
  15   9 -10    9.44    4.28
 -15   9  10   -0.22    5.51
  13  -9 -10   30.22    5.78
  13  -9 -10   22.67    5.60
 -13   9  10   19.92    5.33
 -13   9  10   30.83    6.36
  13   9 -10   38.31    5.98
 -13   9  10   29.65    5.86
 -13   9  10   31.82    4.97
  11  -9 -10  213.37   10.57
  11  -9 -10  208.07   11.11
 -11   9  10  191.96   10.19
  11   9 -10  206.29   10.81
 -11   9  10  230.80   11.15
 -11   9  10  218.23   10.04
 -11   9  10  217.27   11.37
   9  -9 -10    8.02    4.80
   9  -9 -10   10.51    5.11
   9   9 -10   15.44    4.78
  -9   9  10   13.64    4.77
  -9   9  10   10.57    5.46
  -9   9  10    6.95    4.79
  -9   9  10   13.74    4.71
   7  -9 -10   13.06    5.01
   7  -9 -10    2.15    5.00
  -7   9  10   -1.23    3.83
   7   9 -10    5.50    4.47
  -7   9  10    5.28    5.14
  -7   9  10    8.31    5.02
  -7   9  10    6.38    4.15
   5  -9 -10   47.23    6.42
   5  -9 -10   45.55    6.52
   5   9 -10   58.74    7.56
  -5   9  10   52.56    6.64
  -5   9  10   51.94    6.18
   3  -9 -10   -0.13    4.80
   3  -9 -10    1.66    4.60
  -3   9  10    6.30    5.28
  -3   9  10    5.33    3.99
  -3   9  10    4.92    4.12
   1  -9 -10    0.32    4.83
   1  -9 -10    1.48    4.87
  -1   9  10   -0.77    4.81
  -1   9  10   -1.64    3.93
  -1   9  10    2.37    3.74
  -1  -9 -10    4.91    5.30
  -1  -9 -10    5.36    5.37
   1   9  10    7.00    4.53
   1   9  10    4.75    5.25
   1   9  10    0.72    4.32
  -3  -9 -10   -7.02    4.74
  -3  -9 -10   -4.15    5.05
   3   9  10   -4.30    4.12
   3   9  10    1.94    5.01
   3   9  10   -0.80    3.86
  -5  -9 -10   15.26    6.01
  -5  -9 -10   14.83    5.64
   5   9  10   16.46    4.82
   5   9  10   16.17    4.97
   5   9  10   17.75    6.16
  -7  -9 -10   30.02    6.51
  -7  -9 -10   28.22    6.40
   7   9  10   25.58    6.36
   7   9  10   21.65    5.67
   7   9  10   21.63    5.35
  -9  -9 -10   10.84    5.97
  -9  -9 -10   -3.27    5.60
   9   9  10    0.11    4.50
   9   9  10    3.16    4.62
  11   9  10   -0.57    4.56
  11   9  10   -3.43    4.43
 -24 -10  10   55.32    6.41
  24 -10 -10   52.63    8.00
  24  10 -10   56.88    6.98
 -24  10  10   54.81    7.33
  22 -10 -10   23.85    6.38
 -22 -10  10   27.61    5.04
 -22  10  10   24.18    6.28
  22  10 -10   28.67    5.85
  20 -10 -10    5.55    5.45
  20  10 -10    1.39    4.06
 -20  10  10    0.30    4.97
  18 -10 -10    3.30    5.10
 -18  10  10    1.13    4.66
  18  10 -10    3.41    4.17
  16 -10 -10    0.76    4.93
 -16  10  10    1.20    4.71
  16  10 -10    4.73    4.07
 -16  10  10   -1.83    5.76
  14 -10 -10    2.16    4.92
 -14  10  10    2.52    4.65
 -14  10  10   -1.29    3.86
  14  10 -10   -2.66    3.73
  12 -10 -10    3.76    4.85
 -12  10  10    6.74    5.46
  12  10 -10    4.84    4.41
 -12  10  10   11.96    5.77
 -12  10  10   -2.80    4.34
 -12  10  10    4.80    4.13
  10 -10 -10   18.16    5.56
 -10  10  10   12.02    4.67
 -10  10  10   23.71    5.86
  10  10 -10   15.26    4.94
 -10  10  10   17.56    4.89
   8 -10 -10    0.20    4.63
  -8  10  10   -3.82    4.06
  -8  10  10   11.39    5.75
  -8  10  10   -4.10    4.01
   8  10 -10   -7.84    3.98
  -8  10  10    8.57    4.77
   6 -10 -10   14.73    5.47
  -6  10  10    4.58    4.23
  -6  10  10    4.69    4.84
   6  10 -10    3.40    4.48
  -6  10  10    4.29    4.31
   4 -10 -10  102.56    8.97
  -4  10  10   88.46    8.63
   4  10 -10  104.33    9.63
  -4  10  10   91.02    7.46
  -4  10  10  100.33    8.49
  -4  10  10  110.48    8.74
   2 -10 -10   39.83    6.86
  -2  10  10   37.90    5.78
  -2  10  10   50.90    7.05
  -2  10  10   38.37    6.06
   0 -10 -10    4.52    5.12
   0  10  10   -6.36    3.97
   0  10  10   -2.83    3.74
   0  10  10   -4.10    5.20
  -2 -10 -10   -1.40    5.43
   2  10  10   -1.14    4.08
   2  10  10    3.76    4.33
   2  10  10    7.60    5.45
  -4 -10 -10   23.28    6.47
   4  10  10   20.66    5.34
   4  10  10   25.93    6.90
  -6 -10 -10   10.82    6.11
   6  10  10   10.20    4.98
   6  10  10   19.26    6.38
   8  10  10   -0.51    4.38
  19 -11 -10   40.93    7.42
  19  11 -10   45.17    6.78
  17 -11 -10  118.98   10.09
  17  11 -10  105.13    9.60
  15 -11 -10    5.90    5.48
  15  11 -10   -3.06    4.11
  13 -11 -10    4.75    5.23
 -13  11  10   10.55    4.62
  13  11 -10    6.75    4.84
 -13  11  10   11.41    5.17
  11 -11 -10    8.29    5.42
  11  11 -10   -3.78    4.24
 -11  11  10    5.63    4.27
 -11  11  10    4.51    4.79
   9 -11 -10   11.22    5.56
  -9  11  10   11.64    4.88
  -9  11  10    5.83    4.69
   9  11 -10    0.88    4.35
   7 -11 -10   14.82    5.81
  -7  11  10   12.02    5.38
  -7  11  10   20.05    5.22
   7  11 -10    2.97    4.78
   5 -11 -10   70.83    8.28
  -5  11  10   63.87    7.77
  -5  11  10   66.84    6.94
   5  11 -10   59.97    7.87
   3 -11 -10   54.77    7.69
  -3  11  10   49.28    7.58
  -3  11  10   51.60    6.15
   1 -11 -10   -6.91    5.36
  -1  11  10    0.17    4.44
  -1  11  10   -2.88    5.38
  -1 -11 -10    0.13    5.48
   1  11  10    4.43    4.65
  -3 -11 -10   39.04    7.86
   3  11  10   40.20    6.09
  12  12 -10    3.47    4.77
 -12  12  10   10.76    5.26
  10 -12 -10   -7.31    5.51
 -10  12  10   15.86    5.33
  10  12 -10    3.36    5.04
   8 -12 -10   -0.10    5.79
  -8  12  10   14.90    5.34
   8  12 -10    2.85    4.86
   6 -12 -10   -3.25    5.37
  -6  12  10    1.68    5.11
   6  12 -10   -5.19    5.07
  -4  12  10    3.62    5.35
   4  12 -10   -7.37    4.84
 -36   0  11   -1.05    6.22
 -34   0  11   10.68    6.15
 -34   0  11    0.49    6.22
 -32   0  11   -7.60    5.64
 -32   0  11   -3.10    5.13
 -30   0  11   -8.61    5.27
 -30   0  11   -4.10    5.08
 -28   0  11    6.38    5.47
 -28   0  11    0.18    4.74
 -26   0  11   -1.24    4.56
  26   0 -11    1.97    4.53
 -26   0  11    1.88    4.92
  24   0 -11    2.96    3.21
 -24   0  11    1.26    4.67
 -24   0  11   -5.43    3.97
 -22   0  11    2.85    4.45
 -22   0  11    4.37    4.20
  22   0 -11    0.63    2.81
 -20   0  11   -4.32    4.16
  20   0 -11    0.95    2.84
 -20   0  11    4.12    4.21
 -18   0  11   -7.41    3.74
 -18   0  11   -3.08    4.12
  18   0 -11   -2.16    2.47
 -16   0  11    6.51    3.64
 -16   0  11   -1.68    3.94
  16   0 -11   -1.53    2.45
  14   0 -11   -2.43    2.32
 -14   0  11    2.24    3.33
 -14   0  11    3.30    3.71
  12   0 -11   -0.94    2.16
 -12   0  11    1.01    3.10
 -12   0  11   -3.81    3.56
 -10   0  11   -1.63    3.26
  10   0 -11    1.24    2.22
 -10   0  11    4.51    3.36
   8   0 -11   -1.74    2.10
  -8   0  11    3.93    3.36
  -8   0  11   -2.01    3.02
  -6   0  11   -0.84    3.07
  -6   0  11   -1.82    3.09
   6   0 -11   -2.84    2.12
  -4   0  11   -0.17    3.10
  -4   0  11   -4.97    3.07
   4   0 -11    1.35    2.26
  -2   0  11    0.48    3.37
  -2   0  11    6.89    3.50
   2   0 -11    1.85    2.43
   0   0 -11   -2.63    2.56
   0   0  11   -1.61    3.25
   0   0  11    1.83    3.41
   2   0  11    0.14    3.46
   2   0  11   -5.34    3.30
   4   0  11    0.48    3.28
   4   0  11    3.66    3.51
  -4   0 -11    3.88    4.15
   6   0  11   -0.26    3.33
   6   0  11   -1.39    3.45
   8   0  11   -0.06    3.81
  -8   0 -11   -3.18    4.55
   8   0  11   -4.12    3.37
  10   0  11    0.98    4.08
 -10   0 -11    8.63    4.99
  12   0  11   -3.59    3.81
 -12   0 -11   -5.61    4.93
 -14   0 -11   -0.34    5.56
  14   0  11   -0.59    4.00
 -16   0 -11    0.92    6.29
  16   0  11   -2.95    4.56
  18   0  11   -1.91    4.74
 -35  -1  11   35.01    7.38
 -35   1  11   28.19    7.02
 -33  -1  11   -2.07    5.46
 -33  -1  11    5.99    6.05
  33  -1 -11    1.31    4.63
 -33   1  11    2.18    6.14
 -33   1  11    0.62    5.91
 -31  -1  11  101.99    9.12
 -31  -1  11   95.06    8.37
 -31   1  11  119.23    9.65
 -31   1  11   95.63    8.99
 -29  -1  11   15.64    5.53
 -29  -1  11    6.94    5.87
  29  -1 -11   17.74    4.52
 -29   1  11   15.62    6.07
 -29   1  11   15.69    5.68
  27  -1 -11   10.15    4.10
 -27  -1  11    9.30    4.93
 -27  -1  11   17.93    5.61
 -27   1  11   14.58    5.63
 -27   1  11   12.50    5.31
 -25  -1  11   31.41    5.50
  25  -1 -11   34.02    4.89
 -25  -1  11   38.59    6.16
 -25   1  11   34.00    6.03
 -25   1  11   32.87    5.76
  23  -1 -11   97.29    6.65
 -23  -1  11  107.99    7.67
 -23  -1  11  100.15    8.09
 -23   1  11  106.10    8.30
 -23   1  11   99.44    7.68
 -21  -1  11   13.62    4.69
 -21  -1  11    7.68    4.39
  21  -1 -11    9.62    3.26
 -21   1  11    6.80    4.40
 -21   1  11    9.93    4.74
  19  -1 -11    2.83    3.00
 -19  -1  11   10.75    4.30
 -19  -1  11    5.72    4.29
 -19   1  11   -3.23    4.13
 -19   1  11   -4.61    4.31
  17  -1 -11   65.56    5.13
 -17  -1  11   69.66    5.99
 -17  -1  11   69.97    6.09
 -17   1  11   77.15    6.39
  17   1 -11   73.36    5.05
 -17   1  11   63.23    6.36
 -15  -1  11    6.81    3.43
  15  -1 -11    1.88    2.60
 -15  -1  11    1.14    3.58
 -15   1  11    1.07    3.30
 -15   1  11   -0.97    3.89
 -13  -1  11  128.89    7.34
 -13  -1  11  127.91    7.42
  13  -1 -11  130.40    6.34
 -13   1  11  121.78    7.66
 -13   1  11  129.65    7.87
 -11  -1  11   -0.83    3.23
  11  -1 -11   -2.29    2.49
 -11  -1  11   -2.19    3.26
 -11   1  11   -0.49    3.15
 -11   1  11   -2.32    3.63
   9  -1 -11  396.81   12.52
   9  -1 -11  412.21   11.96
  -9  -1  11  424.81   11.62
  -9  -1  11  412.62   12.13
   9  -1 -11  395.63   11.15
  -9   1  11  414.94   12.37
  -9   1  11  404.77   12.77
  -7  -1  11   21.15    3.85
   7  -1 -11   16.14    3.38
   7  -1 -11   20.65    4.67
   7  -1 -11   21.88    4.17
  -7  -1  11   26.27    4.06
  -7   1  11   16.83    4.16
  -7   1  11   30.41    4.36
  -5  -1  11   21.67    3.81
   5  -1 -11   14.88    4.51
   5  -1 -11   15.29    3.18
  -5  -1  11   25.81    3.97
  -5   1  11   28.19    4.33
  -5   1  11   27.76    4.49
   3  -1 -11    2.57    2.85
   3  -1 -11    1.77    4.01
  -3  -1  11    4.45    3.30
  -3  -1  11    4.28    3.21
  -3   1  11    2.51    3.57
  -3   1  11    3.64    3.57
  -1  -1  11   52.83    4.84
   1  -1 -11   44.97    5.30
  -1  -1  11   42.14    4.84
   1  -1 -11   40.07    4.30
  -1   1  11   42.54    5.00
  -1   1  11   34.54    4.91
  -1  -1 -11   28.46    5.06
   1  -1  11   31.73    4.61
   1  -1  11   28.25    4.27
  -1  -1 -11   27.42    3.84
   1   1  11   28.58    4.59
   1   1  11   28.88    4.64
  -3  -1 -11    2.59    4.04
  -3  -1 -11   11.56    3.38
   3  -1  11   11.42    3.69
   3  -1  11   15.66    3.99
   3   1  11   11.36    3.95
   3   1  11   11.66    4.14
  -5  -1 -11   32.61    5.43
   5  -1  11   27.58    4.44
   5   1  11   34.16    4.90
   5   1  11   24.39    4.85
   7  -1  11    0.04    3.42
  -7  -1 -11    2.08    4.64
   7   1  11    6.42    3.90
   7   1  11    1.41    3.83
   9  -1  11   62.27    6.34
  -9  -1 -11   78.60    7.47
   9   1  11   70.26    6.62
   9   1  11   59.47    6.41
  -9   1 -11   67.91    6.83
  11  -1  11   24.84    5.19
 -11  -1 -11   17.65    5.66
  11   1  11   22.59    5.07
  11   1  11   22.21    5.20
 -11   1 -11   15.53    5.82
 -13  -1 -11    7.33    5.59
  13  -1  11    5.96    4.07
  13   1  11    1.92    4.35
  13   1  11   -1.30    4.30
 -13   1 -11    4.54    5.30
  15  -1  11   20.58    5.28
  15   1  11   26.13    5.91
 -15   1 -11   21.77    6.28
  15   1  11   19.82    5.47
  17  -1  11    5.01    4.66
 -17   1 -11    4.29    6.15
  17   1  11   -6.22    4.29
  36  -2 -11   12.40    6.00
  34  -2 -11    9.70    5.55
 -34  -2  11   -0.66    5.70
 -34   2  11    5.54    6.51
 -34   2  11    3.14    6.05
 -32  -2  11    5.02    5.28
  32  -2 -11    7.72    4.53
  32  -2 -11    4.85    5.05
 -32  -2  11    6.34    6.15
 -32   2  11    5.70    6.24
 -32   2  11   -3.22    5.45
 -30  -2  11   96.54    8.79
  30  -2 -11   95.01    7.75
 -30  -2  11   75.37    7.73
  30  -2 -11   77.83    7.56
 -30   2  11   67.29    7.88
 -30   2  11   71.84    7.88
  28  -2 -11   -3.00    3.78
  28  -2 -11    5.89    4.71
 -28  -2  11   -3.66    5.41
 -28  -2  11   -1.04    4.55
 -28   2  11   -7.61    4.99
 -28   2  11    1.40    5.44
  26  -2 -11   -6.18    3.33
 -26  -2  11   -2.16    4.69
  26  -2 -11   -0.14    4.23
 -26  -2  11   -2.31    4.35
 -26   2  11    0.21    4.69
 -26   2  11    0.94    5.13
  24  -2 -11    2.47    4.25
 -24  -2  11   -4.47    4.03
 -24  -2  11    0.79    4.56
  24  -2 -11    0.94    3.18
 -24   2  11    0.93    4.45
 -24   2  11    1.80    4.73
 -22  -2  11  242.85   10.27
  22  -2 -11  243.35    9.75
 -22  -2  11  249.16   10.42
  22  -2 -11  238.40   10.05
 -22   2  11  248.47   11.24
 -22   2  11  255.49   11.05
  20  -2 -11   98.91    6.66
  20  -2 -11   95.95    7.25
 -20  -2  11  104.99    7.65
 -20  -2  11   97.59    7.59
 -20   2  11  106.38    8.53
 -20   2  11  100.55    7.61
 -18  -2  11  169.67    8.38
  18  -2 -11  161.16    7.70
 -18  -2  11  154.96    8.46
  18  -2 -11  153.52    8.21
 -18   2  11  164.37    9.45
 -18   2  11  173.66    9.39
  16  -2 -11   29.69    4.26
 -16  -2  11   38.53    4.71
  16  -2 -11   34.32    4.85
 -16  -2  11   29.57    4.55
 -16   2  11   39.79    5.31
 -16   2  11   27.23    5.16
 -16   2  11   27.71    4.98
 -14  -2  11   42.00    4.76
 -14  -2  11   35.91    4.56
  14  -2 -11   35.17    4.39
 -14   2  11   30.75    5.31
 -14   2  11   36.29    5.22
 -12  -2  11  300.28   10.07
  12  -2 -11  289.89    9.83
 -12   2  11  302.78   11.44
 -12   2  11  307.30   11.13
  10  -2 -11  284.74    9.47
 -10  -2  11  287.63    9.67
 -10   2  11  242.85   10.29
 -10   2  11  296.10   11.04
   8  -2 -11  213.67    8.35
  -8  -2  11  213.80    8.37
   8  -2 -11  241.94    9.78
  -8   2  11  198.00    9.53
  -8   2  11  214.24    9.41
   6  -2 -11   -4.81    3.76
  -6  -2  11    0.96    2.99
   6  -2 -11    0.68    3.17
  -6   2  11   -4.71    3.53
  -6   2  11   -3.53    3.48
  -4  -2  11   28.65    4.06
   4  -2 -11   20.82    4.80
   4  -2 -11   23.98    4.03
  -4   2  11   28.47    4.57
  -4   2  11   28.12    4.76
   2  -2 -11   -1.22    3.23
  -2  -2  11    4.40    3.26
   2  -2 -11    7.51    4.20
  -2   2  11    4.26    3.80
  -2   2  11   -0.89    3.61
   0  -2  11   52.64    5.09
   0  -2 -11   47.66    4.93
   0  -2 -11   50.80    5.63
   0   2  11   50.97    5.46
   0   2  11   50.19    5.48
  -2  -2 -11    0.01    3.28
   2  -2  11    0.30    3.11
  -2  -2 -11   -0.43    4.18
   2   2  11    5.44    3.76
   2   2  11   -5.15    3.25
  -4  -2 -11   35.17    4.95
   4  -2  11   50.40    5.20
  -4  -2 -11   45.37    5.82
   4   2  11   39.84    5.20
   4   2  11   44.06    5.54
  -6  -2 -11   -2.39    4.42
   6  -2  11   -2.39    3.25
  -6  -2 -11   -2.34    3.47
   6   2  11    2.86    3.74
   6   2  11    3.66    3.96
  -8  -2 -11    4.67    4.99
   8  -2  11   -3.86    3.33
  -8  -2 -11    3.42    5.02
   8   2  11    3.96    4.06
   8   2  11    1.98    3.86
  10  -2  11   20.73    4.76
 -10  -2 -11   21.17    5.99
  10   2  11   21.78    5.21
  10   2  11   19.00    5.17
  12  -2  11   -0.18    4.06
  12   2  11    2.31    4.22
  12   2  11    0.45    4.42
  14  -2  11    2.39    4.18
  14   2  11   -0.15    4.57
 -14   2 -11    2.81    5.23
  14   2  11    2.06    4.70
  16  -2  11   61.25    7.33
  16   2  11   41.32    6.90
  16   2  11   59.83    7.46
  35  -3 -11    9.81    5.06
  35  -3 -11   12.90    6.13
 -35  -3  11   23.53    6.51
 -35   3  11    9.61    6.44
 -33  -3  11   23.66    6.52
  33  -3 -11   32.65    6.53
  33  -3 -11   24.46    5.73
 -33   3  11   30.57    6.92
 -33   3  11   21.11    6.81
  31  -3 -11    0.96    4.95
  31  -3 -11    4.94    4.56
 -31  -3  11    8.92    5.41
 -31  -3  11    3.62    5.66
 -31   3  11    4.19    5.80
 -31   3  11    9.30    5.95
  29  -3 -11    0.29    4.33
  29  -3 -11   -0.50    4.69
 -29  -3  11   -0.90    5.30
 -29  -3  11    3.72    4.95
 -29   3  11    0.92    5.62
 -29   3  11   -1.49    5.28
  27  -3 -11   16.83    5.16
 -27  -3  11   19.27    5.09
  27  -3 -11   24.38    5.29
 -27  -3  11   26.53    5.96
 -27   3  11   15.69    5.68
 -27   3  11   14.12    5.78
  25  -3 -11  133.49    8.98
 -25  -3  11  131.92    8.85
 -25  -3  11  133.85    9.13
  25  -3 -11  150.38    8.63
 -25   3  11  139.07   10.00
 -25   3  11  143.73    9.70
  23  -3 -11   39.64    5.30
 -23  -3  11   33.77    5.63
 -23  -3  11   40.52    5.40
  23  -3 -11   36.87    5.75
 -23   3  11   36.34    6.11
 -23   3  11   38.26    6.35
  21  -3 -11    1.73    3.34
  21  -3 -11    3.77    4.05
 -21  -3  11    3.13    3.84
 -21  -3  11    1.48    4.09
 -21   3  11   -0.55    4.29
 -21   3  11   -5.84    4.30
 -19  -3  11   70.65    5.98
  19  -3 -11   77.35    6.25
  19  -3 -11   69.78    6.19
 -19  -3  11   65.59    5.75
 -19   3  11   64.91    6.92
 -19   3  11   91.16    7.29
  17  -3 -11   63.45    5.65
  17  -3 -11   68.61    6.43
 -17  -3  11   66.30    5.55
 -17   3  11   48.30    6.18
 -17   3  11   60.67    6.53
 -17   3  11   52.78    6.65
  15  -3 -11   19.38    3.92
 -15  -3  11   16.38    3.85
  15  -3 -11   18.33    4.68
 -15   3  11   13.73    4.72
 -15   3  11   17.86    4.61
 -15   3  11   22.00    5.16
  13  -3 -11   51.02    5.07
 -13  -3  11   51.50    4.99
  13  -3 -11   43.04    5.31
 -13   3  11   52.57    6.09
 -13   3  11   46.91    5.74
 -13   3  11   35.74    5.58
 -11  -3  11    6.33    3.06
  11  -3 -11    1.06    3.04
  11  -3 -11    4.40    4.08
 -11   3  11    1.93    4.15
 -11   3  11    2.28    3.49
 -11   3  11    3.49    4.13
   9  -3 -11  218.00    9.30
   9  -3 -11  198.76    8.52
  -9  -3  11  206.71    7.88
  -9   3  11  199.06    9.57
  -9   3  11  222.92    9.86
  -9   3  11  208.51    9.99
   7  -3 -11   45.57    5.42
  -7  -3  11   26.27    3.71
   7  -3 -11   35.99    4.64
  -7   3  11   42.85    5.45
  -7   3  11   44.13    5.53
  -7   3  11   44.45    5.58
   5  -3 -11    6.30    3.58
   5  -3 -11   -2.84    3.97
  -5  -3  11    2.04    2.91
   5  -3 -11    5.72    4.31
  -5   3  11   -4.74    3.64
  -5   3  11    5.47    3.77
   3  -3 -11  156.07    8.82
   3  -3 -11  163.22    8.21
  -3  -3  11  156.82    7.14
   3  -3 -11  179.19    9.27
  -3   3  11  166.59    8.92
  -3   3  11  169.45    8.76
   1  -3 -11    4.59    3.62
   1  -3 -11    0.45    4.05
   1  -3 -11   -0.82    3.94
  -1  -3  11    4.79    3.04
  -1   3  11   -7.49    3.56
  -1   3  11    5.61    3.77
  -1  -3 -11   19.26    4.31
  -1  -3 -11   11.05    4.70
   1  -3  11   18.96    3.64
   1   3  11   19.78    4.53
   1   3  11   13.78    4.38
  -3  -3 -11   44.09    5.64
  -3  -3 -11   44.65    5.81
  -3  -3 -11   47.62    5.45
   3  -3  11   49.95    4.88
   3   3  11   41.43    5.26
   3   3  11   46.78    5.82
  -5  -3 -11   -0.86    3.87
  -5  -3 -11   -1.29    4.44
   5  -3  11   -4.58    2.96
   5   3  11    3.89    4.08
   5   3  11    1.07    3.88
  -7  -3 -11   -0.02    4.57
   7  -3  11   -1.93    3.11
  -7  -3 -11   -4.05    4.02
   7   3  11    3.73    4.30
   7   3  11    4.05    4.01
  -9  -3 -11   -2.23    4.66
   9  -3  11    3.73    3.61
  -9  -3 -11   -0.28    4.30
   9   3  11   -4.53    4.00
   9   3  11    3.44    4.28
  11  -3  11   10.69    4.16
  11   3  11   11.66    5.08
  11   3  11   13.88    4.83
  13  -3  11    2.16    4.20
  13   3  11    5.78    4.84
  13   3  11    8.12    4.95
  15  -3  11   17.07    5.16
  15   3  11    7.57    5.35
  15   3  11    7.99    5.56
  17  -3  11   23.14    5.75
  17   3  11   17.27    6.23
  17   3  11   15.84    6.02
 -17   3 -11   29.99    7.00
 -34  -4  11   22.17    6.61
  34  -4 -11   15.78    6.50
  34  -4 -11    9.37    5.60
 -34   4  11   31.11    7.25
 -34   4  11    8.36    6.62
  32  -4 -11    1.66    4.37
 -32  -4  11    1.83    5.38
  32  -4 -11    4.49    5.41
 -32   4  11    6.94    6.01
 -32   4  11    3.39    5.98
  30  -4 -11   19.72    5.89
  30  -4 -11   12.04    5.05
 -30  -4  11   14.32    5.47
 -30   4  11   13.28    6.14
 -30   4  11    9.71    5.85
  28  -4 -11   35.04    6.46
 -28  -4  11   24.06    5.75
  28  -4 -11   33.80    5.71
 -28   4  11   33.45    6.82
 -28   4  11   21.11    6.26
 -26  -4  11   86.11    7.34
  26  -4 -11  106.81    8.25
  26  -4 -11   95.82    8.15
 -26   4  11  100.49    8.63
 -26   4  11   94.58    8.24
  24  -4 -11  144.73    9.51
 -24  -4  11  149.36    8.81
  24  -4 -11  147.37    8.92
 -24   4  11  152.86   10.44
 -24   4  11  140.41    9.95
  22  -4 -11   77.40    6.96
 -22  -4  11   71.68    6.22
  22  -4 -11   81.19    6.79
 -22   4  11   78.83    7.28
 -22   4  11   73.77    7.86
 -22   4  11   75.16    7.44
  20  -4 -11   65.21    6.20
  20  -4 -11   64.00    6.39
 -20  -4  11   69.51    5.92
 -20   4  11   60.69    6.83
 -20   4  11   82.06    7.48
 -20   4  11   76.32    7.02
  18  -4 -11   27.62    4.80
  18  -4 -11   37.69    5.45
 -18  -4  11   27.00    4.52
 -18   4  11   29.15    5.58
 -18   4  11   35.22    5.99
 -18   4  11   35.25    5.61
 -16  -4  11  110.97    6.90
  16  -4 -11  127.89    8.44
  16  -4 -11  127.54    7.71
 -16   4  11  128.55    9.08
 -16   4  11  119.68    8.50
 -16   4  11  127.61    8.89
  14  -4 -11  106.97    7.23
  14  -4 -11  117.60    8.13
 -14  -4  11  106.02    6.37
  14  -4 -11  100.78    7.00
 -14   4  11   98.46    7.55
 -14   4  11   98.90    7.95
 -14   4  11   87.46    7.29
  12  -4 -11  537.34   15.07
 -12  -4  11  507.81   13.13
  12  -4 -11  527.82   14.83
 -12   4  11  493.61   15.11
 -12   4  11  519.17   16.19
 -12   4  11  510.54   15.48
  10  -4 -11  276.52   10.47
 -10  -4  11  271.50    8.88
  10  -4 -11  293.87   10.98
 -10   4  11  268.64   11.34
 -10   4  11  275.23   11.41
 -10   4  11  266.82   11.21
   8  -4 -11    3.92    3.85
   8  -4 -11    1.45    4.34
  -8   4  11   10.17    4.62
  -8   4  11    4.60    4.23
  -8   4  11   -1.79    4.32
   6  -4 -11   24.59    4.77
   6  -4 -11   23.78    4.89
   6  -4 -11   32.29    5.53
  -6   4  11   36.91    5.43
  -6   4  11   18.40    4.89
  -6   4  11   19.74    4.86
   4  -4 -11  100.89    7.28
   4  -4 -11  104.65    8.29
  -4  -4  11   95.32    5.57
   4  -4 -11   99.16    7.15
  -4   4  11  103.75    8.04
  -4   4  11  103.14    7.82
   2  -4 -11   29.40    4.93
   2  -4 -11   24.84    4.92
  -2  -4  11   29.51    3.74
   2  -4 -11   33.72    5.50
  -2   4  11   30.03    5.05
  -2   4  11   26.13    5.03
   0  -4 -11    6.79    4.61
   0  -4  11   -0.51    2.72
   0  -4 -11   -5.47    3.43
   0  -4 -11   -4.12    3.83
   0   4  11    0.20    3.68
   0   4  11   -1.66    3.70
  -2  -4 -11   77.80    6.75
   2  -4  11   87.33    5.76
  -2  -4 -11   96.54    7.36
  -2  -4 -11   82.61    7.15
   2   4  11   71.49    6.61
   2   4  11   79.96    6.82
  -4  -4 -11    2.20    4.22
   4  -4  11    1.83    2.98
  -4  -4 -11   -2.02    4.50
   4   4  11   -3.30    3.64
   4   4  11    3.85    3.82
  -6  -4 -11    4.15    4.33
   6  -4  11    6.43    3.36
  -6  -4 -11    5.38    4.99
   6   4  11    3.73    4.10
   6   4  11    3.74    4.16
  -8  -4 -11   13.52    5.41
  -8  -4 -11   12.02    4.96
   8  -4  11   13.65    3.93
   8   4  11   16.78    5.12
   8   4  11   17.01    4.77
  10  -4  11    6.16    3.87
 -10  -4 -11    7.86    4.85
 -10  -4 -11    4.08    5.48
  10   4  11   13.25    5.00
  10   4  11   16.08    5.09
 -12  -4 -11   62.05    7.22
  12  -4  11   53.38    6.07
 -12  -4 -11   53.44    7.42
  12   4  11   72.00    7.52
  12   4  11   66.98    7.43
 -14  -4 -11   10.29    6.10
  14  -4  11   21.19    5.02
  14   4  11   29.86    6.07
  14   4  11   30.73    6.27
 -16  -4 -11    6.18    6.28
  16  -4  11   14.92    5.13
  16   4  11   19.15    6.15
  16   4  11    8.25    5.73
  33  -5 -11   16.17    5.81
  33  -5 -11    9.36    6.22
 -33  -5  11   18.89    6.41
 -33   5  11   24.18    6.79
 -33   5  11    8.69    6.37
  31  -5 -11   -1.18    4.81
 -31  -5  11    8.01    5.54
  31  -5 -11   -3.85    5.09
  31  -5 -11   -2.64    4.74
 -31   5  11    1.65    5.96
 -31   5  11   -5.58    5.54
  29  -5 -11    4.00    4.72
  29  -5 -11   -5.10    4.92
  29  -5 -11    3.02    4.31
 -29  -5  11    2.85    4.93
 -29   5  11    5.07    5.75
 -29   5  11   -6.96    5.19
  27  -5 -11    4.25    4.45
  27  -5 -11    3.43    5.11
  27  -5 -11    2.90    4.32
 -27  -5  11   -6.18    4.30
 -27   5  11   -3.41    5.07
 -27   5  11   -2.13    6.45
 -27   5  11    2.46    5.48
  25  -5 -11   16.37    4.90
  25  -5 -11   12.32    4.80
  25  -5 -11    9.76    5.15
 -25  -5  11   13.52    4.68
 -25   5  11   14.45    5.50
 -25   5  11   10.77    5.64
 -25   5  11   12.89    6.43
  23  -5 -11   -4.36    3.63
 -23  -5  11   -4.82    3.54
  23  -5 -11   -3.03    4.42
 -23   5  11   -1.99    4.78
 -23   5  11   -0.31    4.95
 -23   5  11    4.06    5.77
  21  -5 -11   -0.26    4.55
  21  -5 -11    3.32    3.98
 -21  -5  11   13.97    4.20
  21  -5 -11    4.76    4.18
 -21   5  11    3.60    4.97
 -21   5  11   -5.16    4.54
 -21   5  11   20.29    5.79
  19  -5 -11    4.70    4.53
  19  -5 -11    1.81    3.75
 -19  -5  11   12.52    3.74
 -19   5  11    7.10    5.40
 -19   5  11   -1.28    4.42
 -19   5  11   -3.62    4.49
 -17  -5  11    4.81    3.25
  17  -5 -11    1.69    3.82
  17  -5 -11    0.08    4.25
  17  -5 -11    1.60    3.75
  17   5 -11   -2.84    2.87
 -17   5  11    1.42    4.53
 -17   5  11   -3.84    4.20
 -17   5  11    7.04    4.91
  15  -5 -11    2.49    3.91
  15  -5 -11   -2.12    4.14
 -15  -5  11    2.35    2.98
  15  -5 -11   -2.60    3.50
 -15   5  11    3.84    4.65
 -15   5  11   -2.86    4.08
 -15   5  11    2.02    4.24
  13  -5 -11   98.72    7.26
  13  -5 -11   83.48    6.10
  13  -5 -11  101.15    7.50
 -13   5  11   99.86    7.97
 -13   5  11   90.38    7.24
 -13   5  11   84.97    7.43
  11  -5 -11  132.24    8.16
  11  -5 -11  132.32    8.75
 -11   5  11  138.93    9.27
 -11   5  11  127.62    8.62
 -11   5  11  134.59    8.78
   9  -5 -11   23.33    4.60
   9  -5 -11   13.13    4.70
  -9   5  11   19.69    4.77
  -9   5  11   14.20    4.20
  -9   5  11   21.46    5.20
   7  -5 -11    5.18    4.49
   7  -5 -11    4.83    3.94
  -7   5  11   15.26    4.63
  -7   5  11    3.74    4.25
  -7   5  11   10.55    4.04
   5  -5 -11   36.03    5.30
   5  -5 -11   33.37    6.38
   5  -5 -11   30.43    5.67
  -5   5  11   32.53    5.21
  -5   5  11   28.38    5.10
  -5   5  11   30.45    5.09
   3  -5 -11    7.67    4.62
   3  -5 -11    1.26    3.99
   3  -5 -11    7.94    4.08
  -3   5  11    0.47    4.01
  -3   5  11    8.33    4.22
   1  -5 -11   30.27    5.16
   1  -5 -11   17.45    5.19
  -1   5  11   16.04    4.52
  -1   5  11   18.06    4.78
  -1  -5 -11   92.98    7.49
  -1  -5 -11  103.98    7.90
   1  -5  11   88.89    5.47
   1   5  11  105.21    8.10
   1   5  11  105.59    8.07
  -3  -5 -11    3.26    4.97
  -3  -5 -11    3.85    4.36
   3  -5  11    3.64    2.76
   3   5  11   -3.59    3.92
   3   5  11    6.71    4.32
  -5  -5 -11   -0.59    4.38
   5  -5  11    1.89    3.00
  -5  -5 -11   -3.00    4.83
   5   5  11    0.60    3.99
   5   5  11    3.13    4.23
  -7  -5 -11   14.99    5.03
  -7  -5 -11   12.32    5.52
   7  -5  11   14.65    3.72
   7   5  11   18.25    5.00
   7   5  11   14.16    4.85
  -9  -5 -11   52.67    7.40
  -9  -5 -11   69.00    7.26
   9  -5  11   72.61    6.00
   9   5  11   80.20    7.47
   9   5  11   73.72    7.48
 -11  -5 -11   27.65    6.65
  11  -5  11   24.57    4.61
 -11  -5 -11   24.50    5.83
  11   5  11   30.64    6.04
  11   5  11   38.21    6.27
  13  -5  11   22.51    4.87
 -13  -5 -11   33.60    6.91
 -13  -5 -11   17.16    6.07
  13   5  11   21.78    5.74
  13   5  11   28.91    6.01
 -15  -5 -11   67.00    8.44
  15  -5  11   89.76    7.73
  15   5  11   78.88    8.49
  15   5  11   66.38    7.86
 -32  -6  11   38.17    6.93
  32  -6 -11   44.17    6.87
 -32   6  11   54.29    9.06
 -32   6  11   41.63    7.31
 -32   6  11   33.72    7.50
 -30  -6  11    5.90    5.10
  30  -6 -11   16.47    5.33
  30  -6 -11   15.54    5.80
 -30   6  11   17.04    7.12
 -30   6  11   13.39    6.48
 -30   6  11    4.98    6.07
  28  -6 -11    9.21    5.30
  28  -6 -11   19.46    7.52
  28  -6 -11   25.47    5.62
 -28  -6  11   18.95    5.43
 -28   6  11   15.87    6.63
 -28   6  11   26.76    7.39
 -28   6  11    4.77    5.68
 -26  -6  11   41.08    5.91
  26  -6 -11   34.66    5.90
  26  -6 -11   40.70    6.65
  26  -6 -11   30.76    5.76
 -26   6  11   32.98    6.41
 -26   6  11   42.73    6.90
 -26   6  11   39.10    7.48
  24  -6 -11   94.80    8.38
  24  -6 -11  104.39    8.54
  24  -6 -11  100.88    7.59
 -24  -6  11   98.24    7.88
 -24   6  11  105.40    8.36
 -24   6  11  106.42    9.33
 -24   6  11  106.52    8.89
 -22  -6  11   24.90    4.85
  22  -6 -11   26.55    5.91
  22  -6 -11   25.49    5.16
  22  -6 -11   19.87    5.01
 -22   6  11   27.58    5.72
 -22   6  11   21.07    6.54
 -22   6  11   22.87    6.11
  20  -6 -11   79.77    7.62
  20  -6 -11   88.12    7.49
  20  -6 -11   82.43    6.70
 -20  -6  11   71.45    5.83
 -20   6  11   78.37    7.48
  20   6 -11   67.25    5.95
 -20   6  11   72.28    7.56
 -20   6  11   76.17    7.83
  18  -6 -11  251.35   11.24
  18  -6 -11  233.93   11.11
 -18  -6  11  245.78    9.07
  18  -6 -11  230.28   10.08
  18   6 -11  235.67    9.64
 -18   6  11  256.93   11.90
 -18   6  11  253.79   12.24
 -18   6  11  250.23   11.23
  16  -6 -11   84.72    6.55
  16  -6 -11   77.31    7.46
  16  -6 -11   87.82    7.10
 -16   6  11   97.92    8.12
 -16   6  11   92.29    7.86
 -16   6  11   75.28    7.00
  16   6 -11   80.13    6.43
  14  -6 -11   52.86    5.76
  14  -6 -11   59.61    6.16
  14  -6 -11   57.02    6.44
 -14   6  11   57.22    6.39
  14   6 -11   47.96    5.38
 -14   6  11   48.87    6.56
 -14   6  11   56.82    6.53
  12  -6 -11   24.11    4.75
  12  -6 -11   17.68    4.60
  12  -6 -11   22.78    5.34
 -12   6  11   24.90    5.57
 -12   6  11   26.93    5.25
 -12   6  11   18.66    4.71
  10  -6 -11   94.27    6.58
  10  -6 -11   87.27    7.41
  10  -6 -11   83.03    7.09
 -10   6  11   86.24    7.18
 -10   6  11   72.57    7.30
 -10   6  11   89.05    7.52
   8  -6 -11  266.21   11.77
   8  -6 -11  298.78   11.68
   8  -6 -11  264.77   10.57
  -8   6  11  268.18   11.75
  -8   6  11  279.21   11.69
  -8   6  11  285.09   11.58
   6  -6 -11   94.20    6.76
   6  -6 -11   97.00    7.63
   6  -6 -11   85.50    7.61
  -6   6  11  107.64    8.07
  -6   6  11   96.08    7.77
  -6   6  11   86.93    7.35
   4  -6 -11   50.36    5.98
   4  -6 -11   42.40    6.13
   4  -6 -11   53.38    5.76
  -4   6  11   57.01    6.12
  -4   6  11   48.83    6.23
  -4   6  11   35.22    5.30
   2  -6 -11  167.13   10.13
   2  -6 -11  156.57    8.89
   2  -6 -11  157.22    9.48
  -2   6  11  154.63    9.56
  -2   6  11  153.72    9.13
  -2   6  11  185.42    9.87
   0  -6 -11  228.88   11.04
   0  -6 -11  239.41   11.52
   0  -6 -11  236.75   10.40
   0   6  11  244.63   10.72
   0   6  11  244.50   11.19
  -2  -6 -11  110.66    8.86
  -2  -6 -11  107.37    8.64
  -2  -6 -11  121.51    8.55
   2   6  11  112.66    8.25
   2   6  11  111.73    8.64
   4  -6  11   96.24    5.77
  -4  -6 -11   84.01    8.31
  -4  -6 -11  101.46    8.44
  -4  -6 -11   91.13    7.32
   4   6  11   93.58    7.98
   4   6  11  116.66    8.72
   6  -6  11   28.09    4.02
  -6  -6 -11   13.94    5.82
  -6  -6 -11   15.81    5.31
  -6  -6 -11    8.61    4.95
   6   6  11   17.47    5.07
   6   6  11   20.08    5.12
  -8  -6 -11    8.94    5.98
   8  -6  11    7.29    3.51
  -8  -6 -11    7.23    5.04
  -8  -6 -11    8.27    5.05
   8   6  11    5.37    4.58
   8   6  11   -4.28    4.14
 -10  -6 -11  122.11    9.82
  10  -6  11  136.36    7.65
 -10  -6 -11   99.82    9.40
  10   6  11   98.32    8.73
  10   6  11  115.61    9.05
  12  -6  11   46.85    5.81
 -12  -6 -11   50.87    7.93
 -12  -6 -11   47.48    7.34
  12   6  11   58.31    7.28
  12   6  11   50.48    6.89
 -14  -6 -11   22.37    7.24
  14  -6  11   29.24    5.20
  14   6  11   28.17    6.39
  14   6  11   31.49    6.51
  31  -7 -11    2.15    5.39
 -31   7  11   -2.03    5.94
 -29  -7  11   13.91    5.39
  29  -7 -11   10.34    5.56
  29  -7 -11    5.90    5.37
 -29   7  11   10.97    7.15
 -29   7  11    0.98    5.93
 -29   7  11    4.86    6.07
 -27  -7  11   44.71    6.24
  27  -7 -11   35.14    6.31
  27  -7 -11   29.94    6.36
 -27   7  11   33.12    6.66
 -27   7  11   43.70    7.75
 -27   7  11   39.53    7.20
  25  -7 -11  126.61    9.12
 -25  -7  11  128.23    8.61
  25  -7 -11  127.96    9.72
  25   7 -11  116.21    7.90
 -25   7  11  138.22   10.40
 -25   7  11  138.30   10.60
 -25   7  11  128.69    9.84
  23  -7 -11   86.93    7.98
  23  -7 -11   75.51    6.86
 -23  -7  11   80.58    6.56
 -23   7  11   78.25    7.59
 -23   7  11   95.83    9.18
  23   7 -11   71.46    6.44
 -23   7  11   76.97    8.08
  21  -7 -11   31.22    5.76
  21  -7 -11   28.76    7.06
 -21  -7  11   31.45    4.63
  21  -7 -11   28.49    5.77
 -21   7  11   23.66    6.20
 -21   7  11   27.30    6.96
 -21   7  11   29.09    5.90
  21   7 -11   30.74    4.79
  19  -7 -11   -2.86    4.59
  19  -7 -11    1.56    4.37
 -19  -7  11    1.81    3.38
  19  -7 -11    2.10    4.83
 -19   7  11    8.70    5.90
  19   7 -11    0.47    3.48
 -19   7  11   -1.75    4.66
 -19   7  11    3.15    4.94
  17  -7 -11    4.21    5.23
  17  -7 -11    0.07    4.74
  17  -7 -11   -0.07    4.04
  17   7 -11   -2.28    3.42
 -17   7  11   -0.85    4.35
 -17   7  11    4.17    4.96
 -17   7  11   -7.39    5.37
  15  -7 -11   -3.71    3.83
  15  -7 -11   -0.15    4.47
  15  -7 -11    0.71    4.79
 -15   7  11   -9.47    4.79
 -15   7  11   -1.13    4.55
  15   7 -11    1.72    3.36
 -15   7  11    1.99    4.45
  13  -7 -11   65.36    7.16
  13  -7 -11   58.34    6.45
  13  -7 -11   60.53    6.33
 -13   7  11   51.41    6.25
 -13   7  11   76.82    7.38
 -13   7  11   63.63    7.12
  13   7 -11   68.46    6.74
  11  -7 -11  117.78    8.54
  11  -7 -11  123.63    9.40
  11  -7 -11  125.07    8.82
 -11   7  11   96.12    8.04
 -11   7  11  131.77    9.34
   9  -7 -11    4.16    4.36
   9  -7 -11    1.17    4.47
   9  -7 -11   10.15    4.97
  -9   7  11    4.01    4.31
  -9   7  11    4.29    4.79
  -9   7  11    5.09    4.38
   7  -7 -11   14.48    5.44
   7  -7 -11   11.57    4.99
  -7   7  11   12.68    5.32
  -7   7  11   16.52    4.77
  -7   7  11   16.66    4.68
   5  -7 -11   77.66    7.55
   5  -7 -11   83.08    7.86
   5  -7 -11   89.80    6.95
  -5   7  11   88.07    7.70
  -5   7  11   81.37    7.14
  -5   7  11   75.98    7.24
   3  -7 -11   29.80    5.56
   3  -7 -11   31.52    6.25
   3  -7 -11   28.74    5.42
  -3   7  11   32.57    5.57
  -3   7  11   29.30    5.51
  -3   7  11   36.60    5.90
   1  -7 -11   83.76    7.17
   1  -7 -11   86.95    7.84
   1  -7 -11   79.31    7.88
  -1   7  11   78.50    7.01
  -1   7  11   78.38    7.63
  -1   7  11   53.50    6.48
  -1  -7 -11    8.24    4.97
  -1  -7 -11   14.49    5.19
  -1  -7 -11   10.35    5.60
   1   7  11   12.31    4.72
   1   7  11   10.58    4.57
  -3  -7 -11   55.75    7.58
  -3  -7 -11   55.06    6.99
  -3  -7 -11   46.03    6.13
   3   7  11   42.53    5.87
   3   7  11   42.73    6.16
  -5  -7 -11  156.16   10.54
  -5  -7 -11  144.30   11.38
   5   7  11  140.94    9.66
   5   7  11  154.03    9.50
  -7  -7 -11  134.07   10.07
  -7  -7 -11  103.08    9.32
   7  -7  11  111.81    6.59
   7   7  11  114.70    9.29
   7   7  11  116.22    9.11
  -9  -7 -11    8.76    6.34
  -9  -7 -11   18.09    5.72
   9  -7  11   16.07    3.76
   9   7  11   11.22    5.01
   9   7  11   10.63    5.15
 -11  -7 -11   22.85    7.14
  11  -7  11   26.65    4.83
 -11  -7 -11   45.39    7.27
  11   7  11   30.39    5.95
 -28  -8  11    4.97    5.11
  28  -8 -11   11.13    5.83
  28  -8 -11    8.26    5.65
 -28   8  11    4.30    5.92
 -28   8  11    9.31    7.19
 -28   8  11    9.11    5.98
 -26  -8  11   10.90    4.94
  26  -8 -11   17.27    5.56
  26  -8 -11    7.82    5.40
 -26   8  11    0.82    5.43
 -26   8  11    5.93    5.95
 -26   8  11   10.86    6.95
  24  -8 -11   58.94    7.01
  24  -8 -11   69.10    7.73
 -24  -8  11   70.55    6.39
 -24   8  11   91.20    8.92
 -24   8  11   69.82    7.61
 -24   8  11   69.59    8.68
  24   8 -11   56.14    6.18
  22  -8 -11   32.66    6.02
 -22  -8  11   42.42    5.28
  22  -8 -11   33.37    6.46
 -22   8  11   24.84    5.86
 -22   8  11   31.63    6.43
  22   8 -11   32.67    5.29
 -22   8  11   27.57    7.32
  20  -8 -11  147.50    9.83
  20  -8 -11  158.11   10.32
 -20  -8  11  150.99    7.70
 -20   8  11  162.88   10.63
 -20   8  11  156.33   10.73
 -20   8  11  132.00    9.77
  20   8 -11  122.55    8.44
  18  -8 -11   33.67    6.15
  18  -8 -11   30.91    5.94
 -18   8  11   20.09    5.67
 -18   8  11   33.96    7.00
 -18   8  11   39.65    6.41
  18   8 -11   35.06    5.41
  16  -8 -11   17.81    5.44
  16  -8 -11    6.40    4.92
 -16   8  11    6.64    4.97
  16   8 -11   14.40    4.42
 -16   8  11   23.55    5.73
 -16   8  11   23.07    6.30
  14  -8 -11    2.02    4.68
  14  -8 -11    0.95    4.46
  14   8 -11    5.13    4.03
 -14   8  11    4.22    5.73
 -14   8  11    5.92    5.12
 -14   8  11   -3.25    4.51
  12  -8 -11   93.87    7.44
  12  -8 -11   91.88    8.12
 -12   8  11  104.65    8.41
  12   8 -11   96.87    8.23
 -12   8  11   85.06    7.38
 -12   8  11  108.75    8.81
 -12   8  11   94.46    7.32
  10  -8 -11  293.31   11.77
  10  -8 -11  319.52   12.94
 -10   8  11  304.98   11.94
 -10   8  11  306.63   12.91
 -10   8  11  274.63   12.53
 -10   8  11  286.32   11.45
  10   8 -11  280.48   12.25
   8  -8 -11  182.62   10.41
   8  -8 -11  173.43   10.02
   8  -8 -11  176.04   13.89
  -8   8  11  155.18   10.16
  -8   8  11  171.09    9.75
  -8   8  11  204.34   10.78
   6  -8 -11  280.05   11.67
   6  -8 -11  282.47   14.27
   6  -8 -11  305.74   12.65
  -6   8  11  282.03   12.74
  -6   8  11  277.93   11.66
  -6   8  11  275.84   12.73
   4  -8 -11   61.79    6.72
   4  -8 -11   64.78    7.19
   4  -8 -11   75.54    8.66
  -4   8  11   72.86    6.89
  -4   8  11   82.48    7.81
  -4   8  11   82.43    7.90
   2  -8 -11   56.57    6.64
   2  -8 -11   55.10    7.04
   2  -8 -11   56.72    8.99
  -2   8  11   73.42    7.77
  -2   8  11   62.04    6.76
  -2   8  11   65.29    7.11
   0  -8 -11  144.06    9.97
   0  -8 -11  131.29   15.00
   0  -8 -11  135.48    9.48
   0   8  11  126.79    9.70
   0   8  11  143.96    9.46
   0   8  11  133.37    9.18
  -2  -8 -11  124.26    8.48
  -2  -8 -11  125.86    9.83
   2   8  11  130.73    9.26
   2   8  11  122.28    9.22
   2   8  11  134.81    9.77
  -4  -8 -11  139.29   10.59
  -4  -8 -11  138.22    9.88
   4   8  11  137.71    9.53
   4   8  11  141.79    9.44
  -6  -8 -11   77.97    7.71
  -6  -8 -11  101.49    9.21
   6   8  11   83.47    7.82
   6   8  11   84.84    8.14
  -8  -8 -11   48.63    6.97
  -8  -8 -11   55.81    7.76
   8   8  11   44.62    6.61
   8   8  11   50.77    7.08
 -10  -8 -11    7.97    5.95
  10  -8  11    9.35    3.87
 -10  -8 -11   -2.60    5.55
  10   8  11    1.99    4.69
  10   8  11   10.89    5.09
 -25  -9  11   21.44    5.30
  25  -9 -11   20.82    6.39
  25   9 -11   29.04    5.36
 -25   9  11   39.85    6.80
 -25   9  11   17.57    7.48
  23  -9 -11   -1.69    5.14
  23  -9 -11    2.43    7.16
 -23  -9  11    5.90    4.20
 -23   9  11    0.42    6.56
 -23   9  11    9.00    6.30
  23   9 -11    8.43    4.42
 -23   9  11    1.48    5.33
  21  -9 -11    9.73    5.45
  21  -9 -11   10.51    5.48
 -21   9  11    2.22    5.13
 -21   9  11    8.89    5.60
  21   9 -11    9.58    4.37
  19  -9 -11    8.40    5.40
  19  -9 -11    5.08    5.02
 -19   9  11    8.15    5.01
 -19   9  11   14.18    6.62
 -19   9  11   15.75    5.48
  19   9 -11   14.58    4.81
  17  -9 -11   31.98    6.07
  17  -9 -11   13.26    5.67
 -17   9  11   13.37    5.16
  17   9 -11   20.84    5.16
 -17   9  11   25.63    6.27
 -17   9  11   27.65    6.81
  15  -9 -11    1.85    4.77
  15  -9 -11  -10.98    4.83
  15   9 -11    2.55    4.00
 -15   9  11    0.20    5.57
 -15   9  11    2.34    4.84
 -15   9  11    2.71    5.03
  13  -9 -11   19.70    5.67
  13  -9 -11   22.84    5.83
 -13   9  11   27.23    4.82
 -13   9  11   26.04    5.41
  13   9 -11   20.86    5.32
 -13   9  11   31.30    6.61
 -13   9  11   28.64    6.15
  11  -9 -11   20.21    5.69
  11  -9 -11   22.29    5.77
 -11   9  11   28.47    5.27
 -11   9  11   31.46    5.73
 -11   9  11   29.60    5.97
 -11   9  11   27.43    6.50
  11   9 -11   22.45    5.43
   9  -9 -11    0.09    5.07
   9  -9 -11    9.18    5.16
   9   9 -11    4.47    4.44
  -9   9  11    6.18    5.29
  -9   9  11    4.79    4.60
  -9   9  11    2.45    4.17
  -9   9  11   10.04    4.56
   7  -9 -11    3.59    4.79
   7  -9 -11   -7.88    4.67
  -7   9  11    3.75    5.13
  -7   9  11   -0.37    4.16
  -7   9  11   -1.99    4.29
   5  -9 -11    5.82    5.10
   5  -9 -11    5.10    5.37
  -5   9  11    2.83    5.27
  -5   9  11    2.53    4.30
  -5   9  11    3.05    4.36
   3  -9 -11   81.85    7.67
   3  -9 -11   83.69    8.19
  -3   9  11   67.78    7.45
  -3   9  11   97.93    8.74
  -3   9  11   94.19    7.81
   1  -9 -11   27.65    6.02
   1  -9 -11   22.56    5.97
  -1   9  11   26.73    5.57
  -1   9  11   28.97    6.35
  -1   9  11   24.57    5.35
  -1  -9 -11   88.60    8.70
  -1  -9 -11   70.97    7.38
   1   9  11   97.30    8.78
   1   9  11   81.15    8.17
   1   9  11   86.92    7.66
  -3  -9 -11   41.20    6.61
  -3  -9 -11   34.82    7.03
   3   9  11   34.15    6.05
   3   9  11   51.59    7.34
   3   9  11   45.91    6.31
  -5  -9 -11    7.82    5.93
  -5  -9 -11   -4.68    5.26
   5   9  11   10.47    4.96
   5   9  11   11.14    6.00
   5   9  11    7.12    4.44
  -7  -9 -11   73.46    8.66
  -7  -9 -11   71.95    8.11
   7   9  11   80.82    7.97
   7   9  11  101.46    9.38
   7   9  11   80.70    7.82
  22 -10 -11   45.50    7.53
  22  10 -11   45.07    6.60
 -22  10  11   52.90    8.59
 -22  10  11   40.64    6.96
  20 -10 -11   18.72    6.32
 -20  10  11   15.34    6.82
  20  10 -11   13.48    4.88
 -20  10  11   26.34    6.08
  18 -10 -11   33.79    6.63
 -18  10  11   31.33    6.10
  18  10 -11   24.38    5.63
  16 -10 -11   71.63    8.21
  16  10 -11   69.20    7.58
 -16  10  11   63.50    7.16
 -16  10  11   68.33    8.36
  14 -10 -11    2.16    5.28
 -14  10  11   10.44    7.59
 -14  10  11    3.39    4.80
  14  10 -11    6.25    4.54
 -14  10  11   11.28    6.24
  12 -10 -11   15.15    5.76
 -12  10  11   19.40    5.52
  12  10 -11   21.54    5.32
 -12  10  11   21.88    6.92
 -12  10  11   31.64    6.54
 -12  10  11   28.72    5.27
  10 -10 -11  106.67    9.35
 -10  10  11  131.87    9.80
 -10  10  11  124.31    9.77
 -10  10  11  117.59    8.94
 -10  10  11  111.29    8.51
  10  10 -11  106.47    9.69
   8 -10 -11   52.06    7.41
  -8  10  11   55.76    7.75
  -8  10  11   60.91    7.20
  -8  10  11   47.98    6.90
   8  10 -11   45.65    7.09
  -8  10  11   62.63    7.00
  -8  10  11   50.24    6.41
   6 -10 -11   21.03    6.68
   6 -10 -11   22.01    6.08
  -6  10  11   31.56    5.44
  -6  10  11   24.55    6.10
  -6  10  11   31.48    6.57
  -6  10  11   27.53    5.86
   4 -10 -11   79.20    7.66
   4 -10 -11   88.83    8.61
  -4  10  11  104.02    8.91
  -4  10  11  100.47    8.69
  -4  10  11   81.60    7.55
   2 -10 -11   82.53    8.01
   2 -10 -11   74.00    8.42
  -2  10  11  112.94    9.58
  -2  10  11   88.03    7.75
  -2  10  11   89.86    8.34
   0 -10 -11   45.43    6.80
   0 -10 -11   36.15    7.41
   0  10  11   41.08    6.53
   0  10  11   62.22    6.89
   0  10  11   70.49    8.38
  -2 -10 -11   92.85    9.13
  -2 -10 -11   78.07    8.08
   2  10  11   87.97    7.98
   2  10  11   89.10    8.62
   2  10  11   94.36    9.24
  -4 -10 -11   41.17    7.94
  -4 -10 -11   34.79    7.01
   4  10  11   42.79    6.53
   4  10  11   57.92    8.27
  17 -11 -11   -8.10    5.22
 -17  11  11   15.43    5.58
  17  11 -11   -3.38    4.26
  15 -11 -11   18.57    6.62
 -15  11  11   34.40    6.55
  15  11 -11   24.24    6.25
  13 -11 -11    5.96    5.56
  13  11 -11    0.09    4.64
 -13  11  11    2.84    4.98
  11 -11 -11    3.85    5.48
 -11  11  11    4.58    4.62
 -11  11  11    0.78    4.79
  11  11 -11   -2.54    4.52
   9 -11 -11   -0.90    5.35
   9  11 -11   -0.49    4.37
  -9  11  11    2.43    4.73
  -9  11  11    4.28    4.81
   7 -11 -11   68.38    8.47
   7  11 -11   55.82    8.16
  -7  11  11   74.16    7.97
  -7  11  11   57.94    6.81
   5 -11 -11   -2.50    5.48
  -5  11  11    4.50    4.58
  -5  11  11   -1.97    5.19
   3 -11 -11   30.85    6.99
  -3  11  11   20.65    7.06
  -3  11  11   21.91    6.73
  -3  11  11   24.52    5.38
  -1  11  11    4.51    4.88
 -34   0  12   47.72    7.67
 -34   0  12   37.61    8.01
 -32   0  12   11.65    5.97
 -32   0  12    0.90    5.90
 -30   0  12   -4.41    4.83
 -30   0  12    5.89    5.79
 -28   0  12   13.95    5.58
 -28   0  12   15.05    5.97
 -26   0  12    2.07    4.62
 -26   0  12    5.82    5.30
 -24   0  12  183.35   10.25
 -24   0  12  194.39   10.35
 -22   0  12  338.50   12.56
 -22   0  12  325.97   12.45
 -20   0  12  200.71   10.05
 -20   0  12  183.42    9.75
 -18   0  12   81.29    6.64
 -18   0  12   80.12    6.75
  16   0 -12   13.07    4.17
 -16   0  12    8.71    4.45
 -16   0  12   15.60    4.22
 -14   0  12  398.83   12.66
 -14   0  12  381.06   13.13
  14   0 -12  402.93   12.43
 -12   0  12  592.62   16.55
 -12   0  12  608.25   16.12
 -10   0  12  115.33    7.94
 -10   0  12  140.38    7.98
  -8   0  12   49.85    5.24
  -8   0  12   50.39    5.63
  -6   0  12   -4.43    3.26
  -6   0  12    3.55    3.62
  -4   0  12   81.65    6.09
  -4   0  12   72.85    6.16
  -2   0  12  324.94   11.08
  -2   0  12  325.87   11.49
   0   0  12  196.03    9.00
   0   0 -12  186.55    9.36
   0   0  12  194.78    8.93
   2   0  12   -0.39    3.55
   2   0  12    5.26    3.62
   4   0  12   29.96    5.05
   4   0  12   25.38    4.89
   6   0  12    1.80    3.66
   6   0  12    3.67    3.73
  -6   0 -12   -0.24    4.72
   8   0  12   89.43    7.51
   8   0  12   82.72    7.21
  -8   0 -12   86.60    7.78
  10   0  12   85.71    7.69
  10   0  12   85.89    7.53
 -10   0 -12   78.40    7.79
  12   0  12   -2.02    4.66
  12   0  12   -2.86    4.10
 -12   0 -12    1.82    5.64
 -14   0 -12  189.27   12.61
  14   0  12  198.60   11.56
 -35  -1  12   18.29    7.40
 -35  -1  12   18.94    6.92
 -35   1  12   28.16    7.53
 -35   1  12   24.32    7.12
 -33  -1  12   24.83    6.64
 -33  -1  12    6.04    5.64
 -33   1  12   13.53    6.31
 -33   1  12   18.54    6.64
 -31  -1  12   14.67    6.07
 -31  -1  12    8.40    5.71
 -31   1  12   17.61    6.03
 -31   1  12    4.14    5.97
 -29  -1  12   38.06    7.06
 -29  -1  12   38.53    6.53
 -29   1  12   50.55    7.20
 -29   1  12   40.80    6.70
 -27  -1  12   20.67    5.90
 -27  -1  12   20.18    5.58
 -27   1  12   16.15    5.51
 -27   1  12   20.26    6.07
 -25  -1  12   41.25    5.85
  25  -1 -12   47.23    6.24
 -25  -1  12   44.78    6.47
 -25   1  12   48.63    6.69
 -25   1  12   37.78    6.25
  23  -1 -12   39.81    4.84
 -23  -1  12   43.52    6.26
 -23  -1  12   39.49    5.70
 -23   1  12   34.69    6.05
 -23   1  12   31.63    5.86
 -21  -1  12    3.28    4.49
 -21  -1  12    8.71    4.26
  21  -1 -12   16.49    3.56
 -21   1  12   -3.48    4.45
 -21   1  12    3.55    4.37
 -19  -1  12   60.93    5.98
 -19  -1  12   55.36    5.87
  19  -1 -12   63.45    5.30
 -19   1  12   58.12    6.27
 -19   1  12   64.96    6.56
 -17  -1  12   12.84    4.47
 -17  -1  12    8.68    3.92
  17  -1 -12    8.88    3.07
 -17   1  12   13.97    4.36
 -17   1  12   16.66    4.80
 -15  -1  12   13.03    4.28
 -15  -1  12    7.19    3.75
  15  -1 -12   12.67    3.15
 -15   1  12    5.75    4.44
 -15   1  12    2.58    3.82
 -13  -1  12   76.81    6.11
  13  -1 -12   70.86    5.38
 -13  -1  12   65.21    5.91
 -13   1  12   77.93    6.45
 -13   1  12   63.62    6.28
 -11  -1  12   -0.23    3.50
 -11  -1  12    4.25    3.52
  11  -1 -12   -1.36    2.61
 -11   1  12   -2.43    3.35
 -11   1  12    2.67    3.84
   9  -1 -12  144.58    6.91
  -9  -1  12  187.47    8.10
  -9  -1  12  149.57    8.06
   9  -1 -12  163.68    9.01
  -9   1  12  183.20    8.85
  -9   1  12  168.48    9.00
  -7  -1  12   46.96    4.99
   7  -1 -12   60.95    6.10
  -7  -1  12   43.20    4.97
   7  -1 -12   53.35    4.61
  -7   1  12   51.61    5.29
  -7   1  12   46.72    5.50
  -5  -1  12   15.90    3.69
  -5  -1  12   11.71    3.73
   5  -1 -12   14.94    4.49
   5  -1 -12   10.09    3.06
  -5   1  12   12.72    4.12
  -5   1  12   15.51    4.16
  -3  -1  12    2.89    3.37
   3  -1 -12    5.58    4.17
   3  -1 -12    1.75    2.88
  -3  -1  12   -0.86    3.26
  -3   1  12    2.55    3.55
  -3   1  12    0.16    3.55
  -1  -1  12    0.62    3.23
  -1  -1  12    3.27    3.21
   1  -1 -12    3.19    3.98
  -1   1  12    8.16    3.81
  -1   1  12    8.79    3.75
   1  -1  12   50.91    5.20
   1  -1  12   40.76    5.06
  -1  -1 -12   44.25    5.79
   1   1  12   43.22    5.34
   1   1  12   45.29    5.38
   3  -1  12   35.51    5.11
   3  -1  12   41.68    5.09
  -3  -1 -12   29.26    5.53
   3   1  12   41.20    5.35
   3   1  12   44.03    5.48
  -5  -1 -12   -2.33    4.40
   5  -1  12    5.01    3.74
   5  -1  12    2.32    3.77
   5   1  12    0.16    3.79
   5   1  12    3.52    3.98
  -7  -1 -12   54.35    7.09
   7  -1  12   67.90    6.59
   7   1  12   60.90    6.39
   7   1  12   59.67    6.54
  -9  -1 -12   26.26    6.26
   9  -1  12   11.78    4.57
   9   1  12   28.20    5.78
   9   1  12   19.36    5.32
  -9   1 -12   24.61    5.88
 -11  -1 -12   39.68    6.78
  11  -1  12   36.20    5.97
  11   1  12   43.63    6.25
 -11   1 -12   41.09    6.70
  11   1  12   46.51    6.49
  13  -1  12  104.04    8.75
  13   1  12  127.36    9.61
 -13   1 -12   86.33    8.62
  13   1  12  121.95    9.90
  15  -1  12    6.01    4.86
  15   1  12    6.12    5.52
  15   1  12   -0.65    4.53
 -15   1 -12   -2.76    5.76
  34  -2 -12   40.60    6.96
 -34  -2  12   30.13    7.54
 -34  -2  12   36.53    7.23
 -34   2  12   46.57    7.73
 -34   2  12   34.60    7.70
 -32  -2  12   20.52    6.12
 -32  -2  12   34.21    7.28
  32  -2 -12   24.01    5.92
 -32   2  12   31.77    7.08
 -32   2  12   31.03    6.89
  30  -2 -12    6.36    6.26
 -30  -2  12    2.70    5.10
 -30  -2  12   -3.82    5.78
 -30   2  12    1.88    5.43
 -30   2  12    7.92    5.97
 -28  -2  12   81.48    7.69
  28  -2 -12   70.00    6.73
 -28  -2  12   82.63    8.20
 -28   2  12   79.25    8.10
 -28   2  12   79.38    8.14
  26  -2 -12   88.26    7.08
 -26  -2  12   92.81    7.97
 -26  -2  12   76.59    7.24
 -26   2  12   94.77    8.28
 -26   2  12   87.15    8.11
 -24  -2  12   -0.92    4.56
 -24  -2  12   -0.15    4.21
  24  -2 -12    0.63    3.39
 -24   2  12    6.82    5.04
 -24   2  12   -0.69    4.60
 -22  -2  12   19.72    4.97
 -22  -2  12    9.37    4.40
  22  -2 -12    9.05    3.79
 -22   2  12   11.79    4.89
 -22   2  12   13.97    5.18
 -20  -2  12   78.64    6.58
 -20  -2  12   76.65    6.56
  20  -2 -12   80.19    6.20
 -20   2  12   83.35    7.33
 -20   2  12   76.58    7.18
  18  -2 -12   -0.99    2.82
 -18  -2  12    3.31    3.74
 -18  -2  12    4.99    3.89
 -18   2  12    1.20    4.43
 -18   2  12    5.57    4.37
 -16  -2  12   32.10    4.86
  16  -2 -12   36.01    4.49
 -16  -2  12   26.89    4.66
 -16   2  12   37.06    5.61
 -16   2  12   19.60    4.57
 -14  -2  12  462.84   13.74
  14  -2 -12  450.25   12.99
 -14   2  12  484.16   14.41
 -14   2  12  448.80   15.01
 -12  -2  12  326.13   11.63
  12  -2 -12  364.99   11.29
 -12   2  12  363.88   12.87
 -12   2  12  373.67   12.67
 -10  -2  12   40.61    4.94
  10  -2 -12   42.97    4.63
 -10   2  12   40.11    5.92
 -10   2  12   43.22    5.68
   8  -2 -12    2.93    3.12
   8  -2 -12   -0.34    3.80
  -8  -2  12    0.26    3.23
  -8   2  12   -0.76    3.98
  -8   2  12   -5.32    3.54
   6  -2 -12   48.44    4.85
  -6  -2  12   52.11    4.85
   6  -2 -12   52.37    5.99
  -6   2  12   49.42    5.66
  -6   2  12   51.19    5.69
   4  -2 -12  140.31    8.88
  -4  -2  12  148.52    7.44
   4  -2 -12  148.28    7.35
  -4   2  12  144.97    8.39
  -4   2  12  144.36    8.38
   2  -2 -12   97.24    7.13
  -2  -2  12   97.26    6.37
   2  -2 -12   88.58    6.48
  -2   2  12   93.31    7.25
  -2   2  12   94.19    7.53
   0  -2 -12   67.25    5.85
   0  -2  12   65.02    5.69
   0  -2 -12   60.13    6.39
   0   2  12   86.81    7.09
   0   2  12   65.39    6.16
  -2  -2 -12  246.86   11.26
   2  -2  12  243.11    9.78
  -2  -2 -12  271.37   10.79
   2   2  12  245.33   10.81
   2   2  12  264.87   10.70
   4  -2  12    4.40    3.34
  -4  -2 -12   -2.94    4.59
   4   2  12    1.63    3.82
   4   2  12    0.63    3.87
   6  -2  12   18.01    4.52
  -6  -2 -12   10.87    5.21
   6   2  12   15.14    4.85
   6   2  12   15.78    4.71
   8  -2  12   22.17    4.85
  -8  -2 -12   12.01    5.59
   8   2  12   26.17    5.39
   8   2  12   25.67    5.50
  10  -2  12   43.23    5.90
  10   2  12   46.98    6.65
  10   2  12   43.34    6.50
  12  -2  12  114.68    8.91
  12   2  12  102.09    8.83
  12   2  12  107.41    9.17
  14  -2  12   58.56    6.97
  14   2  12   56.84    7.46
  14   2  12   42.15    6.92
 -14   2 -12   53.51    7.50
 -33  -3  12   -3.60    5.23
  33  -3 -12   -1.14    5.25
  33  -3 -12    0.00    5.58
 -33  -3  12   -1.98    6.15
 -33   3  12    5.75    6.21
 -33   3  12   -2.53    6.27
  31  -3 -12   65.52    7.48
 -31  -3  12   51.15    7.71
 -31  -3  12   57.98    7.24
  31  -3 -12   53.06    6.89
 -31   3  12   62.19    8.09
 -31   3  12   71.00    8.29
  29  -3 -12   -4.69    4.10
 -29  -3  12    7.44    5.83
  29  -3 -12   -0.72    4.85
 -29  -3  12    3.20    4.83
 -29   3  12    3.69    5.88
 -29   3  12  -12.13    5.19
 -27  -3  12    5.34    6.54
  27  -3 -12    0.09    3.86
 -27  -3  12    6.80    4.97
  27  -3 -12   12.14    5.14
 -27   3  12   11.44    5.69
 -27   3  12   16.54    5.61
 -25  -3  12    1.93    4.52
  25  -3 -12    3.63    4.62
  25  -3 -12    8.30    4.19
 -25   3  12    3.01    5.10
 -25   3  12    1.42    5.29
 -23  -3  12    9.56    4.50
  23  -3 -12   -1.27    4.36
  23  -3 -12    6.54    3.88
 -23   3  12   10.23    5.11
 -23   3  12    8.64    5.15
  21  -3 -12   10.43    3.88
 -21  -3  12    5.63    4.02
  21  -3 -12    4.59    4.32
 -21   3  12    8.52    5.08
 -21   3  12   -2.86    4.70
  19  -3 -12   13.09    3.90
  19  -3 -12    7.96    4.34
 -19  -3  12    5.92    3.96
 -19   3  12    9.12    4.98
 -19   3  12    9.54    4.68
  17  -3 -12    1.13    3.25
 -17  -3  12   -1.61    3.39
  17  -3 -12    3.85    4.25
 -17   3  12   -1.73    4.18
 -17   3  12    1.67    4.26
 -15  -3  12   40.82    4.89
  15  -3 -12   21.79    4.14
 -15   3  12   32.26    5.37
 -15   3  12   28.96    5.51
 -13  -3  12   22.84    3.84
  13  -3 -12   24.72    4.33
 -13   3  12   22.94    5.05
 -13   3  12   27.44    5.26
  11  -3 -12  926.58   21.53
 -11  -3  12  960.38   21.17
  11  -3 -12  916.91   21.69
 -11   3  12  946.09   22.52
 -11   3  12  891.63   23.14
   9  -3 -12  247.44    9.82
   9  -3 -12  246.14   10.18
  -9  -3  12  243.40    9.19
  -9   3  12  237.96   10.61
  -9   3  12  269.77   11.89
   7  -3 -12   16.00    4.27
   7  -3 -12   30.50    5.16
  -7  -3  12   15.54    3.91
  -7   3  12   34.19    5.36
  -7   3  12   27.15    5.13
   5  -3 -12   -1.09    3.17
   5  -3 -12    2.65    4.25
  -5   3  12    0.27    3.97
  -5   3  12   -0.08    3.72
  -3  -3  12   23.41    3.81
   3  -3 -12   16.14    3.98
   3  -3 -12   20.04    5.05
  -3   3  12   26.16    4.89
  -3   3  12   18.34    4.55
   1  -3 -12   59.84    6.13
  -1  -3  12   50.61    4.85
   1  -3 -12   46.42    5.37
  -1   3  12   38.32    5.43
  -1   3  12   41.42    5.66
  -1  -3 -12   33.88    5.63
  -1  -3 -12   36.71    4.96
   1  -3  12   30.47    4.36
   1   3  12   26.87    5.05
   1   3  12   29.33    5.12
   3  -3  12  108.04    6.96
  -3  -3 -12  111.22    7.86
  -3  -3 -12  100.75    7.81
   3   3  12  113.31    8.28
   3   3  12  103.81    8.03
  -5  -3 -12    5.24    5.09
  -5  -3 -12    1.99    4.32
   5  -3  12    5.36    3.45
   5   3  12   -0.44    4.19
   5   3  12    2.00    4.31
   7  -3  12    9.29    4.02
   7   3  12   12.22    4.71
   7   3  12   13.17    4.61
   9  -3  12   -0.55    3.62
   9   3  12    1.43    4.37
   9   3  12   -1.35    4.25
  11  -3  12   25.81    5.13
  11   3  12   25.46    5.86
  11   3  12   31.64    6.10
  13  -3  12   -0.54    4.30
  13   3  12    3.62    5.16
  13   3  12   -2.81    5.01
 -34   4  12    5.31    6.62
 -32  -4  12   11.04    5.81
  32  -4 -12   10.10    5.20
  32  -4 -12   24.54    6.19
 -32   4  12   16.74    6.60
 -32   4  12   -3.65    5.86
  30  -4 -12   74.70    7.46
  30  -4 -12   50.32    6.89
 -30  -4  12   72.09    7.59
 -30   4  12   61.21    8.09
 -30   4  12   61.73    8.04
  28  -4 -12   31.08    5.47
  28  -4 -12   39.53    6.29
 -28  -4  12   31.78    5.97
 -28   4  12   24.84    6.51
 -28   4  12   30.90    6.75
  26  -4 -12   82.06    7.61
  26  -4 -12   86.09    7.85
 -26  -4  12   82.90    7.39
 -26   4  12   81.66    8.15
 -26   4  12   73.92    7.95
  24  -4 -12    3.58    4.70
 -24  -4  12    7.68    4.32
  24  -4 -12   -2.16    3.91
 -24   4  12   -0.84    4.84
 -24   4  12    7.64    5.41
 -22  -4  12    7.24    4.21
  22  -4 -12   14.99    4.28
  22  -4 -12   10.56    4.89
 -22   4  12   14.76    5.14
 -22   4  12   12.58    5.31
  20  -4 -12   67.90    6.73
  20  -4 -12   62.24    6.21
 -20  -4  12   58.06    5.76
 -20   4  12   59.26    6.94
 -20   4  12   63.99    7.06
  18  -4 -12   12.93    4.64
  18  -4 -12    0.37    3.71
 -18  -4  12   11.22    3.82
 -18   4  12   10.67    4.88
 -18   4  12    8.70    4.92
 -16  -4  12   -1.09    2.82
  16  -4 -12   -2.63    4.03
  16  -4 -12   10.12    3.93
 -16   4  12    0.73    4.38
 -16   4  12   13.37    4.83
 -16   4  12    1.59    3.99
  14  -4 -12    5.39    3.41
 -14  -4  12    0.76    2.87
  14  -4 -12   -2.56    3.90
 -14   4  12    3.27    4.40
 -14   4  12    3.24    3.75
  12  -4 -12   11.46    4.51
 -12  -4  12   10.36    3.28
  12  -4 -12   14.94    4.04
 -12   4  12   10.98    4.64
 -12   4  12   14.29    4.39
 -10  -4  12   35.05    3.98
  10  -4 -12   41.10    5.46
  10  -4 -12   40.45    4.99
 -10   4  12   32.94    5.47
 -10   4  12   32.32    5.37
   8  -4 -12    1.72    3.44
   8  -4 -12    1.53    4.08
  -8  -4  12    3.03    2.93
  -8   4  12    2.38    4.12
  -8   4  12    1.29    3.73
   6  -4 -12   33.03    5.37
   6  -4 -12   28.75    5.22
   6  -4 -12   24.34    4.65
  -6   4  12   26.58    5.00
  -6   4  12   35.37    5.32
  -4  -4  12  140.69    6.54
   4  -4 -12  142.26    9.23
   4  -4 -12  134.88    9.00
   4  -4 -12  168.71    8.79
  -4   4  12  161.84    9.24
  -4   4  12  138.10    8.77
  -2  -4  12   56.74    4.79
   2  -4 -12   48.08    6.13
   2  -4 -12   47.39    6.02
   2  -4 -12   56.74    6.06
  -2   4  12   55.27    6.14
  -2   4  12   58.70    6.09
   0  -4 -12   51.27    5.85
   0  -4 -12   37.05    5.83
   0  -4  12   42.75    4.42
   0  -4 -12   41.45    6.04
   0   4  12   35.72    5.70
   0   4  12   43.46    5.69
   2  -4  12   65.12    5.44
  -2  -4 -12   66.43    6.46
  -2  -4 -12   52.33    6.46
   2   4  12   61.16    6.57
   2   4  12   69.48    6.71
   4  -4  12   29.01    4.53
  -4  -4 -12   29.64    5.50
  -4  -4 -12   18.35    5.51
   4   4  12   19.33    5.00
   4   4  12   21.35    5.27
  -6  -4 -12    1.79    4.41
   6  -4  12   -3.56    3.28
  -6  -4 -12    0.13    5.00
   6   4  12    2.98    4.15
   6   4  12    1.68    4.13
  -8  -4 -12  228.70   13.84
   8  -4  12  195.00    9.41
  -8  -4 -12  211.19   11.67
   8   4  12  204.89   11.33
   8   4  12  199.93   11.00
  10  -4  12  270.43   11.32
  10   4  12  279.83   12.80
  10   4  12  264.63   12.83
  12  -4  12   -1.20    3.87
  12   4  12   -3.35    4.87
  12   4  12   -7.81    4.28
  14   4  12    1.50    5.12
 -33   5  12   49.20    7.96
 -31  -5  12    1.20    5.26
  31  -5 -12   -0.21    5.58
  31  -5 -12    9.91    5.07
 -31   5  12    3.71    6.15
 -31   5  12    6.18    6.19
 -29  -5  12   18.08    5.60
  29  -5 -12   10.30    5.70
  29  -5 -12   27.52    6.01
 -29   5  12   15.90    6.43
 -29   5  12   13.33    6.09
  27  -5 -12    6.80    5.15
  27  -5 -12    4.26    4.56
 -27  -5  12    8.37    4.86
 -27   5  12   -3.56    5.27
 -27   5  12    2.59    5.24
  25  -5 -12    9.59    4.64
  25  -5 -12    4.73    4.62
  25  -5 -12   13.04    5.38
 -25  -5  12    3.57    4.45
 -25   5  12    3.66    5.27
 -25   5  12   10.42    5.80
  23  -5 -12   27.91    5.89
 -23  -5  12   23.44    4.92
  23  -5 -12   26.66    5.20
  23  -5 -12   25.92    5.10
 -23   5  12   20.91    5.71
 -23   5  12   33.17    6.50
  21  -5 -12   43.79    6.29
  21  -5 -12   39.39    5.66
 -21  -5  12   48.01    5.50
  21  -5 -12   55.89    5.71
 -21   5  12   46.80    6.87
 -21   5  12   45.23    6.63
  19  -5 -12   28.62    5.69
  19  -5 -12   36.46    5.57
 -19  -5  12   32.28    4.64
 -19   5  12   19.43    5.77
 -19   5  12   29.31    5.91
  17  -5 -12   -2.68    3.94
 -17  -5  12    4.87    3.40
  17  -5 -12    2.28    3.77
  17  -5 -12    2.31    4.31
 -17   5  12    0.35    4.61
 -17   5  12    2.36    5.53
 -17   5  12    5.53    4.76
  15  -5 -12   30.46    4.90
  15  -5 -12   26.59    5.41
 -15   5  12   24.98    5.16
 -15   5  12   21.07    5.11
 -15   5  12   41.38    6.39
  13  -5 -12    7.67    4.63
  13  -5 -12    0.54    3.59
 -13   5  12    2.87    4.47
 -13   5  12    5.08    3.97
 -13   5  12    6.14    4.69
  11  -5 -12   13.07    4.11
  11  -5 -12   10.93    4.75
 -11   5  12   13.09    4.86
 -11   5  12    7.82    4.06
 -11   5  12   12.60    5.23
   9  -5 -12  192.62    9.47
   9  -5 -12  190.99   10.20
  -9   5  12  197.81   10.26
  -9   5  12  225.30   10.62
  -9   5  12  222.70   13.58
   7  -5 -12   28.36    5.52
   7  -5 -12   10.61    4.32
  -7   5  12   15.81    4.98
  -7   5  12   19.39    5.10
   5  -5 -12  119.35    8.15
   5  -5 -12  115.23    8.85
  -5   5  12  112.50    8.66
  -5   5  12  114.72    8.52
   3  -5 -12  114.47    9.03
   3  -5 -12  116.03    8.16
  -3   5  12  108.17    8.43
  -3   5  12  120.97    8.75
  -1  -5  12   39.58    4.11
   1  -5 -12   38.66    6.22
   1  -5 -12   33.08    5.51
  -1   5  12   39.18    5.77
  -1   5  12   37.77    5.75
  -1  -5 -12  157.92   10.37
  -1  -5 -12  163.89    9.41
   1  -5  12  146.45    7.02
   1   5  12  151.03    9.39
   1   5  12  153.01    9.62
   3  -5  12    1.72    3.07
  -3  -5 -12   10.40    5.19
  -3  -5 -12   -2.84    4.07
   3   5  12    2.10    4.07
   3   5  12    0.51    4.27
   5  -5  12   -0.08    3.17
  -5  -5 -12    2.81    5.08
  -5  -5 -12    6.49    4.69
   5   5  12    0.65    4.49
   5   5  12    1.35    4.04
   7  -5  12   13.85    3.89
  -7  -5 -12   10.55    5.86
  -7  -5 -12    8.61    5.00
   7   5  12   13.34    4.90
   7   5  12   19.12    5.27
  -9  -5 -12   12.26    5.92
   9  -5  12   12.57    4.16
  -9  -5 -12    8.93    5.28
   9   5  12   10.29    4.87
   9   5  12    6.46    4.90
  11  -5  12   15.80    4.82
 -11  -5 -12    8.67    6.09
  11   5  12   13.57    5.29
  11   5  12   11.17    5.43
  30  -6 -12   19.37    5.83
  30  -6 -12   10.91    7.23
 -30  -6  12   16.62    5.54
  30  -6 -12    5.57    5.32
 -30   6  12   15.24    6.82
 -30   6  12   12.30    6.31
 -28  -6  12   -0.12    4.95
  28  -6 -12   -1.62    4.51
  28  -6 -12    0.35    5.44
  28  -6 -12    1.18    4.75
 -28   6  12    3.67    5.73
 -28   6  12   -0.96    5.36
  26  -6 -12    5.02    4.85
  26  -6 -12   11.81    5.58
  26  -6 -12   11.00    5.05
 -26  -6  12   15.44    4.92
 -26   6  12    2.88    7.08
 -26   6  12    2.55    5.48
 -26   6  12   11.92    5.67
  24  -6 -12   70.14    7.40
 -24  -6  12   63.19    6.39
  24  -6 -12   56.20    7.29
  24  -6 -12   63.57    6.62
 -24   6  12   58.85    7.73
 -24   6  12   65.62    8.45
 -24   6  12   53.52    7.33
  22  -6 -12   59.39    6.21
  22  -6 -12   61.77    7.01
 -22  -6  12   69.53    6.27
  22  -6 -12   57.06    7.10
 -22   6  12   53.27    7.51
 -22   6  12   63.38    8.00
 -22   6  12   66.65    7.44
  20  -6 -12    7.00    4.37
  20  -6 -12   -0.16    4.32
  20  -6 -12    1.23    4.84
 -20  -6  12    2.19    3.64
  20   6 -12    6.56    3.40
 -20   6  12    6.84    4.98
 -20   6  12    2.64    5.08
 -20   6  12   -5.48    5.21
  18  -6 -12   17.64    5.09
  18  -6 -12   19.81    5.56
  18  -6 -12   21.09    5.02
 -18  -6  12   25.04    4.21
 -18   6  12   23.96    5.48
 -18   6  12   30.03    6.43
 -18   6  12   17.54    5.77
  16  -6 -12    3.65    5.03
  16  -6 -12   -0.65    4.20
  16  -6 -12    1.89    4.01
 -16   6  12    4.24    4.74
 -16   6  12    6.89    5.37
 -16   6  12    3.49    4.90
  14  -6 -12   -0.44    4.73
  14  -6 -12   -1.20    3.84
 -14   6  12    5.49    4.94
 -14   6  12    5.26    4.16
 -14   6  12    1.33    4.26
  12  -6 -12    2.25    4.45
  12  -6 -12   -1.20    3.78
  12  -6 -12    0.13    4.08
 -12   6  12    2.33    4.50
 -12   6  12    4.10    4.65
 -12   6  12    2.35    4.05
  10  -6 -12   19.22    4.74
  10  -6 -12   17.79    5.35
 -10   6  12   27.30    5.58
 -10   6  12   28.70    5.35
 -10   6  12   20.33    5.62
   8  -6 -12    7.61    4.56
   8  -6 -12    6.49    4.85
   8  -6 -12   12.54    4.51
  -8   6  12    4.99    3.94
  -8   6  12    7.11    4.38
  -8   6  12   14.85    5.03
   6  -6 -12    6.06    4.77
   6  -6 -12    7.35    4.45
  -6   6  12   -1.94    4.15
  -6   6  12    1.82    4.59
  -6   6  12   -0.06    3.71
   4  -6 -12   27.82    5.22
   4  -6 -12   27.96    5.94
  -4   6  12   19.56    4.87
  -4   6  12   27.34    6.40
  -4   6  12   29.66    5.30
   2  -6 -12   21.85    5.20
   2  -6 -12   26.79    5.79
  -2   6  12   22.58    5.01
  -2   6  12   15.47    4.92
   0  -6 -12   32.09    6.23
   0  -6 -12   33.44    5.82
   0  -6 -12   28.05    5.28
   0   6  12   34.58    5.75
   0   6  12   39.30    5.80
  -2  -6 -12   -5.21    4.45
  -2  -6 -12    0.20    5.00
   2   6  12   -1.30    4.18
   2   6  12    1.90    4.26
   4  -6  12   63.66    5.38
  -4  -6 -12   47.82    7.11
  -4  -6 -12   59.67    7.12
   4   6  12   63.15    7.19
   4   6  12   47.22    6.35
   6  -6  12   16.64    3.87
  -6  -6 -12   12.87    6.19
  -6  -6 -12   13.61    5.45
   6   6  12   16.79    5.31
   6   6  12   17.41    5.31
  -8  -6 -12   44.02    7.48
  -8  -6 -12   54.43    7.21
   8  -6  12   60.06    5.69
   8   6  12   67.13    7.37
   8   6  12   66.38    7.60
  10  -6  12   45.88    5.57
 -10  -6 -12   60.38    7.91
 -10  -6 -12   45.93    7.94
  10   6  12   40.99    6.91
  10   6  12   47.53    6.89
  29  -7 -12   91.86    9.04
 -29  -7  12   76.85    7.57
  29  -7 -12   59.94    7.38
 -29   7  12   88.21    9.54
 -29   7  12   84.97    9.80
 -29   7  12   58.13    7.95
 -27  -7  12  111.49    8.82
  27  -7 -12   92.01    7.97
  27  -7 -12  111.71    9.20
 -27   7  12  103.31   10.10
 -27   7  12   85.21    8.90
 -27   7  12   84.89    8.68
 -25  -7  12   -4.78    4.35
  25  -7 -12    9.63    5.16
  25  -7 -12   10.13    5.21
 -25   7  12    4.44    5.78
 -25   7  12    9.40    6.62
 -25   7  12    6.77    5.25
  23  -7 -12   49.05    8.82
  23  -7 -12   70.95    7.49
 -23  -7  12   58.20    5.92
  23  -7 -12   63.30    6.54
 -23   7  12   62.97    8.32
  23   7 -12   57.71    5.88
 -23   7  12   58.86    7.24
 -23   7  12   62.37    7.83
  21  -7 -12   62.95    7.59
  21  -7 -12   67.72    7.58
  21  -7 -12   54.54    6.64
 -21  -7  12   60.32    5.91
 -21   7  12   77.82    8.59
 -21   7  12   64.64    7.44
  21   7 -12   54.32    5.88
 -21   7  12   58.82    7.78
  19  -7 -12   11.95    4.93
  19  -7 -12    7.53    5.04
  19  -7 -12    4.69    5.20
 -19   7  12   -0.85    4.88
 -19   7  12   -4.67    5.45
 -19   7  12   -5.00    4.95
  19   7 -12    4.18    3.78
  17  -7 -12    2.42    4.58
  17  -7 -12    6.60    4.41
  17  -7 -12    3.95    5.52
 -17   7  12    0.92    5.53
 -17   7  12   -7.73    4.58
 -17   7  12    5.97    5.31
  17   7 -12    3.37    3.74
  15  -7 -12   -7.06    4.18
  15  -7 -12   -1.45    4.06
  15  -7 -12    7.03    5.16
 -15   7  12   -3.88    4.62
 -15   7  12    1.84    5.42
 -15   7  12   -3.59    4.70
  13  -7 -12   28.25    5.97
  13  -7 -12   29.49    5.62
  13  -7 -12   14.99    4.95
 -13   7  12   24.13    6.12
 -13   7  12   28.60    5.44
 -13   7  12   12.29    4.89
  11  -7 -12   66.39    6.46
  11  -7 -12   71.49    7.13
  11  -7 -12   51.49    6.98
 -11   7  12   54.40    6.98
 -11   7  12   56.47    6.55
 -11   7  12   68.64    7.36
   9  -7 -12   83.59    7.95
   9  -7 -12   62.00    6.40
   9  -7 -12   80.23    7.54
  -9   7  12   56.21    6.92
  -9   7  12   97.83    8.47
  -9   7  12   77.86    7.08
   7  -7 -12    3.44    5.20
   7  -7 -12   -1.76    4.36
   7  -7 -12    4.77    4.43
  -7   7  12    0.47    4.44
  -7   7  12   10.79    5.08
  -7   7  12   -2.65    4.00
   5  -7 -12   -0.26    4.44
   5  -7 -12   -3.74    4.41
   5  -7 -12  -10.01    4.63
  -5   7  12   -0.62    3.91
  -5   7  12    1.19    4.61
  -5   7  12    1.36    4.51
   3  -7 -12   28.02    5.72
   3  -7 -12   32.56    6.30
   3  -7 -12   22.00    5.19
  -3   7  12   29.57    5.61
  -3   7  12   36.80    6.26
  -3   7  12   25.32    5.49
   1  -7 -12   36.54    5.94
   1  -7 -12   44.95    6.64
   1  -7 -12   40.81    6.80
  -1   7  12   34.85    6.12
  -1   7  12   44.11    6.79
  -1   7  12   51.61    6.51
  -1  -7 -12    8.11    5.84
  -1  -7 -12    3.89    4.87
   1   7  12   11.68    4.85
   1   7  12    0.84    4.28
  -3  -7 -12    7.05    5.00
  -3  -7 -12    1.00    5.34
  -3  -7 -12    5.45    5.06
   3   7  12    4.63    4.70
   3   7  12    3.28    4.44
  -5  -7 -12   -2.72    5.58
  -5  -7 -12   -4.08    5.05
   5   7  12   -3.98    4.12
   5   7  12    3.32    4.69
  -7  -7 -12   -2.76    5.92
  -7  -7 -12    4.83    5.31
   7  -7  12    3.91    3.27
   7   7  12    7.03    4.93
   7   7  12    0.55    4.44
  -9  -7 -12    7.56    5.91
   9  -7  12   -1.82    3.27
  -9  -7 -12    6.20    6.44
   9   7  12    3.63    5.22
   9   7  12   -5.02    4.26
 -26  -8  12   19.99    5.05
  26  -8 -12   12.15    5.69
  26  -8 -12   13.92    5.97
 -26   8  12   13.88    7.59
 -26   8  12   10.38    6.16
 -26   8  12   23.52    6.84
 -24  -8  12    4.38    4.31
  24  -8 -12   -1.38    4.97
  24  -8 -12   -6.48    4.54
 -24   8  12   -1.03    5.22
  24   8 -12   -2.31    3.51
 -24   8  12   -0.39    6.76
 -24   8  12    1.09    5.42
  22  -8 -12    7.49    5.24
  22  -8 -12   -3.14    4.64
 -22  -8  12    0.58    3.86
 -22   8  12    8.15    5.43
  22   8 -12   -2.16    3.56
 -22   8  12    6.08    6.70
 -22   8  12   11.03    5.86
  20  -8 -12   10.58    5.38
  20  -8 -12    0.69    4.96
 -20   8  12    8.27    5.28
  20   8 -12    8.16    4.10
 -20   8  12   10.27    5.53
 -20   8  12   -3.86    6.18
  18  -8 -12   -5.65    4.75
  18  -8 -12    2.32    4.55
 -18   8  12    3.18    5.21
 -18   8  12    7.16    6.06
 -18   8  12    4.00    5.00
  18   8 -12    7.09    3.97
  16  -8 -12    5.14    4.89
  16  -8 -12    7.97    4.77
 -16   8  12    8.00    5.41
 -16   8  12   11.90    6.39
 -16   8  12    0.46    4.77
  16   8 -12    3.40    4.07
  14  -8 -12   30.63    5.70
  14  -8 -12   16.33    5.43
 -14   8  12   20.98    5.84
  14   8 -12   27.04    5.30
 -14   8  12   16.59    5.28
 -14   8  12   31.50    6.77
  12  -8 -12   89.37    7.24
  12  -8 -12   84.66    8.05
 -12   8  12   73.18    7.95
 -12   8  12   78.59    7.22
 -12   8  12   81.16    7.90
 -12   8  12   95.67    8.55
  10  -8 -12   -1.86    4.62
  10  -8 -12   -0.09    5.54
  10  -8 -12    0.80    4.50
 -10   8  12    4.00    4.48
 -10   8  12    5.23    5.19
 -10   8  12   -2.05    3.92
   8  -8 -12   14.03    5.78
   8  -8 -12   14.32    5.28
   8  -8 -12   21.72    5.49
  -8   8  12   15.11    4.82
  -8   8  12   16.15    5.36
  -8   8  12   21.90    5.77
   6  -8 -12    8.77    5.60
   6  -8 -12   -1.15    4.80
   6  -8 -12    2.56    4.74
  -6   8  12    7.75    4.53
  -6   8  12   16.87    5.80
  -6   8  12   15.85    5.07
   4  -8 -12   -5.42    4.48
   4  -8 -12    1.17    5.49
   4  -8 -12    0.95    4.62
  -4   8  12    2.06    4.40
  -4   8  12   -0.56    3.91
  -4   8  12   10.15    5.50
   2  -8 -12   -1.08    4.70
   2  -8 -12    1.49    4.81
   2  -8 -12   -7.18    5.40
  -2   8  12   -6.80    4.33
  -2   8  12    6.61    4.38
  -2   8  12    1.79    5.02
   0  -8 -12   -1.90    4.95
   0  -8 -12   -5.48    4.80
   0  -8 -12   -9.53    5.38
   0   8  12    9.67    5.59
   0   8  12    8.55    4.79
   0   8  12    7.98    4.75
  -2  -8 -12    7.65    6.72
  -2  -8 -12    0.44    5.10
   2   8  12    5.93    5.65
   2   8  12   15.37    5.20
   2   8  12   10.98    4.99
  -4  -8 -12   -2.08    4.96
  -4  -8 -12   -0.62    5.04
   4   8  12   -0.10    4.44
   4   8  12   -1.16    4.51
  -6  -8 -12   -0.76    5.70
  -6  -8 -12   -2.44    5.37
   6   8  12   -0.48    4.88
   6   8  12    5.11    4.97
  23  -9 -12   -0.71    5.34
 -23  -9  12    1.95    4.16
  23  -9 -12    3.18    5.44
 -23   9  12    7.68    5.57
  23   9 -12    0.14    3.73
 -23   9  12   -0.35    6.97
 -23   9  12   15.28    6.25
  21  -9 -12   -2.89    5.28
  21  -9 -12    2.56    5.57
 -21   9  12   -1.20    5.12
  21   9 -12    0.56    4.03
 -21   9  12   -0.18    5.25
 -21   9  12    1.38    6.71
  19  -9 -12   -6.30    4.94
  19  -9 -12    1.86    5.04
  19   9 -12    5.59    4.08
 -19   9  12    1.43    5.06
 -19   9  12    4.66    5.52
 -19   9  12    2.07    6.29
  17  -9 -12   21.10    5.89
  17  -9 -12   19.28    5.88
 -17   9  12   14.82    5.56
  17   9 -12   19.34    5.17
 -17   9  12   19.69    6.21
 -17   9  12   20.18    6.71
  15  -9 -12   14.15    5.56
  15  -9 -12   25.53    6.02
 -15   9  12   13.76    5.47
  15   9 -12   18.44    5.18
 -15   9  12   23.45    7.03
 -15   9  12   21.65    6.19
  13  -9 -12   -1.99    4.80
  13  -9 -12   -2.23    4.95
 -13   9  12    0.13    5.59
 -13   9  12    1.70    4.62
  13   9 -12    4.53    4.20
 -13   9  12    3.01    5.08
  11  -9 -12    6.80    5.38
  11  -9 -12    0.48    4.78
 -11   9  12    9.80    5.09
 -11   9  12   -1.75    5.65
 -11   9  12   -2.50    4.05
 -11   9  12    2.28    4.45
   9  -9 -12   -7.15    4.91
   9  -9 -12    5.27    5.19
  -9   9  12    7.13    5.44
  -9   9  12   -0.57    4.32
  -9   9  12    2.94    4.30
  -9   9  12    1.04    5.02
   7  -9 -12    3.51    5.05
   7  -9 -12   -5.73    4.77
  -7   9  12    0.52    4.31
  -7   9  12    5.14    5.20
  -7   9  12    5.52    4.81
   5  -9 -12   28.34    6.21
   5  -9 -12   26.47    5.96
  -5   9  12   24.33    5.49
  -5   9  12   26.94    6.72
  -5   9  12   35.52    6.33
   3  -9 -12   10.62    5.51
   3  -9 -12    8.69    5.26
  -3   9  12    6.68    4.56
  -3   9  12   12.16    5.91
  -3   9  12   10.87    5.01
   1  -9 -12    8.52    5.44
   1  -9 -12   23.41    6.42
  -1   9  12   22.42    6.51
  -1   9  12   11.71    5.20
  -1   9  12   19.01    5.23
  -1  -9 -12   -2.80    5.36
  -1  -9 -12  -15.55    4.92
   1   9  12   -3.93    4.27
   1   9  12    0.87    4.75
   1   9  12    4.58    5.84
  -3  -9 -12   -4.00    5.19
  -3  -9 -12   -2.09    5.49
   3   9  12    5.12    4.44
   3   9  12    1.92    4.85
   3   9  12    2.26    6.04
 -20  10  12    7.88    5.74
  20  10 -12   -1.82    4.23
  18 -10 -12   19.61    6.31
  18  10 -12   13.39    5.09
 -18  10  12   26.77    7.77
 -18  10  12   22.61    5.93
  16 -10 -12    7.67    5.69
 -16  10  12    7.01    6.47
  16  10 -12   13.06    5.05
 -16  10  12   16.16    5.55
  14 -10 -12   -8.02    5.46
  14 -10 -12   -5.26    5.11
 -14  10  12   -0.82    4.94
 -14  10  12    2.46    6.19
  14  10 -12   -0.30    4.32
 -14  10  12   -0.61    6.22
  12 -10 -12   12.72    5.94
  12 -10 -12    4.57    5.53
  12  10 -12    3.94    4.66
 -12  10  12    9.57    6.55
 -12  10  12   15.87    5.58
 -12  10  12    8.07    4.90
  10 -10 -12   -1.12    5.47
  10 -10 -12   13.02    5.84
 -10  10  12   18.43    5.86
 -10  10  12   13.48    5.27
 -10  10  12    4.59    4.80
 -10  10  12   18.99    6.53
   8 -10 -12   10.90    5.82
   8 -10 -12    8.75    5.72
  -8  10  12   20.12    6.55
  -8  10  12    4.35    4.60
  -8  10  12   -0.96    4.73
  -8  10  12    1.50    4.57
   6 -10 -12   -0.91    5.25
   6 -10 -12   -5.61    5.03
  -6  10  12   -3.59    4.19
  -6  10  12   -1.93    4.20
  -6  10  12    0.59    5.68
   4 -10 -12   23.95    6.63
   4 -10 -12   21.78    6.15
  -4  10  12   26.49    6.78
  -4  10  12   21.90    5.59
  -4  10  12   14.79    5.37
   2 -10 -12    7.66    5.55
   2 -10 -12   14.41    5.95
  -2  10  12    8.70    4.88
  -2  10  12    9.81    6.81
   0  10  12    2.82    4.59
   0  10  12   14.03    5.31
 -34   0  13   -0.25    6.13
 -34   0  13   -1.09    6.45
 -32   0  13    0.96    5.82
 -32   0  13   -0.61    5.50
 -30   0  13    0.96    5.58
 -30   0  13    2.47    5.30
 -28   0  13   -7.30    5.38
 -28   0  13    0.09    4.74
 -26   0  13   -2.90    5.19
 -26   0  13    1.21    4.99
 -24   0  13    0.21    5.07
 -24   0  13    1.46    4.48
 -22   0  13    2.52    4.48
 -22   0  13    1.65    4.81
 -20   0  13   -0.39    4.37
 -20   0  13    3.90    4.28
 -18   0  13   -0.17    3.52
 -18   0  13    3.71    4.39
 -18   0  13    0.16    4.05
 -16   0  13    4.61    4.03
 -16   0  13    1.27    3.43
 -14   0  13   -0.59    3.40
 -14   0  13    2.01    3.89
 -12   0  13    1.63    3.19
 -12   0  13    8.12    3.86
 -10   0  13    1.11    3.63
 -10   0  13   -5.49    3.29
  -8   0  13    4.33    3.53
  -8   0  13   -1.29    3.40
  -6   0  13   -0.64    3.29
   6   0 -13    6.01    3.90
  -6   0  13    3.50    3.53
  -4   0  13    4.09    3.61
  -4   0  13   -0.84    3.33
  -2   0  13    0.53    3.41
  -2   0  13    1.39    3.58
   0   0  13    1.83    3.57
   0   0  13   -5.09    3.58
   2   0  13   -1.45    3.84
   2   0  13    0.15    3.43
   4   0  13    6.61    4.22
   4   0  13   -2.03    3.77
  -6   0 -13    4.05    5.17
   6   0  13   -8.11    4.01
   6   0  13   -2.05    4.05
   8   0  13    2.73    4.69
   8   0  13    0.06    4.31
  -8   0 -13    0.32    5.09
  10   0  13   -4.35    4.01
  10   0  13    8.52    4.95
 -10   0 -13    6.22    5.63
  12   0  13   -0.89    4.63
  12   0  13   10.92    5.47
 -12   0 -13   -5.73    5.85
 -33  -1  13   16.96    6.63
 -33  -1  13   11.97    6.06
 -33   1  13    9.03    6.46
 -33   1  13   10.09    6.52
 -31  -1  13   55.58    7.32
 -31  -1  13   50.26    7.85
 -31   1  13   58.87    8.02
 -31   1  13   42.76    7.17
 -29  -1  13   -1.41    5.43
 -29  -1  13    0.58    5.06
 -29   1  13    2.96    5.59
 -29   1  13    0.23    5.46
 -27  -1  13   46.53    6.50
 -27  -1  13   57.27    7.53
 -27   1  13   40.26    6.90
 -27   1  13   43.54    7.06
 -25  -1  13   22.60    5.79
 -25  -1  13   27.57    5.65
 -25   1  13   24.46    5.70
 -25   1  13   26.98    6.29
 -23  -1  13   38.42    6.28
 -23  -1  13   45.94    6.07
 -23   1  13   35.90    6.15
 -23   1  13   50.78    6.82
 -21  -1  13   58.83    6.51
 -21  -1  13   57.58    6.65
 -21   1  13   62.01    7.04
 -21   1  13   49.84    6.34
 -19  -1  13   21.98    5.03
 -19  -1  13   10.78    4.53
 -19   1  13   12.70    4.66
 -19   1  13   23.48    5.52
 -17  -1  13   68.79    6.18
 -17  -1  13   48.11    5.70
 -17   1  13   62.32    6.43
 -17   1  13   57.93    6.28
 -15  -1  13   54.49    6.02
 -15  -1  13   57.60    5.72
 -15   1  13   73.05    6.91
 -15   1  13   53.36    6.10
 -13  -1  13   99.68    7.52
 -13  -1  13   79.63    6.62
 -13   1  13   80.91    6.98
 -13   1  13  108.18    8.01
 -11  -1  13  192.86    9.16
 -11  -1  13  207.09    9.02
 -11   1  13  206.45    9.55
 -11   1  13  166.87    9.78
  -9  -1  13   12.21    3.99
  -9  -1  13    3.19    3.64
  -9   1  13    6.28    4.02
  -9   1  13    4.97    3.79
  -7  -1  13   16.73    4.10
   7  -1 -13   14.64    4.78
  -7  -1  13   16.74    4.19
  -7   1  13   18.94    4.42
  -7   1  13   16.91    4.35
  -5  -1  13    1.02    3.42
  -5  -1  13    2.55    3.30
   5  -1 -13   -0.06    4.05
  -5   1  13    6.68    3.96
  -5   1  13   -1.20    3.46
  -3  -1  13    7.73    3.73
   3  -1 -13    1.69    4.17
  -3  -1  13    2.88    3.39
  -3   1  13    2.62    3.60
  -3   1  13    2.39    3.61
  -1  -1  13    7.74    3.93
   1  -1 -13    6.66    4.54
  -1  -1  13    1.02    3.57
  -1   1  13    6.92    4.05
  -1   1  13   12.18    4.15
   1  -1  13   -2.65    3.43
  -1  -1 -13    0.75    4.76
   1   1  13   -1.16    3.61
   1   1  13    4.17    3.96
  -3  -1 -13    3.15    5.07
   3  -1  13   13.18    4.37
   3   1  13    6.50    4.35
   3   1  13   13.40    4.45
   5  -1  13    2.83    3.79
  -5  -1 -13   -2.13    4.76
   5   1  13    0.56    4.14
   5   1  13   -1.27    3.78
   7  -1  13    6.17    4.35
  -7  -1 -13   -4.09    5.05
   7   1  13    5.34    4.44
   7   1  13    5.07    4.70
   9  -1  13   51.86    6.45
  -9  -1 -13   43.78    7.20
  -9   1 -13   49.00    6.90
   9   1  13   56.09    6.89
   9   1  13   48.23    6.77
  11  -1  13   29.94    6.02
  11   1  13   46.65    6.67
 -11   1 -13   18.82    6.51
  11   1  13   33.43    6.52
 -34  -2  13   11.40    7.21
 -34   2  13   13.32    7.02
 -32  -2  13    0.52    5.49
 -32  -2  13    9.09    6.15
 -32   2  13   -6.07    6.02
 -32   2  13    4.77    5.76
 -30  -2  13   40.34    7.48
 -30  -2  13   52.06    7.28
 -30   2  13   52.72    7.55
 -30   2  13   31.18    6.84
 -28  -2  13   32.94    6.13
 -28  -2  13   36.33    6.57
 -28   2  13   17.58    6.19
 -28   2  13   40.92    7.04
 -26  -2  13   11.91    5.12
 -26  -2  13    4.27    5.38
 -26   2  13   12.62    5.48
 -26   2  13    6.10    5.50
 -24  -2  13  127.76    9.21
 -24  -2  13  124.82    9.37
 -24   2  13  119.37    9.09
 -24   2  13  122.16    9.80
  22  -2 -13    5.04    3.66
 -22  -2  13    2.80    4.70
 -22  -2  13    1.19    4.20
 -22   2  13    4.67    4.83
 -22   2  13   -1.88    4.92
  20  -2 -13    0.03    3.08
 -20  -2  13    7.18    4.92
 -20  -2  13   15.05    4.56
 -20   2  13   -2.32    4.65
 -20   2  13    3.48    4.55
  18  -2 -13    3.04    3.14
 -18  -2  13    2.43    6.65
 -18  -2  13    3.81    3.92
 -18   2  13   -0.32    4.39
 -18   2  13    6.03    4.40
  16  -2 -13   24.33    3.91
 -16  -2  13   15.50    4.19
 -16   2  13   19.06    4.79
 -16   2  13   24.00    5.15
 -14  -2  13   40.56    5.20
  14  -2 -13   53.97    5.13
 -14   2  13   66.17    6.55
 -14   2  13   45.06    5.93
 -12  -2  13   17.06    4.06
  12  -2 -13   21.42    4.07
 -12   2  13    9.65    4.12
 -12   2  13   33.72    5.50
  10  -2 -13   76.10    6.03
  10  -2 -13   82.24    6.91
 -10  -2  13   77.21    6.10
 -10   2  13   74.08    6.99
 -10   2  13   74.26    6.56
   8  -2 -13   -1.69    2.97
   8  -2 -13    3.84    4.18
  -8  -2  13    5.76    3.39
  -8   2  13    1.37    3.65
  -8   2  13   -2.98    3.68
   6  -2 -13   18.40    4.75
   6  -2 -13   14.05    4.12
  -6  -2  13   14.07    3.82
  -6   2  13   16.58    4.31
  -6   2  13   12.65    4.27
   4  -2 -13    1.38    4.18
  -4  -2  13   -1.17    3.06
  -4   2  13   -2.56    3.67
  -4   2  13   -0.38    3.49
  -2  -2  13   13.35    3.70
   2  -2 -13    0.02    4.32
  -2   2  13    9.08    4.20
  -2   2  13   -1.10    3.72
   0  -2  13   30.72    4.66
   0  -2 -13   34.83    5.85
   0   2  13   29.47    5.25
   0   2  13   21.01    4.77
  -2  -2 -13   75.69    7.25
   2  -2  13   82.39    6.72
   2   2  13   69.38    6.72
   2   2  13   87.71    7.21
  -4  -2 -13   53.15    7.08
   4  -2  13   61.58    6.14
   4   2  13   58.66    6.70
   4   2  13   71.90    7.00
  -6  -2 -13   15.02    5.70
   6  -2  13    8.08    4.02
   6   2  13   12.30    4.86
   6   2  13    6.65    4.54
   8  -2  13   56.57    6.46
   8   2  13   54.69    6.63
   8   2  13   64.57    7.23
  10  -2  13  117.06    9.07
  10   2  13  112.15    9.30
  10   2  13  116.69    9.39
  12  -2  13    2.72    4.64
  12   2  13   -0.92    4.85
  12   2  13    8.37    5.57
  33  -3 -13  149.82   10.86
 -33  -3  13  149.46   11.28
 -33   3  13  161.59   12.28
 -33   3  13  166.36   12.27
 -31  -3  13   40.89    6.89
  31  -3 -13   26.35    6.20
 -31   3  13   40.35    7.38
 -31   3  13   32.98    7.41
 -29  -3  13    8.16    5.34
  29  -3 -13    8.51    5.26
 -29   3  13    1.61    5.61
 -29   3  13   10.21    5.94
 -27  -3  13   44.69    6.46
  27  -3 -13   59.00    6.84
  27  -3 -13   62.72    6.56
 -27   3  13   50.35    7.34
 -27   3  13   59.49    7.58
 -25  -3  13    0.32    4.27
  25  -3 -13    1.68    3.96
 -25   3  13    4.41    5.28
 -25   3  13    4.06    5.27
 -23  -3  13    1.55    4.31
  23  -3 -13    2.16    3.83
 -23   3  13    3.70    5.33
 -23   3  13   11.32    5.42
  21  -3 -13    4.16    3.70
 -21  -3  13    6.89    4.18
 -21   3  13    7.66    4.98
 -21   3  13    7.77    5.27
  19  -3 -13   51.25    5.59
 -19  -3  13   52.35    5.88
 -19   3  13   75.23    7.60
 -19   3  13   52.43    6.66
 -17  -3  13   77.75    6.51
  17  -3 -13   88.84    6.72
 -17   3  13   75.13    7.42
 -17   3  13   79.90    7.52
  15  -3 -13  184.78    8.81
 -15  -3  13  191.87    9.03
 -15   3  13  182.09   10.32
 -15   3  13  204.75   10.18
 -13  -3  13  215.12    9.00
  13  -3 -13  204.29    9.15
 -13   3  13  227.36   10.67
 -13   3  13  197.85   10.64
 -11  -3  13   11.18    3.69
  11  -3 -13   11.77    3.71
 -11   3  13   10.45    4.20
 -11   3  13   16.60    5.09
   9  -3 -13  112.79    7.31
   9  -3 -13  133.77    8.89
  -9  -3  13  110.11    6.92
  -9   3  13  109.16    8.42
  -9   3  13  118.64    8.86
  -7  -3  13   -3.83    2.96
   7  -3 -13    0.57    3.34
   7  -3 -13   -1.03    4.07
  -7   3  13    0.02    3.92
  -7   3  13    2.20    4.15
   5  -3 -13   -0.81    3.27
   5  -3 -13   -7.56    4.18
  -5  -3  13   -1.20    3.01
  -5   3  13    1.11    3.75
  -5   3  13   -6.73    3.75
   3  -3 -13   -4.50    3.32
  -3  -3  13    8.97    3.23
   3  -3 -13   10.40    4.52
  -3   3  13   -0.38    3.79
  -3   3  13    7.76    4.34
   1  -3 -13    3.87    4.73
  -1  -3  13   16.83    3.91
   1  -3 -13   12.92    4.79
  -1   3  13    8.84    4.31
  -1   3  13    2.76    4.07
  -1  -3 -13   24.97    5.61
   1  -3  13   19.01    4.16
   1   3  13   15.29    4.73
   1   3  13   17.33    4.96
   3  -3  13   11.27    3.95
  -3  -3 -13   12.20    6.40
   3   3  13   15.14    4.90
   3   3  13   14.27    4.80
   5  -3  13    2.78    3.58
   5   3  13    5.47    4.27
   5   3  13   13.61    4.81
   7  -3  13   89.80    7.42
   7   3  13   98.10    8.40
   7   3  13  106.07    8.79
   9  -3  13    7.08    4.40
   9   3  13   -1.41    5.13
   9   3  13    2.98    4.92
  11  -3  13    4.49    4.47
  11   3  13   -0.99    5.18
  11   3  13   -1.96    4.78
  32  -4 -13    9.17    5.80
 -32  -4  13   20.24    6.28
 -32   4  13   18.82    7.32
 -32   4  13   18.83    7.07
 -30  -4  13    3.04    5.19
  30  -4 -13   -1.45    4.33
  30  -4 -13   -0.57    5.06
 -30   4  13    9.05    6.20
 -30   4  13   -4.39    5.75
  28  -4 -13    9.79    4.73
 -28  -4  13    2.49    4.91
  28  -4 -13    4.76    4.94
 -28   4  13    5.15    5.86
 -28   4  13    2.58    5.76
  26  -4 -13   28.51    5.81
 -26  -4  13   25.82    5.67
  26  -4 -13   48.22    6.45
 -26   4  13   35.23    7.01
 -26   4  13   26.40    6.34
  24  -4 -13   30.62    5.49
  24  -4 -13   31.96    5.91
 -24  -4  13   18.25    5.22
 -24   4  13   27.13    6.28
 -24   4  13   41.06    6.71
  22  -4 -13   21.38    4.65
 -22  -4  13   20.18    4.85
  22  -4 -13   22.33    5.31
 -22   4  13   19.53    5.83
 -22   4  13   25.14    6.17
  20  -4 -13   14.90    4.54
  20  -4 -13   18.10    5.19
 -20  -4  13   11.72    4.37
 -20   4  13   11.69    5.33
 -20   4  13   21.37    5.60
  18  -4 -13   34.04    5.21
 -18  -4  13   27.37    4.67
  18  -4 -13   21.46    5.21
 -18   4  13   21.83    5.75
 -18   4  13   28.36    6.03
  16  -4 -13    6.33    3.84
 -16  -4  13    6.19    3.48
  16  -4 -13    9.62    4.58
 -16   4  13    6.35    4.15
 -16   4  13   15.44    5.06
  14  -4 -13   28.03    5.07
  14  -4 -13   36.36    5.02
 -14  -4  13   25.71    4.30
 -14   4  13   27.99    5.47
 -14   4  13   26.97    5.46
  12  -4 -13   16.39    4.89
  12  -4 -13   15.76    4.11
 -12  -4  13   14.87    3.81
 -12   4  13   16.10    5.15
 -12   4  13    8.53    4.17
 -10  -4  13   29.48    4.39
  10  -4 -13   27.80    4.77
  10  -4 -13   28.46    5.41
 -10   4  13   30.97    5.61
 -10   4  13   34.11    5.46
  -8  -4  13    6.90    3.14
   8  -4 -13    6.90    3.80
   8  -4 -13   -2.63    4.15
  -8   4  13    7.69    4.51
  -8   4  13    5.89    4.40
   6  -4 -13    5.33    3.81
   6  -4 -13   -1.09    4.54
  -6  -4  13    6.48    3.01
  -6   4  13    4.40    4.51
  -6   4  13    1.12    4.14
   4  -4 -13   12.69    4.27
  -4  -4  13   12.36    3.31
   4  -4 -13    2.73    5.92
  -4   4  13   17.04    5.12
  -4   4  13   11.53    4.77
  -2  -4  13   63.49    5.46
   2  -4 -13   59.57    6.23
  -2   4  13   60.27    6.52
  -2   4  13   50.35    6.35
   0  -4 -13   73.03    6.91
   0  -4  13   78.26    6.11
   0  -4 -13   64.88    7.07
   0   4  13   73.86    7.11
   0   4  13   65.09    6.88
   2  -4  13   22.83    4.08
  -2  -4 -13   13.55    4.71
   2   4  13   14.93    4.99
   2   4  13   15.34    5.07
   4  -4  13   75.67    6.34
   4   4  13   68.50    7.39
   4   4  13   92.47    7.92
   6  -4  13   35.00    5.16
   6   4  13   22.50    5.40
   6   4  13   33.59    5.89
   8  -4  13  268.54   11.31
   8   4  13  277.32   12.88
   8   4  13  273.19   13.26
  10  -4  13   33.62    5.58
  10   4  13   30.91    6.29
  10   4  13   47.89    7.33
  31  -5 -13    1.63    4.77
 -31  -5  13   10.73    5.65
  31  -5 -13    7.83    5.80
 -31   5  13    2.94    6.74
 -31   5  13    4.98    6.19
  29  -5 -13    4.64    4.98
  29  -5 -13   -0.75    5.42
 -29  -5  13   13.67    5.49
 -29   5  13   19.11    6.28
 -29   5  13    6.08    6.42
 -27  -5  13   23.18    5.56
  27  -5 -13   34.08    6.50
  27  -5 -13   34.54    6.00
 -27   5  13   43.69    7.18
 -27   5  13   32.86    6.95
  25  -5 -13    5.03    5.14
  25  -5 -13    6.22    4.46
 -25  -5  13   -0.59    4.44
 -25   5  13    3.91    5.64
 -25   5  13   15.39    5.92
  23  -5 -13    2.84    4.91
  23  -5 -13    3.84    4.29
 -23  -5  13    4.61    4.38
 -23   5  13   -3.80    5.31
 -23   5  13    4.82    5.18
 -21  -5  13   77.57    6.72
  21  -5 -13  102.19    8.46
  21  -5 -13   98.44    7.87
 -21   5  13   90.72    8.14
 -21   5  13   80.54    8.41
  19  -5 -13  127.60    8.71
  19  -5 -13  120.94    9.43
 -19  -5  13  129.48    7.83
 -19   5  13  125.25   10.01
 -19   5  13  122.08    9.72
 -17  -5  13   35.66    4.88
  17  -5 -13   36.91    5.59
  17  -5 -13   27.90    5.61
 -17   5  13   24.72    6.00
 -17   5  13   18.90    5.68
 -15  -5  13  103.93    6.91
  15  -5 -13  103.20    8.07
  15  -5 -13  125.24    8.29
 -15   5  13  110.32    8.51
 -15   5  13  107.43    8.95
  13  -5 -13  242.50   11.39
 -13  -5  13  244.10    9.10
  13  -5 -13  258.82   10.93
 -13   5  13  229.45   11.82
 -13   5  13  263.21   11.56
  11  -5 -13  130.21    8.48
  11  -5 -13  119.97    8.99
 -11   5  13  131.97    9.46
 -11   5  13  128.05    9.39
   9  -5 -13   -1.18    4.46
   9  -5 -13   -3.62    3.85
  -9   5  13    1.68    3.83
  -9   5  13    4.64    4.72
   7  -5 -13    7.74    4.43
   7  -5 -13   13.00    5.10
  -7   5  13    5.10    4.79
  -7   5  13    8.72    4.73
   5  -5 -13   -4.58    4.50
   5  -5 -13    1.63    3.85
  -5  -5  13    1.03    2.63
  -5   5  13   -0.37    4.30
  -5   5  13   -4.87    3.71
  -3  -5  13    3.31    2.81
   3  -5 -13   -0.49    3.98
   3  -5 -13   -4.10    4.57
  -3   5  13   -2.11    4.12
  -3   5  13   -4.09    4.14
   1  -5 -13   56.00    6.88
  -1  -5  13   70.51    5.45
   1  -5 -13   74.16    7.25
  -1   5  13   73.84    7.39
  -1   5  13   63.68    7.29
  -1  -5 -13   19.35    5.53
  -1  -5 -13   24.56    5.25
   1  -5  13   26.87    4.15
   1   5  13   27.77    5.38
   1   5  13   24.46    5.58
  -3  -5 -13    0.78    5.02
  -3  -5 -13    1.22    4.39
   3  -5  13   -1.13    2.92
   3   5  13    5.07    4.47
   3   5  13   -4.38    4.39
  -5  -5 -13   -0.87    5.32
  -5  -5 -13    2.51    5.42
   5  -5  13   -4.46    3.25
   5   5  13   10.60    4.80
   5   5  13    2.28    4.77
  -7  -5 -13    4.94    5.69
   7  -5  13   17.69    4.31
   7   5  13   16.10    5.52
   7   5  13    9.79    5.04
   9  -5  13   25.63    5.08
  -9  -5 -13   20.43    6.49
   9   5  13   23.32    6.25
   9   5  13   40.43    6.96
 -30   6  13   -3.14    5.92
  28  -6 -13   -6.41    4.65
 -28  -6  13   -2.59    4.52
  28  -6 -13    0.89    5.43
 -28   6  13    8.53    6.19
 -28   6  13   -7.16    5.72
  26  -6 -13    4.02    4.74
  26  -6 -13   10.93    5.11
  26  -6 -13    6.98    5.68
 -26  -6  13    1.47    4.46
 -26   6  13    6.29    5.89
 -26   6  13    4.79    5.63
  24  -6 -13   44.28    6.54
  24  -6 -13   37.51    6.04
 -24  -6  13   37.69    5.65
  24  -6 -13   45.69    6.81
 -24   6  13   42.23    6.95
 -24   6  13   51.48    7.32
  22  -6 -13    4.90    4.38
  22  -6 -13    3.08    5.34
 -22  -6  13    8.24    4.26
 -22   6  13   10.81    5.70
 -22   6  13    5.80    5.12
 -20  -6  13   -1.63    3.62
  20  -6 -13   -2.96    4.85
  20  -6 -13   -0.35    4.26
  20  -6 -13    4.38    4.42
 -20   6  13   -0.29    5.24
 -20   6  13    1.56    5.33
  18  -6 -13    0.69    4.93
 -18  -6  13    1.13    3.58
  18  -6 -13    2.54    4.28
  18  -6 -13    0.19    4.37
 -18   6  13    4.40    5.01
 -18   6  13   11.14    5.49
  16  -6 -13   -6.06    4.81
  16  -6 -13   -1.90    3.79
 -16   6  13    8.51    4.96
 -16   6  13   -1.42    4.95
  14  -6 -13   12.42    5.44
  14  -6 -13    7.18    4.30
 -14   6  13   12.04    5.12
 -14   6  13    9.17    4.49
  12  -6 -13    3.84    4.84
  12  -6 -13    8.66    4.44
 -12   6  13   12.60    5.07
 -12   6  13   16.91    5.17
  10  -6 -13   45.94    6.29
  10  -6 -13   57.68    6.99
 -10   6  13   65.09    7.14
 -10   6  13   50.16    6.82
   8  -6 -13  133.86    8.69
   8  -6 -13  138.35    9.20
   8  -6 -13  135.12    9.99
  -8   6  13  133.95    9.71
  -8   6  13  127.24    9.47
   6  -6 -13   69.36    7.69
   6  -6 -13   68.07    7.08
  -6   6  13   81.50    8.13
  -6   6  13   79.04    7.65
   4  -6 -13    3.82    5.25
   4  -6 -13    8.10    4.81
  -4   6  13    1.15    4.53
  -4   6  13    6.60    4.51
   2  -6 -13   17.71    5.27
   2  -6 -13   19.53    5.81
  -2   6  13   24.87    5.71
  -2   6  13   15.03    5.13
   0  -6 -13   -0.51    4.24
   0  -6 -13   -1.38    4.99
   0   6  13    5.95    4.42
   0   6  13    1.38    4.21
  -2  -6 -13   -0.97    5.17
  -2  -6 -13   -0.99    4.49
   2   6  13   -6.23    3.96
   2   6  13   -1.24    4.52
  -4  -6 -13   34.64    6.38
  -4  -6 -13   25.79    6.83
   4  -6  13   38.38    4.88
   4   6  13   42.76    6.66
   4   6  13   37.92    6.26
  -6  -6 -13   10.04    5.99
   6  -6  13   11.94    4.01
  -6  -6 -13    9.23    5.44
   6   6  13   13.82    5.53
   6   6  13   24.63    6.06
  -8  -6 -13   13.61    6.61
   8  -6  13   -4.21    3.54
   8   6  13    1.41    4.92
   8   6  13    7.99    5.47
 -27  -7  13    3.39    4.83
  27  -7 -13   -4.04    5.23
  27  -7 -13    1.13    5.13
 -27   7  13    7.98    6.56
 -27   7  13   13.44    6.18
 -25  -7  13    7.91    4.69
  25  -7 -13    8.81    5.38
  25  -7 -13    9.18    5.36
  25  -7 -13   11.43    6.89
 -25   7  13   12.72    6.59
 -25   7  13    5.40    5.85
  23  -7 -13  111.93    8.17
  23  -7 -13  135.89   10.00
 -23  -7  13  130.43    8.31
  23  -7 -13  143.36   10.91
 -23   7  13  141.17   14.29
 -23   7  13  114.17    9.45
 -23   7  13  130.91   10.52
  21  -7 -13   55.42    6.56
  21  -7 -13   55.62    7.67
 -21  -7  13   56.64    5.75
  21  -7 -13   73.28    7.81
 -21   7  13   55.43    7.15
 -21   7  13   76.03    8.52
 -21   7  13   64.77    8.89
  19  -7 -13   43.60    5.94
  19  -7 -13   37.94    6.56
  19  -7 -13   50.26    6.74
 -19   7  13   63.09    7.90
 -19   7  13   44.94    6.89
 -19   7  13   45.83    8.01
  17  -7 -13   45.89    7.09
  17  -7 -13   48.86    6.56
  17  -7 -13   42.32    5.90
 -17   7  13   30.03    6.34
 -17   7  13   50.82    7.68
 -17   7  13   39.69    7.11
  15  -7 -13  113.05    8.79
  15  -7 -13   77.49    7.06
  15  -7 -13   91.46    8.60
 -15   7  13   83.15    7.88
 -15   7  13  118.48    9.63
 -15   7  13  100.15    9.23
  13  -7 -13    5.32    4.48
  13  -7 -13   -2.61    4.61
  13  -7 -13   -0.32    4.95
 -13   7  13   -0.76    4.08
 -13   7  13    3.27    4.73
 -13   7  13    4.65    5.61
  11  -7 -13   -3.66    4.54
  11  -7 -13   11.22    4.66
  11  -7 -13    3.19    5.26
 -11   7  13    4.65    4.67
 -11   7  13   -0.06    5.72
 -11   7  13   -1.06    4.59
   9  -7 -13  113.09    9.05
   9  -7 -13  115.26    7.96
   9  -7 -13  116.90    9.21
  -9   7  13  111.40    9.40
  -9   7  13  117.59    9.28
   7  -7 -13  106.55    9.07
   7  -7 -13   84.94    8.25
  -7   7  13  110.33    8.65
  -7   7  13  117.71    9.39
   5  -7 -13  147.01   10.02
   5  -7 -13  129.10    9.89
  -5   7  13  153.78   10.14
  -5   7  13  134.33    9.87
   3  -7 -13  108.35    9.30
   3  -7 -13  116.26    9.33
  -3   7  13  117.13    8.96
  -3   7  13   93.92    8.94
   1  -7 -13   13.62    5.93
   1  -7 -13   19.54    5.64
  -1   7  13   41.29    6.44
  -1   7  13   26.94    5.81
  -1  -7 -13    5.36    5.15
  -1  -7 -13   -5.34    5.23
   1   7  13    5.87    4.61
   1   7  13    1.52    4.50
  -3  -7 -13    1.81    5.09
  -3  -7 -13   -5.76    5.73
   3   7  13    4.56    5.13
   3   7  13    1.73    4.37
   5  -7  13    7.11    3.66
  -5  -7 -13    7.49    5.65
  -5  -7 -13   -2.00    5.64
   5   7  13    8.78    5.46
   5   7  13    9.39    5.30
  24  -8 -13   48.92    7.45
  24  -8 -13   40.42    6.68
 -24  -8  13   48.18    5.90
 -24   8  13   45.29    8.73
 -24   8  13   41.66    7.15
 -24   8  13   42.27    7.85
  22  -8 -13   15.78    5.67
 -22  -8  13   20.49    4.76
  22  -8 -13   14.03    5.78
 -22   8  13   15.02    6.40
  22   8 -13    3.92    4.12
 -22   8  13   14.84    5.83
 -22   8  13   21.95    7.34
  20  -8 -13   -2.01    4.90
  20  -8 -13    0.06    4.77
  20   8 -13   -3.35    3.58
 -20   8  13    7.96    5.79
 -20   8  13    8.22    5.28
 -20   8  13    5.02    6.25
  18  -8 -13   36.53    6.20
  18  -8 -13   52.51    7.03
 -18   8  13   46.39    7.03
 -18   8  13   54.33    7.64
 -18   8  13   49.23    7.88
  16  -8 -13  125.97    9.91
  16  -8 -13  143.02    9.21
 -16   8  13  114.88    9.10
 -16   8  13  149.64   10.92
 -16   8  13  148.50   10.71
  14  -8 -13   -0.27    4.78
  14  -8 -13   -3.31    6.09
  14  -8 -13   10.34    5.00
 -14   8  13    3.97    6.03
 -14   8  13    9.26    5.24
 -14   8  13    8.67    5.53
  12  -8 -13   22.33    6.28
  12  -8 -13   25.07    5.65
  12  -8 -13   13.61    5.59
 -12   8  13   18.69    5.39
 -12   8  13   18.92    6.55
 -12   8  13   18.75    5.45
  10  -8 -13   97.26    7.75
  10  -8 -13   85.17    8.55
  10  -8 -13  112.81    9.41
 -10   8  13   79.63    8.42
 -10   8  13  100.74    8.47
 -10   8  13   96.61    8.96
   8  -8 -13    0.44    4.98
   8  -8 -13   -1.65    5.38
   8  -8 -13    0.78    4.91
  -8   8  13    4.84    5.55
  -8   8  13    9.78    4.92
  -8   8  13    0.77    4.55
   6  -8 -13    7.14    4.95
   6  -8 -13    0.57    5.62
   6  -8 -13    1.24    4.76
  -6   8  13    3.55    5.01
  -6   8  13   -2.82    4.13
  -6   8  13   17.39    5.97
   4  -8 -13   -1.79    5.02
   4  -8 -13    1.38    4.86
   4  -8 -13    6.27    5.80
  -4   8  13    5.91    5.05
  -4   8  13    8.54    5.88
  -4   8  13    6.21    4.64
   2  -8 -13   -0.48    5.43
   2  -8 -13    3.12    4.76
   2  -8 -13   -6.17    4.91
  -2   8  13    6.03    5.06
  -2   8  13   -0.37    4.56
   0  -8 -13   -2.70    5.98
   0  -8 -13    0.64    5.12
   0  -8 -13    0.96    5.09
   0   8  13   -2.92    4.36
   0   8  13   -5.98    4.56
  -2  -8 -13   19.59    7.00
  -2  -8 -13   21.20    6.54
  -2  -8 -13   20.20    6.01
   2   8  13   22.95    5.86
   2   8  13   21.01    5.85
  21  -9 -13   28.41    6.67
  21  -9 -13   27.63    6.72
 -21   9  13   26.58    6.54
  21   9 -13   25.89    5.68
 -21   9  13   30.99    7.95
  19  -9 -13   32.17    6.64
  19  -9 -13   29.90    6.37
 -19   9  13   20.14    6.07
 -19   9  13   38.43    7.21
  19   9 -13   24.24    5.48
 -19   9  13   42.91    8.00
  17  -9 -13    0.67    5.08
  17  -9 -13   -2.86    5.10
 -17   9  13   11.59    5.54
 -17   9  13    5.59    6.37
 -17   9  13    9.41    5.71
  17   9 -13   -2.63    4.07
  15  -9 -13   -0.87    5.14
  15  -9 -13    1.82    5.01
 -15   9  13   -1.85    4.75
 -15   9  13    1.62    5.55
 -15   9  13    2.32    6.42
  13  -9 -13   22.58    6.11
  13  -9 -13   13.14    5.69
 -13   9  13   14.10    5.65
 -13   9  13    9.69    5.56
 -13   9  13   12.79    6.60
  11  -9 -13  105.82    8.44
  11  -9 -13  120.69    9.86
 -11   9  13  130.95   10.26
 -11   9  13   84.60    8.84
 -11   9  13  105.76    8.80
   9  -9 -13   34.31    6.67
   9  -9 -13   52.28    7.47
  -9   9  13   52.32    6.89
  -9   9  13   54.05    7.38
  -9   9  13   71.52    8.20
   7  -9 -13   50.64    6.97
   7  -9 -13   45.56    7.28
  -7   9  13   60.44    7.84
  -7   9  13   43.53    6.76
  -7   9  13   48.89    7.36
   5  -9 -13   71.85    8.45
   5  -9 -13   78.85    7.88
  -5   9  13   93.54    9.53
  -5   9  13   69.76    7.59
  -5   9  13   83.74    8.92
   3  -9 -13  126.57   10.35
   3  -9 -13   97.30    8.60
  -3   9  13  138.96   10.17
  -3   9  13  157.08   11.46
  -3   9  13  123.31   10.10
   1  -9 -13   62.98    7.61
   1  -9 -13   67.21    8.53
  -1   9  13   64.70    8.17
  -1   9  13   72.86    7.93
  -1   9  13   77.71    8.96
 -14  10  13   57.29    7.25
  12 -10 -13   74.96    8.09
 -12  10  13   92.42    8.63
  10 -10 -13  -10.94    5.68
 -10  10  13    7.21    5.24
  -8  10  13    6.69    5.78
  -8  10  13   -2.89    4.73
  -8  10  13   13.02    5.19
 -32   0  14   91.77    9.70
 -32   0  14   75.75    8.85
 -30   0  14  173.44   11.71
 -30   0  14  171.12   11.78
 -28   0  14   -1.05    5.03
 -28   0  14   14.75    6.25
 -26   0  14   60.78    7.60
 -26   0  14   45.33    6.87
 -24   0  14   11.96    5.62
 -24   0  14   14.15    5.55
 -22   0  14  122.19    9.51
 -22   0  14  113.33    8.69
 -20   0  14   31.90    5.80
 -20   0  14   36.49    6.07
 -18   0  14  118.77    9.11
 -18   0  14  123.04    8.66
 -16   0  14   21.83    4.95
 -16   0  14   21.22    5.27
 -14   0  14    4.65    4.63
 -14   0  14   11.95    4.25
 -12   0  14  500.14   14.98
 -12   0  14  493.05   15.77
  10   0 -14  126.00    8.64
 -10   0  14  132.03    8.49
 -10   0  14  122.27    8.54
  -8   0  14   14.67    4.32
  -8   0  14   12.22    4.52
  -6   0  14   17.67    4.62
  -6   0  14   13.75    4.45
  -4   0  14    5.13    3.96
   4   0 -14    9.03    4.56
  -4   0  14    9.15    4.33
  -2   0  14   15.88    4.66
   2   0 -14   22.33    5.38
  -2   0  14   28.63    4.93
   0   0  14    0.05    3.83
   0   0  14    0.03    3.84
  -2   0 -14   -1.92    4.92
   2   0  14    9.14    4.21
   2   0  14    0.61    4.23
  -4   0 -14    1.58    4.88
   4   0  14   -3.10    4.22
   4   0  14   -5.14    3.72
   6   0  14    6.68    5.17
  -6   0 -14    3.76    5.36
   6   0  14    1.05    4.28
   8   0  14  124.34    9.78
  -8   0 -14  118.51    9.55
 -33  -1  14  113.83   10.45
 -33   1  14  103.60    9.94
 -31  -1  14   13.92    6.63
 -31  -1  14    2.32    5.62
 -31   1  14    1.44    5.88
 -31   1  14    1.98    6.11
 -29  -1  14   24.01    6.42
 -29  -1  14    7.30    5.52
 -29   1  14   20.13    6.26
 -29   1  14   12.76    6.42
 -27  -1  14   16.11    6.28
 -27  -1  14   16.44    5.74
 -27   1  14   24.86    6.44
 -27   1  14   14.84    5.60
 -25  -1  14    3.25    5.02
 -25  -1  14   -8.66    5.08
 -25   1  14    6.41    5.40
 -25   1  14    1.58    5.51
 -23  -1  14   50.61    6.86
 -23  -1  14   53.49    6.63
 -23   1  14   49.95    7.02
 -23   1  14   61.70    7.26
 -21  -1  14   42.74    6.49
 -21  -1  14   25.62    5.50
 -21   1  14   35.20    6.16
 -21   1  14   33.16    6.38
 -19  -1  14  109.14    8.12
 -19  -1  14   96.88    7.74
 -19   1  14   98.42    8.14
 -19   1  14  104.68    8.19
 -17  -1  14  280.40   11.42
 -17  -1  14  250.69   11.30
 -17   1  14  252.29   11.72
 -17   1  14  264.66   11.48
 -15  -1  14   98.16    7.87
 -15  -1  14  111.58    8.35
 -15   1  14   99.50    8.33
 -15   1  14  106.96    8.20
 -13  -1  14  131.55    9.48
 -13  -1  14  115.76    7.87
 -13   1  14  106.63    8.11
 -13   1  14  123.12    8.50
 -11  -1  14  121.10    8.09
  11  -1 -14  120.65    9.09
 -11   1  14  136.96    9.29
 -11   1  14  125.88    8.73
  -9  -1  14   96.41    7.48
   9  -1 -14   93.39    7.61
  -9   1  14  106.34    7.71
  -9   1  14   89.73    7.61
  -7  -1  14  185.20    9.16
   7  -1 -14  181.92   10.34
  -7   1  14  190.16    9.66
  -7   1  14  169.89    9.76
  -5  -1  14  147.86    8.47
   5  -1 -14  138.26    9.57
  -5   1  14  131.37    8.87
  -5   1  14  128.90    8.82
   3  -1 -14  231.01   11.07
  -3  -1  14  239.65   10.37
  -3   1  14  215.01   10.37
  -3   1  14  239.07   10.95
  -1  -1  14  212.76   10.02
   1  -1 -14  208.47   11.27
  -1   1  14  205.42   10.27
  -1   1  14  195.40   10.31
  -1  -1 -14  115.95    8.45
   1  -1  14  121.03    8.10
   1   1  14  110.23    8.57
   1   1  14  127.10    8.75
  -3  -1 -14   83.22    7.92
   3  -1  14   76.87    7.05
   3   1  14   86.63    7.68
   3   1  14   83.37    7.58
   5  -1  14  116.90    9.04
  -5  -1 -14  128.60    9.60
   5   1  14  143.33    9.93
   5   1  14  128.73    9.29
   7  -1  14   66.65    7.23
  -7  -1 -14   57.57    7.74
  -7   1 -14   53.74    7.44
   7   1  14   52.22    6.81
   7   1  14   53.48    6.93
   9  -1  14   12.38    4.95
   9   1  14   11.25    5.45
   9   1  14   22.57    5.74
  -9   1 -14    3.58    5.94
 -32  -2  14  116.35    9.86
 -32   2  14  126.84   10.66
 -32   2  14  119.17   10.67
 -30  -2  14   41.15    6.82
 -30   2  14   48.63    7.78
 -30   2  14   50.30    7.86
 -28  -2  14   -5.01    4.56
 -28   2  14    0.31    5.18
 -28   2  14   10.65    6.08
 -26  -2  14   13.78    5.28
 -26   2  14    7.72    5.56
 -26   2  14   19.11    5.95
 -24  -2  14   38.44    6.42
 -24   2  14   47.35    7.05
 -24   2  14   51.45    7.22
 -22  -2  14   -4.92    3.97
 -22   2  14   -5.10    5.15
 -22   2  14    7.48    5.03
 -20  -2  14  104.54    8.14
 -20   2  14  117.15    8.93
 -20   2  14  126.70    9.44
 -18  -2  14   55.79    6.16
 -18   2  14   61.84    7.12
 -18   2  14   51.20    6.52
 -16  -2  14   18.29    4.65
 -16   2  14   18.47    4.92
 -16   2  14   18.83    5.30
 -14  -2  14   89.26    7.15
 -14   2  14   72.96    7.27
 -14   2  14   82.72    7.57
 -12  -2  14   19.18    4.56
 -12   2  14   21.75    5.25
 -12   2  14   14.14    4.48
 -10  -2  14  117.81    7.71
  10  -2 -14  122.80    9.15
 -10   2  14  129.38    9.17
 -10   2  14  118.05    8.75
  -8  -2  14  122.45    7.71
   8  -2 -14  117.97    8.97
  -8   2  14  141.51    9.17
  -8   2  14  110.38    8.70
   6  -2 -14    0.60    4.55
  -6  -2  14    0.42    3.44
  -6   2  14    0.29    3.97
  -6   2  14    3.96    4.50
   4  -2 -14   33.04    6.03
  -4  -2  14   26.70    4.71
  -4   2  14   33.40    5.54
  -4   2  14   22.20    5.10
   2  -2 -14    6.97    5.05
  -2  -2  14   -0.43    3.53
  -2   2  14    0.36    4.13
  -2   2  14    2.56    4.08
   0  -2  14    4.01    3.61
   0  -2 -14    4.04    4.96
   0   2  14    0.48    4.29
   0   2  14    9.81    4.53
   2  -2  14    4.76    3.91
  -2  -2 -14   12.87    5.55
   2   2  14   12.60    4.82
   2   2  14   12.94    4.79
  -4  -2 -14   27.02    6.21
   4  -2  14   12.75    4.61
   4   2  14   25.25    5.36
   4   2  14   13.31    4.85
   6  -2  14   53.15    6.49
   6   2  14   51.82    6.79
   6   2  14   42.16    6.53
   8  -2  14   29.63    5.80
   8   2  14   41.66    6.41
   8   2  14   50.94    7.22
 -31  -3  14    4.51    5.37
 -31   3  14   15.09    6.79
 -31   3  14    3.02    6.38
 -29  -3  14   10.99    5.47
 -29   3  14    7.39    5.96
 -29   3  14   -1.49    6.22
 -27  -3  14   44.89    6.59
 -27   3  14   34.26    7.00
 -27   3  14   31.43    6.93
 -25  -3  14  160.90    9.90
 -25   3  14  165.16   11.45
 -25   3  14  173.91   11.18
 -23  -3  14   18.41    5.28
 -23   3  14   29.33    6.45
 -23   3  14   16.65    6.03
 -21  -3  14   22.37    5.33
 -21   3  14   27.71    6.21
 -21   3  14   39.80    6.66
  19  -3 -14   21.48    7.10
 -19  -3  14   26.89    5.30
 -19   3  14   24.51    6.05
 -19   3  14   30.85    6.10
  17  -3 -14   44.93    6.68
 -17  -3  14   30.45    5.17
 -17   3  14   31.56    5.85
 -17   3  14   32.16    6.31
 -15  -3  14  209.14    9.85
  15  -3 -14  221.32   11.21
 -15   3  14  184.65   10.97
 -15   3  14  211.11   11.06
  13  -3 -14  307.74   14.18
 -13  -3  14  314.61   11.36
 -13   3  14  318.04   12.88
 -13   3  14  308.17   13.30
 -11  -3  14  113.50    7.45
 -11   3  14  112.81    8.87
 -11   3  14  125.83    9.36
  -9  -3  14    5.34    3.47
   9  -3 -14    2.76    4.53
  -9   3  14    4.01    4.42
  -9   3  14    2.75    4.36
  -7  -3  14   23.47    4.24
   7  -3 -14   27.86    5.42
  -7   3  14   31.27    5.61
  -7   3  14   17.03    5.04
  -5  -3  14   14.56    3.91
   5  -3 -14   10.64    4.99
  -5   3  14   11.09    4.70
  -5   3  14   14.01    4.92
   3  -3 -14  106.80    8.26
  -3  -3  14  113.96    7.37
  -3   3  14  111.88    8.33
  -3   3  14  118.65    8.94
   1  -3 -14  116.79    8.93
  -1  -3  14  126.06    7.57
  -1   3  14  112.75    8.96
  -1   3  14  127.29    9.34
   1  -3  14   13.55    4.25
   1   3  14   15.52    5.07
   1   3  14    9.76    4.93
   3  -3  14   20.07    4.80
   3   3  14   21.78    5.60
   3   3  14   30.40    5.92
   5  -3  14  100.97    8.17
   5   3  14  104.60    8.82
   5   3  14  119.63    9.23
   7  -3  14    5.64    4.38
   7   3  14   -0.46    4.62
   7   3  14   -1.07    4.74
 -30  -4  14    3.30    5.28
  30  -4 -14    0.73    5.21
 -30   4  14    6.37    6.53
 -30   4  14   -0.79    6.17
  28  -4 -14    6.52    5.50
 -28  -4  14   13.97    5.27
 -28   4  14   10.56    6.17
 -28   4  14   10.35    6.39
  26  -4 -14   20.29    5.93
 -26  -4  14   28.96    5.82
  26  -4 -14   44.16    8.96
 -26   4  14   39.82    7.17
 -26   4  14   38.94    7.22
 -24  -4  14   44.93    6.13
  24  -4 -14   42.60    6.27
 -24   4  14   42.53    7.09
 -24   4  14   44.71    6.93
 -22  -4  14   71.48    6.74
  22  -4 -14   74.92    6.93
 -22   4  14   69.63    8.01
 -22   4  14   69.73    7.88
  20  -4 -14  113.71    8.85
 -20  -4  14   99.37    7.68
  20  -4 -14  112.10    8.16
 -20   4  14  104.71    9.12
 -20   4  14  127.14   10.12
 -18  -4  14   41.50    5.49
  18  -4 -14   40.96    5.54
 -18   4  14   46.58    6.73
 -18   4  14   40.32    6.73
  16  -4 -14    2.86    3.73
  16  -4 -14    8.67    4.72
 -16  -4  14    6.23    3.87
 -16   4  14    7.68    4.66
 -16   4  14    1.29    5.01
  14  -4 -14    5.80    3.84
 -14  -4  14    6.44    3.45
 -14   4  14    7.89    4.98
 -14   4  14    8.54    4.29
  12  -4 -14    0.62    4.19
 -12  -4  14    5.28    3.54
  12  -4 -14   -0.58    3.47
 -12   4  14    9.26    5.10
 -12   4  14    5.93    4.19
 -10  -4  14    3.92    3.43
  10  -4 -14    3.52    3.77
 -10   4  14    9.42    4.20
 -10   4  14    9.38    5.10
  -8  -4  14   32.25    4.46
   8  -4 -14   20.64    4.72
  -8   4  14   25.37    5.51
  -8   4  14   32.84    5.92
   6  -4 -14   26.96    5.10
  -6  -4  14   16.95    3.83
  -6   4  14   20.68    5.39
  -6   4  14   24.47    5.59
  -4   4  14    0.66    4.54
  -4   4  14    0.41    4.17
  -2  -4  14   32.92    4.55
  -2   4  14   24.32    5.46
  -2   4  14   16.34    5.23
   0  -4  14   16.73    4.14
   0   4  14   14.27    5.26
   0   4  14   16.24    5.13
   2  -4  14   19.31    4.50
   2   4  14   23.68    5.73
   2   4  14   15.01    5.22
   4  -4  14   -3.02    3.48
   4   4  14    0.45    4.83
   4   4  14   -5.74    4.18
   6  -4  14   42.01    5.79
   6   4  14   46.20    6.94
   6   4  14   50.03    7.30
 -29  -5  14    7.65    5.42
  29  -5 -14    7.38    5.76
  29  -5 -14   -7.88    4.82
 -29   5  14   -0.43    5.89
 -29   5  14   -1.44    6.21
 -27  -5  14    0.19    4.72
  27  -5 -14    2.28    4.28
  27  -5 -14   -1.16    5.14
 -27   5  14   -0.09    5.73
 -27   5  14    4.48    6.25
  25  -5 -14   94.94    8.69
 -25  -5  14  111.53    8.81
  25  -5 -14  103.75    8.52
 -25   5  14  105.67    9.31
 -25   5  14  104.50    9.60
 -23  -5  14  136.35    8.85
  23  -5 -14  120.93    9.56
  23  -5 -14  119.59    8.80
 -23   5  14  115.55    9.88
 -23   5  14  109.41    9.36
  21  -5 -14    4.14    4.13
  21  -5 -14    1.09    4.97
 -21  -5  14    6.27    4.25
 -21   5  14    5.41    5.73
 -21   5  14    6.44    5.52
 -19  -5  14    1.85    3.75
  19  -5 -14   -3.63    4.55
  19  -5 -14    5.23    4.17
 -19   5  14    1.17    5.11
 -19   5  14   -4.10    5.07
  17  -5 -14    0.10    4.78
 -17  -5  14    3.41    3.46
  17  -5 -14   11.39    4.42
 -17   5  14    2.82    5.14
 -17   5  14    8.08    5.15
  15  -5 -14    1.14    4.45
  15  -5 -14   -1.35    3.82
 -15  -5  14    0.84    3.42
 -15   5  14    0.28    4.89
 -15   5  14    3.82    4.45
  13  -5 -14   15.16    4.52
  13  -5 -14    9.17    5.00
 -13  -5  14   16.91    3.72
 -13   5  14   19.42    5.56
 -13   5  14    9.92    4.91
  11  -5 -14  188.50   10.06
  11  -5 -14  174.50   10.33
 -11   5  14  187.15   11.21
 -11   5  14  194.64   11.00
   9  -5 -14   41.34    6.13
   9  -5 -14   52.35    6.36
  -9   5  14   41.43    6.54
  -9   5  14   42.35    6.46
  -7  -5  14    3.19    3.10
   7  -5 -14   -1.28    4.64
   7  -5 -14    0.99    3.97
  -7   5  14   10.44    5.07
  -7   5  14    2.14    4.83
   5  -5 -14   64.38    7.27
   5  -5 -14   82.73    7.32
  -5   5  14   68.61    7.53
  -5   5  14   83.46    7.68
   3  -5 -14   13.27    4.73
   3  -5 -14   12.60    5.29
  -3  -5  14   10.49    3.43
  -3   5  14   22.14    5.66
  -3   5  14   16.69    5.31
  -1  -5  14   12.89    3.84
   1  -5 -14   10.88    5.52
  -1   5  14   12.41    5.00
  -1   5  14   14.88    5.33
  -1  -5 -14    2.62    5.15
   1  -5  14    2.87    3.24
   1   5  14    1.89    4.28
   1   5  14    1.49    4.63
  -3  -5 -14   -2.88    5.14
   3  -5  14   -0.85    3.34
   3   5  14   -0.46    4.87
   3   5  14    0.22    4.56
   5  -5  14    3.62    3.65
   5   5  14    4.15    5.05
   5   5  14    7.22    5.27
 -28   6  14    8.19    6.44
 -26  -6  14    6.11    4.77
  26  -6 -14    3.93    5.50
  26  -6 -14    1.09    4.66
 -26   6  14    8.74    6.27
 -26   6  14    3.84    6.13
 -24  -6  14  101.55    7.88
  24  -6 -14  108.07    9.10
  24  -6 -14  104.47    9.06
 -24   6  14  133.57   10.57
 -24   6  14  108.55    9.44
  22  -6 -14   57.91    7.65
 -22  -6  14   66.15    6.60
  22  -6 -14   69.14    7.27
 -22   6  14   60.73    7.62
 -22   6  14   65.63    8.12
  20  -6 -14    5.29    5.46
 -20  -6  14    3.89    3.92
  20  -6 -14   -2.49    4.03
 -20   6  14    3.03    6.01
 -20   6  14    0.86    5.19
 -18  -6  14   12.51    4.08
  18  -6 -14   12.89    5.66
  18  -6 -14   12.15    4.79
 -18   6  14   14.55    5.84
 -18   6  14   14.16    5.96
  16  -6 -14   -1.68    4.78
  16  -6 -14    7.90    4.41
 -16   6  14   -4.50    4.86
 -16   6  14    2.13    4.81
  14  -6 -14   28.67    6.05
  14  -6 -14   23.55    5.29
 -14   6  14   35.66    6.26
 -14   6  14    7.89    5.22
  12  -6 -14    0.10    4.20
  12  -6 -14    7.26    5.20
 -12   6  14   11.60    5.04
 -12   6  14   -0.41    4.36
  10  -6 -14   -1.98    4.61
  10  -6 -14   -4.14    4.07
 -10   6  14    5.58    4.77
 -10   6  14    4.06    4.30
   8  -6 -14   -3.02    4.30
   8  -6 -14    0.20    5.07
  -8   6  14    2.56    4.87
  -8   6  14    4.02    4.40
   6  -6 -14    2.57    4.43
   6  -6 -14    0.99    5.11
  -6   6  14   -0.88    4.79
  -6   6  14    5.04    4.53
   4  -6 -14   46.66    6.50
   4  -6 -14   43.24    6.84
  -4   6  14   50.00    6.87
  -4   6  14   32.61    5.87
   2  -6 -14   69.40    7.95
   2  -6 -14   71.56    7.44
  -2   6  14   56.88    7.40
  -2   6  14   79.63    8.02
   0  -6  14   11.18    3.54
   0  -6 -14    0.15    5.45
   0  -6 -14    3.09    4.74
   0   6  14   -0.03    4.95
   0   6  14    5.53    5.02
  -2  -6 -14    4.83    5.87
   2  -6  14    6.29    3.43
   2   6  14    2.34    4.74
   2   6  14    3.84    5.28
   4  -6  14    1.03    3.54
  -4  -6 -14   -4.07    5.65
   4   6  14   -5.66    4.69
   4   6  14   -3.26    4.31
  25  -7 -14   54.30    7.63
  25  -7 -14   55.89    8.09
 -25  -7  14   61.02    6.82
 -25   7  14   52.50    7.70
 -25   7  14   53.24    8.33
  23  -7 -14   -3.22    4.89
 -23  -7  14    2.08    4.17
  23  -7 -14   -1.79    5.57
 -23   7  14    7.86    6.44
 -23   7  14   -2.19    5.43
  21  -7 -14   -2.64    5.36
 -21  -7  14    9.21    4.11
  21  -7 -14   -0.04    4.80
 -21   7  14    8.60    6.12
 -21   7  14   -3.50    5.07
 -19  -7  14    4.96    3.84
  19  -7 -14   12.34    5.65
  19  -7 -14   -4.06    4.28
 -19   7  14   -2.09    5.14
 -19   7  14    5.44    5.77
  17  -7 -14   17.56    5.32
  17  -7 -14   12.08    5.74
 -17   7  14   25.14    6.52
 -17   7  14   30.38    6.27
  15  -7 -14   55.42    7.55
  15  -7 -14   48.16    6.80
 -15   7  14   61.62    7.12
 -15   7  14   68.13    8.14
  13  -7 -14    5.83    4.84
  13  -7 -14    5.51    4.78
  13  -7 -14   -9.53    4.81
 -13   7  14    4.80    4.94
 -13   7  14    6.46    4.97
  11  -7 -14   18.15    5.99
  11  -7 -14   10.26    4.97
 -11   7  14    6.96    5.09
 -11   7  14   14.53    5.40
   9  -7 -14    6.38    4.64
   9  -7 -14    0.49    5.37
  -9   7  14    5.27    5.06
  -9   7  14    5.14    4.93
   7  -7 -14    0.15    5.24
   7  -7 -14    3.82    4.65
  -7   7  14    3.13    4.72
  -7   7  14    2.57    4.84
   5  -7 -14    0.84    5.52
   5  -7 -14   -1.08    4.60
  -5   7  14    1.05    4.87
  -5   7  14    7.69    4.70
   3  -7 -14   16.95    6.34
   3  -7 -14    5.74    4.92
  -3   7  14   13.03    5.44
  -3   7  14   15.81    5.77
   1  -7 -14   10.62    6.14
   1  -7 -14    9.71    5.27
  -1   7  14   11.69    5.62
  -1   7  14    1.79    4.63
  -1  -7 -14    0.23    5.05
  -1  -7 -14   -6.60    5.54
   1   7  14    3.39    5.35
   1   7  14   -3.59    4.44
  22  -8 -14   29.98    6.35
 -22   8  14   24.05    6.66
  20  -8 -14    0.54    5.14
  20  -8 -14   -2.37    5.25
 -20   8  14   -2.56    5.22
 -20   8  14    4.66    6.24
  18  -8 -14    1.05    5.21
  18  -8 -14   -3.54    4.99
 -18   8  14    7.13    5.22
 -18   8  14   10.12    6.18
  16  -8 -14   83.99    9.15
  16  -8 -14   94.20    8.81
  16  -8 -14   82.90    7.66
 -16   8  14   94.60    9.43
 -16   8  14   84.28    8.36
  14  -8 -14  109.64    8.20
  14  -8 -14  123.24    9.97
  14  -8 -14  124.91   10.07
 -14   8  14  110.65    9.22
 -14   8  14  112.40    9.87
  12  -8 -14    5.15    5.99
  12  -8 -14   14.71    5.33
 -12   8  14    9.71    5.30
 -12   8  14    6.67    5.31
  10  -8 -14   20.08    6.49
  10  -8 -14   25.25    6.01
 -10   8  14   25.78    6.18
 -10   8  14   19.11    5.95
   8  -8 -14   -2.05    5.58
   8  -8 -14   -1.94    5.02
  -8   8  14    1.94    4.88
  -8   8  14    3.49    5.05
   6  -8 -14   58.55    8.13
   6  -8 -14   69.05    8.18
  -6   8  14   61.02    7.60
  -6   8  14   62.48    8.36
   4  -8 -14   25.23    7.12
   4  -8 -14   17.61    5.91
   4  -8 -14   29.03    6.48
  -4   8  14   32.69    6.48
  -4   8  14   25.71    6.29
   2  -8 -14   71.27    8.32
   2  -8 -14   59.71    8.45
  -2   8  14   67.67    8.08
  -2   8  14   71.13    8.33
  15  -9 -14   35.96    6.66
 -15   9  14   45.65    7.29
  13  -9 -14   -7.11    5.23
 -13   9  14    6.51    5.22
  11  -9 -14    8.78    5.70
 -11   9  14    7.28    5.29
 -11   9  14    6.86    5.17
   9  -9 -14   15.47    5.91
  -9   9  14   36.01    6.79
  -9   9  14   22.32    6.09
 -30   0  15   -6.07    5.45
 -30   0  15   -2.65    6.53
 -28   0  15   -3.59    5.69
 -28   0  15    9.22    5.51
 -26   0  15    2.39    5.28
 -26   0  15    5.67    5.83
 -24   0  15    0.18    5.44
 -24   0  15   -4.40    4.59
 -22   0  15    1.98    5.44
 -22   0  15   -2.89    4.67
 -20   0  15   -8.56    4.33
 -20   0  15    6.66    5.02
 -18   0  15    0.80    3.66
 -18   0  15   -3.67    4.40
 -16   0  15   -1.87    3.83
 -16   0  15   -1.03    4.56
 -14   0  15   -1.08    3.62
 -14   0  15   -6.21    4.46
 -12   0  15   -1.55    3.62
 -12   0  15    8.15    4.60
 -10   0  15    1.11    3.89
 -10   0  15   -2.72    4.07
  -8   0  15   -3.51    4.17
  -8   0  15   -3.44    3.63
  -6   0  15    0.98    3.74
  -6   0  15    0.10    4.79
  -4   0  15   -0.99    3.91
  -2   0  15    0.41    3.86
   0   0 -15    2.80    4.77
   0   0  15   -3.35    3.80
   2   0  15    3.61    4.27
  -2   0 -15    1.24    5.32
   4   0  15    1.33    4.27
  -4   0 -15   10.33    5.59
  -6   0 -15   -4.70    5.74
   6   0  15   -0.96    4.47
 -31  -1  15   -2.92    6.20
 -31   1  15    6.59    6.78
 -29  -1  15    4.92    6.31
 -29  -1  15    7.44    5.59
 -29   1  15   14.44    6.50
 -29   1  15   13.95    6.67
 -27  -1  15   11.49    6.87
 -27  -1  15    7.35    5.34
 -27   1  15   -2.15    5.15
 -27   1  15    5.40    6.07
 -25  -1  15    1.31    4.92
 -25   1  15   -4.93    4.76
 -25   1  15   -0.88    5.34
 -23  -1  15   -2.86    4.62
 -23   1  15    9.56    5.85
 -23   1  15    4.87    5.02
 -21  -1  15   25.22    5.83
 -21   1  15   39.95    6.37
 -21   1  15   32.77    6.40
 -19  -1  15    1.27    4.10
 -19   1  15   -0.19    4.46
 -19   1  15   -1.27    3.78
 -19   1  15    2.68    5.12
 -17  -1  15   -0.94    3.76
 -17   1  15   -1.15    4.78
 -17   1  15    1.17    3.85
 -15  -1  15    1.11    3.61
 -15   1  15    2.01    4.93
 -15   1  15   -1.32    3.78
 -13  -1  15   -1.12    3.31
 -13   1  15   -0.12    3.65
 -13   1  15    0.48    4.66
  11  -1 -15   36.12    6.15
 -11  -1  15   33.00    5.45
 -11   1  15   39.54    6.16
 -11   1  15   18.31    5.34
  -9  -1  15    3.78    4.01
   9  -1 -15    5.48    4.94
  -9   1  15    9.77    4.62
  -9   1  15    2.61    4.41
  -7  -1  15    5.98    4.10
   7  -1 -15    6.20    5.07
  -7   1  15    7.18    4.19
  -7   1  15   18.50    4.98
  -5  -1  15   11.00    4.27
   5  -1 -15   19.27    5.44
  -5   1  15   16.56    5.09
  -5   1  15    6.67    4.25
  -3  -1  15   31.72    5.32
   3  -1 -15   30.11    5.97
  -3   1  15   40.34    5.95
  -3   1  15   35.73    5.70
   1  -1 -15   14.66    5.22
  -1  -1  15    0.66    3.77
  -1   1  15   -0.67    4.30
  -1   1  15   -0.22    3.85
   1  -1  15   12.89    4.74
  -1  -1 -15    7.79    5.54
   1   1  15   18.71    5.33
   1   1  15   13.97    4.73
  -3  -1 -15    8.17    5.80
   3  -1  15    2.31    3.91
   3   1  15    0.41    4.30
   3   1  15    4.06    4.37
   5  -1  15    6.12    4.31
  -5  -1 -15    0.91    5.90
   5   1  15    4.96    5.09
   5   1  15    0.88    4.58
 -30  -2  15   35.08    7.15
 -30   2  15   32.55    7.44
 -30   2  15   41.41    7.83
 -28  -2  15    5.75    5.16
 -28   2  15   -5.60    5.32
 -28   2  15   -1.58    5.98
 -26  -2  15   14.97    5.42
 -26   2  15    6.78    6.24
 -26   2  15   18.36    6.54
 -24  -2  15    3.13    4.88
 -24   2  15   11.05    5.52
 -24   2  15    8.95    6.06
 -22  -2  15    7.45    4.97
 -22   2  15   -4.46    4.94
 -22   2  15    6.62    5.71
 -20  -2  15    2.86    4.62
 -20   2  15    9.46    5.03
 -20   2  15   -5.95    4.99
 -18  -2  15   35.77    5.73
 -18   2  15   42.54    6.88
 -18   2  15   35.83    6.16
 -16  -2  15   25.05    5.18
 -16   2  15   19.47    5.85
 -16   2  15   21.06    5.49
 -14  -2  15  110.26    7.99
 -14   2  15  108.61    8.55
 -14   2  15  113.62    9.10
 -12  -2  15  226.57   10.76
 -12   2  15  208.68   11.03
 -12   2  15  216.29   11.32
  10  -2 -15   24.18    6.01
 -10  -2  15   14.55    4.40
 -10   2  15   15.04    4.96
 -10   2  15   22.97    5.63
  -8  -2  15   18.48    4.48
   8  -2 -15   13.04    5.39
  -8   2  15   13.38    5.08
  -8   2  15   14.80    4.92
  -6  -2  15   56.68    6.03
   6  -2 -15   67.37    7.30
  -6   2  15   74.40    7.34
  -6   2  15   81.12    7.72
  -4  -2  15   67.51    6.38
   4  -2 -15   83.26    8.05
  -4   2  15   64.32    6.96
  -4   2  15   79.46    7.56
  -2  -2  15   20.51    4.61
   2  -2 -15   18.13    5.85
  -2   2  15   18.18    5.12
  -2   2  15   17.46    5.37
   0  -2  15   21.38    4.93
   0  -2 -15   23.84    6.10
   0   2  15   23.67    5.76
   0   2  15   30.31    5.75
   2  -2  15   40.36    5.88
  -2  -2 -15   37.54    9.55
   2   2  15   49.29    6.80
   2   2  15   45.00    6.49
   4  -2  15    2.39    4.21
   4   2  15   -1.49    4.68
   4   2  15    7.88    4.85
 -29  -3  15   18.25    6.14
 -29   3  15   17.54    6.92
 -29   3  15   13.11    6.66
 -27  -3  15   -1.55    4.84
 -27   3  15   -1.61    5.73
 -27   3  15    6.63    5.88
 -25  -3  15   40.24    6.43
 -25   3  15   42.60    7.29
 -25   3  15   56.34    8.01
 -23  -3  15    7.34    4.80
 -23   3  15    9.83    5.71
 -23   3  15    9.94    5.71
 -21  -3  15    4.17    4.56
 -21   3  15    7.55    5.78
 -21   3  15    8.47    5.17
 -19  -3  15    8.80    4.60
 -19   3  15    7.90    5.30
 -19   3  15    8.35    5.36
 -17  -3  15    0.30    3.72
 -17   3  15  -10.02    4.77
 -17   3  15   -4.20    3.88
 -15  -3  15  105.21    7.93
 -15   3  15  112.33    8.89
 -15   3  15   86.35    8.41
 -13  -3  15   72.87    6.71
 -13   3  15   72.09    7.70
 -13   3  15   59.67    7.57
 -11  -3  15   50.47    5.70
 -11   3  15   42.79    6.36
 -11   3  15   59.86    7.20
  -9  -3  15    3.40    3.65
   9  -3 -15   -1.64    5.01
  -9   3  15   -1.62    4.24
  -9   3  15   -3.00    4.51
   7  -3 -15    4.80    5.05
  -7  -3  15    2.54    3.82
  -7   3  15   11.19    5.07
  -7   3  15    5.86    4.80
  -5  -3  15   13.88    4.11
   5  -3 -15   10.98    7.05
  -5   3  15   12.08    5.16
  -5   3  15   15.01    5.07
  -3  -3  15   71.24    6.33
  -3   3  15   79.47    7.55
  -3   3  15   65.57    7.21
  -1  -3  15    7.44    4.03
  -1   3  15    3.75    4.50
  -1   3  15    1.20    4.86
   1  -3  15    4.09    3.83
   1   3  15   10.54    4.95
   1   3  15    4.62    4.95
   3  -3  15   11.30    4.65
   3   3  15    7.58    5.22
   3   3  15    5.86    4.83
   5  -3  15    3.52    4.44
   5   3  15    9.63    5.72
   5   3  15   14.92    5.42
 -28  -4  15    4.62    5.04
 -28   4  15   -3.96    6.18
 -28   4  15  -10.75    5.83
 -26  -4  15    0.38    5.01
 -26   4  15    1.05    5.82
 -26   4  15    4.95    6.31
 -24  -4  15    2.90    4.65
 -24   4  15   -4.68    5.45
 -24   4  15   -9.15    5.48
 -22  -4  15   32.65    5.79
 -22   4  15   35.09    7.07
 -22   4  15   29.25    6.64
 -20  -4  15   48.98    6.07
 -20   4  15   46.53    7.34
 -20   4  15   32.69    6.68
 -18  -4  15   32.70    5.39
 -18   4  15   33.80    6.57
 -18   4  15   38.74    6.73
 -18   4  15   32.96    6.67
 -16  -4  15   80.60    7.14
 -16   4  15   87.63    8.61
 -16   4  15   99.92    8.75
 -14  -4  15   13.96    4.30
 -14   4  15   21.55    5.78
 -14   4  15   17.14    5.67
 -12  -4  15  144.58    8.55
 -12   4  15  128.99   10.12
 -12   4  15  136.38   10.10
 -10  -4  15  239.36   10.18
 -10   4  15  279.21   12.81
 -10   4  15  273.04   12.82
  -8  -4  15   90.00    7.07
  -8   4  15   93.24    8.93
  -8   4  15   93.95    8.35
  -6  -4  15  104.63    7.40
  -6   4  15   91.44    8.73
  -6   4  15  117.04    9.11
  -4  -4  15  120.10    7.60
  -4   4  15  125.22    9.85
  -4   4  15  115.27    9.63
  -2  -4  15  167.95    8.70
  -2   4  15  175.75   10.96
  -2   4  15  174.98   10.98
   0  -4  15   91.07    7.19
   0   4  15   95.81    8.66
   0   4  15   79.83    8.02
   2  -4  15   63.42    6.64
   2   4  15   60.25    7.80
   2   4  15   59.66    7.39
  27  -5 -15   -5.32    5.32
 -27   5  15   -4.22    6.00
  25  -5 -15    6.14    5.68
 -25  -5  15    7.74    4.93
 -25   5  15    2.47    5.89
 -25   5  15    4.36    6.01
  23  -5 -15    9.39    5.51
 -23  -5  15    4.49    4.69
 -23   5  15    7.39    6.23
 -23   5  15   10.04    6.22
  21  -5 -15   33.83    6.37
 -21  -5  15   37.76    5.86
 -21   5  15   40.23    7.36
 -21   5  15   25.24    6.63
  19  -5 -15    1.34    6.38
  19  -5 -15    0.11    4.83
 -19  -5  15    0.62    4.06
 -19   5  15    2.71    5.59
 -19   5  15    2.28    5.55
  17  -5 -15   23.10    5.74
  17  -5 -15   25.77    6.45
 -17  -5  15   29.28    4.87
 -17   5  15   20.92    6.12
 -17   5  15   23.89    6.28
 -17   5  15   19.98    6.13
  15  -5 -15    2.14    4.83
  15  -5 -15   -1.64    4.42
 -15  -5  15    4.75    3.69
 -15   5  15    1.59    5.32
 -15   5  15    0.42    4.62
 -13  -5  15   45.76    5.32
  13  -5 -15   41.18    6.37
 -13   5  15   45.96    7.19
 -13   5  15   60.64    7.54
  11  -5 -15   35.18    6.21
 -11  -5  15   28.37    4.42
 -11   5  15   42.87    7.07
 -11   5  15   51.75    7.07
  -9   5  15   39.07    6.62
  -9   5  15   35.06    6.27
  -7  -5  15    6.35    3.49
   7  -5 -15    5.70    5.10
  -7   5  15    7.61    5.36
  -7   5  15    2.17    4.88
  -5  -5  15   49.67    5.12
  -5   5  15   54.73    7.25
  -5   5  15   58.74    7.33
   3  -5 -15   18.54    5.74
  -3  -5  15   25.95    4.43
  -3   5  15   19.50    5.57
  -3   5  15   21.82    5.92
  -1  -5  15   -4.18    3.06
  -1   5  15   -0.72    4.51
  -1   5  15    1.27    5.20
   1  -5  15    5.86    3.94
   1   5  15    4.51    5.10
   1   5  15    9.22    5.47
 -24  -6  15   71.76    7.20
  24  -6 -15   70.25    8.47
  24  -6 -15   45.17    7.20
 -24   6  15   63.54    8.04
 -24   6  15   61.47    8.41
  22  -6 -15   53.07    7.08
  22  -6 -15   45.77    7.33
 -22  -6  15   48.99    6.18
 -22   6  15   45.58    7.76
 -22   6  15   53.60    8.36
 -20  -6  15    7.92    4.43
  20  -6 -15    9.17    5.62
  20  -6 -15    1.52    4.47
 -20   6  15   17.89    6.77
 -20   6  15   -2.64    5.67
  18  -6 -15   32.20    6.49
  18  -6 -15   33.78    6.04
 -18  -6  15   30.55    5.29
 -18   6  15   45.57    7.31
 -18   6  15   35.74    7.24
 -16  -6  15   79.85    6.70
  16  -6 -15   70.83    7.47
  16  -6 -15   77.18    7.96
 -16   6  15   75.50    8.84
 -16   6  15   82.00    8.44
 -14  -6  15  213.65    9.59
  14  -6 -15  209.09   11.99
  14  -6 -15  212.18   11.28
 -14   6  15  217.92   12.16
 -14   6  15  229.18   13.03
  12  -6 -15   64.90    7.59
  12  -6 -15   68.72    7.41
 -12   6  15   80.80    8.32
 -12   6  15   66.17    8.35
  10  -6 -15   47.34    6.97
  10  -6 -15   49.81    6.70
 -10   6  15   60.12    7.61
 -10   6  15   55.85    7.77
   8  -6 -15  334.13   14.16
   8  -6 -15  308.27   13.71
  -8   6  15  322.93   14.03
  -8   6  15  286.85   14.23
   6  -6 -15  252.02   12.89
  -6   6  15  242.24   12.77
  -6   6  15  272.94   13.74
   4  -6 -15   62.05    7.80
  -4   6  15   80.01    8.42
  -4   6  15   68.60    8.05
   2  -6 -15   34.98    7.12
  -2   6  15   38.51    6.72
  -2   6  15   50.93    7.44
   0   6  15   44.29    7.16
  21  -7 -15   -4.69    5.31
 -21   7  15    2.24    5.88
  19  -7 -15    9.64    5.37
  19  -7 -15   10.54    5.91
 -19   7  15    7.94    5.87
 -19   7  15   12.98    6.53
  17  -7 -15   17.05    6.07
  17  -7 -15   29.41    6.26
 -17   7  15   18.10    6.15
 -17   7  15   14.14    6.66
  15  -7 -15   68.10    7.44
  15  -7 -15   82.30    8.76
 -15   7  15   69.19    7.77
 -15   7  15   59.41    8.34
 -15   7  15   57.19    8.13
  13  -7 -15   -3.08    5.39
  13  -7 -15    0.80    4.71
 -13   7  15   13.52    5.67
 -13   7  15    5.40    5.51
  11  -7 -15    4.97    5.67
  11  -7 -15   14.40    5.27
 -11   7  15   -0.10    5.05
 -11   7  15    6.74    5.31
   9  -7 -15    6.71    5.67
   9  -7 -15   -1.00    4.69
  -9   7  15    3.11    5.06
  -9   7  15    3.93    5.42
   7  -7 -15   50.72    7.76
   7  -7 -15   60.95    7.39
  -7   7  15   49.99    7.48
  -7   7  15   49.68    7.66
   5  -7 -15   74.55    8.12
   5  -7 -15   61.79    8.39
  -5   7  15   98.84    9.16
  -5   7  15   74.88    8.62
 -12   8  15   92.53    8.87
 -28   0  16  113.86   10.08
 -28   0  16  136.30   10.78
 -26   0  16  149.89   11.45
 -26   0  16  144.52   11.03
 -24   0  16   60.32    8.11
 -24   0  16   53.96    7.38
 -22   0  16   16.50    6.30
 -22   0  16   12.35    5.42
 -20   0  16    6.87    5.66
 -20   0  16   13.06    5.36
 -18   0  16   63.69    7.34
 -16   0  16   69.15    7.51
 -14   0  16   26.11    5.33
 -12   0  16   13.91    4.82
  10   0 -16   13.18    5.24
 -10   0  16   11.92    4.71
  -8   0  16   64.64    7.22
   8   0 -16   64.80    7.34
   6   0 -16  204.62   11.29
  -6   0  16  193.28   10.67
  -4   0  16   75.34    7.32
   4   0 -16   97.32    8.29
   2   0 -16   23.46    5.96
  -2   0  16   32.05    5.94
   0   0  16   35.30    6.25
  -2   0 -16   63.95    7.65
   2   0  16   63.98    7.47
 -27  -1  16   21.98    6.29
 -27   1  16   12.21    6.60
 -27   1  16   22.97    6.98
 -25  -1  16   -1.24    4.99
 -25   1  16   11.48    5.94
 -25   1  16    4.56    5.88
 -23  -1  16   14.14    5.72
 -23   1  16    2.58    5.50
 -23   1  16    4.44    5.88
 -21  -1  16    6.45    5.29
 -21   1  16   20.76    5.88
 -21   1  16   11.23    5.68
 -19  -1  16   72.40    7.45
 -19   1  16   73.34    7.93
 -19   1  16   46.81    6.90
 -17  -1  16    4.03    4.04
 -17   1  16    0.65    4.20
 -17   1  16   -2.37    5.12
 -15  -1  16   21.90    5.37
 -15   1  16   16.44    5.28
 -15   1  16   26.99    6.21
 -13  -1  16    0.71    3.77
 -13   1  16    2.55    4.99
 -13   1  16    0.45    3.94
 -11  -1  16    0.48    3.86
 -11   1  16    6.47    4.52
 -11   1  16    3.60    4.77
   9  -1 -16    7.65    5.03
  -9  -1  16    5.09    4.22
  -9   1  16    0.41    4.58
  -9   1  16    4.88    4.44
   7  -1 -16   20.33    5.60
  -7  -1  16   24.27    5.22
  -7   1  16   17.44    5.15
  -7   1  16   29.51    5.91
   5  -1 -16   51.84    6.97
  -5  -1  16   44.06    6.07
  -5   1  16   39.32    6.02
  -5   1  16   51.10    6.76
   3  -1 -16   31.91    6.50
  -3  -1  16   19.18    5.27
  -3   1  16   22.43    5.33
  -3   1  16   39.18    6.48
  -1  -1  16   17.58    5.09
   1  -1 -16   16.42    5.83
  -1   1  16   17.66    5.51
  -1   1  16   16.30    5.25
   1  -1  16    4.86    4.13
  -1  -1 -16   -0.87    5.68
   1   1  16    3.59    4.43
 -28   2  16    9.15    6.66
 -26  -2  16   59.48    7.68
 -26   2  16   57.80    8.22
 -26   2  16   48.28    7.54
 -24  -2  16   48.76    7.13
 -24   2  16   61.00    8.14
 -24   2  16   70.82    8.27
 -22  -2  16   28.05    6.18
 -22   2  16   35.96    7.08
 -22   2  16   28.11    6.65
 -20  -2  16   48.82    6.64
 -20   2  16   60.28    7.77
 -20   2  16   58.35    7.56
 -18  -2  16   84.39    7.97
 -18   2  16   98.41    8.94
 -18   2  16   94.02    8.94
 -16  -2  16    6.93    4.60
 -16   2  16   12.40    4.99
 -16   2  16   10.88    5.60
 -14  -2  16   20.29    5.05
 -14   2  16   10.67    4.91
 -14   2  16   18.43    5.64
 -12  -2  16   24.29    5.20
 -12   2  16   28.58    5.71
 -12   2  16   19.28    5.62
  10  -2 -16  100.81    8.76
 -10  -2  16  103.77    8.26
 -10   2  16  104.48    8.63
 -10   2  16   92.62    8.88
  -8  -2  16  119.77    8.68
   8  -2 -16  115.96    9.26
  -8   2  16  124.58    9.55
  -8   2  16  127.49    9.50
   6  -2 -16   82.12    8.21
  -6  -2  16  104.74    8.41
  -6   2  16  109.45    8.82
  -6   2  16  101.85    8.78
  -4  -2  16  134.37    9.12
   4  -2 -16  161.76   10.99
  -4   2  16  134.14    9.88
  -4   2  16  151.54   10.19
   2  -2 -16   43.53    8.39
  -2  -2  16   36.64    5.77
  -2   2  16   45.47    6.95
  -2   2  16   42.10    6.51
   0  -2  16    3.62    4.27
   0   2  16    5.71    4.79
   0   2  16    0.63    4.64
 -27   3  16    5.28    6.66
 -25  -3  16    6.52    5.19
 -25   3  16    8.49    6.44
 -25   3  16    1.39    6.00
 -23  -3  16   36.34    6.31
 -23   3  16   29.30    7.02
 -23   3  16   41.38    7.54
 -21  -3  16   -6.10    4.27
 -21   3  16    5.29    5.40
 -21   3  16   -2.02    5.67
 -19  -3  16    0.91    4.00
 -19   3  16   -0.91    5.11
 -19   3  16    2.99    5.52
 -19   3  16    2.84    4.75
 -17  -3  16   91.47    8.20
 -17   3  16   97.60    9.44
 -17   3  16  106.34    9.28
 -15  -3  16  160.24    9.69
 -15   3  16  136.43   10.84
 -15   3  16  175.20   10.95
 -13  -3  16   -0.97    3.86
 -13   3  16    0.85    4.46
 -13   3  16   -0.53    5.03
 -11  -3  16    3.32    3.70
 -11   3  16    4.13    4.38
 -11   3  16   -3.84    4.72
  -9  -3  16   12.35    4.28
  -9   3  16   20.95    5.51
  -9   3  16   19.31    5.69
  -7  -3  16   24.01    4.77
  -7   3  16   18.98    5.68
  -7   3  16   16.23    5.25
  -5  -3  16    5.31    3.99
  -5   3  16   -1.38    4.67
  -5   3  16    3.34    4.62
  -3  -3  16    6.76    4.23
  -3   3  16   15.20    5.25
  -3   3  16   33.45    6.35
  -1  -3  16   72.46    6.94
  -1   3  16   52.21    7.29
  -1   3  16   82.94    8.29
 -24  -4  16   37.66    6.33
 -24   4  16   21.02    7.11
 -24   4  16   29.18    7.32
 -22  -4  16   -4.06    4.48
 -22   4  16   -0.31    5.61
 -22   4  16    2.70    6.10
 -20  -4  16   12.54    4.79
 -20   4  16   15.73    6.30
 -20   4  16   10.40    6.06
 -18  -4  16   27.14    5.71
 -18   4  16   20.92    6.35
 -18   4  16   19.96    6.13
 -16  -4  16  126.54    9.12
 -16   4  16  145.63   10.80
 -16   4  16  118.36   10.57
 -14  -4  16    6.90    4.01
 -14   4  16   13.53    5.89
 -14   4  16    9.88    5.66
 -12  -4  16   10.27    4.31
 -12   4  16    0.46    5.19
 -12   4  16    0.39    4.93
 -10  -4  16  138.36    8.39
 -10   4  16  115.17    9.96
 -10   4  16  144.70   10.73
  -8  -4  16   96.41    7.65
  -8   4  16   81.90    9.20
  -8   4  16   90.44    8.61
  -6  -4  16    6.42    4.01
  -6   4  16    6.53    4.74
  -6   4  16    1.76    5.14
  -4  -4  16   12.26    4.34
  -4   4  16    8.02    5.22
  -4   4  16   15.27    5.74
  -2  -4  16   -2.74    3.57
  -2   4  16   -3.39    5.05
  -2   4  16   -2.82    4.65
 -23   5  16   51.49    8.08
  21  -5 -16   43.00    6.68
 -21  -5  16   46.57    6.37
 -21   5  16   27.67    7.72
 -21   5  16   41.60    7.51
  19  -5 -16   23.43    6.30
 -19  -5  16   18.31    5.08
 -19   5  16   23.93    6.95
 -19   5  16   25.12    6.60
 -17  -5  16    7.44    4.36
  17  -5 -16   17.91    5.77
 -17   5  16   11.33    5.68
 -17   5  16   22.19    6.22
 -15  -5  16    4.94    4.05
 -15   5  16   15.13    5.97
 -15   5  16    6.15    5.18
 -13  -5  16   89.29    7.31
 -13   5  16   99.52    9.17
 -13   5  16   83.73    9.28
 -11  -5  16   10.32    3.86
 -11   5  16   18.03    5.92
 -11   5  16    7.44    5.46
  -9  -5  16   -1.77    3.38
  -9   5  16    0.51    5.18
  -9   5  16    3.52    4.76
  -7  -5  16   11.21    4.09
  -7   5  16   13.42    6.07
  -7   5  16    9.77    5.61
  -5  -5  16   63.31    6.00
  -5   5  16   61.91    8.01
  -5   5  16   76.26    8.41
  18  -6 -16   27.15    6.65
 -18  -6  16   30.41    5.42
 -18   6  16   26.50    6.58
 -18   6  16   48.74    8.03
 -16  -6  16   90.59    7.66
  16  -6 -16   89.91    8.70
 -16   6  16  106.02   10.22
 -16   6  16  120.04    9.71
 -14  -6  16   52.85    6.26
  14  -6 -16   63.10    7.84
 -14   6  16   67.51    8.39
 -14   6  16   67.45    8.46
 -12  -6  16   13.71    4.11
 -12   6  16   10.62    6.15
 -12   6  16    8.83    5.50
 -10   6  16   -0.13    5.64
 -10   6  16    3.51    5.03
   8  -6 -16    3.09    5.32
  -8   6  16    3.25    5.47
  -8   6  16    5.52    5.20
 -24   0  17   -0.37    5.61
 -22   0  17    3.31    5.30
 -20   0  17   -5.35    4.72
 -20   0  17   -3.67    4.22
 -18   0  17    0.06    4.24
 -16   0  17   -5.77    3.84
 -14   0  17    3.41    4.26
 -12   0  17    0.92    4.02
 -10   0  17    1.66    4.17
  -8   0  17    3.55    4.51
  -6   0  17    8.51    4.52
  -4   0  17    1.25    4.56
 -23  -1  17    4.81    5.59
 -23   1  17   -1.58    5.27
 -23   1  17    2.60    6.23
 -21  -1  17    4.46    5.40
 -21   1  17   -1.57    5.56
 -21   1  17   16.47    5.96
 -19  -1  17   44.39    7.00
 -19   1  17   46.54    7.77
 -19   1  17   52.20    7.44
 -17  -1  17    3.79    5.06
 -17   1  17    7.96    5.67
 -17   1  17   15.68    5.42
 -15  -1  17    8.40    4.64
 -15   1  17    6.96    4.62
 -15   1  17   10.94    5.51
 -13  -1  17   -0.48    3.98
 -13   1  17    6.85    4.49
 -13   1  17    3.32    5.64
 -11  -1  17   -5.98    3.70
 -11   1  17    2.48    4.28
   9  -1 -17   21.16    6.30
  -9  -1  17   22.23    5.29
  -9   1  17   21.15    5.60
  -7  -1  17   26.46    5.72
   7  -1 -17   22.91    6.40
  -7   1  17   22.22    5.78
   5  -1 -17    4.88    5.74
  -5  -1  17   14.50    4.79
  -5   1  17    7.14    4.93
 -22  -2  17    3.70    5.24
 -22   2  17    4.20    6.20
 -22   2  17   -5.38    5.37
 -20  -2  17    6.41    5.10
 -20  -2  17    6.54    4.92
 -20   2  17   18.77    6.03
 -20   2  17   17.66    6.39
 -18  -2  17   14.27    5.05
 -18   2  17   13.09    6.01
 -18   2  17   12.08    5.59
 -16  -2  17   58.21    7.24
 -16   2  17   67.27    8.51
 -16   2  17   73.04    8.28
 -14  -2  17    2.01    3.90
 -14   2  17   -4.03    5.11
 -14   2  17    5.42    4.71
 -12  -2  17   17.92    5.20
 -12   2  17   18.58    6.00
 -12   2  17   14.06    5.05
 -10  -2  17   71.52    7.52
 -10   2  17   82.90    8.77
 -10   2  17   94.92    8.70
  -8  -2  17    7.69    4.57
   8  -2 -17    7.37    7.71
  -8   2  17    7.39    4.92
  -8   2  17    6.80    5.31
  -6  -2  17   10.01    4.69
  -6   2  17   16.42    6.14
  -6   2  17    5.30    4.83
 -21  -3  17    5.99    5.18
 -21   3  17   -1.40    5.64
 -21   3  17   12.88    6.34
 -19  -3  17    9.54    4.84
 -19   3  17   11.29    5.74
 -19   3  17    3.98    5.28
 -19   3  17   15.88    6.24
 -17  -3  17   14.06    5.26
 -17   3  17   20.96    6.35
 -17   3  17   20.10    6.04
 -15  -3  17   14.11    4.72
 -15   3  17   17.15    6.14
 -15   3  17   26.79    6.48
 -13  -3  17    7.92    4.15
 -13   3  17   18.25    6.03
 -13   3  17    6.28    5.31
 -11  -3  17   53.02    6.48
 -11   3  17   68.50    8.07
 -11   3  17   66.23    8.21
  -9  -3  17   79.84    7.73
  -9   3  17   65.37    8.55
  -9   3  17   94.74    8.90
  -7  -3  17    9.39    4.47
  -7   3  17   12.75    5.32
  -7   3  17   15.10    6.05
 -18  -4  17    6.79    4.58
 -18   4  17    2.24    6.01
 -18   4  17    2.70    5.16
 -16  -4  17  101.28    8.91
 -16   4  17  111.42    9.87
 -16   4  17   98.85   10.19
 -14  -4  17   10.08    4.63
 -14   4  17   13.59    6.39
 -14   4  17   10.40    6.03
 -12  -4  17   13.68    4.79
 -12   4  17    2.29    5.59
 -12   4  17   23.75    6.61
 -10  -4  17   19.52    4.77
 -10   4  17   39.73    7.22
 -10   4  17    9.79    5.42


 _exptl_absorpt_process_details 'SADABS 2014/4'
 _exptl_absorpt_correction_type   multiscan
 _exptl_absorpt_correction_T_max  0.9485
 _exptl_absorpt_correction_T_min  0.8686
 _exptl_special_details
)
 The following wavelength and cell were deduced by SADABS from the
 direction cosines etc. They are given here for emergency use only:
 CELL 0.71109   30.186   11.744   14.277   90.118  113.192   89.919
)

_computing_structure_solution     'SHELXT 2014/4 (Sheldrick, 2014)'
;
_shelx_hkl_checksum              68730
loop_
_space_group_symop_operation_xyz
'x, y, z'
'-x, y, -z+1/2'
'x+1/2, y+1/2, z'
'-x+1/2, y+1/2, -z+1/2'
'-x, -y, -z'
'x, -y, z-1/2'
'-x+1/2, -y+1/2, -z'
'x+1/2, -y+1/2, z-1/2'
loop_
_atom_site_label
_atom_site_type_symbol
_atom_site_fract_x
_atom_site_fract_y
_atom_site_fract_z
_atom_site_U_iso_or_equiv
_atom_site_adp_type
_atom_site_occupancy
_atom_site_site_symmetry_order
_atom_site_calc_flag
_atom_site_refinement_flags_posn
_atom_site_refinement_flags_adp
C1 C 0.77487(6) 0.40029(15) 0.74460(12) 0.0141(3) Uani 1 1 d . .
H1 H 0.7710 0.3157 0.7344 0.017 Uiso 1 1 calc R U
C2 C 0.82903(6) 0.42738(16) 0.78992(13) 0.0181(4) Uani 1 1 d . .
H2A H 0.8442 0.3896 0.7477 0.022 Uiso 1 1 calc R U
H2B H 0.8334 0.5109 0.7862 0.022 Uiso 1 1 calc R U
C3 C 0.85475(6) 0.38886(15) 0.90020(13) 0.0169(4) Uani 1 1 d . .
C4 C 0.90983(7) 0.39744(17) 0.94367(14) 0.0219(4) Uani 1 1 d . .
C5 C 0.93010(7) 0.38824(18) 1.06083(14) 0.0255(4) Uani 1 1 d . .
H5A H 0.9654 0.3766 1.0871 0.031 Uiso 1 1 calc R U
H5B H 0.9242 0.4611 1.0895 0.031 Uiso 1 1 calc R U
C6 C 0.90774(7) 0.29088(18) 1.09767(15) 0.0270(5) Uani 1 1 d . .
H6A H 0.9231 0.2861 1.1734 0.032 Uiso 1 1 calc R U
H6B H 0.9134 0.2176 1.0692 0.032 Uiso 1 1 calc R U
C7 C 0.85372(7) 0.31084(17) 1.06339(14) 0.0224(4) Uani 1 1 d . .
H7A H 0.8382 0.2383 1.0696 0.027 Uiso 1 1 calc R U
H7B H 0.8484 0.3673 1.1098 0.027 Uiso 1 1 calc R U
C8 C 0.83003(6) 0.35340(15) 0.95485(13) 0.0162(4) Uani 1 1 d . .
C9 C 0.77561(6) 0.35436(15) 0.91286(12) 0.0151(4) Uani 1 1 d . .
H9A H 0.7652 0.3771 0.9682 0.018 Uiso 1 1 calc R U
H9B H 0.7636 0.2759 0.8910 0.018 Uiso 1 1 calc R U
C10 C 0.75271(6) 0.43591(14) 0.82176(13) 0.0143(4) Uani 1 1 d . .
C11 C 0.69770(6) 0.42570(15) 0.77829(12) 0.0149(4) Uani 1 1 d . .
C12 C 0.66912(7) 0.52030(16) 0.77556(13) 0.0193(4) Uani 1 1 d . .
H12 H 0.6841 0.5917 0.8012 0.023 Uiso 1 1 calc R U
C13 C 0.61931(7) 0.51207(17) 0.73606(14) 0.0222(4) Uani 1 1 d . .
H13 H 0.6000 0.5767 0.7349 0.027 Uiso 1 1 calc R U
C14 C 0.59834(6) 0.40781(17) 0.69834(14) 0.0223(4) Uani 1 1 d . .
C15 C 0.62526(7) 0.31176(16) 0.70004(13) 0.0199(4) Uani 1 1 d . .
H15 H 0.6099 0.2410 0.6736 0.024 Uiso 1 1 calc R U
C16 C 0.67514(6) 0.32061(15) 0.74106(13) 0.0173(4) Uani 1 1 d . .
H16 H 0.6942 0.2550 0.7440 0.021 Uiso 1 1 calc R U
C17 C 0.69257(6) 0.41337(15) 0.54935(12) 0.0154(4) Uani 1 1 d . .
C18 C 0.65261(6) 0.48417(16) 0.52567(13) 0.0181(4) Uani 1 1 d . .
H18 H 0.6563 0.5612 0.5488 0.022 Uiso 1 1 calc R U
C19 C 0.60719(7) 0.44015(17) 0.46750(14) 0.0219(4) Uani 1 1 d . .
H19 H 0.5796 0.4879 0.4504 0.026 Uiso 1 1 calc R U
C20 C 0.60137(7) 0.32677(17) 0.43365(13) 0.0214(4) Uani 1 1 d . .
C21 C 0.64229(7) 0.25813(16) 0.45737(14) 0.0205(4) Uani 1 1 d . .
H21 H 0.6388 0.1813 0.4339 0.025 Uiso 1 1 calc R U
C22 C 0.68782(6) 0.30105(15) 0.51475(13) 0.0179(4) Uani 1 1 d . .
H22 H 0.7155 0.2542 0.5303 0.022 Uiso 1 1 calc R U
C23 C 0.55177(7) 0.2804(2) 0.37156(16) 0.0323(5) Uani 1 1 d . .
H23A H 0.5388 0.3173 0.3041 0.048 Uiso 1 1 calc R U
H23B H 0.5304 0.2961 0.4071 0.048 Uiso 1 1 calc R U
H23C H 0.5537 0.1976 0.3630 0.048 Uiso 1 1 calc R U
C24 C 0.93121(8) 0.3028(2) 0.89939(17) 0.0355(5) Uani 1 1 d . .
H24A H 0.9228 0.2279 0.9185 0.053 Uiso 1 1 calc R U
H24B H 0.9664 0.3107 0.9269 0.053 Uiso 1 1 calc R U
H24C H 0.9181 0.3095 0.8245 0.053 Uiso 1 1 calc R U
C25 C 0.92501(7) 0.51451(19) 0.91664(17) 0.0328(5) Uani 1 1 d . .
H25A H 0.9154 0.5197 0.8423 0.049 Uiso 1 1 calc R U
H25B H 0.9601 0.5229 0.9512 0.049 Uiso 1 1 calc R U
H25C H 0.9092 0.5755 0.9392 0.049 Uiso 1 1 calc R U
N1 N 0.54531(6) 0.39917(18) 0.65267(13) 0.0330(4) Uani 1 1 d . .
O1 O 0.78119(4) 0.42751(11) 0.56891(9) 0.0184(3) Uani 1 1 d . .
O2 O 0.74712(5) 0.58886(10) 0.63248(9) 0.0202(3) Uani 1 1 d . .
O3 O 0.76700(5) 0.55113(10) 0.85231(9) 0.0177(3) Uani 1 1 d . .
H3 H 0.7736 0.5583 0.9152 0.027 Uiso 1 1 calc R U
O4 O 0.52707(5) 0.30735(16) 0.61716(14) 0.0479(5) Uani 1 1 d . .
O5 O 0.52169(6) 0.48471(18) 0.65174(16) 0.0593(6) Uani 1 1 d . .
S1 S 0.75080(2) 0.46755(4) 0.62010(3) 0.01431(12) Uani 1 1 d . .
loop_
_atom_site_aniso_label
_atom_site_aniso_U_11
_atom_site_aniso_U_22
_atom_site_aniso_U_33
_atom_site_aniso_U_23
_atom_site_aniso_U_13
_atom_site_aniso_U_12
C1 0.0196(9) 0.0127(8) 0.0116(8) 0.0019(6) 0.0079(7) 0.0012(7)
C2 0.0199(9) 0.0209(9) 0.0150(9) 0.0011(7) 0.0085(7) -0.0012(7)
C3 0.0186(9) 0.0163(9) 0.0150(8) 0.0001(7) 0.0057(7) 0.0014(7)
C4 0.0194(10) 0.0262(11) 0.0189(9) 0.0039(8) 0.0062(8) 0.0012(8)
C5 0.0210(10) 0.0295(11) 0.0209(10) 0.0031(8) 0.0029(8) -0.0002(8)
C6 0.0277(11) 0.0312(12) 0.0176(9) 0.0078(8) 0.0040(8) 0.0046(9)
C7 0.0277(10) 0.0239(10) 0.0148(9) 0.0041(7) 0.0076(8) 0.0016(8)
C8 0.0223(9) 0.0119(9) 0.0138(8) 0.0008(6) 0.0066(7) 0.0017(7)
C9 0.0222(9) 0.0138(9) 0.0111(8) 0.0008(6) 0.0084(7) -0.0001(7)
C10 0.0218(9) 0.0104(8) 0.0126(8) -0.0008(6) 0.0090(7) -0.0014(7)
C11 0.0210(9) 0.0168(9) 0.0089(8) 0.0006(6) 0.0081(7) 0.0001(7)
C12 0.0259(10) 0.0192(10) 0.0148(9) -0.0026(7) 0.0101(7) 0.0009(8)
C13 0.0240(10) 0.0265(11) 0.0183(9) -0.0012(8) 0.0108(8) 0.0071(8)
C14 0.0181(9) 0.0334(11) 0.0167(9) 0.0016(8) 0.0082(7) 0.0004(8)
C15 0.0240(10) 0.0215(10) 0.0149(9) -0.0005(7) 0.0086(8) -0.0055(8)
C16 0.0233(10) 0.0174(9) 0.0136(8) 0.0020(7) 0.0100(7) 0.0009(7)
C17 0.0204(9) 0.0176(9) 0.0096(8) 0.0023(7) 0.0073(7) 0.0011(7)
C18 0.0243(10) 0.0188(9) 0.0127(8) 0.0030(7) 0.0089(7) 0.0046(7)
C19 0.0220(10) 0.0277(11) 0.0177(9) 0.0059(7) 0.0095(8) 0.0078(8)
C20 0.0215(10) 0.0291(11) 0.0140(9) 0.0015(7) 0.0074(7) -0.0005(8)
C21 0.0244(10) 0.0204(10) 0.0175(9) -0.0019(7) 0.0091(8) -0.0015(8)
C22 0.0212(9) 0.0189(9) 0.0157(9) 0.0004(7) 0.0094(7) 0.0033(7)
C23 0.0220(11) 0.0435(13) 0.0270(11) -0.0011(9) 0.0049(9) -0.0027(9)
C24 0.0297(12) 0.0486(15) 0.0283(11) 0.0016(10) 0.0118(9) 0.0133(10)
C25 0.0202(10) 0.0403(13) 0.0322(12) 0.0114(10) 0.0043(9) -0.0065(9)
N1 0.0208(9) 0.0471(12) 0.0294(10) 0.0005(8) 0.0083(8) 0.0016(9)
O1 0.0226(7) 0.0214(7) 0.0138(6) 0.0008(5) 0.0101(5) 0.0007(5)
O2 0.0307(7) 0.0112(6) 0.0198(6) 0.0021(5) 0.0111(6) 0.0012(5)
O3 0.0271(7) 0.0126(6) 0.0143(6) -0.0025(5) 0.0092(6) -0.0028(5)
O4 0.0244(9) 0.0531(12) 0.0561(11) -0.0093(9) 0.0054(8) -0.0108(8)
O5 0.0230(9) 0.0606(13) 0.0855(15) -0.0121(10) 0.0121(9) 0.0118(8)
S1 0.0208(2) 0.0123(2) 0.0112(2) 0.00137(15) 0.00787(16) 0.00087(17)
loop_
_atom_type_symbol
_atom_type_description
_atom_type_scat_dispersion_real
_atom_type_scat_dispersion_imag
_atom_type_scat_source
C C 0.0033 0.0016 'International Tables Vol C Tables 4.2.6.8 and 6.1.1.4'
N N 0.0061 0.0033 'International Tables Vol C Tables 4.2.6.8 and 6.1.1.4'
O O 0.0106 0.0060 'International Tables Vol C Tables 4.2.6.8 and 6.1.1.4'
S S 0.1246 0.1234 'International Tables Vol C Tables 4.2.6.8 and 6.1.1.4'
H H 0.0000 0.0000 'International Tables Vol C Tables 4.2.6.8 and 6.1.1.4'
loop_
_geom_angle_atom_site_label_1
_geom_angle_atom_site_label_2
_geom_angle_atom_site_label_3
_geom_angle
C2 C1 C10 109.48(14)
C2 C1 S1 105.69(11)
C10 C1 S1 117.20(12)
C2 C1 H1 108.1
C10 C1 H1 108.1
S1 C1 H1 108.1
C3 C2 C1 113.41(14)
C3 C2 H2A 108.9
C1 C2 H2A 108.9
C3 C2 H2B 108.9
C1 C2 H2B 108.9
H2A C2 H2B 107.7
C8 C3 C2 121.15(16)
C8 C3 C4 123.49(16)
C2 C3 C4 115.33(14)
C3 C4 C5 109.68(15)
C3 C4 C24 110.65(16)
C5 C4 C24 110.03(16)
C3 C4 C25 109.90(15)
C5 C4 C25 107.63(16)
C24 C4 C25 108.89(17)
C6 C5 C4 112.71(16)
C6 C5 H5A 109.0
C4 C5 H5A 109.0
C6 C5 H5B 109.0
C4 C5 H5B 109.0
H5A C5 H5B 107.8
C5 C6 C7 109.88(16)
C5 C6 H6A 109.7
C7 C6 H6A 109.7
C5 C6 H6B 109.7
C7 C6 H6B 109.7
H6A C6 H6B 108.2
C8 C7 C6 113.12(15)
C8 C7 H7A 109.0
C6 C7 H7A 109.0
C8 C7 H7B 109.0
C6 C7 H7B 109.0
H7A C7 H7B 107.8
C3 C8 C7 123.34(16)
C3 C8 C9 122.51(15)
C7 C8 C9 114.14(14)
C8 C9 C10 113.24(14)
C8 C9 H9A 108.9
C10 C9 H9A 108.9
C8 C9 H9B 108.9
C10 C9 H9B 108.9
H9A C9 H9B 107.7
O3 C10 C11 110.19(14)
O3 C10 C9 110.41(14)
C11 C10 C9 110.29(13)
O3 C10 C1 107.79(13)
C11 C10 C1 113.34(14)
C9 C10 C1 104.67(13)
C12 C11 C16 118.84(17)
C12 C11 C10 120.65(16)
C16 C11 C10 120.51(15)
C13 C12 C11 121.11(17)
C13 C12 H12 119.4
C11 C12 H12 119.4
C14 C13 C12 118.43(17)
C14 C13 H13 120.8
C12 C13 H13 120.8
C13 C14 C15 122.39(17)
C13 C14 N1 118.85(18)
C15 C14 N1 118.74(18)
C14 C15 C16 118.68(17)
C14 C15 H15 120.7
C16 C15 H15 120.7
C15 C16 C11 120.53(17)
C15 C16 H16 119.7
C11 C16 H16 119.7
C18 C17 C22 121.28(17)
C18 C17 S1 119.86(14)
C22 C17 S1 118.81(13)
C19 C18 C17 118.71(17)
C19 C18 H18 120.6
C17 C18 H18 120.6
C18 C19 C20 121.09(17)
C18 C19 H19 119.5
C20 C19 H19 119.5
C21 C20 C19 118.88(17)
C21 C20 C23 120.87(18)
C19 C20 C23 120.25(18)
C22 C21 C20 120.66(18)
C22 C21 H21 119.7
C20 C21 H21 119.7
C21 C22 C17 119.35(17)
C21 C22 H22 120.3
C17 C22 H22 120.3
C20 C23 H23A 109.5
C20 C23 H23B 109.5
H23A C23 H23B 109.5
C20 C23 H23C 109.5
H23A C23 H23C 109.5
H23B C23 H23C 109.5
C4 C24 H24A 109.5
C4 C24 H24B 109.5
H24A C24 H24B 109.5
C4 C24 H24C 109.5
H24A C24 H24C 109.5
H24B C24 H24C 109.5
C4 C25 H25A 109.5
C4 C25 H25B 109.5
H25A C25 H25B 109.5
C4 C25 H25C 109.5
H25A C25 H25C 109.5
H25B C25 H25C 109.5
O4 N1 O5 123.25(19)
O4 N1 C14 118.42(18)
O5 N1 C14 118.33(19)
C10 O3 H3 109.5
O2 S1 O1 118.21(8)
O2 S1 C17 108.46(8)
O1 S1 C17 106.42(8)
O2 S1 C1 109.29(8)
O1 S1 C1 105.11(7)
C17 S1 C1 109.06(8)
loop_
_geom_bond_atom_site_label_1
_geom_bond_atom_site_label_2
_geom_bond_distance
C1 C2 1.534(2)
C1 C10 1.550(2)
C1 S1 1.8050(17)
C1 H1 1.0000
C2 C3 1.516(2)
C2 H2A 0.9900
C2 H2B 0.9900
C3 C8 1.337(2)
C3 C4 1.530(2)
C4 C5 1.533(3)
C4 C24 1.535(3)
C4 C25 1.539(3)
C5 C6 1.518(3)
C5 H5A 0.9900
C5 H5B 0.9900
C6 C7 1.523(3)
C6 H6A 0.9900
C6 H6B 0.9900
C7 C8 1.505(2)
C7 H7A 0.9900
C7 H7B 0.9900
C8 C9 1.509(2)
C9 C10 1.534(2)
C9 H9A 0.9900
C9 H9B 0.9900
C10 O3 1.429(2)
C10 C11 1.529(2)
C11 C12 1.393(2)
C11 C16 1.403(2)
C12 C13 1.384(3)
C12 H12 0.9500
C13 C14 1.380(3)
C13 H13 0.9500
C14 C15 1.380(3)
C14 N1 1.473(2)
C15 C16 1.386(3)
C15 H15 0.9500
C16 H16 0.9500
C17 C18 1.389(2)
C17 C22 1.390(2)
C17 S1 1.7608(18)
C18 C19 1.389(3)
C18 H18 0.9500
C19 C20 1.397(3)
C19 H19 0.9500
C20 C21 1.397(3)
C20 C23 1.505(3)
C21 C22 1.385(3)
C21 H21 0.9500
C22 H22 0.9500
C23 H23A 0.9800
C23 H23B 0.9800
C23 H23C 0.9800
C24 H24A 0.9800
C24 H24B 0.9800
C24 H24C 0.9800
C25 H25A 0.9800
C25 H25B 0.9800
C25 H25C 0.9800
N1 O4 1.221(2)
N1 O5 1.225(3)
O1 S1 1.4547(12)
O2 S1 1.4387(13)
O3 H3 0.8400
