#------------------------------------------------------------------------------
#$Date: 2016-02-13 14:50:18 +0200 (Sat, 13 Feb 2016) $
#$Revision: 176428 $
#$URL: svn://www.crystallography.net/cod/cif/1/52/04/1520496.cif $
#------------------------------------------------------------------------------
#
# This file is available in the Crystallography Open Database (COD),
# http://www.crystallography.net/
#
# All data on this site have been placed in the public domain by the
# contributors.
#
data_1520496
loop_
_publ_author_name
'Jurss, Jonah W.'
'Khnayzer, Rony S.'
'Panetier, Julien A.'
'El Roz, Karim A.'
'Nichols, Eva M.'
'Head-Gordon, Martin'
'Long, Jeffrey R.'
'Castellano, Felix N.'
'Chang, Christopher J.'
_publ_section_title
;
 Bioinspired design of redox-active ligands for multielectron catalysis:
 effects of positioning pyrazine reservoirs on cobalt for electro- and
 photocatalytic generation of hydrogen from water
;
_journal_issue                   8
_journal_name_full               'Chem. Sci.'
_journal_page_first              4954
_journal_paper_doi               10.1039/C5SC01414J
_journal_volume                  6
_journal_year                    2015
_chemical_formula_sum            'C30 H30 F6 N6 O11 S2 Zn'
_chemical_formula_weight         894.09
_chemical_name_common            jwj278
_chemical_name_systematic
;
 ?
;
_space_group_IT_number           2
_symmetry_cell_setting           triclinic
_symmetry_space_group_name_Hall  '-P 1'
_symmetry_space_group_name_H-M   'P -1'
_atom_sites_solution_hydrogens   geom
_atom_sites_solution_primary     direct
_atom_sites_solution_secondary   difmap
_audit_creation_method           SHELXL-97
_audit_update_record
;
2015-04-18 deposited with the CCDC.
2015-06-09 downloaded from the CCDC.
;
_cell_angle_alpha                67.683(3)
_cell_angle_beta                 75.282(3)
_cell_angle_gamma                89.683(3)
_cell_formula_units_Z            8
_cell_length_a                   14.707(3)
_cell_length_b                   21.388(4)
_cell_length_c                   25.657(5)
_cell_measurement_reflns_used    9753
_cell_measurement_temperature    100(2)
_cell_measurement_theta_max      25.31
_cell_measurement_theta_min      2.40
_cell_volume                     7184(2)
_computing_cell_refinement       'Bruker SAINT'
_computing_data_collection       'Bruker APEX2'
_computing_data_reduction        'Bruker SAINT'
_computing_molecular_graphics    ORTEP-32
_computing_publication_material  WinGX
_computing_structure_refinement  SHELXL-97
_computing_structure_solution    SHELXS-97
_diffrn_ambient_temperature      100(2)
_diffrn_detector_area_resol_mean 8.366
_diffrn_measured_fraction_theta_full 0.997
_diffrn_measured_fraction_theta_max 0.993
_diffrn_measurement_device_type  'Bruker APEX-I CCD'
_diffrn_measurement_method       'phi and omega scans'
_diffrn_radiation_monochromator  graphite
_diffrn_radiation_source         'fine-focus sealed tube'
_diffrn_radiation_type           MoK\a
_diffrn_radiation_wavelength     0.71073
_diffrn_reflns_av_R_equivalents  0.0354
_diffrn_reflns_av_sigmaI/netI    0.0276
_diffrn_reflns_limit_h_max       17
_diffrn_reflns_limit_h_min       -17
_diffrn_reflns_limit_k_max       25
_diffrn_reflns_limit_k_min       -25
_diffrn_reflns_limit_l_max       30
_diffrn_reflns_limit_l_min       -30
_diffrn_reflns_number            154218
_diffrn_reflns_theta_full        25.00
_diffrn_reflns_theta_max         25.41
_diffrn_reflns_theta_min         1.44
_exptl_absorpt_coefficient_mu    0.899
_exptl_absorpt_correction_T_max  0.8845
_exptl_absorpt_correction_T_min  0.8132
_exptl_absorpt_correction_type   multi-scan
_exptl_absorpt_process_details   SADABS
_exptl_crystal_colour            white
_exptl_crystal_density_diffrn    1.653
_exptl_crystal_density_method    'not measured'
_exptl_crystal_description       blocks
_exptl_crystal_F_000             3648
_exptl_crystal_size_max          0.24
_exptl_crystal_size_mid          0.22
_exptl_crystal_size_min          0.14
_refine_diff_density_max         1.647
_refine_diff_density_min         -1.277
_refine_diff_density_rms         0.127
_refine_ls_extinction_method     none
_refine_ls_goodness_of_fit_ref   1.101
_refine_ls_hydrogen_treatment    mixed
_refine_ls_matrix_type           full
_refine_ls_number_parameters     2175
_refine_ls_number_reflns         26302
_refine_ls_number_restraints     45
_refine_ls_restrained_S_all      1.100
_refine_ls_R_factor_all          0.0954
_refine_ls_R_factor_gt           0.0603
_refine_ls_shift/su_max          0.001
_refine_ls_shift/su_mean         0.000
_refine_ls_structure_factor_coef Fsqd
_refine_ls_weighting_details
'calc w=1/[\s^2^(Fo^2^)+(0.1044P)^2^+13.7982P] where P=(Fo^2^+2Fc^2^)/3'
_refine_ls_weighting_scheme      calc
_refine_ls_wR_factor_gt          0.1791
_refine_ls_wR_factor_ref         0.2152
_reflns_number_gt                14971
_reflns_number_total             26302
_reflns_threshold_expression     >2sigma(I)
_iucr_refine_instructions_details
;TITL jwj278_0m in P-1
CELL  0.71073  14.7068  21.3881  25.6568   67.683   75.282   89.683
ZERR     8.00   0.0029   0.0042   0.0050    0.003    0.003    0.003
LATT   1
SFAC  C    H    N    O    F    S    ZN
UNIT  240  240  48   88   48   16   8
MERG   2
EADP F4A F4B
EADP F5A F5B
EADP O8A O8B
EADP O9A O9B
EADP C200 C114
EADP  O44A O44B
EADP  O43A O43B
DFIX 0.85 O1 H1X
DFIX 0.85 O1 H1Y
DFIX 0.85 O2 H2X
DFIX 0.85 O2 H2Y
DFIX 0.85 O3 H3X
DFIX 0.85 O3 H3Y
DFIX 0.85 O4 H4X
DFIX 0.85 O4 H4Y
EADP H4X H4Y
DFIX  0.85 O32 H32Y
DFIX  0.85 O32 H32X
DANG 1.55 H32X H32Y
DFIX  0.85 O30 H30Y
DFIX  0.85 O30 H30X
DANG  1.55 H30Y H30X
DFIX  0.85 O36 H36Y
DFIX  0.85 O36 H36X
DANG 1.55 H36X H36Y
DFIX  0.85 O39 H39X
DFIX  0.85 O39 H39Y
DANG 1.55 H39X H39Y
DFIX  0.85 O35 H35Y
DFIX  0.85 O35 H35X
DANG 1.55 H35X H35Y
DFIX  0.85 O33 H33X
DFIX  0.85 O33 H33Y
DFIX  0.85 O38 H38Y
DFIX  0.85 O38 H38X
DANG 1.55 H38X H38Y
DFIX  0.85 O29 H29X
DFIX  0.85 O29 H29Y
DANG  1.55 H29Y H29X
DFIX  1.44 S7A O23A
DFIX  1.44 S7A O24A
DFIX  1.44 S7A O25A
DFIX  1.82 S7A C119
DFIX 1.34 C119 F20A
DFIX 1.34 C119 F21A
DFIX 1.34 C119 F22A
DFIX  1.44 S7B O23B
DFIX  1.44 S7B O24B
DFIX  1.44 S7B O25B
DFIX 1.34 C201 F20B
DFIX 1.34 C201 F21B
DFIX 1.34 C201 F22B
DFIX 1.82 C201 S7B
EADP S7A S7B
EADP O23A O23B
EADP O24A O24B
EADP O25A O25B
EADP C119 C201
EADP F21A F21B
EADP F22A F22B
EADP F20A F20B
FMAP   2
PLAN   20
SIZE     0.14   0.22   0.24
ACTA    50.00
BOND   $H
LIST   4
WPDB  -2
L.S.   8
TEMP  -173.20
WGHT    0.104400   13.798201
FVAR       0.03545   0.51108   0.80865   0.56715   0.76565
C1    1    0.368102    0.201648    0.411731    11.00000    0.01381    0.01041 =
         0.01144   -0.00321   -0.00348    0.00323
AFIX  43
H1    2    0.386759    0.225178    0.370374    11.00000   -1.20000
AFIX   0
C2    1    0.435719    0.194161    0.441436    11.00000    0.01469    0.01512 =
         0.01854   -0.00721   -0.00356    0.00083
AFIX  43
H2    2    0.499346    0.212660    0.421271    11.00000   -1.20000
AFIX   0
C3    1    0.408454    0.158772    0.501805    11.00000    0.01571    0.02667 =
         0.02080   -0.00558   -0.01197   -0.00177
AFIX  43
H3    2    0.453278    0.152408    0.523835    11.00000   -1.20000
AFIX   0
C4    1    0.314572    0.132856    0.529404    11.00000    0.01666    0.02480 =
         0.01246   -0.00336   -0.00863    0.00086
AFIX  43
H4    2    0.294735    0.108827    0.570691    11.00000   -1.20000
AFIX   0
C5    1    0.249708    0.141927    0.496917    11.00000    0.01017    0.00723 =
         0.01392   -0.00301   -0.00504    0.00097
C6    1    0.146046    0.109429    0.525692    11.00000    0.01042    0.01291 =
         0.00774   -0.00007   -0.00424    0.00110
C7    1    0.128262    0.074456    0.592657    11.00000    0.01275    0.02154 =
         0.01000   -0.00118   -0.00212    0.00189
AFIX 137
H7A   2    0.142448    0.107745    0.607965    11.00000   -1.50000
H7B   2    0.169096    0.037704    0.601914    11.00000   -1.50000
H7C   2    0.061940    0.055691    0.610650    11.00000   -1.50000
AFIX   0
C8    1    0.132573    0.056229    0.500156    11.00000    0.00451    0.01151 =
         0.01910   -0.00485   -0.00645    0.00346
C9    1    0.107762   -0.012500    0.536463    11.00000    0.01041    0.01220 =
         0.02586    0.00139   -0.00134    0.00020
AFIX  43
H9    2    0.092441   -0.026866    0.577814    11.00000   -1.20000
AFIX   0
C10   1    0.105784   -0.059431    0.511401    11.00000    0.01548    0.00797 =
         0.04721   -0.00476   -0.00703    0.00274
AFIX  43
H10   2    0.089009   -0.106314    0.535443    11.00000   -1.20000
AFIX   0
C11   1    0.128435   -0.037427    0.451113    11.00000    0.02150    0.01409 =
         0.04590   -0.02020   -0.01855    0.00926
AFIX  43
H11   2    0.128784   -0.068852    0.433032    11.00000   -1.20000
AFIX   0
C12   1    0.150643    0.031636    0.417647    11.00000    0.01976    0.01449 =
         0.02429   -0.00895   -0.01317    0.00666
AFIX  43
H12   2    0.166191    0.047007    0.376210    11.00000   -1.20000
AFIX   0
C13   1    0.076412    0.163498    0.512908    11.00000    0.00859    0.00756 =
         0.01250   -0.00120   -0.00435   -0.00121
C14   1    0.016995    0.179951    0.557249    11.00000    0.01593    0.01578 =
         0.01084   -0.00548   -0.00473   -0.00076
AFIX  43
H14   2    0.019442    0.156677    0.596541    11.00000   -1.20000
AFIX   0
C15   1   -0.046293    0.258201    0.490542    11.00000    0.01628    0.01184 =
         0.01082   -0.00291   -0.00390    0.00425
AFIX  43
H15   2   -0.089916    0.291002    0.481829    11.00000   -1.20000
AFIX   0
C16   1    0.012106    0.243870    0.445093    11.00000    0.01113    0.01128 =
         0.01052   -0.00313   -0.00273    0.00104
C17   1    0.057681    0.149400    0.319111    11.00000    0.01955    0.01584 =
         0.01566   -0.00832   -0.01077    0.00985
AFIX  43
H17   2    0.109299    0.124339    0.311394    11.00000   -1.20000
AFIX   0
C18   1   -0.022311    0.140296    0.302690    11.00000    0.02349    0.01879 =
         0.01638   -0.00749   -0.01204    0.00156
AFIX  43
H18   2   -0.025967    0.109489    0.284474    11.00000   -1.20000
AFIX   0
C19   1   -0.096728    0.177455    0.313636    11.00000    0.01681    0.02086 =
         0.01820   -0.00389   -0.01019    0.00052
AFIX  43
H19   2   -0.153245    0.171816    0.303701    11.00000   -1.20000
AFIX   0
C20   1   -0.088366    0.222774    0.339078    11.00000    0.01372    0.01607 =
         0.01407   -0.00339   -0.00565    0.00380
AFIX  43
H20   2   -0.138759    0.249044    0.346164    11.00000   -1.20000
AFIX   0
C21   1   -0.005801    0.229882    0.354338    11.00000    0.01350    0.01427 =
         0.00827   -0.00305   -0.00551    0.00617
C22   1    0.009279    0.281190    0.381164    11.00000    0.01305    0.00880 =
         0.01103   -0.00367   -0.00348    0.00528
C23   1   -0.071272    0.327214    0.379268    11.00000    0.01312    0.01634 =
         0.01438   -0.00402   -0.00420    0.00904
AFIX 137
H23A  2   -0.130959    0.299906    0.404488    11.00000   -1.50000
H23B  2   -0.075873    0.348933    0.338956    11.00000   -1.50000
H23C  2   -0.058427    0.362195    0.393148    11.00000   -1.50000
AFIX   0
C24   1    0.104501    0.326227    0.345054    11.00000    0.01405    0.01291 =
         0.00585   -0.00525   -0.00436    0.00292
C25   1    0.108523    0.394521    0.310557    11.00000    0.02402    0.01142 =
         0.01339   -0.00677   -0.00780    0.00702
AFIX  43
H25   2    0.051790    0.415601    0.308473    11.00000   -1.20000
AFIX   0
C26   1    0.195744    0.432529    0.278806    11.00000    0.02633    0.00893 =
         0.01367   -0.00555   -0.00975    0.00383
AFIX  43
H26   2    0.198752    0.479257    0.254528    11.00000   -1.20000
AFIX   0
C27   1    0.277907    0.401349    0.283086    11.00000    0.02358    0.01544 =
         0.01310   -0.00662   -0.00630    0.00101
AFIX  43
H27   2    0.338312    0.426236    0.262974    11.00000   -1.20000
AFIX   0
C28   1    0.268938    0.333132    0.317462    11.00000    0.01287    0.01551 =
         0.01058   -0.00316   -0.00417    0.00478
AFIX  43
H28   2    0.324998    0.311339    0.320246    11.00000   -1.20000
AFIX   0
C29   1    0.717055    0.173647    0.177615    11.00000    0.01334    0.01911 =
         0.01279   -0.00535   -0.00192    0.00244
AFIX  43
H29   2    0.662440    0.197087    0.174125    11.00000   -1.20000
AFIX   0
C30   1    0.704941    0.105238    0.212165    11.00000    0.02202    0.01990 =
         0.01577   -0.00929   -0.00566    0.00091
AFIX  43
H30   2    0.643527    0.081723    0.231450    11.00000   -1.20000
AFIX   0
C31   1    0.784884    0.071725    0.217977    11.00000    0.02601    0.01002 =
         0.01931   -0.00502   -0.00792    0.00142
AFIX  43
H31   2    0.779222    0.024917    0.242628    11.00000   -1.20000
AFIX   0
C32   1    0.871732    0.106589    0.187969    11.00000    0.02260    0.00859 =
         0.01729   -0.00425   -0.01214    0.00601
AFIX  43
H32   2    0.926912    0.083743    0.191063    11.00000   -1.20000
AFIX   0
C33   1    0.880117    0.175661    0.152713    11.00000    0.01687    0.01186 =
         0.00965   -0.00468   -0.00688    0.00168
C34   1    0.976609    0.216817    0.118418    11.00000    0.01281    0.00876 =
         0.01212   -0.00217   -0.00370    0.00301
C35   1    1.055550    0.168561    0.122580    11.00000    0.01549    0.01290 =
         0.01782   -0.00389   -0.00587    0.00725
AFIX 137
H35A  2    1.043360    0.134352    0.107734    11.00000   -1.50000
H35B  2    1.056607    0.145952    0.163533    11.00000   -1.50000
H35C  2    1.116720    0.194793    0.099113    11.00000   -1.50000
AFIX   0
C36   1    0.993089    0.267444    0.145691    11.00000    0.01072    0.01237 =
         0.00727   -0.00139   -0.00191    0.00269
C37   1    1.073162    0.270205    0.164906    11.00000    0.00777    0.01261 =
         0.01414   -0.00045   -0.00201    0.00129
AFIX  43
H37   2    1.121955    0.242212    0.159275    11.00000   -1.20000
AFIX   0
C38   1    1.081151    0.313989    0.192245    11.00000    0.01312    0.01303 =
         0.01347    0.00304   -0.00491   -0.00518
AFIX  43
H38   2    1.135579    0.316740    0.205104    11.00000   -1.20000
AFIX   0
C39   1    1.008144    0.353774    0.200503    11.00000    0.01799    0.01595 =
         0.01153   -0.00446   -0.00687   -0.00280
AFIX  43
H39   2    1.011094    0.383554    0.219776    11.00000   -1.20000
AFIX   0
C40   1    0.931061    0.349028    0.180019    11.00000    0.01785    0.01374 =
         0.01277   -0.00557   -0.00887    0.00577
AFIX  43
H40   2    0.880898    0.375916    0.185915    11.00000   -1.20000
AFIX   0
C41   1    0.979216    0.254512    0.053424    11.00000    0.01478    0.01036 =
         0.01285   -0.00483   -0.00594    0.00339
C42   1    1.040441    0.240366    0.009412    11.00000    0.01833    0.01227 =
         0.01212   -0.00446   -0.00386    0.00505
AFIX  43
H42   2    1.082959    0.207082    0.019544    11.00000   -1.20000
AFIX   0
C43   1    0.981347    0.318904   -0.059868    11.00000    0.02138    0.01715 =
         0.00876   -0.00362   -0.00343    0.00083
AFIX  43
H43   2    0.980739    0.341746   -0.099559    11.00000   -1.20000
AFIX   0
C44   1    0.919339    0.335220   -0.016849    11.00000    0.00993    0.00860 =
         0.01316   -0.00236   -0.00429   -0.00146
C45   1    0.854409    0.471899    0.073164    11.00000    0.02413    0.01592 =
         0.03060   -0.01374   -0.02034    0.01014
AFIX  43
H45   2    0.841094    0.457369    0.114456    11.00000   -1.20000
AFIX   0
C46   1    0.878005    0.540333    0.038998    11.00000    0.01576    0.01820 =
         0.05031   -0.02298   -0.01750    0.00647
AFIX  43
H46   2    0.879772    0.572536    0.056083    11.00000   -1.20000
AFIX   0
C47   1    0.898828    0.560022   -0.020676    11.00000    0.01469    0.01012 =
         0.04890   -0.00541   -0.00501    0.00078
AFIX  43
H47   2    0.917696    0.606379   -0.045819    11.00000   -1.20000
AFIX   0
C48   1    0.892275    0.512470   -0.043858    11.00000    0.01269    0.01327 =
         0.02565   -0.00173   -0.00183   -0.00030
AFIX  43
H48   2    0.906019    0.526048   -0.085079    11.00000   -1.20000
AFIX   0
C49   1    0.865594    0.444571   -0.007152    11.00000    0.01011    0.01179 =
         0.02152   -0.00475   -0.00976    0.00364
C50   1    0.850525    0.390166   -0.031304    11.00000    0.01153    0.01361 =
         0.00951   -0.00157   -0.00736    0.00187
C51   1    0.869031    0.423285   -0.098206    11.00000    0.01290    0.02202 =
         0.01104    0.00335   -0.00552   -0.00185
AFIX 137
H51A  2    0.935038    0.442850   -0.116112    11.00000   -1.50000
H51B  2    0.827270    0.459239   -0.108366    11.00000   -1.50000
H51C  2    0.856584    0.388878   -0.112787    11.00000   -1.50000
AFIX   0
C52   1    0.746893    0.358608   -0.003159    11.00000    0.01489    0.00708 =
         0.01358   -0.00189   -0.00865    0.00109
C53   1    0.682871    0.364526   -0.036081    11.00000    0.02164    0.02945 =
         0.01512    0.00065   -0.01090   -0.00722
AFIX  43
H53   2    0.703804    0.385761   -0.077582    11.00000   -1.20000
AFIX   0
C54   1    0.589524    0.339843   -0.008945    11.00000    0.02320    0.03853 =
         0.01815   -0.00175   -0.01569   -0.00861
AFIX  43
H54   2    0.546035    0.343434   -0.031468    11.00000   -1.20000
AFIX   0
C55   1    0.559564    0.309576    0.051836    11.00000    0.01604    0.01626 =
         0.01969   -0.00475   -0.00698   -0.00352
AFIX  43
H55   2    0.495523    0.292096    0.071795    11.00000   -1.20000
AFIX   0
C56   1    0.625857    0.305764    0.082191    11.00000    0.01096    0.01417 =
         0.01516   -0.00706   -0.00334    0.00420
AFIX  43
H56   2    0.605582    0.286475    0.123767    11.00000   -1.20000
AFIX   0
C57   1    0.566109    0.404144    0.567765    11.00000    0.02188    0.00841 =
         0.01157   -0.00418   -0.00503    0.00505
AFIX  43
H57   2    0.617003    0.378632    0.559775    11.00000   -1.20000
AFIX   0
C58   1    0.486137    0.396563    0.551210    11.00000    0.02603    0.01336 =
         0.01428   -0.00779   -0.00694    0.00344
AFIX  43
H58   2    0.481987    0.366354    0.532499    11.00000   -1.20000
AFIX   0
C59   1    0.411348    0.434221    0.562520    11.00000    0.01960    0.01977 =
         0.01856   -0.00625   -0.00914    0.00210
AFIX  43
H59   2    0.354437    0.429277    0.552740    11.00000   -1.20000
AFIX   0
C60   1    0.422289    0.479424    0.588616    11.00000    0.02061    0.01653 =
         0.00997   -0.00128   -0.00500    0.00479
AFIX  43
H60   2    0.373367    0.506752    0.595751    11.00000   -1.20000
AFIX   0
C61   1    0.505124    0.484044    0.603998    11.00000    0.01103    0.00759 =
         0.00681    0.00058   -0.00151    0.00075
C62   1    0.522329    0.535520    0.630735    11.00000    0.01053    0.00885 =
         0.01166   -0.00317   -0.00259    0.00250
C63   1    0.443116    0.582276    0.628901    11.00000    0.01676    0.01357 =
         0.01822   -0.00744   -0.00730    0.00748
AFIX 137
H63A  2    0.383132    0.555550    0.654317    11.00000   -1.50000
H63B  2    0.438302    0.604057    0.588639    11.00000   -1.50000
H63C  2    0.457152    0.617185    0.642569    11.00000   -1.50000
AFIX   0
C64   1    0.618742    0.577981    0.595272    11.00000    0.01587    0.00873 =
         0.00894   -0.00452   -0.00128   -0.00054
C65   1    0.623500    0.646530    0.559622    11.00000    0.01766    0.01308 =
         0.01373   -0.00685   -0.00210    0.00202
AFIX  43
H65   2    0.567406    0.668273    0.556818    11.00000   -1.20000
AFIX   0
C66   1    0.712064    0.682789    0.528061    11.00000    0.03104    0.00762 =
         0.01417   -0.00322   -0.00018   -0.00329
AFIX  43
H66   2    0.716672    0.729326    0.502907    11.00000   -1.20000
AFIX   0
C67   1    0.792601    0.650783    0.533578    11.00000    0.02176    0.01583 =
         0.01399   -0.00602    0.00237   -0.00606
AFIX  43
H67   2    0.853375    0.675129    0.513578    11.00000   -1.20000
AFIX   0
C68   1    0.783071    0.582650    0.568756    11.00000    0.01381    0.01391 =
         0.01734   -0.00597    0.00038   -0.00311
AFIX  43
H68   2    0.838580    0.560310    0.572146    11.00000   -1.20000
AFIX   0
C69   1    0.522310    0.496167    0.695258    11.00000    0.01032    0.00882 =
         0.01160   -0.00368   -0.00167   -0.00064
C70   1    0.463532    0.509806    0.741020    11.00000    0.00913    0.01520 =
         0.01684   -0.00914   -0.00398    0.00552
AFIX  43
H70   2    0.421882    0.544045    0.732157    11.00000   -1.20000
AFIX   0
C71   1    0.522911    0.428818    0.807716    11.00000    0.01180    0.01682 =
         0.01022   -0.00322   -0.00372    0.00068
AFIX  43
H71   2    0.524263    0.404492    0.847090    11.00000   -1.20000
AFIX   0
C72   1    0.582832    0.413427    0.763446    11.00000    0.00581    0.01069 =
         0.01067   -0.00316   -0.00190    0.00008
C73   1    0.876199    0.448386    0.664463    11.00000    0.01309    0.00957 =
         0.01404   -0.00484    0.00074   -0.00215
AFIX  43
H73   2    0.895920    0.472692    0.623209    11.00000   -1.20000
AFIX   0
C74   1    0.943235    0.438384    0.694911    11.00000    0.00972    0.01407 =
         0.02214   -0.00708   -0.00219    0.00063
AFIX  43
H74   2    1.007426    0.455784    0.675416    11.00000   -1.20000
AFIX   0
C75   1    0.914209    0.402218    0.754761    11.00000    0.01353    0.01370 =
         0.01699   -0.00436   -0.00816    0.00335
AFIX  43
H75   2    0.958531    0.394464    0.777248    11.00000   -1.20000
AFIX   0
C76   1    0.820710    0.377449    0.781687    11.00000    0.01545    0.00939 =
         0.01111   -0.00161   -0.00550   -0.00052
AFIX  43
H76   2    0.800457    0.352262    0.822808    11.00000   -1.20000
AFIX   0
C77   1    0.755834    0.389340    0.748601    11.00000    0.00793    0.00750 =
         0.01213   -0.00217    0.00160   -0.00051
C78   1    0.651182    0.358073    0.776078    11.00000    0.00995    0.00782 =
         0.01068   -0.00051   -0.00149    0.00240
C79   1    0.631872    0.321994    0.843021    11.00000    0.01710    0.01556 =
         0.00725   -0.00037   -0.00174    0.00206
AFIX 137
H79A  2    0.647448    0.354283    0.858958    11.00000   -1.50000
H79B  2    0.670923    0.284119    0.852251    11.00000   -1.50000
H79C  2    0.564965    0.304633    0.860433    11.00000   -1.50000
AFIX   0
C80   1    0.636290    0.305933    0.749499    11.00000    0.00466    0.00940 =
         0.01489   -0.00242   -0.00072    0.00009
C81   1    0.607427    0.237765    0.784487    11.00000    0.01246    0.01194 =
         0.01399    0.00154   -0.00550   -0.00091
AFIX  43
H81   2    0.590085    0.222801    0.825925    11.00000   -1.20000
AFIX   0
C82   1    0.604003    0.191743    0.758842    11.00000    0.01551    0.00899 =
         0.02352    0.00106   -0.00864   -0.00067
AFIX  43
H82   2    0.584222    0.145070    0.782455    11.00000   -1.20000
AFIX   0
C83   1    0.629750    0.214475    0.698316    11.00000    0.01492    0.00989 =
         0.02949   -0.00744   -0.01032    0.00235
AFIX  43
H83   2    0.630089    0.183865    0.679447    11.00000   -1.20000
AFIX   0
C84   1    0.654889    0.283218    0.666438    11.00000    0.01298    0.01538 =
         0.01403   -0.00510   -0.00528    0.00284
AFIX  43
H84   2    0.671233    0.299288    0.624939    11.00000   -1.20000
AFIX   0
C85   1    0.359771    0.224342    0.821122    11.00000    0.01148    0.01385 =
         0.02237   -0.00721   -0.00819    0.00357
AFIX  43
H85   2    0.348357    0.210728    0.862226    11.00000   -1.20000
AFIX   0
C86   1    0.379919    0.293050    0.785488    11.00000    0.01265    0.01058 =
         0.02658   -0.00641   -0.00730    0.00250
AFIX  43
H86   2    0.381909    0.326069    0.801711    11.00000   -1.20000
AFIX   0
C87   1    0.396999    0.311995    0.725704    11.00000    0.01785    0.00600 =
         0.02615    0.00177   -0.00553   -0.00143
AFIX  43
H87   2    0.411913    0.358512    0.700085    11.00000   -1.20000
AFIX   0
C88   1    0.392260    0.262914    0.703426    11.00000    0.01042    0.01359 =
         0.01717   -0.00107   -0.00228   -0.00027
AFIX  43
H88   2    0.404284    0.275485    0.662401    11.00000   -1.20000
AFIX   0
C89   1    0.369774    0.194969    0.741428    11.00000    0.00571    0.00844 =
         0.01499   -0.00073   -0.00121   -0.00098
C90   1    0.355822    0.139149    0.718615    11.00000    0.00484    0.00833 =
         0.01057    0.00100    0.00120    0.00135
C91   1    0.372489    0.170737    0.652142    11.00000    0.01352    0.01485 =
         0.01015   -0.00090   -0.00402    0.00313
AFIX 137
H91A  2    0.437463    0.192367    0.633526    11.00000   -1.50000
H91B  2    0.328233    0.204875    0.642074    11.00000   -1.50000
H91C  2    0.362451    0.135209    0.638236    11.00000   -1.50000
AFIX   0
C92   1    0.252364    0.106009    0.748472    11.00000    0.00743    0.00518 =
         0.01376   -0.00225   -0.00024    0.00079
C93   1    0.188562    0.109313    0.716069    11.00000    0.01196    0.01133 =
         0.01677   -0.00121   -0.00522    0.00439
AFIX  43
H93   2    0.208815    0.129631    0.674513    11.00000   -1.20000
AFIX   0
C94   1    0.094738    0.082756    0.744637    11.00000    0.01353    0.01918 =
         0.02202   -0.00436   -0.01063    0.00162
AFIX  43
H94   2    0.050626    0.084316    0.722900    11.00000   -1.20000
AFIX   0
C95   1    0.066832    0.053955    0.805475    11.00000    0.00896    0.01118 =
         0.02420   -0.00699   -0.00119    0.00104
AFIX  43
H95   2    0.003168    0.036040    0.826203    11.00000   -1.20000
AFIX   0
C96   1    0.133384    0.052029    0.834833    11.00000    0.01169    0.01311 =
         0.01868   -0.00857    0.00368   -0.00142
AFIX  43
H96   2    0.114206    0.032585    0.876423    11.00000   -1.20000
AFIX   0
C97   1    0.425548    0.085293    0.733962    11.00000    0.00914    0.00678 =
         0.01068   -0.00233   -0.00195   -0.00249
C98   1    0.486887    0.068109    0.690576    11.00000    0.01035    0.01439 =
         0.00982   -0.00403   -0.00381    0.00079
AFIX  43
H98   2    0.484539    0.089725    0.651105    11.00000   -1.20000
AFIX   0
C99   1    0.550188   -0.007394    0.759253    11.00000    0.00833    0.01489 =
         0.01519   -0.00763   -0.00288    0.00407
AFIX  43
H99   2    0.594379   -0.039452    0.769003    11.00000   -1.20000
AFIX   0
C100  1    0.489261    0.007319    0.803640    11.00000    0.01106    0.00687 =
         0.01302   -0.00428   -0.00320   -0.00197
C101  1    0.230915   -0.077193    0.928990    11.00000    0.02069    0.01598 =
         0.01761   -0.00756    0.00379   -0.00608
AFIX  43
H101  2    0.175146   -0.054998    0.926278    11.00000   -1.20000
AFIX   0
C102  1    0.221534   -0.145682    0.962564    11.00000    0.02909    0.01703 =
         0.01451   -0.00793    0.01024   -0.01550
AFIX  43
H102  2    0.160808   -0.170247    0.982073    11.00000   -1.20000
AFIX   0
C103  1    0.302241   -0.177841    0.967250    11.00000    0.03857    0.00842 =
         0.01611   -0.00526    0.00513   -0.00356
AFIX  43
H103  2    0.298011   -0.224737    0.991364    11.00000   -1.20000
AFIX   0
C104  1    0.388676   -0.141469    0.936761    11.00000    0.02972    0.01214 =
         0.01340   -0.00519    0.00121   -0.00050
AFIX  43
H104  2    0.444939   -0.163241    0.938568    11.00000   -1.20000
AFIX   0
C106  1    0.489308   -0.029527    0.868427    11.00000    0.01254    0.01144 =
         0.01215   -0.00401   -0.00391    0.00496
C107  1    0.569695   -0.076073    0.871792    11.00000    0.02123    0.01417 =
         0.01641   -0.00656   -0.01077    0.00944
AFIX 137
H10A  2    0.557991   -0.110907    0.857492    11.00000   -1.50000
H10B  2    0.572307   -0.097969    0.912501    11.00000   -1.50000
H10C  2    0.629964   -0.048976    0.847525    11.00000   -1.50000
AFIX   0
C108  1    0.504103    0.022651    0.895032    11.00000    0.01632    0.00588 =
         0.00932   -0.00065   -0.00136    0.00165
C109  1    0.582970    0.026410    0.914236    11.00000    0.02482    0.01828 =
         0.01540   -0.00719   -0.01038    0.00960
AFIX  43
H109  2    0.632534   -0.001050    0.908694    11.00000   -1.20000
AFIX   0
C110  1    0.589352    0.070267    0.941508    11.00000    0.03010    0.03158 =
         0.02960   -0.01606   -0.02172    0.00976
AFIX  43
H110  2    0.643332    0.073257    0.954703    11.00000   -1.20000
AFIX   0
C111  1    0.516981    0.109477    0.949362    11.00000    0.03314    0.01682 =
         0.01979   -0.01137   -0.01478    0.00558
AFIX  43
H111  2    0.519800    0.139820    0.968129    11.00000   -1.20000
AFIX   0
C112  1    0.439293    0.103656    0.929118    11.00000    0.02557    0.00825 =
         0.01138   -0.00201   -0.00525    0.00062
AFIX  43
H112  2    0.388357    0.129878    0.935204    11.00000   -1.20000
AFIX   0
C113  1    0.198711   -0.069516    0.275039    11.00000    0.01860    0.01279 =
         0.02255   -0.00477   -0.01061    0.00533
C115  1    0.630362    0.060126    0.437065    11.00000    0.05818    0.06087 =
         0.05685   -0.04134   -0.03688    0.04224
C116  1    0.111513    0.290978    0.695362    11.00000    0.03305    0.04194 =
         0.01397   -0.00743   -0.00649    0.02461
C117  1    0.300082    0.817525    0.472376    11.00000    0.01652    0.01237 =
         0.01463   -0.00241   -0.00364    0.00234
C118  1    0.205899    0.432552    0.777196    11.00000    0.01484    0.01228 =
         0.02270   -0.00288   -0.00580    0.00231
C120  1    0.295493    0.319369    0.975188    11.00000    0.01937    0.01353 =
         0.01629   -0.00124   -0.00220    0.00389
C205  1    0.393377   -0.072304    0.903092    11.00000    0.02230    0.00700 =
         0.01246   -0.00641   -0.00284    0.00134
N1    3    0.276519    0.177304    0.438262    11.00000    0.01316    0.01073 =
         0.00907   -0.00328   -0.00401    0.00195
N2    3    0.150994    0.077421    0.441519    11.00000    0.01280    0.00925 =
         0.01702   -0.00491   -0.01159    0.00310
N3    3    0.072320    0.196903    0.457483    11.00000    0.01324    0.00617 =
         0.00826   -0.00292   -0.00378   -0.00018
N4    3   -0.042590    0.227219    0.545725    11.00000    0.01716    0.01822 =
         0.01220   -0.00923   -0.00489    0.00385
N5    3    0.065984    0.191762    0.345333    11.00000    0.01424    0.01266 =
         0.01173   -0.00439   -0.00672    0.00650
N6    3    0.185059    0.295258    0.347524    11.00000    0.01276    0.01125 =
         0.01066   -0.00261   -0.00383    0.00459
N7    3    0.801757    0.208620    0.148799    11.00000    0.01452    0.01298 =
         0.01106   -0.00395   -0.00591    0.00559
N8    3    0.924162    0.307949    0.152108    11.00000    0.01202    0.01370 =
         0.01085   -0.00510   -0.00670    0.00448
N9    3    0.919402    0.302190    0.039401    11.00000    0.01060    0.00854 =
         0.00878   -0.00283   -0.00500   -0.00145
N10   3    1.041713    0.271916   -0.046742    11.00000    0.01887    0.01901 =
         0.01661   -0.01070   -0.00414    0.00569
N11   3    0.849378    0.424892    0.050825    11.00000    0.01896    0.00832 =
         0.02032   -0.00653   -0.01426    0.00546
N12   3    0.717527    0.327913    0.055989    11.00000    0.01483    0.01046 =
         0.01172   -0.00566   -0.00821    0.00651
N13   3    0.575847    0.445879    0.594704    11.00000    0.01569    0.00774 =
         0.00960   -0.00078   -0.00177    0.00139
N14   3    0.697278    0.545864    0.598951    11.00000    0.01262    0.01218 =
         0.01246   -0.00539   -0.00269    0.00101
N15   3    0.581649    0.448400    0.707602    11.00000    0.00788    0.00953 =
         0.00740   -0.00226   -0.00095    0.00140
N16   3    0.463826    0.476617    0.796443    11.00000    0.01112    0.02076 =
         0.01431   -0.00948   -0.00314    0.00314
N17   3    0.783465    0.425465    0.690075    11.00000    0.00959    0.00761 =
         0.01159   -0.00301   -0.00223    0.00091
N18   3    0.657612    0.328633    0.690536    11.00000    0.00857    0.00861 =
         0.01552   -0.00182   -0.00340    0.00090
N19   3    0.355821    0.176270    0.799510    11.00000    0.00559    0.00993 =
         0.01727   -0.00604   -0.00263    0.00227
N20   3    0.224846    0.076382    0.807605    11.00000    0.00808    0.00852 =
         0.01412   -0.00543    0.00130   -0.00089
N21   3    0.428353    0.053557    0.789674    11.00000    0.00868    0.00800 =
         0.00811   -0.00194    0.00014   -0.00153
N22   3    0.548118    0.022304    0.703496    11.00000    0.00784    0.01881 =
         0.01480   -0.00853   -0.00492    0.00343
N23   3    0.314833   -0.040017    0.899816    11.00000    0.01571    0.01035 =
         0.01111   -0.00368    0.00070   -0.00431
N24   3    0.433764    0.062347    0.901321    11.00000    0.01368    0.00879 =
         0.01048   -0.00250   -0.00127   -0.00053
O1    4    0.276316    0.172368    0.320992    11.00000    0.01632    0.02202 =
         0.01065   -0.00665   -0.00380    0.01107
O2    4    0.717971    0.334690    0.172058    11.00000    0.01897    0.02486 =
         0.01432   -0.01181   -0.00710    0.01491
O3    4    0.784649    0.423794    0.571340    11.00000    0.01372    0.01520 =
         0.01149   -0.00266   -0.00014    0.00568
O4    4    0.226592    0.086798    0.921941    11.00000    0.01792    0.01919 =
         0.01568   -0.00644    0.00048    0.00347
O5    4    0.111425    0.020141    0.210543    11.00000    0.02283    0.01988 =
         0.02152   -0.00400   -0.01390    0.00194
O6    4    0.230954    0.060051    0.244327    11.00000    0.01438    0.01563 =
         0.02746   -0.00932   -0.00536   -0.00125
O7    4    0.081401    0.002242    0.313199    11.00000    0.02031    0.02718 =
         0.02329   -0.01407    0.00630   -0.00511
O11   4    0.739515    0.051994    0.349849    11.00000    0.07611    0.12465 =
         0.03386    0.01128    0.01676    0.07686
O12   4    0.597164    0.107658    0.338215    11.00000    0.02407    0.01719 =
         0.02842   -0.00221   -0.00241    0.00200
O13   4    0.584586   -0.012325    0.388232    11.00000    0.32796    0.02437 =
         0.14575    0.01949   -0.20741   -0.04374
O14   4    0.253873    0.316576    0.606386    11.00000    0.00950    0.03870 =
         0.03040    0.00837    0.00247    0.00541
O15   4    0.103825    0.355983    0.590922    11.00000    0.01826    0.01638 =
         0.01804   -0.00234   -0.00883    0.00372
O16   4    0.123521    0.236409    0.620327    11.00000    0.08844    0.00991 =
         0.05821   -0.00490   -0.06122   -0.00129
O17   4    0.268697    0.687697    0.505920    11.00000    0.01352    0.01411 =
         0.02507   -0.00547   -0.00160   -0.00257
O18   4    0.388658    0.730388    0.537581    11.00000    0.02413    0.02116 =
         0.02390   -0.00313   -0.01431    0.00363
O19   4    0.418480    0.744753    0.435850    11.00000    0.02338    0.02260 =
         0.02646   -0.01270    0.00617    0.00005
O20   4    0.111931    0.519648    0.716507    11.00000    0.02115    0.02074 =
         0.02023   -0.00464   -0.01193    0.00586
O21   4    0.235656    0.561979    0.745689    11.00000    0.01745    0.01564 =
         0.02860   -0.00705   -0.00416   -0.00618
O22   4    0.088191    0.502535    0.818491    11.00000    0.01816    0.02456 =
         0.02240   -0.01395    0.00584   -0.00319
O26   4    0.412433    0.250434    0.932199    11.00000    0.02009    0.02406 =
         0.02568   -0.01289    0.00353    0.00185
O27   4    0.264641    0.190248    1.003935    11.00000    0.01807    0.01469 =
         0.02871   -0.00757   -0.00278   -0.00418
O28   4    0.387956    0.229773    1.035115    11.00000    0.01812    0.01993 =
         0.02357   -0.00435   -0.01156    0.00431
O29   4    0.279335    0.694137    0.654869    11.00000    0.02207    0.01719 =
         0.02397   -0.00599   -0.00598    0.00503
O30   4    0.148812   -0.000869    1.033082    11.00000    0.03986    0.02205 =
         0.01992   -0.00712    0.00065   -0.00810
O31   4    0.919480    0.337738    0.584777    11.00000    0.02379    0.02144 =
         0.02943   -0.01370   -0.01354    0.01215
O32   4    0.836030    0.506708    0.458847    11.00000    0.03754    0.01517 =
         0.01498   -0.00214   -0.00592   -0.00092
O33   4    0.771302    0.443517    0.399591    11.00000    0.02175    0.01680 =
         0.02138   -0.00588   -0.00831    0.00539
O34   4    0.492041    0.327537    0.279290    11.00000    0.02948    0.04045 =
         0.04337   -0.01636    0.01326   -0.00220
O35   4    0.650048    0.248838    0.283786    11.00000    0.04228    0.01771 =
         0.01991   -0.00627   -0.00068   -0.00564
O36   4    0.335559    0.257424    0.209028    11.00000    0.05136    0.02240 =
         0.01864   -0.00502   -0.00445   -0.00826
O37   4    0.492560    0.176331    0.209589    11.00000    0.02527    0.04731 =
         0.04926   -0.01954    0.00886    0.00000
O38   4    0.269660    0.193666    0.150908    11.00000    0.02001    0.01627 =
         0.02384   -0.00433   -0.00544    0.00447
O39   4    0.222985    0.056480    0.093275    11.00000    0.02675    0.01496 =
         0.02248   -0.00461   -0.00833    0.00369
O40   4    0.993218    0.427342    0.458438    11.00000    0.02434    0.03077 =
         0.03127   -0.00341    0.00270    0.00516
O41   4    0.410078    0.086354    0.336930    11.00000    0.07899    0.05853 =
         0.07323   -0.05109   -0.05932    0.05287
O42   4   -0.007841    0.079919    1.027279    11.00000    0.02864    0.04231 =
         0.03810   -0.01605    0.00366   -0.00114
F1    5    0.239817   -0.082587    0.317952    11.00000    0.04494    0.02602 =
         0.03968   -0.00128   -0.03148    0.00578
F2    5    0.263993   -0.069347    0.228162    11.00000    0.02916    0.02361 =
         0.03963   -0.01430    0.00101    0.01171
F3    5    0.131756   -0.119566    0.291114    11.00000    0.03216    0.01380 =
         0.03079   -0.00588   -0.01188   -0.00184
F7    5    0.674898    0.118889    0.426812    11.00000    0.29703    0.06082 =
         0.16949   -0.06410   -0.16750    0.03688
F8    5    0.546385    0.064688    0.463809    11.00000    0.13924    0.23690 =
         0.03572   -0.02871   -0.01515    0.15147
F9    5    0.663803    0.010463    0.474589    11.00000    0.06015    0.07513 =
         0.04527   -0.03555   -0.03251    0.04303
F10   5    0.017150    0.275136    0.713232    11.00000    0.02741    0.15528 =
         0.02135    0.01027    0.00717    0.02437
F12   5    0.126034    0.346601    0.701635    11.00000    0.16771    0.06007 =
         0.06400   -0.05520   -0.08474    0.07843
F13   5    0.151036    0.242657    0.731174    11.00000    0.05136    0.04325 =
         0.01453   -0.00616   -0.01593    0.02781
F14   5    0.260907    0.829941    0.428556    11.00000    0.04404    0.02739 =
         0.03018   -0.00283   -0.02537    0.00933
F15   5    0.367134    0.868483    0.455965    11.00000    0.02775    0.01280 =
         0.03024   -0.00469   -0.00288    0.00001
F16   5    0.233838    0.818473    0.518066    11.00000    0.02237    0.02115 =
         0.03161   -0.01009    0.00476    0.00878
F17   5    0.139177    0.381103    0.795716    11.00000    0.03012    0.01292 =
         0.02728   -0.00635   -0.00662   -0.00209
F18   5    0.267318    0.432811    0.729060    11.00000    0.02862    0.02281 =
         0.03451   -0.01394    0.00352    0.00979
F19   5    0.251403    0.421113    0.818260    11.00000    0.03981    0.02766 =
         0.03931   -0.00426   -0.03119    0.00669
F23   5    0.361972    0.370180    0.957093    11.00000    0.03571    0.01279 =
         0.03989   -0.00825   -0.00775    0.00072
F24   5    0.248330    0.332076    0.934687    11.00000    0.03708    0.02982 =
         0.03223   -0.00346   -0.02167    0.01252
F25   5    0.234312    0.317869    1.024522    11.00000    0.03174    0.02879 =
         0.03061   -0.01216    0.00334    0.01473
S1    6    0.149792    0.012382    0.259071    11.00000    0.01123    0.01096 =
         0.01401   -0.00538   -0.00263    0.00080
S3    6    0.638348    0.049305    0.371465    11.00000    0.06197    0.01551 =
         0.02141   -0.00896   -0.01257    0.00867
S4    6    0.153469    0.300319    0.620264    11.00000    0.01541    0.00992 =
         0.01101   -0.00169   -0.00652    0.00067
S5    6    0.349962    0.736085    0.489784    11.00000    0.01130    0.01038 =
         0.01534   -0.00432   -0.00217    0.00181
S6    6    0.154379    0.513039    0.763091    11.00000    0.01202    0.01050 =
         0.01375   -0.00581   -0.00247    0.00085
S8    6    0.345927    0.238579    0.987908    11.00000    0.01127    0.01072 =
         0.01568   -0.00495   -0.00210    0.00193
Z1    7    0.178367    0.185691    0.387189    11.00000    0.01140    0.00932 =
         0.00829   -0.00414   -0.00532    0.00489
Z2    7    0.815156    0.318303    0.107292    11.00000    0.01200    0.01121 =
         0.00924   -0.00521   -0.00671    0.00666
Z3    7    0.687008    0.436792    0.637936    11.00000    0.00785    0.00690 =
         0.00848   -0.00222    0.00027    0.00047
Z4    7    0.323781    0.069637    0.857813    11.00000    0.00857    0.00857 =
         0.00955   -0.00397    0.00081   -0.00094
PART    1
O8A   4   10.403500   10.393209   10.167212    21.00000    0.03263    0.01502 =
         0.03049   -0.00131    0.01219    0.00020
O9A   4   10.345800   10.503400   10.144200    21.00000    0.10543    0.05315 =
         0.03946   -0.03509   -0.05338    0.05450
O10A  4   10.482563   10.497300   10.088202    21.00000    0.01759    0.02784 =
         0.01589    0.00502   -0.00706   -0.01220
S2A   6    0.398194    0.457906    0.126365    21.00000    0.01358    0.01414 =
         0.01002   -0.00348   -0.00696    0.00447
F4A   5   10.392000   10.400100   10.051805    21.00000    0.07293    0.05015 =
         0.06400   -0.04527   -0.00704    0.00112
F5A   5   10.340302   10.498600   10.027400    21.00000    0.05968    0.10542 =
         0.06907   -0.07246   -0.05507    0.06063
F6A   5   10.260100   10.395205   10.110909    21.00000    0.02827    0.04880 =
         0.03465    0.01392   -0.01104   -0.02568
C114  1   10.344300   10.430900   10.079800    21.00000    0.02498    0.01597 =
         0.01225   -0.00201   -0.00824    0.00765
PART    2
S2B   6    0.341045    0.448710    0.131049   -21.00000    0.02280    0.01874 =
         0.02360   -0.00787   -0.00464    0.00449
F4B   5    0.391164    0.398089    0.051376   -21.00000    0.07293    0.05015 =
         0.06400   -0.04527   -0.00704    0.00112
F5B   5    0.339058    0.495920    0.028544   -21.00000    0.05968    0.10542 =
         0.06907   -0.07246   -0.05507    0.06063
F6B   5    0.484447    0.481297    0.036795   -21.00000    0.01539    0.08874 =
         0.01547   -0.00559   -0.00287   -0.00356
C200  1    0.393997    0.463109    0.052801   -21.00000    0.02498    0.01597 =
         0.01225   -0.00201   -0.00824    0.00765
O8B   4    0.405243    0.393953    0.163283   -21.00000    0.03263    0.01502 =
         0.03049   -0.00131    0.01219    0.00020
O9B   4    0.347029    0.504691    0.139530   -21.00000    0.10543    0.05315 =
         0.03946   -0.03509   -0.05338    0.05450
O10B  4    0.242603    0.427446    0.142324   -21.00000    0.01856    0.03088 =
         0.03094   -0.01101   -0.01103   -0.00778
PART    1
O44A  4    0.141732    0.200233    0.883604    31.00000    0.02405    0.02342 =
         0.01504   -0.00739   -0.00759    0.01481
PART    2
O44B  4    0.091688    0.162169    0.915302   -31.00000    0.02405    0.02342 =
         0.01504   -0.00739   -0.00759    0.01481
PART    1
O43A  4    0.641467    0.452689    0.132606    41.00000    0.03660    0.04144 =
         0.03705   -0.02515   -0.02209    0.02633
PART    2
O43B  4    0.578376    0.416619    0.162759   -41.00000    0.03660    0.04144 =
         0.03705   -0.02515   -0.02209    0.02633
PART    1
C119  1   -0.150086    0.178097    0.830497    51.00000    0.02197    0.01390 =
         0.01838    0.00181   -0.01155   -0.00679
S7A   6   -0.103101    0.206213    0.877632    51.00000    0.01293    0.01012 =
         0.00838   -0.00086   -0.00309   -0.00181
F20A  5   -0.091437    0.144236    0.805683    51.00000    0.07296    0.03691 =
         0.05607   -0.04009   -0.05290    0.04018
F21A  5   -0.173064    0.229148    0.788072    51.00000    0.01869    0.01967 =
         0.01044    0.00218   -0.00367    0.00085
F22A  5   -0.233069    0.138779    0.860827    51.00000    0.04166    0.06156 =
         0.04247    0.01349   -0.01836   -0.04587
O23A  4   -0.016840    0.247674    0.839100    51.00000    0.01812    0.02062 =
         0.01015    0.00702   -0.00169   -0.01703
O24A  4   -0.087081    0.141781    0.921217    51.00000    0.02161    0.01187 =
         0.01622   -0.00261   -0.01553    0.00427
O25A  4   -0.178125    0.240587    0.900243    51.00000    0.02892    0.02357 =
         0.00435    0.00553    0.00646    0.01099
PART    2
O23B  4   -0.081903    0.265065    0.858477   -51.00000    0.01812    0.02062 =
         0.01015    0.00702   -0.00169   -0.01703
O24B  4   -0.100781    0.136219    0.912699   -51.00000    0.02161    0.01187 =
         0.01622   -0.00261   -0.01553    0.00427
O25B  4   -0.233175    0.199111    0.903669   -51.00000    0.02892    0.02357 =
         0.00435    0.00553    0.00646    0.01099
S7B   6   -0.134712    0.198719    0.877818   -51.00000    0.01293    0.01012 =
         0.00838   -0.00086   -0.00309   -0.00181
F20B  5   -0.047557    0.181712    0.787399   -51.00000    0.07296    0.03691 =
         0.05607   -0.04009   -0.05290    0.04018
F21B  5   -0.164398    0.237564    0.773870   -51.00000    0.01869    0.01967 =
         0.01044    0.00218   -0.00367    0.00085
F22B  5   -0.180670    0.125610    0.825621   -51.00000    0.04166    0.06156 =
         0.04247    0.01349   -0.01836   -0.04587
C201  1   -0.136872    0.185873    0.813077   -51.00000    0.02197    0.01390 =
         0.01838    0.00181   -0.01155   -0.00679
PART    0
H1X   2    0.315678    0.145356    0.334076    11.00000    0.03444
H1Y   2    0.293459    0.195955    0.284780    11.00000    0.03872
H2X   2    0.704217    0.306241    0.207504    11.00000    0.03632
H2Y   2    0.681384    0.365136    0.168347    11.00000    0.01376
H3X   2    0.798004    0.447276    0.534782    11.00000    0.03036
H3Y   2    0.823722    0.394580    0.580462    11.00000    0.00421
H4X   2    0.190017    0.116177    0.911455    11.00000    0.02657
H4Y   2    0.210733    0.055211    0.956470    11.00000    0.02657
H29X  2    0.310725    0.708954    0.618904    11.00000    0.05201
H29Y  2    0.261294    0.651326    0.674583    11.00000    0.03255
H30X  2    0.180649    0.010485    1.053109    11.00000    0.03925
H30Y  2    0.144189   -0.043316    1.039906    11.00000    0.09549
H32X  2    0.852281    0.549603    0.447681    11.00000    0.08017
H32Y  2    0.819843    0.489054    0.437171    11.00000    0.06835
H33X  2    0.815651    0.464533    0.368662    11.00000    0.10772
H33Y  2    0.762459    0.401734    0.423013    11.00000    0.04606
H35X  2    0.677216    0.265633    0.302555    11.00000    0.05221
H35Y  2    0.647351    0.205163    0.296355    11.00000    0.05820
H36X  2    0.319676    0.242328    0.185967    11.00000    0.08762
H36Y  2    0.365321    0.293986    0.204889    11.00000    0.12148
H38X  2    0.261598    0.152668    0.176022    11.00000    0.02449
H38Y  2    0.308292    0.206605    0.116508    11.00000    0.03403
H39X  2    0.197197    0.039648    0.130344    11.00000    0.04137
H39Y  2    0.239353    0.098391    0.073284    11.00000    0.04615
HKLF    4
 
REM  jwj278_0m in P-1
REM R1 =  0.0603 for  14971 Fo > 4sig(Fo)  and  0.0954 for all  26302 data
REM   2175 parameters refined using     45 restraints
 
END  
     
WGHT      0.1044     13.7815 
REM Highest difference peak  1.647,  deepest hole -1.277,  1-sigma level  0.127
Q1    1   0.3520  0.0505  0.3677  11.00000  0.05    1.47
Q2    1   0.5441  0.0709  0.4741  11.00000  0.05    1.36
Q3    1   0.6171  0.0928  0.4499  11.00000  0.05    1.34
Q4    1   0.0450  0.3224  0.7235  11.00000  0.05    1.28
Q5    1   0.6596  0.0095  0.3531  11.00000  0.05    1.24
Q6    1   0.5815  0.0434  0.3703  11.00000  0.05    1.23
Q7    1   0.7298  0.1130  0.3882  11.00000  0.05    1.10
Q8    1   0.2011  0.3668  0.6750  11.00000  0.05    1.08
Q9    1   0.5160  0.0197  0.4567  11.00000  0.05    1.07
Q10   1   0.0639  0.2762  0.6297  11.00000  0.05    1.06
Q11   1   0.5139  0.0142  0.4028  11.00000  0.05    0.98
Q12   1   0.0709  0.2299  0.6572  11.00000  0.05    0.84
Q13   1   0.4935  0.1519  0.2452  11.00000  0.05    0.83
Q14   1   0.0955  0.3143  0.5976  11.00000  0.05    0.83
Q15   1   0.5796 -0.0238  0.4022  11.00000  0.05    0.77
Q16   1   0.5192  0.3090  0.3034  11.00000  0.05    0.76
Q17   1  -0.1402  0.2185  0.8542  11.00000  0.05    0.75
Q18   1   0.3554  0.7329  0.5035  11.00000  0.05    0.75
Q19   1   0.0229  0.0621  1.0528  11.00000  0.05    0.74
Q20   1   0.9951  0.4025  0.4947  11.00000  0.05    0.73
;
_cod_data_source_file            c5sc01414j2.cif
_cod_data_source_block           shelxl
_cod_depositor_comments
;
The following automatic conversions were performed:

'_symmetry_cell_setting' value 'Triclinic' changed to 'triclinic'
according to
/usr/data/users/saulius/crontab/automatic-downloads/rss-feeds/RSC/lib/dictionaries/cif_core.dic
dictionary named 'cif_core.dic' version 2.4.2 from 2011-04-26.

Automatic conversion script
Id: cif_fix_values 3271 2015-04-21 07:52:19Z andrius 

 Adding full bibliography for 1520493--1520498.cif.
;
_cod_original_sg_symbol_H-M      P-1
_cod_database_code               1520496
loop_
_symmetry_equiv_pos_as_xyz
'x, y, z'
'-x, -y, -z'
loop_
_atom_site_label
_atom_site_type_symbol
_atom_site_fract_x
_atom_site_fract_y
_atom_site_fract_z
_atom_site_U_iso_or_equiv
_atom_site_adp_type
_atom_site_occupancy
_atom_site_symmetry_multiplicity
_atom_site_calc_flag
_atom_site_refinement_flags
_atom_site_disorder_assembly
_atom_site_disorder_group
C1 C 0.3681(3) 0.2016(2) 0.41173(18) 0.0122(9) Uani 1 1 d . . .
H1 H 0.3868 0.2252 0.3704 0.015 Uiso 1 1 calc R . .
C2 C 0.4357(3) 0.1942(2) 0.4414(2) 0.0161(10) Uani 1 1 d . . .
H2 H 0.4993 0.2127 0.4213 0.019 Uiso 1 1 calc R . .
C3 C 0.4085(3) 0.1588(2) 0.5018(2) 0.0208(11) Uani 1 1 d . . .
H3 H 0.4533 0.1524 0.5238 0.025 Uiso 1 1 calc R . .
C4 C 0.3146(3) 0.1329(2) 0.5294(2) 0.0183(10) Uani 1 1 d . . .
H4 H 0.2947 0.1088 0.5707 0.022 Uiso 1 1 calc R . .
C5 C 0.2497(3) 0.1419(2) 0.49692(18) 0.0104(9) Uani 1 1 d . . .
C6 C 0.1460(3) 0.1094(2) 0.52569(18) 0.0112(9) Uani 1 1 d . . .
C7 C 0.1283(3) 0.0745(2) 0.59266(18) 0.0165(10) Uani 1 1 d . . .
H7A H 0.1424 0.1077 0.6080 0.025 Uiso 1 1 calc R . .
H7B H 0.1691 0.0377 0.6019 0.025 Uiso 1 1 calc R . .
H7C H 0.0619 0.0557 0.6107 0.025 Uiso 1 1 calc R . .
C8 C 0.1326(3) 0.0562(2) 0.50016(19) 0.0114(9) Uani 1 1 d . . .
C9 C 0.1078(3) -0.0125(2) 0.5365(2) 0.0196(11) Uani 1 1 d . . .
H9 H 0.0924 -0.0269 0.5778 0.024 Uiso 1 1 calc R . .
C10 C 0.1058(3) -0.0594(2) 0.5114(2) 0.0257(12) Uani 1 1 d . . .
H10 H 0.0890 -0.1063 0.5354 0.031 Uiso 1 1 calc R . .
C11 C 0.1284(3) -0.0374(2) 0.4511(2) 0.0227(11) Uani 1 1 d . . .
H11 H 0.1288 -0.0689 0.4330 0.027 Uiso 1 1 calc R . .
C12 C 0.1506(3) 0.0316(2) 0.4176(2) 0.0177(10) Uani 1 1 d . . .
H12 H 0.1662 0.0470 0.3762 0.021 Uiso 1 1 calc R . .
C13 C 0.0764(3) 0.1635(2) 0.51291(18) 0.0101(9) Uani 1 1 d . . .
C14 C 0.0170(3) 0.1800(2) 0.55725(19) 0.0139(10) Uani 1 1 d . . .
H14 H 0.0194 0.1567 0.5965 0.017 Uiso 1 1 calc R . .
C15 C -0.0463(3) 0.2582(2) 0.49054(18) 0.0134(10) Uani 1 1 d . . .
H15 H -0.0899 0.2910 0.4818 0.016 Uiso 1 1 calc R . .
C16 C 0.0121(3) 0.2439(2) 0.44509(18) 0.0114(9) Uani 1 1 d . . .
C17 C 0.0577(3) 0.1494(2) 0.31911(19) 0.0152(10) Uani 1 1 d . . .
H17 H 0.1093 0.1243 0.3114 0.018 Uiso 1 1 calc R . .
C18 C -0.0223(3) 0.1403(2) 0.30269(19) 0.0180(10) Uani 1 1 d . . .
H18 H -0.0260 0.1095 0.2845 0.022 Uiso 1 1 calc R . .
C19 C -0.0967(3) 0.1775(2) 0.31364(19) 0.0187(10) Uani 1 1 d . . .
H19 H -0.1532 0.1718 0.3037 0.022 Uiso 1 1 calc R . .
C20 C -0.0884(3) 0.2228(2) 0.33908(18) 0.0150(10) Uani 1 1 d . . .
H20 H -0.1388 0.2490 0.3462 0.018 Uiso 1 1 calc R . .
C21 C -0.0058(3) 0.2299(2) 0.35434(18) 0.0120(10) Uani 1 1 d . . .
C22 C 0.0093(3) 0.2812(2) 0.38116(18) 0.0110(9) Uani 1 1 d . . .
C23 C -0.0713(3) 0.3272(2) 0.37927(19) 0.0152(10) Uani 1 1 d . . .
H23A H -0.1310 0.2999 0.4045 0.023 Uiso 1 1 calc R . .
H23B H -0.0759 0.3489 0.3390 0.023 Uiso 1 1 calc R . .
H23C H -0.0584 0.3622 0.3931 0.023 Uiso 1 1 calc R . .
C24 C 0.1045(3) 0.3262(2) 0.34505(17) 0.0101(9) Uani 1 1 d . . .
C25 C 0.1085(3) 0.3945(2) 0.31056(18) 0.0152(10) Uani 1 1 d . . .
H25 H 0.0518 0.4156 0.3085 0.018 Uiso 1 1 calc R . .
C26 C 0.1957(3) 0.4325(2) 0.27881(18) 0.0151(10) Uani 1 1 d . . .
H26 H 0.1988 0.4793 0.2545 0.018 Uiso 1 1 calc R . .
C27 C 0.2779(3) 0.4013(2) 0.28309(19) 0.0168(10) Uani 1 1 d . . .
H27 H 0.3383 0.4262 0.2630 0.020 Uiso 1 1 calc R . .
C28 C 0.2689(3) 0.3331(2) 0.31746(18) 0.0134(9) Uani 1 1 d . . .
H28 H 0.3250 0.3113 0.3202 0.016 Uiso 1 1 calc R . .
C29 C 0.7171(3) 0.1736(2) 0.17762(18) 0.0157(10) Uani 1 1 d . . .
H29 H 0.6624 0.1971 0.1741 0.019 Uiso 1 1 calc R . .
C30 C 0.7049(3) 0.1052(2) 0.21216(19) 0.0184(10) Uani 1 1 d . . .
H30 H 0.6435 0.0817 0.2315 0.022 Uiso 1 1 calc R . .
C31 C 0.7849(3) 0.0717(2) 0.2180(2) 0.0183(10) Uani 1 1 d . . .
H31 H 0.7792 0.0249 0.2426 0.022 Uiso 1 1 calc R . .
C32 C 0.8717(3) 0.1066(2) 0.18797(19) 0.0151(10) Uani 1 1 d . . .
H32 H 0.9269 0.0837 0.1911 0.018 Uiso 1 1 calc R . .
C33 C 0.8801(3) 0.1757(2) 0.15271(18) 0.0120(9) Uani 1 1 d . . .
C34 C 0.9766(3) 0.2168(2) 0.11842(18) 0.0118(9) Uani 1 1 d . . .
C35 C 1.0555(3) 0.1686(2) 0.12258(19) 0.0158(10) Uani 1 1 d . . .
H35A H 1.0434 0.1344 0.1077 0.024 Uiso 1 1 calc R . .
H35B H 1.0566 0.1460 0.1635 0.024 Uiso 1 1 calc R . .
H35C H 1.1167 0.1948 0.0991 0.024 Uiso 1 1 calc R . .
C36 C 0.9931(3) 0.2674(2) 0.14569(17) 0.0110(9) Uani 1 1 d . . .
C37 C 1.0732(3) 0.2702(2) 0.16491(18) 0.0132(10) Uani 1 1 d . . .
H37 H 1.1220 0.2422 0.1593 0.016 Uiso 1 1 calc R . .
C38 C 1.0812(3) 0.3140(2) 0.19224(18) 0.0155(10) Uani 1 1 d . . .
H38 H 1.1356 0.3167 0.2051 0.019 Uiso 1 1 calc R . .
C39 C 1.0081(3) 0.3538(2) 0.20050(18) 0.0149(10) Uani 1 1 d . . .
H39 H 1.0111 0.3836 0.2198 0.018 Uiso 1 1 calc R . .
C40 C 0.9311(3) 0.3490(2) 0.18002(18) 0.0138(10) Uani 1 1 d . . .
H40 H 0.8809 0.3759 0.1859 0.017 Uiso 1 1 calc R . .
C41 C 0.9792(3) 0.2545(2) 0.05342(18) 0.0122(9) Uani 1 1 d . . .
C42 C 1.0404(3) 0.2404(2) 0.00941(18) 0.0144(10) Uani 1 1 d . . .
H42 H 1.0830 0.2071 0.0195 0.017 Uiso 1 1 calc R . .
C43 C 0.9813(3) 0.3189(2) -0.05987(19) 0.0163(10) Uani 1 1 d . . .
H43 H 0.9807 0.3417 -0.0996 0.020 Uiso 1 1 calc R . .
C44 C 0.9193(3) 0.3352(2) -0.01685(18) 0.0109(9) Uani 1 1 d . . .
C45 C 0.8544(3) 0.4719(2) 0.0732(2) 0.0196(11) Uani 1 1 d . . .
H45 H 0.8411 0.4574 0.1145 0.024 Uiso 1 1 calc R . .
C46 C 0.8780(3) 0.5403(2) 0.0390(2) 0.0235(12) Uani 1 1 d . . .
H46 H 0.8798 0.5725 0.0561 0.028 Uiso 1 1 calc R . .
C47 C 0.8988(3) 0.5600(2) -0.0207(2) 0.0272(12) Uani 1 1 d . . .
H47 H 0.9177 0.6064 -0.0458 0.033 Uiso 1 1 calc R . .
C48 C 0.8923(3) 0.5125(2) -0.0439(2) 0.0197(11) Uani 1 1 d . . .
H48 H 0.9060 0.5260 -0.0851 0.024 Uiso 1 1 calc R . .
C49 C 0.8656(3) 0.4446(2) -0.0072(2) 0.0140(10) Uani 1 1 d . . .
C50 C 0.8505(3) 0.3902(2) -0.03130(18) 0.0116(9) Uani 1 1 d . . .
C51 C 0.8690(3) 0.4233(2) -0.09821(18) 0.0179(10) Uani 1 1 d . . .
H51A H 0.9350 0.4429 -0.1161 0.027 Uiso 1 1 calc R . .
H51B H 0.8273 0.4592 -0.1084 0.027 Uiso 1 1 calc R . .
H51C H 0.8566 0.3889 -0.1128 0.027 Uiso 1 1 calc R . .
C52 C 0.7469(3) 0.3586(2) -0.00316(18) 0.0116(9) Uani 1 1 d . . .
C53 C 0.6829(3) 0.3645(2) -0.0361(2) 0.0238(12) Uani 1 1 d . . .
H53 H 0.7038 0.3858 -0.0776 0.029 Uiso 1 1 calc R . .
C54 C 0.5895(4) 0.3398(3) -0.0089(2) 0.0275(12) Uani 1 1 d . . .
H54 H 0.5460 0.3434 -0.0315 0.033 Uiso 1 1 calc R . .
C55 C 0.5596(3) 0.3096(2) 0.0518(2) 0.0176(10) Uani 1 1 d . . .
H55 H 0.4955 0.2921 0.0718 0.021 Uiso 1 1 calc R . .
C56 C 0.6259(3) 0.3058(2) 0.08219(19) 0.0131(10) Uani 1 1 d . . .
H56 H 0.6056 0.2865 0.1238 0.016 Uiso 1 1 calc R . .
C57 C 0.5661(3) 0.4041(2) 0.56777(18) 0.0138(10) Uani 1 1 d . . .
H57 H 0.6170 0.3786 0.5598 0.017 Uiso 1 1 calc R . .
C58 C 0.4861(3) 0.3966(2) 0.55121(19) 0.0169(10) Uani 1 1 d . . .
H58 H 0.4820 0.3664 0.5325 0.020 Uiso 1 1 calc R . .
C59 C 0.4113(3) 0.4342(2) 0.5625(2) 0.0189(11) Uani 1 1 d . . .
H59 H 0.3544 0.4293 0.5527 0.023 Uiso 1 1 calc R . .
C60 C 0.4223(3) 0.4794(2) 0.58862(18) 0.0168(10) Uani 1 1 d . . .
H60 H 0.3734 0.5068 0.5958 0.020 Uiso 1 1 calc R . .
C61 C 0.5051(3) 0.4840(2) 0.60400(17) 0.0097(9) Uani 1 1 d . . .
C62 C 0.5223(3) 0.5355(2) 0.63074(18) 0.0107(9) Uani 1 1 d . . .
C63 C 0.4431(3) 0.5823(2) 0.62890(19) 0.0153(10) Uani 1 1 d . . .
H63A H 0.3831 0.5555 0.6543 0.023 Uiso 1 1 calc R . .
H63B H 0.4383 0.6041 0.5886 0.023 Uiso 1 1 calc R . .
H63C H 0.4572 0.6172 0.6426 0.023 Uiso 1 1 calc R . .
C64 C 0.6187(3) 0.5780(2) 0.59527(18) 0.0113(9) Uani 1 1 d . . .
C65 C 0.6235(3) 0.6465(2) 0.55962(18) 0.0148(10) Uani 1 1 d . . .
H65 H 0.5674 0.6683 0.5568 0.018 Uiso 1 1 calc R . .
C66 C 0.7121(4) 0.6828(2) 0.52806(19) 0.0191(11) Uani 1 1 d . . .
H66 H 0.7167 0.7293 0.5029 0.023 Uiso 1 1 calc R . .
C67 C 0.7926(3) 0.6508(2) 0.53358(19) 0.0185(11) Uani 1 1 d . . .
H67 H 0.8534 0.6751 0.5136 0.022 Uiso 1 1 calc R . .
C68 C 0.7831(3) 0.5826(2) 0.56876(19) 0.0160(10) Uani 1 1 d . . .
H68 H 0.8386 0.5603 0.5721 0.019 Uiso 1 1 calc R . .
C69 C 0.5223(3) 0.4962(2) 0.69526(18) 0.0106(9) Uani 1 1 d . . .
C70 C 0.4635(3) 0.5098(2) 0.74102(19) 0.0128(9) Uani 1 1 d . . .
H70 H 0.4219 0.5440 0.7322 0.015 Uiso 1 1 calc R . .
C71 C 0.5229(3) 0.4288(2) 0.80772(19) 0.0134(10) Uani 1 1 d . . .
H71 H 0.5243 0.4045 0.8471 0.016 Uiso 1 1 calc R . .
C72 C 0.5828(3) 0.4134(2) 0.76345(18) 0.0094(9) Uani 1 1 d . . .
C73 C 0.8762(3) 0.4484(2) 0.66446(19) 0.0130(10) Uani 1 1 d . . .
H73 H 0.8959 0.4727 0.6232 0.016 Uiso 1 1 calc R . .
C74 C 0.9432(3) 0.4384(2) 0.6949(2) 0.0157(10) Uani 1 1 d . . .
H74 H 1.0074 0.4558 0.6754 0.019 Uiso 1 1 calc R . .
C75 C 0.9142(3) 0.4022(2) 0.75476(19) 0.0145(9) Uani 1 1 d . . .
H75 H 0.9585 0.3945 0.7772 0.017 Uiso 1 1 calc R . .
C76 C 0.8207(3) 0.3774(2) 0.78169(18) 0.0123(9) Uani 1 1 d . . .
H76 H 0.8005 0.3523 0.8228 0.015 Uiso 1 1 calc R . .
C77 C 0.7558(3) 0.3893(2) 0.74860(18) 0.0106(9) Uani 1 1 d . . .
C78 C 0.6512(3) 0.3581(2) 0.77608(18) 0.0107(9) Uani 1 1 d . . .
C79 C 0.6319(3) 0.3220(2) 0.84302(17) 0.0149(10) Uani 1 1 d . . .
H79A H 0.6474 0.3543 0.8590 0.022 Uiso 1 1 calc R . .
H79B H 0.6709 0.2841 0.8523 0.022 Uiso 1 1 calc R . .
H79C H 0.5650 0.3046 0.8604 0.022 Uiso 1 1 calc R . .
C80 C 0.6363(3) 0.3059(2) 0.74950(18) 0.0108(9) Uani 1 1 d . . .
C81 C 0.6074(3) 0.2378(2) 0.78449(19) 0.0145(10) Uani 1 1 d . . .
H81 H 0.5901 0.2228 0.8259 0.017 Uiso 1 1 calc R . .
C82 C 0.6040(3) 0.1917(2) 0.7588(2) 0.0176(10) Uani 1 1 d . . .
H82 H 0.5842 0.1451 0.7825 0.021 Uiso 1 1 calc R . .
C83 C 0.6298(3) 0.2145(2) 0.6983(2) 0.0173(10) Uani 1 1 d . . .
H83 H 0.6301 0.1839 0.6794 0.021 Uiso 1 1 calc R . .
C84 C 0.6549(3) 0.2832(2) 0.66644(19) 0.0140(10) Uani 1 1 d . . .
H84 H 0.6712 0.2993 0.6249 0.017 Uiso 1 1 calc R . .
C85 C 0.3598(3) 0.2243(2) 0.8211(2) 0.0152(10) Uani 1 1 d . . .
H85 H 0.3484 0.2107 0.8622 0.018 Uiso 1 1 calc R . .
C86 C 0.3799(3) 0.2930(2) 0.7855(2) 0.0165(10) Uani 1 1 d . . .
H86 H 0.3819 0.3261 0.8017 0.020 Uiso 1 1 calc R . .
C87 C 0.3970(3) 0.3120(2) 0.7257(2) 0.0192(11) Uani 1 1 d . . .
H87 H 0.4119 0.3585 0.7001 0.023 Uiso 1 1 calc R . .
C88 C 0.3923(3) 0.2629(2) 0.70343(19) 0.0155(10) Uani 1 1 d . . .
H88 H 0.4043 0.2755 0.6624 0.019 Uiso 1 1 calc R . .
C89 C 0.3698(3) 0.1950(2) 0.74143(18) 0.0112(9) Uani 1 1 d . . .
C90 C 0.3558(3) 0.1391(2) 0.71861(18) 0.0100(9) Uani 1 1 d . . .
C91 C 0.3725(3) 0.1707(2) 0.65214(18) 0.0139(10) Uani 1 1 d . . .
H91A H 0.4375 0.1924 0.6335 0.021 Uiso 1 1 calc R . .
H91B H 0.3282 0.2049 0.6421 0.021 Uiso 1 1 calc R . .
H91C H 0.3625 0.1352 0.6382 0.021 Uiso 1 1 calc R . .
C92 C 0.2524(3) 0.1060(2) 0.74847(18) 0.0098(9) Uani 1 1 d . . .
C93 C 0.1886(3) 0.1093(2) 0.71607(19) 0.0144(10) Uani 1 1 d . . .
H93 H 0.2088 0.1296 0.6745 0.017 Uiso 1 1 calc R . .
C94 C 0.0947(3) 0.0828(2) 0.7446(2) 0.0182(10) Uani 1 1 d . . .
H94 H 0.0506 0.0843 0.7229 0.022 Uiso 1 1 calc R . .
C95 C 0.0668(3) 0.0540(2) 0.8055(2) 0.0154(10) Uani 1 1 d . . .
H95 H 0.0032 0.0360 0.8262 0.018 Uiso 1 1 calc R . .
C96 C 0.1334(3) 0.0520(2) 0.8348(2) 0.0153(10) Uani 1 1 d . . .
H96 H 0.1142 0.0326 0.8764 0.018 Uiso 1 1 calc R . .
C97 C 0.4255(3) 0.0853(2) 0.73396(18) 0.0093(9) Uani 1 1 d . . .
C98 C 0.4869(3) 0.0681(2) 0.69058(18) 0.0115(9) Uani 1 1 d . . .
H98 H 0.4845 0.0897 0.6511 0.014 Uiso 1 1 calc R . .
C99 C 0.5502(3) -0.0074(2) 0.75925(18) 0.0123(9) Uani 1 1 d . . .
H99 H 0.5944 -0.0395 0.7690 0.015 Uiso 1 1 calc R . .
C100 C 0.4893(3) 0.0073(2) 0.80364(18) 0.0102(9) Uani 1 1 d . . .
C101 C 0.2309(3) -0.0772(2) 0.92899(19) 0.0195(11) Uani 1 1 d . . .
H101 H 0.1751 -0.0550 0.9263 0.023 Uiso 1 1 calc R . .
C102 C 0.2215(4) -0.1457(2) 0.9626(2) 0.0228(12) Uani 1 1 d . . .
H102 H 0.1608 -0.1702 0.9821 0.027 Uiso 1 1 calc R . .
C103 C 0.3022(4) -0.1778(2) 0.9673(2) 0.0234(12) Uani 1 1 d . . .
H103 H 0.2980 -0.2247 0.9914 0.028 Uiso 1 1 calc R . .
C104 C 0.3887(4) -0.1415(2) 0.93676(19) 0.0197(11) Uani 1 1 d . . .
H104 H 0.4449 -0.1632 0.9386 0.024 Uiso 1 1 calc R . .
C106 C 0.4893(3) -0.0295(2) 0.86843(18) 0.0121(9) Uani 1 1 d . . .
C107 C 0.5697(3) -0.0761(2) 0.87179(19) 0.0160(10) Uani 1 1 d . . .
H10A H 0.5580 -0.1109 0.8575 0.024 Uiso 1 1 calc R . .
H10B H 0.5723 -0.0980 0.9125 0.024 Uiso 1 1 calc R . .
H10C H 0.6300 -0.0490 0.8475 0.024 Uiso 1 1 calc R . .
C108 C 0.5041(3) 0.0227(2) 0.89503(18) 0.0116(10) Uani 1 1 d . . .
C109 C 0.5830(4) 0.0264(2) 0.91424(19) 0.0184(11) Uani 1 1 d . . .
H109 H 0.6325 -0.0010 0.9087 0.022 Uiso 1 1 calc R . .
C110 C 0.5894(4) 0.0703(3) 0.9415(2) 0.0265(12) Uani 1 1 d . . .
H110 H 0.6433 0.0733 0.9547 0.032 Uiso 1 1 calc R . .
C111 C 0.5170(4) 0.1095(2) 0.9494(2) 0.0205(11) Uani 1 1 d . . .
H111 H 0.5198 0.1398 0.9681 0.025 Uiso 1 1 calc R . .
C112 C 0.4393(3) 0.1037(2) 0.92912(18) 0.0156(10) Uani 1 1 d . . .
H112 H 0.3884 0.1299 0.9352 0.019 Uiso 1 1 calc R . .
C113 C 0.1987(3) -0.0695(2) 0.2750(2) 0.0177(10) Uani 1 1 d . . .
C115 C 0.6304(5) 0.0601(3) 0.4371(3) 0.0489(17) Uani 1 1 d . . .
C116 C 0.1115(4) 0.2910(3) 0.6954(2) 0.0308(13) Uani 1 1 d . . .
C117 C 0.3001(3) 0.8175(2) 0.47238(19) 0.0155(10) Uani 1 1 d . . .
C118 C 0.2059(3) 0.4326(2) 0.7772(2) 0.0177(11) Uani 1 1 d . . .
C120 C 0.2955(3) 0.3194(2) 0.9752(2) 0.0184(11) Uani 1 1 d . . .
C205 C 0.3934(3) -0.0723(2) 0.90309(18) 0.0135(10) Uani 1 1 d . . .
N1 N 0.2765(3) 0.17730(17) 0.43826(15) 0.0110(8) Uani 1 1 d . . .
N2 N 0.1510(3) 0.07742(17) 0.44152(15) 0.0116(8) Uani 1 1 d . . .
N3 N 0.0723(3) 0.19690(17) 0.45748(14) 0.0090(8) Uani 1 1 d . . .
N4 N -0.0426(3) 0.22722(19) 0.54573(15) 0.0147(8) Uani 1 1 d . . .
N5 N 0.0660(3) 0.19176(18) 0.34533(15) 0.0124(8) Uani 1 1 d . . .
N6 N 0.1851(3) 0.29526(17) 0.34752(15) 0.0120(8) Uani 1 1 d . . .
N7 N 0.8018(3) 0.20862(18) 0.14880(15) 0.0126(8) Uani 1 1 d . . .
N8 N 0.9242(3) 0.30795(18) 0.15211(15) 0.0114(8) Uani 1 1 d . . .
N9 N 0.9194(2) 0.30219(17) 0.03940(14) 0.0090(8) Uani 1 1 d . . .
N10 N 1.0417(3) 0.27192(19) -0.04674(16) 0.0172(9) Uani 1 1 d . . .
N11 N 0.8494(3) 0.42489(17) 0.05083(16) 0.0138(8) Uani 1 1 d . . .
N12 N 0.7175(3) 0.32791(17) 0.05599(15) 0.0110(8) Uani 1 1 d . . .
N13 N 0.5758(3) 0.44588(17) 0.59470(15) 0.0121(8) Uani 1 1 d . . .
N14 N 0.6973(3) 0.54586(17) 0.59895(15) 0.0124(8) Uani 1 1 d . . .
N15 N 0.5816(2) 0.44840(17) 0.70760(14) 0.0088(8) Uani 1 1 d . . .
N16 N 0.4638(3) 0.47662(19) 0.79644(16) 0.0147(8) Uani 1 1 d . . .
N17 N 0.7835(2) 0.42546(17) 0.69007(15) 0.0100(8) Uani 1 1 d . . .
N18 N 0.6576(2) 0.32863(17) 0.69054(15) 0.0118(8) Uani 1 1 d . . .
N19 N 0.3558(2) 0.17627(17) 0.79951(15) 0.0108(8) Uani 1 1 d . . .
N20 N 0.2248(2) 0.07638(17) 0.80760(15) 0.0108(8) Uani 1 1 d . . .
N21 N 0.4284(2) 0.05356(17) 0.78967(14) 0.0091(8) Uani 1 1 d . . .
N22 N 0.5481(2) 0.02230(18) 0.70350(15) 0.0129(8) Uani 1 1 d . . .
N23 N 0.3148(3) -0.04002(17) 0.89982(15) 0.0134(8) Uani 1 1 d . . .
N24 N 0.4338(3) 0.06235(17) 0.90132(15) 0.0118(8) Uani 1 1 d . . .
O1 O 0.2763(2) 0.17237(17) 0.32099(13) 0.0163(7) Uani 1 1 d D . .
O2 O 0.7180(2) 0.33469(17) 0.17206(14) 0.0176(7) Uani 1 1 d D . .
O3 O 0.7846(2) 0.42379(16) 0.57134(13) 0.0149(7) Uani 1 1 d D . .
O4 O 0.2266(2) 0.08680(17) 0.92194(14) 0.0187(7) Uani 1 1 d D . .
O5 O 0.1114(2) 0.02014(16) 0.21054(14) 0.0211(8) Uani 1 1 d . . .
O6 O 0.2310(2) 0.06005(15) 0.24433(14) 0.0189(7) Uani 1 1 d . . .
O7 O 0.0814(2) 0.00224(17) 0.31320(14) 0.0247(8) Uani 1 1 d . . .
O11 O 0.7395(4) 0.0520(3) 0.34985(19) 0.098(2) Uani 1 1 d . . .
O12 O 0.5972(2) 0.10766(16) 0.33821(15) 0.0262(8) Uani 1 1 d . . .
O13 O 0.5846(6) -0.0123(2) 0.3882(3) 0.154(4) Uani 1 1 d . . .
O14 O 0.2539(2) 0.31658(17) 0.60639(15) 0.0345(9) Uani 1 1 d . . .
O15 O 0.1038(2) 0.35598(15) 0.59092(13) 0.0182(7) Uani 1 1 d . . .
O16 O 0.1235(3) 0.23641(16) 0.62033(17) 0.0466(12) Uani 1 1 d . . .
O17 O 0.2687(2) 0.68770(15) 0.50592(14) 0.0190(7) Uani 1 1 d . . .
O18 O 0.3887(2) 0.73039(16) 0.53758(14) 0.0233(8) Uani 1 1 d . . .
O19 O 0.4185(2) 0.74475(17) 0.43585(15) 0.0257(8) Uani 1 1 d . . .
O20 O 0.1119(2) 0.51965(16) 0.71651(14) 0.0205(8) Uani 1 1 d . . .
O21 O 0.2357(2) 0.56198(15) 0.74569(14) 0.0214(8) Uani 1 1 d . . .
O22 O 0.0882(2) 0.50253(16) 0.81849(14) 0.0225(8) Uani 1 1 d . . .
O26 O 0.4124(2) 0.25043(16) 0.93220(14) 0.0242(8) Uani 1 1 d . . .
O27 O 0.2646(2) 0.19025(15) 1.00394(14) 0.0215(8) Uani 1 1 d . . .
O28 O 0.3880(2) 0.22977(16) 1.03512(14) 0.0207(8) Uani 1 1 d . . .
O29 O 0.2793(2) 0.69414(17) 0.65487(15) 0.0218(8) Uani 1 1 d D . .
O30 O 0.1488(3) -0.00087(18) 1.03308(15) 0.0293(9) Uani 1 1 d D . .
O31 O 0.9195(2) 0.33774(16) 0.58478(14) 0.0225(7) Uani 1 1 d . . .
O32 O 0.8360(3) 0.50671(17) 0.45885(14) 0.0240(8) Uani 1 1 d D . .
O33 O 0.7713(3) 0.44352(17) 0.39959(15) 0.0200(7) Uani 1 1 d D . .
O34 O 0.4920(3) 0.3275(2) 0.27929(17) 0.0423(10) Uani 1 1 d . . .
O35 O 0.6500(3) 0.24884(18) 0.28379(15) 0.0285(9) Uani 1 1 d D . .
O36 O 0.3356(3) 0.25742(19) 0.20903(15) 0.0327(9) Uani 1 1 d D . .
O37 O 0.4926(3) 0.1763(2) 0.20959(18) 0.0442(11) Uani 1 1 d . . .
O38 O 0.2697(2) 0.19367(16) 0.15091(15) 0.0212(8) Uani 1 1 d D . .
O39 O 0.2230(3) 0.05648(17) 0.09327(15) 0.0219(8) Uani 1 1 d D . .
O40 O 0.9932(2) 0.42734(18) 0.45844(15) 0.0335(9) Uani 1 1 d . . .
O41 O 0.4101(3) 0.0864(2) 0.3369(2) 0.0550(13) Uani 1 1 d . . .
O42 O -0.0078(3) 0.07992(19) 1.02728(16) 0.0388(10) Uani 1 1 d . . .
F1 F 0.2398(2) -0.08259(15) 0.31795(14) 0.0365(8) Uani 1 1 d . . .
F2 F 0.2640(2) -0.06935(14) 0.22816(13) 0.0323(7) Uani 1 1 d . . .
F3 F 0.1318(2) -0.11957(13) 0.29111(12) 0.0258(7) Uani 1 1 d . . .
F7 F 0.6749(6) 0.1189(2) 0.4268(3) 0.149(3) Uani 1 1 d . . .
F8 F 0.5464(4) 0.0647(4) 0.46381(18) 0.147(3) Uani 1 1 d . . .
F9 F 0.6638(3) 0.0105(2) 0.47459(15) 0.0530(10) Uani 1 1 d . . .
F10 F 0.0171(2) 0.2751(3) 0.71323(14) 0.0847(16) Uani 1 1 d . . .
F12 F 0.1260(4) 0.34660(19) 0.70164(17) 0.0775(16) Uani 1 1 d . . .
F13 F 0.1510(2) 0.24266(15) 0.73117(11) 0.0367(8) Uani 1 1 d . . .
F14 F 0.2609(2) 0.82994(14) 0.42856(13) 0.0335(8) Uani 1 1 d . . .
F15 F 0.3671(2) 0.86848(13) 0.45597(12) 0.0257(7) Uani 1 1 d . . .
F16 F 0.2338(2) 0.81847(14) 0.51807(12) 0.0275(7) Uani 1 1 d . . .
F17 F 0.1392(2) 0.38110(13) 0.79572(12) 0.0241(7) Uani 1 1 d . . .
F18 F 0.2673(2) 0.43281(14) 0.72906(13) 0.0302(7) Uani 1 1 d . . .
F19 F 0.2514(2) 0.42111(15) 0.81826(13) 0.0343(8) Uani 1 1 d . . .
F23 F 0.3620(2) 0.37018(13) 0.95709(13) 0.0306(7) Uani 1 1 d . . .
F24 F 0.2483(2) 0.33208(15) 0.93469(13) 0.0333(7) Uani 1 1 d . . .
F25 F 0.2343(2) 0.31787(15) 1.02452(13) 0.0326(8) Uani 1 1 d . . .
S1 S 0.14979(8) 0.01238(5) 0.25907(5) 0.0121(2) Uani 1 1 d . . .
S3 S 0.63835(12) 0.04931(6) 0.37146(6) 0.0322(4) Uani 1 1 d . . .
S4 S 0.15347(8) 0.30032(5) 0.62026(4) 0.0123(2) Uani 1 1 d . . .
S5 S 0.34996(8) 0.73608(5) 0.48978(5) 0.0129(3) Uani 1 1 d . . .
S6 S 0.15438(8) 0.51304(5) 0.76309(5) 0.0120(2) Uani 1 1 d . . .
S8 S 0.34593(8) 0.23858(5) 0.98791(5) 0.0129(3) Uani 1 1 d . . .
Z1 Zn 0.17837(3) 0.18569(2) 0.38719(2) 0.00895(14) Uani 1 1 d . . .
Z2 Zn 0.81516(4) 0.31830(2) 0.10729(2) 0.00971(14) Uani 1 1 d . . .
Z3 Zn 0.68701(3) 0.43679(2) 0.63794(2) 0.00848(14) Uani 1 1 d . . .
Z4 Zn 0.32378(3) 0.06964(2) 0.85781(2) 0.00941(14) Uani 1 1 d . . .
O8A O 0.4035 0.3932 0.1672 0.0325(10) Uani 0.511(4) 1 d P A 1
O9A O 0.3458 0.5034 0.1442 0.0543(13) Uani 0.511(4) 1 d P A 1
O10A O 0.4826 0.4973 0.0882 0.0241(16) Uani 0.511(4) 1 d P A 1
S2A S 0.3982(2) 0.45791(11) 0.12637(9) 0.0122(6) Uani 0.511(4) 1 d P A 1
F4A F 0.3920 0.4001 0.0518 0.0575(10) Uani 0.511(4) 1 d P A 1
F5A F 0.3403 0.4986 0.0274 0.0590(12) Uani 0.511(4) 1 d P A 1
F6A F 0.2601 0.3952 0.1109 0.046(2) Uani 0.511(4) 1 d P A 1
C114 C 0.3443 0.4309 0.0798 0.0182(15) Uani 0.511(4) 1 d P A 1
S2B S 0.3410(3) 0.44871(14) 0.13105(12) 0.0222(8) Uani 0.489(4) 1 d P A 2
F4B F 0.3912(6) 0.3981(4) 0.0514(3) 0.0575(10) Uani 0.489(4) 1 d P A 2
F5B F 0.3391(5) 0.4959(4) 0.0285(3) 0.0590(12) Uani 0.489(4) 1 d P A 2
F6B F 0.4844(4) 0.4813(4) 0.0368(2) 0.045(2) Uani 0.489(4) 1 d P . 2
C200 C 0.3940(7) 0.4631(5) 0.0528(4) 0.0182(15) Uani 0.489(4) 1 d P A 2
O8B O 0.4052(5) 0.3940(3) 0.1633(3) 0.0325(10) Uani 0.489(4) 1 d P A 2
O9B O 0.3470(7) 0.5047(4) 0.1395(3) 0.0543(13) Uani 0.489(4) 1 d P A 2
O10B O 0.2426(5) 0.4274(3) 0.1423(3) 0.0262(17) Uani 0.489(4) 1 d P A 2
O44A O 0.1417(3) 0.20023(19) 0.88360(15) 0.0205(10) Uani 0.809(6) 1 d P B 1
O44B O 0.0917(13) 0.1622(9) 0.9153(7) 0.0205(10) Uani 0.191(6) 1 d P B 2
O43A O 0.6415(5) 0.4527(3) 0.1326(3) 0.0330(13) Uani 0.567(6) 1 d P C 1
O43B O 0.5784(7) 0.4166(5) 0.1628(4) 0.0330(13) Uani 0.433(6) 1 d P C 2
C119 C -0.1501(5) 0.1781(3) 0.8305(2) 0.0194(15) Uani 0.766(3) 1 d PD D 1
S7A S -0.10310(14) 0.20621(10) 0.87763(9) 0.0113(4) Uani 0.766(3) 1 d PD D 1
F20A F -0.0914(4) 0.1442(2) 0.8057(2) 0.0417(13) Uani 0.766(3) 1 d PD D 1
F21A F -0.1731(7) 0.2291(5) 0.7881(2) 0.0188(12) Uani 0.766(3) 1 d PD D 1
F22A F -0.2331(3) 0.1388(2) 0.86083(19) 0.0574(15) Uani 0.766(3) 1 d PD D 1
O23A O -0.0168(3) 0.24767(19) 0.83910(15) 0.0207(9) Uani 0.766(3) 1 d PD D 1
O24A O -0.0871(7) 0.1418(3) 0.9212(4) 0.0154(14) Uani 0.766(3) 1 d PD D 1
O25A O -0.1781(3) 0.2406(2) 0.90024(15) 0.0245(10) Uani 0.766(3) 1 d PD D 1
O23B O -0.0819(10) 0.2651(6) 0.8585(5) 0.0207(9) Uani 0.234(3) 1 d PD D 2
O24B O -0.101(3) 0.1362(12) 0.9127(15) 0.0154(14) Uani 0.234(3) 1 d PD D 2
O25B O -0.2332(9) 0.1991(7) 0.9037(5) 0.0245(10) Uani 0.234(3) 1 d PD D 2
S7B S -0.1347(5) 0.1987(4) 0.8778(4) 0.0113(4) Uani 0.234(3) 1 d PD D 2
F20B F -0.0476(12) 0.1817(8) 0.7874(7) 0.0417(13) Uani 0.234(3) 1 d PD D 2
F21B F -0.164(3) 0.2376(17) 0.7739(11) 0.0188(12) Uani 0.234(3) 1 d PD D 2
F22B F -0.1807(11) 0.1256(8) 0.8256(7) 0.0574(15) Uani 0.234(3) 1 d PD D 2
C201 C -0.1369(16) 0.1859(11) 0.8131(8) 0.0194(15) Uani 0.234(3) 1 d PD D 2
H1X H 0.316(3) 0.145(2) 0.334(2) 0.034(16) Uiso 1 1 d D . .
H1Y H 0.293(4) 0.196(2) 0.2848(10) 0.039(17) Uiso 1 1 d D . .
H2X H 0.704(4) 0.306(2) 0.2075(11) 0.036(17) Uiso 1 1 d D . .
H2Y H 0.681(3) 0.3651(17) 0.168(2) 0.014(13) Uiso 1 1 d D . .
H3X H 0.798(4) 0.447(2) 0.5348(10) 0.030(15) Uiso 1 1 d D . .
H3Y H 0.824(2) 0.3946(17) 0.5805(18) 0.004(11) Uiso 1 1 d D . .
H4X H 0.190(3) 0.116(2) 0.911(2) 0.027(10) Uiso 1 1 d D . .
H4Y H 0.211(4) 0.0552(19) 0.9565(12) 0.027(10) Uiso 1 1 d D . .
H29X H 0.311(4) 0.709(3) 0.6189(11) 0.05(2) Uiso 1 1 d D . .
H29Y H 0.261(4) 0.6513(12) 0.6746(19) 0.033(16) Uiso 1 1 d D . .
H30X H 0.181(4) 0.010(3) 1.053(2) 0.039(18) Uiso 1 1 d D . .
H30Y H 0.144(5) -0.0433(14) 1.040(3) 0.10(3) Uiso 1 1 d D . .
H32X H 0.852(5) 0.5496(13) 0.448(3) 0.08(3) Uiso 1 1 d D . .
H32Y H 0.820(5) 0.489(3) 0.437(2) 0.07(2) Uiso 1 1 d D . .
H33X H 0.816(4) 0.465(4) 0.369(2) 0.11(3) Uiso 1 1 d D . .
H33Y H 0.762(4) 0.4017(13) 0.423(2) 0.046(19) Uiso 1 1 d D . .
H35X H 0.677(4) 0.266(3) 0.303(2) 0.05(2) Uiso 1 1 d D . .
H35Y H 0.647(4) 0.2052(10) 0.296(3) 0.06(2) Uiso 1 1 d D . .
H36X H 0.320(5) 0.242(3) 0.186(3) 0.09(3) Uiso 1 1 d D . .
H36Y H 0.365(6) 0.294(3) 0.205(4) 0.12(4) Uiso 1 1 d D . .
H38X H 0.262(3) 0.1527(13) 0.1760(16) 0.024(14) Uiso 1 1 d D . .
H38Y H 0.308(3) 0.207(2) 0.1165(12) 0.034(17) Uiso 1 1 d D . .
H39X H 0.197(4) 0.040(2) 0.1303(9) 0.041(18) Uiso 1 1 d D . .
H39Y H 0.239(4) 0.0984(12) 0.073(2) 0.046(19) Uiso 1 1 d D . .
loop_
_atom_site_aniso_label
_atom_site_aniso_U_11
_atom_site_aniso_U_22
_atom_site_aniso_U_33
_atom_site_aniso_U_23
_atom_site_aniso_U_13
_atom_site_aniso_U_12
C1 0.014(2) 0.010(2) 0.011(2) -0.0032(17) -0.0035(19) 0.0032(17)
C2 0.015(2) 0.015(2) 0.019(2) -0.0072(19) -0.004(2) 0.0008(19)
C3 0.016(3) 0.027(3) 0.021(2) -0.006(2) -0.012(2) -0.002(2)
C4 0.017(2) 0.025(2) 0.012(2) -0.0034(19) -0.009(2) 0.001(2)
C5 0.010(2) 0.007(2) 0.014(2) -0.0030(17) -0.0050(18) 0.0010(17)
C6 0.010(2) 0.013(2) 0.008(2) -0.0001(17) -0.0042(18) 0.0011(18)
C7 0.013(2) 0.022(2) 0.010(2) -0.0012(18) -0.0021(19) 0.0019(19)
C8 0.005(2) 0.012(2) 0.019(2) -0.0048(18) -0.0064(18) 0.0035(17)
C9 0.010(2) 0.012(2) 0.026(2) 0.0014(19) -0.001(2) 0.0002(18)
C10 0.015(3) 0.008(2) 0.047(3) -0.005(2) -0.007(2) 0.0027(19)
C11 0.022(3) 0.014(2) 0.046(3) -0.020(2) -0.019(2) 0.009(2)
C12 0.020(3) 0.014(2) 0.024(2) -0.0090(19) -0.013(2) 0.0067(19)
C13 0.009(2) 0.008(2) 0.013(2) -0.0012(17) -0.0043(18) -0.0012(17)
C14 0.016(2) 0.016(2) 0.011(2) -0.0055(18) -0.0047(19) -0.0008(19)
C15 0.016(2) 0.012(2) 0.011(2) -0.0029(18) -0.0039(19) 0.0042(18)
C16 0.011(2) 0.011(2) 0.011(2) -0.0031(17) -0.0027(18) 0.0010(18)
C17 0.020(3) 0.016(2) 0.016(2) -0.0083(19) -0.011(2) 0.0099(19)
C18 0.023(3) 0.019(2) 0.016(2) -0.0075(19) -0.012(2) 0.002(2)
C19 0.017(2) 0.021(2) 0.018(2) -0.0039(19) -0.010(2) 0.0005(19)
C20 0.014(2) 0.016(2) 0.014(2) -0.0034(18) -0.0057(19) 0.0038(18)
C21 0.013(2) 0.014(2) 0.008(2) -0.0031(17) -0.0055(18) 0.0062(18)
C22 0.013(2) 0.009(2) 0.011(2) -0.0037(17) -0.0035(18) 0.0053(17)
C23 0.013(2) 0.016(2) 0.014(2) -0.0040(18) -0.0042(19) 0.0090(18)
C24 0.014(2) 0.013(2) 0.0058(19) -0.0053(16) -0.0044(17) 0.0029(17)
C25 0.024(3) 0.011(2) 0.013(2) -0.0068(17) -0.0078(19) 0.0070(18)
C26 0.026(3) 0.009(2) 0.014(2) -0.0056(17) -0.010(2) 0.0038(18)
C27 0.024(3) 0.015(2) 0.013(2) -0.0066(18) -0.006(2) 0.0010(19)
C28 0.013(2) 0.016(2) 0.011(2) -0.0032(17) -0.0042(18) 0.0048(18)
C29 0.013(2) 0.019(2) 0.013(2) -0.0053(18) -0.0019(19) 0.0024(18)
C30 0.022(3) 0.020(2) 0.016(2) -0.0093(19) -0.006(2) 0.0009(19)
C31 0.026(3) 0.010(2) 0.019(2) -0.0050(18) -0.008(2) 0.0014(19)
C32 0.023(3) 0.009(2) 0.017(2) -0.0043(17) -0.012(2) 0.0060(18)
C33 0.017(2) 0.012(2) 0.010(2) -0.0047(17) -0.0069(18) 0.0017(18)
C34 0.013(2) 0.009(2) 0.012(2) -0.0022(17) -0.0037(18) 0.0030(17)
C35 0.015(2) 0.013(2) 0.018(2) -0.0039(18) -0.0059(19) 0.0072(18)
C36 0.011(2) 0.012(2) 0.007(2) -0.0014(17) -0.0019(18) 0.0027(18)
C37 0.008(2) 0.013(2) 0.014(2) -0.0005(17) -0.0020(18) 0.0013(17)
C38 0.013(2) 0.013(2) 0.013(2) 0.0030(17) -0.0049(19) -0.0052(18)
C39 0.018(2) 0.016(2) 0.012(2) -0.0045(18) -0.0069(19) -0.0028(19)
C40 0.018(2) 0.014(2) 0.013(2) -0.0056(18) -0.0089(19) 0.0058(19)
C41 0.015(2) 0.010(2) 0.013(2) -0.0048(18) -0.0059(19) 0.0034(18)
C42 0.018(3) 0.012(2) 0.012(2) -0.0045(18) -0.004(2) 0.0050(19)
C43 0.021(3) 0.017(2) 0.009(2) -0.0036(18) -0.003(2) 0.001(2)
C44 0.010(2) 0.009(2) 0.013(2) -0.0024(17) -0.0043(19) -0.0015(17)
C45 0.024(3) 0.016(2) 0.031(3) -0.014(2) -0.020(2) 0.010(2)
C46 0.016(3) 0.018(2) 0.050(3) -0.023(2) -0.018(2) 0.006(2)
C47 0.015(3) 0.010(2) 0.049(3) -0.005(2) -0.005(2) 0.0008(19)
C48 0.013(2) 0.013(2) 0.026(2) -0.0017(19) -0.002(2) -0.0003(19)
C49 0.010(2) 0.012(2) 0.022(2) -0.0047(18) -0.0098(19) 0.0036(18)
C50 0.012(2) 0.014(2) 0.010(2) -0.0016(17) -0.0074(18) 0.0019(18)
C51 0.013(2) 0.022(2) 0.011(2) 0.0034(18) -0.0055(19) -0.0019(19)
C52 0.015(2) 0.007(2) 0.014(2) -0.0019(17) -0.0087(19) 0.0011(17)
C53 0.022(3) 0.029(3) 0.015(2) 0.001(2) -0.011(2) -0.007(2)
C54 0.023(3) 0.039(3) 0.018(2) -0.002(2) -0.016(2) -0.009(2)
C55 0.016(2) 0.016(2) 0.020(2) -0.0048(19) -0.007(2) -0.0035(19)
C56 0.011(2) 0.014(2) 0.015(2) -0.0071(18) -0.0033(19) 0.0042(18)
C57 0.022(3) 0.008(2) 0.012(2) -0.0042(17) -0.005(2) 0.0050(18)
C58 0.026(3) 0.013(2) 0.014(2) -0.0078(18) -0.007(2) 0.003(2)
C59 0.020(3) 0.020(2) 0.019(2) -0.0062(19) -0.009(2) 0.002(2)
C60 0.021(3) 0.017(2) 0.010(2) -0.0013(18) -0.005(2) 0.0048(19)
C61 0.011(2) 0.008(2) 0.0068(19) 0.0006(16) -0.0015(18) 0.0007(17)
C62 0.011(2) 0.009(2) 0.012(2) -0.0032(17) -0.0026(18) 0.0025(17)
C63 0.017(2) 0.014(2) 0.018(2) -0.0074(18) -0.007(2) 0.0075(18)
C64 0.016(2) 0.009(2) 0.009(2) -0.0045(17) -0.0013(18) -0.0005(18)
C65 0.018(2) 0.013(2) 0.014(2) -0.0068(18) -0.0021(19) 0.0020(18)
C66 0.031(3) 0.008(2) 0.014(2) -0.0032(18) 0.000(2) -0.003(2)
C67 0.022(3) 0.016(2) 0.014(2) -0.0060(18) 0.002(2) -0.006(2)
C68 0.014(2) 0.014(2) 0.017(2) -0.0060(18) 0.0004(19) -0.0031(18)
C69 0.010(2) 0.009(2) 0.012(2) -0.0037(17) -0.0017(18) -0.0006(17)
C70 0.009(2) 0.015(2) 0.017(2) -0.0091(19) -0.0040(19) 0.0055(18)
C71 0.012(2) 0.017(2) 0.010(2) -0.0032(18) -0.0037(19) 0.0007(19)
C72 0.006(2) 0.011(2) 0.011(2) -0.0032(17) -0.0019(18) 0.0001(17)
C73 0.013(2) 0.010(2) 0.014(2) -0.0048(17) 0.0007(19) -0.0022(18)
C74 0.010(2) 0.014(2) 0.022(2) -0.0071(19) -0.002(2) 0.0006(18)
C75 0.014(2) 0.014(2) 0.017(2) -0.0044(17) -0.0082(19) 0.0033(17)
C76 0.015(2) 0.009(2) 0.011(2) -0.0016(16) -0.0055(18) -0.0005(17)
C77 0.008(2) 0.008(2) 0.012(2) -0.0022(17) 0.0016(18) -0.0005(17)
C78 0.010(2) 0.008(2) 0.011(2) -0.0005(16) -0.0015(18) 0.0024(17)
C79 0.017(2) 0.016(2) 0.007(2) -0.0004(17) -0.0017(19) 0.0021(18)
C80 0.005(2) 0.009(2) 0.015(2) -0.0024(17) -0.0007(17) 0.0001(17)
C81 0.012(2) 0.012(2) 0.014(2) 0.0015(17) -0.0055(18) -0.0009(18)
C82 0.016(2) 0.009(2) 0.024(2) 0.0011(18) -0.009(2) -0.0007(18)
C83 0.015(2) 0.010(2) 0.029(2) -0.0074(19) -0.010(2) 0.0024(18)
C84 0.013(2) 0.015(2) 0.014(2) -0.0051(18) -0.0053(18) 0.0028(18)
C85 0.011(2) 0.014(2) 0.022(2) -0.0072(18) -0.0082(19) 0.0036(18)
C86 0.013(2) 0.011(2) 0.027(2) -0.0064(18) -0.007(2) 0.0025(17)
C87 0.018(2) 0.006(2) 0.026(2) 0.0018(18) -0.006(2) -0.0014(18)
C88 0.010(2) 0.014(2) 0.017(2) -0.0011(18) -0.0023(18) -0.0003(18)
C89 0.006(2) 0.008(2) 0.015(2) -0.0007(17) -0.0012(18) -0.0010(17)
C90 0.005(2) 0.008(2) 0.011(2) 0.0010(16) 0.0012(17) 0.0013(17)
C91 0.014(2) 0.015(2) 0.010(2) -0.0009(17) -0.0040(18) 0.0031(18)
C92 0.007(2) 0.0052(19) 0.014(2) -0.0022(16) -0.0002(18) 0.0008(16)
C93 0.012(2) 0.011(2) 0.017(2) -0.0012(17) -0.0052(19) 0.0044(17)
C94 0.014(2) 0.019(2) 0.022(2) -0.0044(19) -0.011(2) 0.0016(18)
C95 0.009(2) 0.011(2) 0.024(2) -0.0070(18) -0.001(2) 0.0010(17)
C96 0.012(2) 0.013(2) 0.019(2) -0.0086(19) 0.004(2) -0.0014(18)
C97 0.009(2) 0.007(2) 0.011(2) -0.0023(17) -0.0020(18) -0.0025(17)
C98 0.010(2) 0.014(2) 0.010(2) -0.0040(17) -0.0038(18) 0.0008(18)
C99 0.008(2) 0.015(2) 0.015(2) -0.0076(18) -0.0029(18) 0.0041(17)
C100 0.011(2) 0.007(2) 0.013(2) -0.0043(17) -0.0032(18) -0.0020(17)
C101 0.021(3) 0.016(2) 0.018(2) -0.0076(19) 0.004(2) -0.006(2)
C102 0.029(3) 0.017(2) 0.015(2) -0.0079(19) 0.010(2) -0.015(2)
C103 0.039(3) 0.008(2) 0.016(2) -0.0053(18) 0.005(2) -0.004(2)
C104 0.030(3) 0.012(2) 0.013(2) -0.0052(18) 0.001(2) -0.001(2)
C106 0.013(2) 0.011(2) 0.012(2) -0.0040(17) -0.0039(18) 0.0050(18)
C107 0.021(3) 0.014(2) 0.016(2) -0.0066(18) -0.011(2) 0.0094(19)
C108 0.016(2) 0.006(2) 0.009(2) -0.0006(16) -0.0014(19) 0.0017(18)
C109 0.025(3) 0.018(2) 0.015(2) -0.0072(19) -0.010(2) 0.010(2)
C110 0.030(3) 0.032(3) 0.030(3) -0.016(2) -0.022(2) 0.010(2)
C111 0.033(3) 0.017(2) 0.020(2) -0.011(2) -0.015(2) 0.006(2)
C112 0.026(3) 0.008(2) 0.011(2) -0.0020(17) -0.005(2) 0.0006(19)
C113 0.019(3) 0.013(2) 0.023(2) -0.0048(19) -0.011(2) 0.005(2)
C115 0.058(4) 0.061(4) 0.057(4) -0.041(4) -0.037(4) 0.042(4)
C116 0.033(3) 0.042(3) 0.014(2) -0.007(2) -0.006(2) 0.025(3)
C117 0.017(2) 0.012(2) 0.015(2) -0.0024(18) -0.004(2) 0.0023(19)
C118 0.015(2) 0.012(2) 0.023(2) -0.0029(19) -0.006(2) 0.0023(19)
C120 0.019(3) 0.014(2) 0.016(2) -0.0012(19) -0.002(2) 0.004(2)
C205 0.022(3) 0.007(2) 0.012(2) -0.0064(17) -0.0028(19) 0.0013(18)
N1 0.013(2) 0.0107(18) 0.0091(17) -0.0033(14) -0.0040(16) 0.0019(15)
N2 0.013(2) 0.0093(18) 0.0170(18) -0.0049(15) -0.0116(16) 0.0031(15)
N3 0.0132(19) 0.0062(17) 0.0083(17) -0.0029(14) -0.0038(15) -0.0002(15)
N4 0.017(2) 0.018(2) 0.0122(18) -0.0092(16) -0.0049(17) 0.0039(17)
N5 0.014(2) 0.0127(18) 0.0117(17) -0.0044(15) -0.0067(16) 0.0065(15)
N6 0.0128(19) 0.0112(18) 0.0107(17) -0.0026(14) -0.0038(15) 0.0046(15)
N7 0.015(2) 0.0130(18) 0.0111(17) -0.0039(15) -0.0059(16) 0.0056(15)
N8 0.0120(19) 0.0137(18) 0.0108(17) -0.0051(15) -0.0067(15) 0.0045(15)
N9 0.0106(19) 0.0085(17) 0.0088(17) -0.0028(14) -0.0050(15) -0.0014(15)
N10 0.019(2) 0.019(2) 0.017(2) -0.0107(17) -0.0041(18) 0.0057(17)
N11 0.019(2) 0.0083(18) 0.0203(19) -0.0065(15) -0.0143(17) 0.0055(15)
N12 0.015(2) 0.0105(17) 0.0117(17) -0.0057(14) -0.0082(16) 0.0065(15)
N13 0.016(2) 0.0077(17) 0.0096(17) -0.0008(14) -0.0018(16) 0.0014(15)
N14 0.0126(19) 0.0122(18) 0.0125(18) -0.0054(15) -0.0027(16) 0.0010(15)
N15 0.0079(18) 0.0095(18) 0.0074(17) -0.0023(14) -0.0010(15) 0.0014(14)
N16 0.0111(19) 0.021(2) 0.0143(19) -0.0095(16) -0.0031(16) 0.0031(16)
N17 0.0096(19) 0.0076(17) 0.0116(17) -0.0030(14) -0.0022(15) 0.0009(14)
N18 0.0086(18) 0.0086(17) 0.0155(18) -0.0018(14) -0.0034(15) 0.0009(14)
N19 0.0056(18) 0.0099(18) 0.0173(18) -0.0060(15) -0.0026(15) 0.0023(14)
N20 0.0081(19) 0.0085(17) 0.0141(18) -0.0054(15) 0.0013(16) -0.0009(14)
N21 0.0087(18) 0.0080(17) 0.0081(17) -0.0019(14) 0.0001(15) -0.0015(14)
N22 0.0078(19) 0.019(2) 0.0148(18) -0.0085(16) -0.0049(16) 0.0034(15)
N23 0.016(2) 0.0104(18) 0.0111(17) -0.0037(15) 0.0007(16) -0.0043(15)
N24 0.014(2) 0.0088(17) 0.0105(17) -0.0025(14) -0.0013(16) -0.0005(15)
O1 0.0163(18) 0.0220(18) 0.0107(16) -0.0067(14) -0.0038(14) 0.0111(14)
O2 0.0190(18) 0.0249(18) 0.0143(16) -0.0118(14) -0.0071(15) 0.0149(15)
O3 0.0137(17) 0.0152(16) 0.0115(16) -0.0027(13) -0.0001(14) 0.0057(13)
O4 0.0179(19) 0.0192(17) 0.0157(16) -0.0064(14) 0.0005(15) 0.0035(14)
O5 0.0228(19) 0.0199(17) 0.0215(17) -0.0040(14) -0.0139(15) 0.0019(14)
O6 0.0144(17) 0.0156(16) 0.0275(18) -0.0093(14) -0.0054(15) -0.0013(13)
O7 0.0203(19) 0.0272(19) 0.0233(17) -0.0141(15) 0.0063(15) -0.0051(15)
O11 0.076(4) 0.125(5) 0.034(2) 0.011(3) 0.017(3) 0.077(4)
O12 0.024(2) 0.0172(17) 0.0284(19) -0.0022(15) -0.0024(16) 0.0020(15)
O13 0.328(10) 0.024(2) 0.146(6) 0.019(3) -0.207(7) -0.044(4)
O14 0.0095(17) 0.039(2) 0.0304(19) 0.0084(16) 0.0025(15) 0.0054(15)
O15 0.0183(17) 0.0164(16) 0.0180(16) -0.0023(13) -0.0088(14) 0.0037(13)
O16 0.088(3) 0.0099(16) 0.058(3) -0.0049(16) -0.061(3) -0.0013(18)
O17 0.0135(17) 0.0141(16) 0.0251(17) -0.0055(14) -0.0016(15) -0.0026(13)
O18 0.024(2) 0.0212(18) 0.0239(18) -0.0031(14) -0.0143(16) 0.0036(15)
O19 0.023(2) 0.0226(18) 0.0265(18) -0.0127(15) 0.0062(16) 0.0000(15)
O20 0.0211(19) 0.0207(17) 0.0202(17) -0.0046(14) -0.0119(15) 0.0059(14)
O21 0.0175(18) 0.0156(17) 0.0286(18) -0.0071(14) -0.0042(16) -0.0062(14)
O22 0.0182(18) 0.0246(18) 0.0224(17) -0.0140(15) 0.0058(15) -0.0032(14)
O26 0.0201(19) 0.0241(18) 0.0257(18) -0.0129(15) 0.0035(16) 0.0018(15)
O27 0.0181(18) 0.0147(16) 0.0287(18) -0.0076(14) -0.0028(16) -0.0042(14)
O28 0.0181(18) 0.0199(17) 0.0236(17) -0.0044(14) -0.0116(15) 0.0043(14)
O29 0.022(2) 0.0172(18) 0.0240(19) -0.0060(15) -0.0060(17) 0.0050(15)
O30 0.040(2) 0.022(2) 0.0199(18) -0.0071(15) 0.0006(17) -0.0081(17)
O31 0.0238(18) 0.0214(16) 0.0294(17) -0.0137(14) -0.0135(15) 0.0121(14)
O32 0.038(2) 0.0152(17) 0.0150(16) -0.0021(14) -0.0059(16) -0.0009(15)
O33 0.022(2) 0.0168(18) 0.0214(18) -0.0059(15) -0.0083(16) 0.0054(15)
O34 0.029(2) 0.040(2) 0.043(2) -0.0164(19) 0.0133(19) -0.0022(18)
O35 0.042(2) 0.0177(18) 0.0199(18) -0.0063(15) -0.0007(17) -0.0056(16)
O36 0.051(3) 0.0224(19) 0.0186(18) -0.0050(15) -0.0044(18) -0.0083(18)
O37 0.025(2) 0.047(2) 0.049(2) -0.020(2) 0.0089(19) 0.0000(18)
O38 0.0200(19) 0.0163(18) 0.0238(19) -0.0043(15) -0.0054(16) 0.0045(15)
O39 0.027(2) 0.0150(18) 0.0225(18) -0.0046(15) -0.0083(17) 0.0037(15)
O40 0.024(2) 0.0308(19) 0.0313(19) -0.0034(16) 0.0027(16) 0.0052(16)
O41 0.079(3) 0.059(3) 0.073(3) -0.051(3) -0.059(3) 0.053(3)
O42 0.029(2) 0.042(2) 0.038(2) -0.0160(18) 0.0037(18) -0.0011(17)
F1 0.045(2) 0.0260(16) 0.0397(18) -0.0013(14) -0.0315(16) 0.0058(14)
F2 0.0292(18) 0.0236(16) 0.0396(18) -0.0143(14) 0.0010(15) 0.0117(13)
F3 0.0322(17) 0.0138(13) 0.0308(15) -0.0059(12) -0.0119(14) -0.0018(12)
F7 0.297(10) 0.061(3) 0.169(6) -0.064(4) -0.167(7) 0.037(4)
F8 0.139(5) 0.237(7) 0.036(2) -0.029(3) -0.015(3) 0.151(6)
F9 0.060(2) 0.075(3) 0.045(2) -0.036(2) -0.0325(19) 0.043(2)
F10 0.027(2) 0.155(4) 0.0213(16) 0.010(2) 0.0072(15) 0.024(2)
F12 0.168(5) 0.060(2) 0.064(2) -0.055(2) -0.085(3) 0.078(3)
F13 0.051(2) 0.0432(18) 0.0145(13) -0.0062(13) -0.0159(14) 0.0278(15)
F14 0.044(2) 0.0274(16) 0.0302(16) -0.0028(13) -0.0254(15) 0.0093(14)
F15 0.0277(17) 0.0128(14) 0.0302(16) -0.0047(12) -0.0029(14) 0.0000(12)
F16 0.0224(16) 0.0211(15) 0.0316(16) -0.0101(12) 0.0048(13) 0.0088(12)
F17 0.0301(17) 0.0129(13) 0.0273(15) -0.0063(11) -0.0066(13) -0.0021(12)
F18 0.0286(18) 0.0228(15) 0.0345(17) -0.0139(13) 0.0035(14) 0.0098(13)
F19 0.0398(19) 0.0277(16) 0.0393(18) -0.0043(14) -0.0312(16) 0.0067(14)
F23 0.0357(18) 0.0128(14) 0.0399(18) -0.0082(13) -0.0077(15) 0.0007(13)
F24 0.0371(18) 0.0298(16) 0.0322(16) -0.0035(13) -0.0217(15) 0.0125(14)
F25 0.0317(18) 0.0288(16) 0.0306(16) -0.0122(13) 0.0033(14) 0.0147(14)
S1 0.0112(6) 0.0110(5) 0.0140(5) -0.0054(4) -0.0026(5) 0.0008(4)
S3 0.0620(11) 0.0155(6) 0.0214(6) -0.0090(5) -0.0126(7) 0.0087(6)
S4 0.0154(6) 0.0099(5) 0.0110(5) -0.0017(4) -0.0065(4) 0.0007(4)
S5 0.0113(6) 0.0104(5) 0.0153(5) -0.0043(4) -0.0022(5) 0.0018(4)
S6 0.0120(6) 0.0105(5) 0.0137(5) -0.0058(4) -0.0025(5) 0.0008(4)
S8 0.0113(6) 0.0107(5) 0.0157(5) -0.0049(4) -0.0021(5) 0.0019(4)
Z1 0.0114(3) 0.0093(3) 0.0083(2) -0.0041(2) -0.0053(2) 0.0049(2)
Z2 0.0120(3) 0.0112(3) 0.0092(2) -0.0052(2) -0.0067(2) 0.0067(2)
Z3 0.0079(3) 0.0069(2) 0.0085(2) -0.00222(19) 0.0003(2) 0.00047(19)
Z4 0.0086(3) 0.0086(3) 0.0095(3) -0.0040(2) 0.0008(2) -0.00094(19)
O8A 0.033(2) 0.0150(18) 0.030(2) -0.0013(15) 0.0122(18) 0.0002(16)
O9A 0.105(4) 0.053(3) 0.039(2) -0.035(2) -0.053(3) 0.054(3)
O10A 0.018(3) 0.028(3) 0.016(3) 0.005(3) -0.007(3) -0.012(3)
S2A 0.0136(16) 0.0141(11) 0.0100(10) -0.0035(8) -0.0070(10) 0.0045(10)
F4A 0.073(3) 0.050(2) 0.064(2) -0.045(2) -0.007(2) 0.001(2)
F5A 0.060(2) 0.105(3) 0.069(3) -0.072(3) -0.055(2) 0.061(2)
F6A 0.028(3) 0.049(4) 0.035(3) 0.014(3) -0.011(3) -0.026(3)
C114 0.025(4) 0.016(4) 0.012(3) -0.002(3) -0.008(3) 0.008(3)
S2B 0.023(2) 0.0187(13) 0.0236(13) -0.0079(10) -0.0046(13) 0.0045(12)
F4B 0.073(3) 0.050(2) 0.064(2) -0.045(2) -0.007(2) 0.001(2)
F5B 0.060(2) 0.105(3) 0.069(3) -0.072(3) -0.055(2) 0.061(2)
F6B 0.015(3) 0.089(5) 0.015(3) -0.006(3) -0.003(3) -0.004(3)
C200 0.025(4) 0.016(4) 0.012(3) -0.002(3) -0.008(3) 0.008(3)
O8B 0.033(2) 0.0150(18) 0.030(2) -0.0013(15) 0.0122(18) 0.0002(16)
O9B 0.105(4) 0.053(3) 0.039(2) -0.035(2) -0.053(3) 0.054(3)
O10B 0.019(4) 0.031(4) 0.031(4) -0.011(3) -0.011(3) -0.008(3)
O44A 0.024(2) 0.023(2) 0.0150(19) -0.0074(16) -0.0076(17) 0.0148(17)
O44B 0.024(2) 0.023(2) 0.0150(19) -0.0074(16) -0.0076(17) 0.0148(17)
O43A 0.037(3) 0.041(3) 0.037(3) -0.025(3) -0.022(3) 0.026(2)
O43B 0.037(3) 0.041(3) 0.037(3) -0.025(3) -0.022(3) 0.026(2)
C119 0.022(3) 0.014(3) 0.018(4) 0.002(3) -0.012(3) -0.007(2)
S7A 0.0129(11) 0.0101(7) 0.0084(5) -0.0009(5) -0.0031(9) -0.0018(8)
F20A 0.073(4) 0.037(3) 0.056(3) -0.040(3) -0.053(3) 0.040(2)
F21A 0.019(3) 0.020(3) 0.010(3) 0.002(3) -0.004(3) 0.001(2)
F22A 0.042(3) 0.062(3) 0.042(3) 0.013(2) -0.018(2) -0.046(2)
O23A 0.018(2) 0.021(2) 0.0101(18) 0.0070(15) -0.0017(17) -0.0170(17)
O24A 0.022(4) 0.0119(19) 0.016(3) -0.0026(16) -0.0155(18) 0.004(2)
O25A 0.029(3) 0.024(2) 0.0043(16) 0.0055(16) 0.0065(17) 0.0110(18)
O23B 0.018(2) 0.021(2) 0.0101(18) 0.0070(15) -0.0017(17) -0.0170(17)
O24B 0.022(4) 0.0119(19) 0.016(3) -0.0026(16) -0.0155(18) 0.004(2)
O25B 0.029(3) 0.024(2) 0.0043(16) 0.0055(16) 0.0065(17) 0.0110(18)
S7B 0.0129(11) 0.0101(7) 0.0084(5) -0.0009(5) -0.0031(9) -0.0018(8)
F20B 0.073(4) 0.037(3) 0.056(3) -0.040(3) -0.053(3) 0.040(2)
F21B 0.019(3) 0.020(3) 0.010(3) 0.002(3) -0.004(3) 0.001(2)
F22B 0.042(3) 0.062(3) 0.042(3) 0.013(2) -0.018(2) -0.046(2)
C201 0.022(3) 0.014(3) 0.018(4) 0.002(3) -0.012(3) -0.007(2)
loop_
_atom_type_symbol
_atom_type_description
_atom_type_scat_dispersion_real
_atom_type_scat_dispersion_imag
_atom_type_scat_source
C C 0.0033 0.0016 'International Tables Vol C Tables 4.2.6.8 and 6.1.1.4'
H H 0.0000 0.0000 'International Tables Vol C Tables 4.2.6.8 and 6.1.1.4'
N N 0.0061 0.0033 'International Tables Vol C Tables 4.2.6.8 and 6.1.1.4'
O O 0.0106 0.0060 'International Tables Vol C Tables 4.2.6.8 and 6.1.1.4'
F F 0.0171 0.0103 'International Tables Vol C Tables 4.2.6.8 and 6.1.1.4'
S S 0.1246 0.1234 'International Tables Vol C Tables 4.2.6.8 and 6.1.1.4'
Zn Zn 0.2839 1.4301 'International Tables Vol C Tables 4.2.6.8 and 6.1.1.4'
loop_
_geom_angle_atom_site_label_1
_geom_angle_atom_site_label_2
_geom_angle_atom_site_label_3
_geom_angle
_geom_angle_site_symmetry_3
N1 C1 C2 123.4(4) .
N1 C1 H1 118.3 .
C2 C1 H1 118.3 .
C1 C2 C3 118.1(4) .
C1 C2 H2 120.9 .
C3 C2 H2 120.9 .
C4 C3 C2 118.9(4) .
C4 C3 H3 120.6 .
C2 C3 H3 120.6 .
C5 C4 C3 120.2(4) .
C5 C4 H4 119.9 .
C3 C4 H4 119.9 .
N1 C5 C4 120.5(4) .
N1 C5 C6 117.9(4) .
C4 C5 C6 121.6(4) .
C13 C6 C7 108.1(4) .
C13 C6 C8 111.0(3) .
C7 C6 C8 110.1(3) .
C13 C6 C5 111.0(3) .
C7 C6 C5 110.0(3) .
C8 C6 C5 106.7(3) .
C6 C7 H7A 109.5 .
C6 C7 H7B 109.5 .
H7A C7 H7B 109.5 .
C6 C7 H7C 109.5 .
H7A C7 H7C 109.5 .
H7B C7 H7C 109.5 .
N2 C8 C9 120.8(4) .
N2 C8 C6 118.1(4) .
C9 C8 C6 121.0(4) .
C10 C9 C8 119.2(5) .
C10 C9 H9 120.4 .
C8 C9 H9 120.4 .
C11 C10 C9 119.4(4) .
C11 C10 H10 120.3 .
C9 C10 H10 120.3 .
C10 C11 C12 118.4(4) .
C10 C11 H11 120.8 .
C12 C11 H11 120.8 .
N2 C12 C11 122.5(4) .
N2 C12 H12 118.7 .
C11 C12 H12 118.7 .
N3 C13 C14 118.4(4) .
N3 C13 C6 119.3(4) .
C14 C13 C6 122.3(4) .
N4 C14 C13 121.9(4) .
N4 C14 H14 119.1 .
C13 C14 H14 119.1 .
N4 C15 C16 121.9(4) .
N4 C15 H15 119.0 .
C16 C15 H15 119.0 .
N3 C16 C15 119.1(4) .
N3 C16 C22 119.3(4) .
C15 C16 C22 121.6(4) .
N5 C17 C18 123.3(4) .
N5 C17 H17 118.3 .
C18 C17 H17 118.3 .
C19 C18 C17 117.9(4) .
C19 C18 H18 121.0 .
C17 C18 H18 121.0 .
C20 C19 C18 119.6(4) .
C20 C19 H19 120.2 .
C18 C19 H19 120.2 .
C19 C20 C21 119.8(4) .
C19 C20 H20 120.1 .
C21 C20 H20 120.1 .
N5 C21 C20 120.6(4) .
N5 C21 C22 117.0(4) .
C20 C21 C22 122.4(4) .
C23 C22 C16 109.2(3) .
C23 C22 C21 109.9(4) .
C16 C22 C21 110.6(3) .
C23 C22 C24 108.7(3) .
C16 C22 C24 109.0(3) .
C21 C22 C24 109.4(3) .
C22 C23 H23A 109.5 .
C22 C23 H23B 109.5 .
H23A C23 H23B 109.5 .
C22 C23 H23C 109.5 .
H23A C23 H23C 109.5 .
H23B C23 H23C 109.5 .
N6 C24 C25 120.5(4) .
N6 C24 C22 117.1(4) .
C25 C24 C22 122.4(4) .
C24 C25 C26 120.1(4) .
C24 C25 H25 119.9 .
C26 C25 H25 119.9 .
C27 C26 C25 119.3(4) .
C27 C26 H26 120.4 .
C25 C26 H26 120.4 .
C28 C27 C26 117.7(4) .
C28 C27 H27 121.2 .
C26 C27 H27 121.2 .
N6 C28 C27 123.8(4) .
N6 C28 H28 118.1 .
C27 C28 H28 118.1 .
N7 C29 C30 123.2(4) .
N7 C29 H29 118.4 .
C30 C29 H29 118.4 .
C29 C30 C31 118.1(4) .
C29 C30 H30 121.0 .
C31 C30 H30 121.0 .
C32 C31 C30 119.3(4) .
C32 C31 H31 120.4 .
C30 C31 H31 120.4 .
C31 C32 C33 120.4(4) .
C31 C32 H32 119.8 .
C33 C32 H32 119.8 .
N7 C33 C32 120.0(4) .
N7 C33 C34 118.0(4) .
C32 C33 C34 122.0(4) .
C33 C34 C41 109.8(4) .
C33 C34 C36 108.7(3) .
C41 C34 C36 110.9(3) .
C33 C34 C35 109.8(3) .
C41 C34 C35 108.7(3) .
C36 C34 C35 108.9(4) .
C34 C35 H35A 109.5 .
C34 C35 H35B 109.5 .
H35A C35 H35B 109.5 .
C34 C35 H35C 109.5 .
H35A C35 H35C 109.5 .
H35B C35 H35C 109.5 .
N8 C36 C37 120.9(4) .
N8 C36 C34 116.5(4) .
C37 C36 C34 122.5(4) .
C38 C37 C36 119.7(4) .
C38 C37 H37 120.1 .
C36 C37 H37 120.1 .
C37 C38 C39 118.9(4) .
C37 C38 H38 120.6 .
C39 C38 H38 120.6 .
C40 C39 C38 118.5(4) .
C40 C39 H39 120.7 .
C38 C39 H39 120.7 .
N8 C40 C39 122.8(4) .
N8 C40 H40 118.6 .
C39 C40 H40 118.6 .
N9 C41 C42 119.3(4) .
N9 C41 C34 118.7(4) .
C42 C41 C34 122.0(4) .
N10 C42 C41 122.2(4) .
N10 C42 H42 118.9 .
C41 C42 H42 118.9 .
N10 C43 C44 121.8(4) .
N10 C43 H43 119.1 .
C44 C43 H43 119.1 .
N9 C44 C43 119.0(4) .
N9 C44 C50 118.4(4) .
C43 C44 C50 122.6(4) .
N11 C45 C46 123.2(5) .
N11 C45 H45 118.4 .
C46 C45 H45 118.4 .
C47 C46 C45 117.4(5) .
C47 C46 H46 121.3 .
C45 C46 H46 121.3 .
C48 C47 C46 119.8(4) .
C48 C47 H47 120.1 .
C46 C47 H47 120.1 .
C47 C48 C49 120.1(5) .
C47 C48 H48 119.9 .
C49 C48 H48 119.9 .
N11 C49 C48 120.1(4) .
N11 C49 C50 118.2(4) .
C48 C49 C50 121.7(4) .
C51 C50 C52 109.5(3) .
C51 C50 C44 108.2(4) .
C52 C50 C44 110.9(3) .
C51 C50 C49 110.2(4) .
C52 C50 C49 107.6(4) .
C44 C50 C49 110.5(3) .
C50 C51 H51A 109.5 .
C50 C51 H51B 109.5 .
H51A C51 H51B 109.5 .
C50 C51 H51C 109.5 .
H51A C51 H51C 109.5 .
H51B C51 H51C 109.5 .
N12 C52 C53 120.0(4) .
N12 C52 C50 117.6(4) .
C53 C52 C50 122.3(4) .
C54 C53 C52 120.5(4) .
C54 C53 H53 119.8 .
C52 C53 H53 119.8 .
C53 C54 C55 119.2(4) .
C53 C54 H54 120.4 .
C55 C54 H54 120.4 .
C56 C55 C54 117.8(4) .
C56 C55 H55 121.1 .
C54 C55 H55 121.1 .
N12 C56 C55 123.3(4) .
N12 C56 H56 118.3 .
C55 C56 H56 118.3 .
N13 C57 C58 123.4(4) .
N13 C57 H57 118.3 .
C58 C57 H57 118.3 .
C57 C58 C59 118.6(4) .
C57 C58 H58 120.7 .
C59 C58 H58 120.7 .
C58 C59 C60 118.3(4) .
C58 C59 H59 120.8 .
C60 C59 H59 120.8 .
C61 C60 C59 119.5(4) .
C61 C60 H60 120.2 .
C59 C60 H60 120.2 .
N13 C61 C60 121.8(4) .
N13 C61 C62 116.7(4) .
C60 C61 C62 121.4(4) .
C63 C62 C69 108.8(3) .
C63 C62 C64 110.0(3) .
C69 C62 C64 110.0(3) .
C63 C62 C61 109.8(4) .
C69 C62 C61 109.1(3) .
C64 C62 C61 109.2(3) .
C62 C63 H63A 109.5 .
C62 C63 H63B 109.5 .
H63A C63 H63B 109.5 .
C62 C63 H63C 109.5 .
H63A C63 H63C 109.5 .
H63B C63 H63C 109.5 .
N14 C64 C65 121.5(4) .
N14 C64 C62 117.6(4) .
C65 C64 C62 120.9(4) .
C64 C65 C66 119.0(4) .
C64 C65 H65 120.5 .
C66 C65 H65 120.5 .
C67 C66 C65 119.7(4) .
C67 C66 H66 120.1 .
C65 C66 H66 120.1 .
C66 C67 C68 118.5(4) .
C66 C67 H67 120.8 .
C68 C67 H67 120.8 .
N14 C68 C67 122.8(5) .
N14 C68 H68 118.6 .
C67 C68 H68 118.6 .
N15 C69 C70 118.9(4) .
N15 C69 C62 119.0(4) .
C70 C69 C62 122.1(4) .
N16 C70 C69 122.3(4) .
N16 C70 H70 118.8 .
C69 C70 H70 118.8 .
N16 C71 C72 122.0(4) .
N16 C71 H71 119.0 .
C72 C71 H71 119.0 .
N15 C72 C71 119.0(4) .
N15 C72 C78 118.6(4) .
C71 C72 C78 122.4(4) .
N17 C73 C74 123.6(4) .
N17 C73 H73 118.2 .
C74 C73 H73 118.2 .
C73 C74 C75 117.8(4) .
C73 C74 H74 121.1 .
C75 C74 H74 121.1 .
C76 C75 C74 119.7(4) .
C76 C75 H75 120.2 .
C74 C75 H75 120.2 .
C75 C76 C77 120.0(4) .
C75 C76 H76 120.0 .
C77 C76 H76 120.0 .
N17 C77 C76 120.7(4) .
N17 C77 C78 117.2(4) .
C76 C77 C78 122.0(4) .
C79 C78 C72 107.9(3) .
C79 C78 C80 110.0(3) .
C72 C78 C80 110.8(3) .
C79 C78 C77 109.7(4) .
C72 C78 C77 111.2(3) .
C80 C78 C77 107.2(3) .
C78 C79 H79A 109.5 .
C78 C79 H79B 109.5 .
H79A C79 H79B 109.5 .
C78 C79 H79C 109.5 .
H79A C79 H79C 109.5 .
H79B C79 H79C 109.5 .
N18 C80 C81 120.9(4) .
N18 C80 C78 117.3(3) .
C81 C80 C78 121.6(4) .
C82 C81 C80 119.8(4) .
C82 C81 H81 120.1 .
C80 C81 H81 120.1 .
C81 C82 C83 119.3(4) .
C81 C82 H82 120.4 .
C83 C82 H82 120.4 .
C84 C83 C82 117.6(4) .
C84 C83 H83 121.2 .
C82 C83 H83 121.2 .
N18 C84 C83 123.9(4) .
N18 C84 H84 118.0 .
C83 C84 H84 118.0 .
N19 C85 C86 122.4(4) .
N19 C85 H85 118.8 .
C86 C85 H85 118.8 .
C87 C86 C85 118.1(4) .
C87 C86 H86 121.0 .
C85 C86 H86 121.0 .
C88 C87 C86 119.7(4) .
C88 C87 H87 120.2 .
C86 C87 H87 120.2 .
C87 C88 C89 119.6(4) .
C87 C88 H88 120.2 .
C89 C88 H88 120.2 .
N19 C89 C88 120.7(4) .
N19 C89 C90 118.1(3) .
C88 C89 C90 121.1(4) .
C91 C90 C97 109.0(3) .
C91 C90 C89 110.1(3) .
C97 C90 C89 110.4(3) .
C91 C90 C92 109.7(4) .
C97 C90 C92 110.3(3) .
C89 C90 C92 107.3(3) .
C90 C91 H91A 109.5 .
C90 C91 H91B 109.5 .
H91A C91 H91B 109.5 .
C90 C91 H91C 109.5 .
H91A C91 H91C 109.5 .
H91B C91 H91C 109.5 .
N20 C92 C93 120.7(4) .
N20 C92 C90 117.7(4) .
C93 C92 C90 121.5(4) .
C92 C93 C94 119.9(4) .
C92 C93 H93 120.1 .
C94 C93 H93 120.1 .
C95 C94 C93 118.8(4) .
C95 C94 H94 120.6 .
C93 C94 H94 120.6 .
C96 C95 C94 118.4(4) .
C96 C95 H95 120.8 .
C94 C95 H95 120.8 .
N20 C96 C95 123.3(4) .
N20 C96 H96 118.4 .
C95 C96 H96 118.4 .
N21 C97 C98 118.6(4) .
N21 C97 C90 119.9(4) .
C98 C97 C90 121.5(4) .
N22 C98 C97 121.7(4) .
N22 C98 H98 119.2 .
C97 C98 H98 119.2 .
N22 C99 C100 121.9(4) .
N22 C99 H99 119.1 .
C100 C99 H99 119.1 .
N21 C100 C99 119.0(4) .
N21 C100 C106 119.5(4) .
C99 C100 C106 121.5(4) .
N23 C101 C102 123.4(5) .
N23 C101 H101 118.3 .
C102 C101 H101 118.3 .
C101 C102 C103 118.4(5) .
C101 C102 H102 120.8 .
C103 C102 H102 120.8 .
C104 C103 C102 119.3(4) .
C104 C103 H103 120.4 .
C102 C103 H103 120.4 .
C103 C104 C205 119.4(5) .
C103 C104 H104 120.3 .
C205 C104 H104 120.3 .
C107 C106 C205 109.9(4) .
C107 C106 C100 108.8(3) .
C205 C106 C100 108.7(4) .
C107 C106 C108 109.5(4) .
C205 C106 C108 109.2(3) .
C100 C106 C108 110.6(3) .
C106 C107 H10A 109.5 .
C106 C107 H10B 109.5 .
H10A C107 H10B 109.5 .
C106 C107 H10C 109.5 .
H10A C107 H10C 109.5 .
H10B C107 H10C 109.5 .
N24 C108 C109 121.1(4) .
N24 C108 C106 116.7(4) .
C109 C108 C106 122.1(4) .
C110 C109 C108 119.8(5) .
C110 C109 H109 120.1 .
C108 C109 H109 120.1 .
C111 C110 C109 119.4(5) .
C111 C110 H110 120.3 .
C109 C110 H110 120.3 .
C110 C111 C112 118.4(4) .
C110 C111 H111 120.8 .
C112 C111 H111 120.8 .
N24 C112 C111 122.4(4) .
N24 C112 H112 118.8 .
C111 C112 H112 118.8 .
F3 C113 F1 108.2(4) .
F3 C113 F2 108.5(4) .
F1 C113 F2 107.6(4) .
F3 C113 S1 111.1(3) .
F1 C113 S1 110.7(3) .
F2 C113 S1 110.7(3) .
F8 C115 F7 102.4(6) .
F8 C115 F9 107.2(6) .
F7 C115 F9 109.1(6) .
F8 C115 S3 113.5(5) .
F7 C115 S3 111.1(5) .
F9 C115 S3 112.9(4) .
F12 C116 F13 107.9(4) .
F12 C116 F10 106.1(5) .
F13 C116 F10 108.8(4) .
F12 C116 S4 112.2(4) .
F13 C116 S4 112.8(3) .
F10 C116 S4 108.7(4) .
F16 C117 F14 107.7(4) .
F16 C117 F15 108.3(4) .
F14 C117 F15 107.5(3) .
F16 C117 S5 111.3(3) .
F14 C117 S5 110.9(3) .
F15 C117 S5 110.9(3) .
F18 C118 F17 108.1(4) .
F18 C118 F19 108.1(4) .
F17 C118 F19 108.2(4) .
F18 C118 S6 111.1(3) .
F17 C118 S6 110.9(3) .
F19 C118 S6 110.3(3) .
F23 C120 F24 108.3(4) .
F23 C120 F25 108.3(4) .
F24 C120 F25 107.6(4) .
F23 C120 S8 111.3(3) .
F24 C120 S8 110.5(3) .
F25 C120 S8 110.6(3) .
N23 C205 C104 121.6(4) .
N23 C205 C106 117.4(4) .
C104 C205 C106 121.0(4) .
C1 N1 C5 118.8(4) .
C1 N1 Z1 120.4(3) .
C5 N1 Z1 120.5(3) .
C12 N2 C8 119.5(4) .
C12 N2 Z1 121.0(3) .
C8 N2 Z1 119.5(3) .
C16 N3 C13 120.6(4) .
C16 N3 Z1 119.5(3) .
C13 N3 Z1 119.1(3) .
C14 N4 C15 118.1(4) .
C17 N5 C21 118.8(4) .
C17 N5 Z1 120.4(3) .
C21 N5 Z1 119.9(3) .
C28 N6 C24 118.6(4) .
C28 N6 Z1 120.5(3) .
C24 N6 Z1 120.2(3) .
C29 N7 C33 119.0(4) .
C29 N7 Z2 120.6(3) .
C33 N7 Z2 119.7(3) .
C40 N8 C36 119.1(4) .
C40 N8 Z2 119.7(3) .
C36 N8 Z2 120.6(3) .
C44 N9 C41 119.9(4) .
C44 N9 Z2 119.8(3) .
C41 N9 Z2 119.9(3) .
C42 N10 C43 117.7(4) .
C49 N11 C45 119.3(4) .
C49 N11 Z2 119.8(3) .
C45 N11 Z2 120.9(3) .
C56 N12 C52 119.2(4) .
C56 N12 Z2 120.3(3) .
C52 N12 Z2 120.5(3) .
C57 N13 C61 118.3(4) .
C57 N13 Z3 120.6(3) .
C61 N13 Z3 119.9(3) .
C64 N14 C68 118.5(4) .
C64 N14 Z3 120.2(3) .
C68 N14 Z3 120.4(3) .
C69 N15 C72 120.1(4) .
C69 N15 Z3 119.8(3) .
C72 N15 Z3 119.7(3) .
C70 N16 C71 117.7(4) .
C77 N17 C73 118.2(4) .
C77 N17 Z3 120.9(3) .
C73 N17 Z3 120.6(3) .
C84 N18 C80 118.3(4) .
C84 N18 Z3 121.8(3) .
C80 N18 Z3 119.8(3) .
C89 N19 C85 119.4(4) .
C89 N19 Z4 120.1(3) .
C85 N19 Z4 120.5(3) .
C96 N20 C92 118.9(4) .
C96 N20 Z4 120.3(3) .
C92 N20 Z4 120.8(3) .
C100 N21 C97 120.7(4) .
C100 N21 Z4 119.8(3) .
C97 N21 Z4 119.1(3) .
C98 N22 C99 118.1(4) .
C101 N23 C205 117.7(4) .
C101 N23 Z4 120.9(3) .
C205 N23 Z4 120.9(3) .
C112 N24 C108 118.9(4) .
C112 N24 Z4 119.9(3) .
C108 N24 Z4 120.8(3) .
Z1 O1 H1X 111(4) .
Z1 O1 H1Y 131(4) .
H1X O1 H1Y 115(5) .
Z2 O2 H2X 122(4) .
Z2 O2 H2Y 128(3) .
H2X O2 H2Y 110(5) .
Z3 O3 H3X 129(4) .
Z3 O3 H3Y 118(3) .
H3X O3 H3Y 113(5) .
Z4 O4 H4X 117(4) .
Z4 O4 H4Y 118(4) .
H4X O4 H4Y 120(5) .
H29X O29 H29Y 121(4) .
H30X O30 H30Y 115(4) .
H32X O32 H32Y 124(5) .
H33X O33 H33Y 130(7) .
H35X O35 H35Y 113(4) .
H36X O36 H36Y 135(6) .
H38X O38 H38Y 123(4) .
H39X O39 H39Y 124(4) .
O7 S1 O5 115.4(2) .
O7 S1 O6 114.7(2) .
O5 S1 O6 114.35(19) .
O7 S1 C113 102.7(2) .
O5 S1 C113 103.8(2) .
O6 S1 C113 103.6(2) .
O13 S3 O11 117.8(5) .
O13 S3 O12 113.2(3) .
O11 S3 O12 114.4(2) .
O13 S3 C115 105.2(4) .
O11 S3 C115 100.3(3) .
O12 S3 C115 103.3(2) .
O16 S4 O14 116.2(2) .
O16 S4 O15 113.4(2) .
O14 S4 O15 114.44(19) .
O16 S4 C116 104.8(3) .
O14 S4 C116 103.6(2) .
O15 S4 C116 102.2(2) .
O19 S5 O18 115.2(2) .
O19 S5 O17 114.9(2) .
O18 S5 O17 114.30(19) .
O19 S5 C117 103.1(2) .
O18 S5 C117 103.9(2) .
O17 S5 C117 103.3(2) .
O22 S6 O20 114.8(2) .
O22 S6 O21 115.3(2) .
O20 S6 O21 114.13(19) .
O22 S6 C118 103.3(2) .
O20 S6 C118 103.8(2) .
O21 S6 C118 103.2(2) .
O26 S8 O28 114.9(2) .
O26 S8 O27 115.1(2) .
O28 S8 O27 114.08(19) .
O26 S8 C120 103.0(2) .
O28 S8 C120 103.9(2) .
O27 S8 C120 103.6(2) .
O1 Z1 N1 93.51(13) .
O1 Z1 N3 178.18(13) .
N1 Z1 N3 87.38(13) .
O1 Z1 N6 97.75(13) .
N1 Z1 N6 98.65(13) .
N3 Z1 N6 83.67(13) .
O1 Z1 N5 93.08(14) .
N1 Z1 N5 173.08(13) .
N3 Z1 N5 85.97(14) .
N6 Z1 N5 82.55(14) .
O1 Z1 N2 93.60(13) .
N1 Z1 N2 80.49(13) .
N3 Z1 N2 84.98(13) .
N6 Z1 N2 168.65(14) .
N5 Z1 N2 96.99(13) .
O2 Z2 N12 93.16(14) .
O2 Z2 N9 178.90(13) .
N12 Z2 N9 87.70(13) .
O2 Z2 N7 97.31(14) .
N12 Z2 N7 98.06(13) .
N9 Z2 N7 83.24(13) .
O2 Z2 N8 92.35(13) .
N12 Z2 N8 174.46(13) .
N9 Z2 N8 86.78(13) .
N7 Z2 N8 81.77(13) .
O2 Z2 N11 94.69(14) .
N12 Z2 N11 80.78(13) .
N9 Z2 N11 84.77(14) .
N7 Z2 N11 167.99(14) .
N8 Z2 N11 98.23(13) .
O3 Z3 N17 93.90(13) .
O3 Z3 N15 178.30(13) .
N17 Z3 N15 87.29(13) .
O3 Z3 N14 97.10(13) .
N17 Z3 N14 98.79(13) .
N15 Z3 N14 83.90(13) .
O3 Z3 N13 92.67(13) .
N17 Z3 N13 173.10(13) .
N15 Z3 N13 86.09(14) .
N14 Z3 N13 82.46(13) .
O3 Z3 N18 93.40(13) .
N17 Z3 N18 80.38(13) .
N15 Z3 N18 85.60(13) .
N14 Z3 N18 169.49(14) .
N13 Z3 N18 97.14(13) .
O4 Z4 N20 92.90(14) .
O4 Z4 N21 178.71(13) .
N20 Z4 N21 87.71(13) .
O4 Z4 N24 92.59(14) .
N20 Z4 N24 174.47(13) .
N21 Z4 N24 86.78(14) .
O4 Z4 N23 98.38(13) .
N20 Z4 N23 98.23(13) .
N21 Z4 N23 82.65(13) .
N24 Z4 N23 81.61(14) .
O4 Z4 N19 94.64(13) .
N20 Z4 N19 80.70(13) .
N21 Z4 N19 84.33(13) .
N24 Z4 N19 98.19(13) .
N23 Z4 N19 166.97(14) .
O9A S2A O8A 120.18(17) .
O9A S2A O10A 103.75(15) .
O8A S2A O10A 118.7(2) .
O9A S2A C114 110.73(18) .
O8A S2A C114 97.70(14) .
O10A S2A C114 104.64(12) .
F4A C114 F6A 109.688(12) .
F4A C114 F5A 99.183(15) .
F6A C114 F5A 114.557(9) .
F4A C114 S2A 117.92(9) .
F6A C114 S2A 110.42(9) .
F5A C114 S2A 104.74(7) .
O9B S2B O10B 108.6(6) .
O9B S2B O8B 111.9(5) .
O10B S2B O8B 118.1(4) .
O9B S2B C200 111.3(5) .
O10B S2B C200 104.6(5) .
O8B S2B C200 101.9(4) .
C200 F6B F6B 106.2(6) 2_665
F5B C200 F6B 123.7(9) .
F5B C200 F4B 110.0(9) .
F6B C200 F4B 102.2(8) .
F5B C200 S2B 103.4(7) .
F6B C200 S2B 111.3(6) .
F4B C200 S2B 105.0(6) .
F20A C119 F21A 107.6(6) .
F20A C119 F22A 109.0(6) .
F21A C119 F22A 103.4(7) .
F20A C119 S7A 113.0(5) .
F21A C119 S7A 112.7(7) .
F22A C119 S7A 110.6(4) .
O23A S7A O25A 116.8(3) .
O23A S7A O24A 113.4(4) .
O25A S7A O24A 114.6(5) .
O23A S7A C119 103.7(3) .
O25A S7A C119 103.6(3) .
O24A S7A C119 102.4(3) .
O25B S7B O23B 111.9(10) .
O25B S7B O24B 109.7(17) .
O23B S7B O24B 121.1(14) .
O25B S7B C201 101.8(10) .
O23B S7B C201 106.8(10) .
O24B S7B C201 103.3(15) .
F21B C201 F22B 114(3) .
F21B C201 F20B 105(2) .
F22B C201 F20B 103.9(19) .
F21B C201 S7B 114(2) .
F22B C201 S7B 111.9(15) .
F20B C201 S7B 105.8(15) .
loop_
_geom_bond_atom_site_label_1
_geom_bond_atom_site_label_2
_geom_bond_distance
_geom_bond_site_symmetry_2
C1 N1 1.350(5) .
C1 C2 1.373(6) .
C1 H1 0.9500 .
C2 C3 1.389(6) .
C2 H2 0.9500 .
C3 C4 1.389(6) .
C3 H3 0.9500 .
C4 C5 1.386(6) .
C4 H4 0.9500 .
C5 N1 1.353(5) .
C5 C6 1.550(6) .
C6 C13 1.537(6) .
C6 C7 1.542(5) .
C6 C8 1.548(6) .
C7 H7A 0.9800 .
C7 H7B 0.9800 .
C7 H7C 0.9800 .
C8 N2 1.349(5) .
C8 C9 1.398(6) .
C9 C10 1.386(7) .
C9 H9 0.9500 .
C10 C11 1.383(7) .
C10 H10 0.9500 .
C11 C12 1.388(6) .
C11 H11 0.9500 .
C12 N2 1.338(6) .
C12 H12 0.9500 .
C13 N3 1.344(5) .
C13 C14 1.406(6) .
C14 N4 1.331(6) .
C14 H14 0.9500 .
C15 N4 1.332(5) .
C15 C16 1.397(6) .
C15 H15 0.9500 .
C16 N3 1.336(5) .
C16 C22 1.539(6) .
C17 N5 1.340(5) .
C17 C18 1.384(6) .
C17 H17 0.9500 .
C18 C19 1.383(7) .
C18 H18 0.9500 .
C19 C20 1.380(6) .
C19 H19 0.9500 .
C20 C21 1.393(6) .
C20 H20 0.9500 .
C21 N5 1.357(6) .
C21 C22 1.543(6) .
C22 C23 1.535(6) .
C22 C24 1.557(6) .
C23 H23A 0.9800 .
C23 H23B 0.9800 .
C23 H23C 0.9800 .
C24 N6 1.358(5) .
C24 C25 1.383(6) .
C25 C26 1.396(6) .
C25 H25 0.9500 .
C26 C27 1.386(6) .
C26 H26 0.9500 .
C27 C28 1.375(6) .
C27 H27 0.9500 .
C28 N6 1.351(5) .
C28 H28 0.9500 .
C29 N7 1.334(6) .
C29 C30 1.377(6) .
C29 H29 0.9500 .
C30 C31 1.385(6) .
C30 H30 0.9500 .
C31 C32 1.362(6) .
C31 H31 0.9500 .
C32 C33 1.395(6) .
C32 H32 0.9500 .
C33 N7 1.353(6) .
C33 C34 1.534(6) .
C34 C41 1.542(6) .
C34 C36 1.544(6) .
C34 C35 1.546(6) .
C35 H35A 0.9800 .
C35 H35B 0.9800 .
C35 H35C 0.9800 .
C36 N8 1.349(6) .
C36 C37 1.397(6) .
C37 C38 1.387(6) .
C37 H37 0.9500 .
C38 C39 1.390(6) .
C38 H38 0.9500 .
C39 C40 1.384(6) .
C39 H39 0.9500 .
C40 N8 1.346(5) .
C40 H40 0.9500 .
C41 N9 1.347(5) .
C41 C42 1.385(6) .
C42 N10 1.334(6) .
C42 H42 0.9500 .
C43 N10 1.340(6) .
C43 C44 1.396(6) .
C43 H43 0.9500 .
C44 N9 1.345(5) .
C44 C50 1.546(6) .
C45 N11 1.343(6) .
C45 C46 1.381(6) .
C45 H45 0.9500 .
C46 C47 1.374(7) .
C46 H46 0.9500 .
C47 C48 1.374(7) .
C47 H47 0.9500 .
C48 C49 1.389(6) .
C48 H48 0.9500 .
C49 N11 1.339(6) .
C49 C50 1.552(6) .
C50 C51 1.537(6) .
C50 C52 1.543(6) .
C51 H51A 0.9800 .
C51 H51B 0.9800 .
C51 H51C 0.9800 .
C52 N12 1.354(5) .
C52 C53 1.392(6) .
C53 C54 1.375(7) .
C53 H53 0.9500 .
C54 C55 1.390(6) .
C54 H54 0.9500 .
C55 C56 1.379(6) .
C55 H55 0.9500 .
C56 N12 1.341(6) .
C56 H56 0.9500 .
C57 N13 1.347(5) .
C57 C58 1.378(6) .
C57 H57 0.9500 .
C58 C59 1.396(7) .
C58 H58 0.9500 .
C59 C60 1.399(6) .
C59 H59 0.9500 .
C60 C61 1.387(6) .
C60 H60 0.9500 .
C61 N13 1.348(6) .
C61 C62 1.553(6) .
C62 C63 1.529(6) .
C62 C69 1.546(6) .
C62 C64 1.547(6) .
C63 H63A 0.9800 .
C63 H63B 0.9800 .
C63 H63C 0.9800 .
C64 N14 1.346(6) .
C64 C65 1.393(6) .
C65 C66 1.397(6) .
C65 H65 0.9500 .
C66 C67 1.376(7) .
C66 H66 0.9500 .
C67 C68 1.377(6) .
C67 H67 0.9500 .
C68 N14 1.365(5) .
C68 H68 0.9500 .
C69 N15 1.338(5) .
C69 C70 1.397(6) .
C70 N16 1.328(5) .
C70 H70 0.9500 .
C71 N16 1.333(6) .
C71 C72 1.395(6) .
C71 H71 0.9500 .
C72 N15 1.346(5) .
C72 C78 1.542(6) .
C73 N17 1.356(5) .
C73 C74 1.375(6) .
C73 H73 0.9500 .
C74 C75 1.381(6) .
C74 H74 0.9500 .
C75 C76 1.377(6) .
C75 H75 0.9500 .
C76 C77 1.393(6) .
C76 H76 0.9500 .
C77 N17 1.352(5) .
C77 C78 1.554(6) .
C78 C79 1.541(5) .
C78 C80 1.553(6) .
C79 H79A 0.9800 .
C79 H79B 0.9800 .
C79 H79C 0.9800 .
C80 N18 1.351(5) .
C80 C81 1.390(6) .
C81 C82 1.383(6) .
C81 H81 0.9500 .
C82 C83 1.386(6) .
C82 H82 0.9500 .
C83 C84 1.381(6) .
C83 H83 0.9500 .
C84 N18 1.340(5) .
C84 H84 0.9500 .
C85 N19 1.348(5) .
C85 C86 1.389(6) .
C85 H85 0.9500 .
C86 C87 1.383(6) .
C86 H86 0.9500 .
C87 C88 1.382(6) .
C87 H87 0.9500 .
C88 C89 1.392(6) .
C88 H88 0.9500 .
C89 N19 1.347(5) .
C89 C90 1.551(6) .
C90 C91 1.530(5) .
C90 C97 1.543(6) .
C90 C92 1.553(5) .
C91 H91A 0.9800 .
C91 H91B 0.9800 .
C91 H91C 0.9800 .
C92 N20 1.352(5) .
C92 C93 1.388(6) .
C93 C94 1.394(6) .
C93 H93 0.9500 .
C94 C95 1.390(6) .
C94 H94 0.9500 .
C95 C96 1.370(6) .
C95 H95 0.9500 .
C96 N20 1.350(5) .
C96 H96 0.9500 .
C97 N21 1.341(5) .
C97 C98 1.409(6) .
C98 N22 1.333(6) .
C98 H98 0.9500 .
C99 N22 1.335(5) .
C99 C100 1.396(6) .
C99 H99 0.9500 .
C100 N21 1.339(5) .
C100 C106 1.546(6) .
C101 N23 1.344(6) .
C101 C102 1.375(6) .
C101 H101 0.9500 .
C102 C103 1.377(7) .
C102 H102 0.9500 .
C103 C104 1.370(7) .
C103 H103 0.9500 .
C104 C205 1.393(6) .
C104 H104 0.9500 .
C106 C107 1.539(6) .
C106 C205 1.542(6) .
C106 C108 1.554(6) .
C107 H10A 0.9800 .
C107 H10B 0.9800 .
C107 H10C 0.9800 .
C108 N24 1.351(6) .
C108 C109 1.384(6) .
C109 C110 1.382(7) .
C109 H109 0.9500 .
C110 C111 1.373(7) .
C110 H110 0.9500 .
C111 C112 1.394(6) .
C111 H111 0.9500 .
C112 N24 1.343(5) .
C112 H112 0.9500 .
C113 F3 1.325(5) .
C113 F1 1.326(5) .
C113 F2 1.334(5) .
C113 S1 1.829(5) .
C115 F8 1.275(8) .
C115 F7 1.322(8) .
C115 F9 1.325(7) .
C115 S3 1.759(6) .
C116 F12 1.286(6) .
C116 F13 1.339(5) .
C116 F10 1.347(6) .
C116 S4 1.799(5) .
C117 F16 1.327(5) .
C117 F14 1.329(5) .
C117 F15 1.338(5) .
C117 S5 1.826(5) .
C118 F18 1.330(5) .
C118 F17 1.333(5) .
C118 F19 1.334(5) .
C118 S6 1.822(5) .
C120 F23 1.323(5) .
C120 F24 1.336(5) .
C120 F25 1.343(5) .
C120 S8 1.823(5) .
C205 N23 1.347(6) .
N1 Z1 2.148(4) .
N2 Z1 2.177(3) .
N3 Z1 2.154(4) .
N5 Z1 2.167(4) .
N6 Z1 2.163(3) .
N7 Z2 2.163(4) .
N8 Z2 2.163(4) .
N9 Z2 2.144(4) .
N11 Z2 2.164(3) .
N12 Z2 2.142(4) .
N13 Z3 2.167(4) .
N14 Z3 2.150(4) .
N15 Z3 2.141(3) .
N17 Z3 2.139(4) .
N18 Z3 2.169(3) .
N19 Z4 2.173(3) .
N20 Z4 2.146(4) .
N21 Z4 2.150(3) .
N23 Z4 2.166(4) .
N24 Z4 2.161(4) .
O1 Z1 2.040(3) .
O1 H1X 0.85(2) .
O1 H1Y 0.84(2) .
O2 Z2 2.039(3) .
O2 H2X 0.85(2) .
O2 H2Y 0.835(19) .
O3 Z3 2.042(3) .
O3 H3X 0.849(19) .
O3 H3Y 0.854(19) .
O4 Z4 2.035(3) .
O4 H4X 0.835(19) .
O4 H4Y 0.859(19) .
O5 S1 1.447(3) .
O6 S1 1.449(3) .
O7 S1 1.432(3) .
O11 S3 1.443(5) .
O12 S3 1.448(4) .
O13 S3 1.398(5) .
O14 S4 1.440(3) .
O15 S4 1.451(3) .
O16 S4 1.438(3) .
O17 S5 1.452(3) .
O18 S5 1.443(3) .
O19 S5 1.436(3) .
O20 S6 1.445(3) .
O21 S6 1.453(3) .
O22 S6 1.441(3) .
O26 S8 1.443(3) .
O27 S8 1.452(3) .
O28 S8 1.446(3) .
O29 H29X 0.853(19) .
O29 H29Y 0.865(19) .
O30 H30X 0.872(19) .
O30 H30Y 0.86(2) .
O32 H32X 0.865(19) .
O32 H32Y 0.858(19) .
O33 H33X 0.85(2) .
O33 H33Y 0.85(2) .
O35 H35X 0.867(19) .
O35 H35Y 0.862(19) .
O36 H36X 0.851(19) .
O36 H36Y 0.86(2) .
O38 H38X 0.855(19) .
O38 H38Y 0.860(19) .
O39 H39X 0.858(19) .
O39 H39Y 0.846(19) .
O8A S2A 1.399(2) .
O9A S2A 1.379(2) .
O10A S2A 1.406(3) .
S2A C114 1.844(3) .
F4A C114 1.24102(16) .
F5A C114 1.5711(2) .
F6A C114 1.3412(2) .
S2B O9B 1.303(8) .
S2B O10B 1.443(7) .
S2B O8B 1.611(8) .
S2B C200 1.863(9) .
F4B C200 1.406(11) .
F5B C200 1.204(11) .
F6B C200 1.302(11) .
F6B F6B 1.683(11) 2_665
C119 F20A 1.318(8) .
C119 F21A 1.331(7) .
C119 F22A 1.354(7) .
C119 S7A 1.812(7) .
S7A O23A 1.443(4) .
S7A O25A 1.444(4) .
S7A O24A 1.471(6) .
O23B S7B 1.464(11) .
O24B S7B 1.466(18) .
O25B S7B 1.433(13) .
S7B C201 1.791(17) .
F20B C201 1.331(19) .
F21B C201 1.325(19) .
F22B C201 1.330(18) .
