#------------------------------------------------------------------------------
#$Date: 2015-08-05 23:33:25 +0300 (Wed, 05 Aug 2015) $
#$Revision: 152922 $
#$URL: svn://www.crystallography.net/cod/cif/1/52/93/1529352.cif $
#------------------------------------------------------------------------------
#
# This file is available in the Crystallography Open Database (COD),
# http://www.crystallography.net/
#
# All data on this site have been placed in the public domain by the
# contributors.
#
data_1529352
loop_
_publ_author_name
'Salmer\'on-Valverde, Amparo'
'Bern\`es, Sylvain'
_publ_section_title
;
 Two Closely Related Organic Charge-Transfer Complexes Based on
 Tetrathiafulvalene and 9H-fluorenone Derivatives. Competition between
 Hydrogen Bonding and Stacking Interactions
;
_journal_issue                   3
_journal_name_full               Crystals
_journal_page_first              283
_journal_paper_doi               10.3390/cryst5030283
_journal_volume                  5
_journal_year                    2015
_chemical_formula_moiety         'C14 H5 N3 O9, C6 H4 S4'
_chemical_formula_sum            'C20 H9 N3 O9 S4'
_chemical_formula_weight         563.54
_chemical_melting_point          477
_chemical_name_systematic
;
2,2'-bis(1,3-Dithiolylidene) 4,5,7-trinitro-9-fluorenone-2-carboxylic acid
;
_space_group_crystal_system      monoclinic
_space_group_IT_number           14
_space_group_name_Hall           '-P 2yn'
_space_group_name_H-M_alt        'P 1 21/n 1'
_symmetry_space_group_name_Hall  '-P 2yn'
_symmetry_space_group_name_H-M   'P 1 21/n 1'
_atom_sites_solution_hydrogens   geom
_atom_sites_solution_primary     direct
_atom_sites_solution_secondary   difmap
_audit_creation_date             2014-07-24
_audit_creation_method           SHELXTL-2014
_cell_angle_alpha                90
_cell_angle_beta                 90.106(9)
_cell_angle_gamma                90
_cell_formula_units_Z            4
_cell_length_a                   8.0275(10)
_cell_length_b                   7.8676(13)
_cell_length_c                   34.961(5)
_cell_measurement_reflns_used    61
_cell_measurement_temperature    296(2)
_cell_measurement_theta_max      12.44
_cell_measurement_theta_min      4.80
_cell_volume                     2208.0(6)
_computing_cell_refinement       'Bruker XSCANS'
_computing_data_collection       'Bruker XSCANS'
_computing_data_reduction        'Bruker SHELXTL'
_computing_molecular_graphics    'Bruker SHELXTL'
_computing_publication_material  SHELXL2014
_computing_structure_refinement  'SHELXL2014 (Sheldrick, 2015)'
_computing_structure_solution    'SHELXS2014 (Sheldrick, 2015)'
_diffrn_ambient_temperature      296(2)
_diffrn_measured_fraction_theta_full 0.972
_diffrn_measured_fraction_theta_max 0.997
_diffrn_measurement_device_type  'Bruker P4'
_diffrn_measurement_method       '\w scans'
_diffrn_radiation_monochromator  graphite
_diffrn_radiation_source         'fine-focus sealed tube'
_diffrn_radiation_type           MoK\a
_diffrn_radiation_wavelength     0.71073
_diffrn_reflns_av_R_equivalents  0.0257
_diffrn_reflns_av_unetI/netI     0.0459
_diffrn_reflns_laue_measured_fraction_full 0.972
_diffrn_reflns_laue_measured_fraction_max 0.997
_diffrn_reflns_limit_h_max       1
_diffrn_reflns_limit_h_min       -9
_diffrn_reflns_limit_k_max       1
_diffrn_reflns_limit_k_min       -9
_diffrn_reflns_limit_l_max       41
_diffrn_reflns_limit_l_min       -41
_diffrn_reflns_number            5529
_diffrn_reflns_point_group_measured_fraction_full 0.972
_diffrn_reflns_point_group_measured_fraction_max 0.997
_diffrn_reflns_theta_full        25.242
_diffrn_reflns_theta_max         25.005
_diffrn_reflns_theta_min         2.330
_diffrn_source_current           30
_diffrn_source_power             1.5
_diffrn_source_type              FN4
_diffrn_source_voltage           50
_diffrn_standards_decay_%        0.5
_diffrn_standards_interval_count 97
_diffrn_standards_number         3
_exptl_absorpt_coefficient_mu    0.492
_exptl_absorpt_correction_T_max  0.514
_exptl_absorpt_correction_T_min  0.475
_exptl_absorpt_correction_type   psi-scan
_exptl_absorpt_process_details   'XSCANS (Bruker, 1996)'
_exptl_crystal_colour            dark_green
_exptl_crystal_density_diffrn    1.695
_exptl_crystal_description       irregular
_exptl_crystal_F_000             1144
_exptl_crystal_size_max          0.60
_exptl_crystal_size_mid          0.40
_exptl_crystal_size_min          0.08
_refine_diff_density_max         0.613
_refine_diff_density_min         -0.377
_refine_diff_density_rms         0.061
_refine_ls_extinction_coef       0.0028(7)
_refine_ls_extinction_expression Fc^*^=kFc[1+0.001xFc^2^\l^3^/sin(2\q)]^-1/4^
_refine_ls_extinction_method     SHELXL2014
_refine_ls_goodness_of_fit_ref   1.037
_refine_ls_hydrogen_treatment    constr
_refine_ls_matrix_type           full
_refine_ls_number_constraints    0
_refine_ls_number_parameters     326
_refine_ls_number_reflns         3897
_refine_ls_number_restraints     0
_refine_ls_restrained_S_all      1.037
_refine_ls_R_factor_all          0.0873
_refine_ls_R_factor_gt           0.0490
_refine_ls_shift/su_max          0.000
_refine_ls_shift/su_mean         0.000
_refine_ls_structure_factor_coef Fsqd
_refine_ls_weighting_details
'w=1/[\s^2^(Fo^2^)+(0.0665P)^2^+1.3679P] where P=(Fo^2^+2Fc^2^)/3'
_refine_ls_weighting_scheme      calc
_refine_ls_wR_factor_gt          0.1196
_refine_ls_wR_factor_ref         0.1458
_reflns_Friedel_coverage         0.000
_reflns_number_gt                2464
_reflns_number_total             3897
_reflns_threshold_expression     'I > 2\s(I)'
_cod_data_source_file            ASV_Crystals.cif
_cod_data_source_block           1
_cod_original_cell_volume        2208.0(5)
_cod_database_code               1529352
_shelxl_version_number           2014-3
_shelx_res_file
;
TITL tc2tnfb in P2(1)/n LAST... corr: [E], mu*R=0.25
CELL 0.71073   8.0275   7.8676  34.9610  90.000  90.106  90.000
ZERR    4.00   0.0010   0.0013   0.0046   0.000   0.009   0.000
LATT  1
SYMM 0.5-X, 0.5+Y, 0.5-Z
SFAC C H N O S
UNIT 80 36 12 36 16
TEMP 23

L.S. 15
ACTA
CONF

EQIV $1 x-1, y-1, z
EQIV $2 -x+1, -y+1, -z
EQIV $3 x, y-1, z
EQIV $4 -x+1, -y, -z

HTAB C8  S32_$1
HTAB O12 O13_$2
HTAB C24 O16_$3
HTAB C30 O10_$4

MPLA S23 C24 C25 S26 C27 C28 S29 C30 C31 S32
MPLA C1 C2 C3 C4 C4A C4B C5 C6 C7 C8 C8A C9 C9A

BOND $H
FMAP 2
PLAN 10
WGHT    0.066500    1.367900
EXTI    0.002790
FVAR       0.17487
C1    1    0.259411    0.115088    0.069487    11.00000    0.05974    0.04911 =
         0.03166    0.00223    0.00646   -0.00890
AFIX  43
H1A   2    0.265727    0.056647    0.046413    11.00000   -1.20000
AFIX   0
C2    1    0.321236    0.279784    0.072778    11.00000    0.04854    0.05264 =
         0.03792    0.00809    0.00766   -0.00917
C3    1    0.305396    0.365865    0.106708    11.00000    0.05336    0.04301 =
         0.04413    0.00454    0.00318   -0.01315
AFIX  43
H3A   2    0.342959    0.477424    0.108447    11.00000   -1.20000
AFIX   0
C4    1    0.234062    0.289001    0.138556    11.00000    0.04651    0.04216 =
         0.03573   -0.00102    0.00572   -0.00856
C4A   1    0.178603    0.122736    0.137060    11.00000    0.03578    0.03847 =
         0.03151    0.00425    0.00374    0.00021
C4B   1    0.099589    0.003775    0.165026    11.00000    0.03423    0.03495 =
         0.03537    0.00368    0.00298    0.00308
C5    1    0.070470    0.003995    0.204167    11.00000    0.03876    0.04035 =
         0.03159   -0.00067    0.00167    0.00029
C6    1   -0.020514   -0.122443    0.221892    11.00000    0.03850    0.04588 =
         0.03160    0.00428    0.00495    0.00613
AFIX  43
H6A   2   -0.039896   -0.119408    0.248101    11.00000   -1.20000
AFIX   0
C7    1   -0.081723   -0.253006    0.199756    11.00000    0.04121    0.03968 =
         0.04007    0.00996    0.00916    0.00046
C8    1   -0.050278   -0.266870    0.161028    11.00000    0.05519    0.03329 =
         0.04232    0.00177    0.00371   -0.00441
AFIX  43
H8A   2   -0.090112   -0.357976    0.146741    11.00000   -1.20000
AFIX   0
C8A   1    0.042901   -0.139292    0.144586    11.00000    0.04387    0.03761 =
         0.03441    0.00400    0.00512    0.00202
C9    1    0.101523   -0.127063    0.104155    11.00000    0.05857    0.04279 =
         0.03489   -0.00036    0.00727   -0.00496
C9A   1    0.188216    0.040274    0.101419    11.00000    0.04845    0.04423 =
         0.03596    0.00293    0.00606   -0.00678
O10   4    0.084327   -0.233204    0.079402    11.00000    0.10843    0.05400 =
         0.04371   -0.01240    0.02236   -0.02470
C11   1    0.395908    0.374156    0.040034    11.00000    0.06210    0.05854 =
         0.03948    0.00836    0.00712   -0.01364
O12   4    0.400681    0.291326    0.007846    11.00000    0.11078    0.07335 =
         0.04085    0.00452    0.02196   -0.03467
AFIX   3
H12   2    0.460891    0.359057   -0.007646    11.00000   -1.50000
AFIX   0
O13   4    0.446783    0.520185    0.044281    11.00000    0.09225    0.06087 =
         0.04685    0.00758    0.01379   -0.03021
N14   3    0.198137    0.401682    0.170833    11.00000    0.09188    0.05014 =
         0.05176   -0.00195    0.01640   -0.01445
O15   4    0.062054    0.379162    0.187509    11.00000    0.08444    0.05680 =
         0.06653    0.00105    0.02067    0.01303
O16   4    0.296842    0.514504    0.178266    11.00000    0.13681    0.07850 =
         0.07599   -0.02770    0.02999   -0.06214
N17   3    0.149968    0.128392    0.229891    11.00000    0.06204    0.05812 =
         0.04171    0.00084   -0.00221   -0.01064
O18   4    0.069661    0.183191    0.256751    11.00000    0.09013    0.06997 =
         0.03690   -0.01443    0.01693   -0.01279
O19   4    0.296811    0.167001    0.222404    11.00000    0.05732    0.08712 =
         0.07195   -0.01015   -0.01142   -0.01094
N20   3   -0.182757   -0.386929    0.218410    11.00000    0.04708    0.04546 =
         0.05223    0.00634    0.01094   -0.00269
O21   4   -0.266031   -0.480026    0.197961    11.00000    0.06568    0.05319 =
         0.06158    0.00024    0.01372   -0.01784
O22   4   -0.178915   -0.395939    0.253316    11.00000    0.07427    0.08145 =
         0.04565    0.01864    0.00905   -0.01990
S23   5    0.626028   -0.154861    0.095597    11.00000    0.08018    0.05136 =
         0.06805   -0.00408   -0.00050   -0.01718
C24   1    0.541359   -0.189379    0.140866    11.00000    0.05378    0.06441 =
         0.07938    0.02112    0.00047   -0.01237
AFIX  43
H24A  2    0.488341   -0.291266    0.146649    11.00000   -1.20000
AFIX   0
C25   1    0.554050   -0.068725    0.166540    11.00000    0.04689    0.07409 =
         0.06448    0.02211    0.00773    0.00189
AFIX  43
H25A  2    0.510086   -0.082327    0.190942    11.00000   -1.20000
AFIX   0
S26   5    0.655471    0.117211    0.153569    11.00000    0.06185    0.05673 =
         0.04504    0.00078    0.00481    0.00137
C27   1    0.692148    0.051730    0.106120    11.00000    0.04969    0.04640 =
         0.04583   -0.00040   -0.00085   -0.00076
C28   1    0.764447    0.155325    0.080120    11.00000    0.05448    0.05119 =
         0.03954   -0.00337   -0.00219   -0.01033
S29   5    0.808214    0.090905    0.032990    11.00000    0.10502    0.07675 =
         0.04346   -0.00864    0.00705   -0.01723
C30   1    0.861585    0.293574    0.017981    11.00000    0.11052    0.10203 =
         0.04569    0.01328    0.00990   -0.02886
AFIX  43
H30A  2    0.883347    0.315612   -0.007662    11.00000   -1.20000
AFIX   0
C31   1    0.870585    0.414360    0.043356    11.00000    0.10359    0.07710 =
         0.06812    0.01842    0.00920   -0.03229
AFIX  43
H31A  2    0.901318    0.524094    0.036441    11.00000   -1.20000
AFIX   0
S32   5    0.823636    0.364617    0.090357    11.00000    0.07907    0.05067 =
         0.05279    0.00106   -0.00343   -0.01552

HKLF 4

REM  tc2tnfb in P2(1)/n LAST... corr: [E], mu*R=0.25
REM R1 =  0.0490 for    2464 Fo > 4sig(Fo)  and  0.0873 for all    3897 data
REM    326 parameters refined using      0 restraints

END

WGHT      0.0647      1.4448

REM Highest difference peak  0.613,  deepest hole -0.377,  1-sigma level  0.061
Q1    1   0.3545  0.2678  0.2016  11.00000  0.05    0.61
Q2    1   0.0131  0.2931  0.2083  11.00000  0.05    0.49
Q3    1   0.0257  0.1835  0.2218  11.00000  0.05    0.47
Q4    1   0.3174  0.3373  0.1779  11.00000  0.05    0.41
Q5    1   0.2601  0.2983  0.0745  11.00000  0.05    0.25
Q6    1   0.0025 -0.1980  0.1516  11.00000  0.05    0.22
Q7    1   0.0317 -0.0627  0.1530  11.00000  0.05    0.21
Q8    1   0.1423  0.0670  0.1538  11.00000  0.05    0.21
Q9    1   0.7601  0.2814  0.0864  11.00000  0.05    0.21
Q10   1   0.7560  0.0981  0.0960  11.00000  0.05    0.20
;
_shelx_res_checksum              67388
_shelx_hkl_file
;
  -9  -3  -1   -0.93    0.39
  -9  -3   0    0.48    0.51
  -9  -3   1   -0.17    0.44
  -9  -3   2   -0.08    0.43
  -9  -3   3    1.89    1.03
  -9  -2  10    2.81    1.03
  -9  -2   9    0.35    0.56
  -9  -2   8    0.40    0.57
  -9  -2   7   -0.42    0.40
  -9  -2   6    0.75    0.65
  -9  -2   5    0.41    0.70
  -9  -2   4    0.19    0.52
  -9  -2   3   -0.12    0.61
  -9  -2   2    0.18    0.64
  -9  -2   1    0.07    0.60
  -9  -2   0    0.69    0.73
  -9  -2  -1    0.02    0.56
  -9  -1  -1    0.53    0.50
  -9  -1   0    0.06    0.53
  -9  -1   1   -0.22    0.50
  -9  -1   2    1.95    0.68
  -9  -1   3   -0.10    0.43
  -9  -1   4    0.34    0.60
  -9  -1   5    0.15    0.58
  -9  -1   6    0.10    0.73
  -9  -1   7    0.35    0.76
  -9  -1   8   -0.40    0.51
  -9  -1   9   -0.27    0.52
  -9  -1  10    0.10    0.58
  -9  -1  11    0.21    0.64
  -9  -1  12    3.72    0.91
  -9  -1  13    0.12    0.57
  -9   0  13    0.38    0.64
  -9   0  12   -0.52    0.46
  -9   0  11    0.26    0.54
  -9   0  10   -0.29    0.45
  -9   0   9    0.77    0.88
  -9   0   8   -0.43    0.41
  -9   0   7    2.14    0.85
  -9   0   6    0.30    0.66
  -9   0   5    0.30    0.54
  -9   0   4   -0.38    0.51
  -9   0   3    0.71    0.61
  -9   0   2   -0.22    0.43
  -9   0   1    4.64    0.83
  -9   0   0   -0.28    0.51
  -9   0  -1    0.49    0.64
  -9   1  -1    0.64    0.69
  -9   1   0    0.02    0.73
  -9   1   1    0.35    0.60
  -9   1   2    3.04    0.69
  -9   1   3   -0.14    0.59
  -9   1   4    0.28    0.64
  -9   1   5   -0.63    0.45
  -9   1   6    3.48    0.76
  -9   1   7   -0.26    0.57
  -9   1   8    0.18    0.47
  -9   1   9    0.88    0.54
  -9   1  10    0.20    0.59
  -9   1  11   -0.33    0.76
  -9   1  12    4.68    0.86
  -9   1  13   -0.13    0.71
  -9   1 -13   -0.09    0.62
  -9   1 -12    0.35    0.48
  -9   1 -11    0.16    0.60
  -9   1 -10   -0.30    0.41
  -9   1  -9    0.20    0.59
  -9   1  -8    1.11    0.76
  -9   1  -7    0.31    0.49
  -9   1  -6    0.23    0.63
  -9   1  -5    1.76    0.71
  -9   1  -4    0.31    0.74
  -9   1  -3    0.06    0.61
  -9   1  -2    0.08    0.51
  -9   0  -2   -0.16    0.47
  -9   0  -3   -0.70    0.46
  -9   0  -4    0.00    0.41
  -9   0  -5    1.18    0.70
  -9   0  -6   -0.17    0.47
  -9   0  -7    1.74    0.76
  -9   0  -8    0.20    0.47
  -9   0  -9    4.26    0.93
  -9   0 -10   -0.02    0.49
  -9   0 -11   -0.26    0.55
  -9   0 -12   -0.13    0.52
  -9   0 -13    2.77    1.02
  -9  -1 -13    0.27    0.51
  -9  -1 -12   -0.50    0.63
  -9  -1 -11    0.00    0.57
  -9  -1 -10   -0.13    0.45
  -9  -1  -9    0.34    0.67
  -9  -1  -8    1.57    0.71
  -9  -1  -7    0.36    0.43
  -9  -1  -6    0.04    0.49
  -9  -1  -5    2.76    0.78
  -9  -1  -4    0.93    0.83
  -9  -1  -3   -0.32    0.56
  -9  -1  -2   -0.07    0.46
  -9  -2  -2   -0.35    0.62
  -9  -2  -3    0.72    0.97
  -9  -2  -4    2.49    0.80
  -9  -2  -5    0.02    0.61
  -9  -2  -6    2.56    1.01
  -9  -2  -7    2.10    0.71
  -9  -2  -8   -0.16    0.54
  -9  -2  -9    1.23    0.60
  -9  -2 -10    0.37    0.56
  -9  -3  -3    0.71    0.52
  -9  -3  -2    0.98    0.74
  -8   1  -1    1.78    0.62
  -8   1   0    1.07    0.61
  -8   1   1    0.92    0.66
  -8   1   2   -0.06    0.47
  -8   1   3    0.22    0.48
  -8   1   4    4.24    1.07
  -8   1   5    2.03    0.75
  -8   1   6    0.26    0.52
  -8   1   7    1.48    0.64
  -8   1   8    0.86    0.84
  -8   1   9   -0.69    0.52
  -8   1  10    0.44    0.69
  -8   1  11    1.09    0.46
  -8   1  12    5.82    0.90
  -8   1  13    0.21    0.65
  -8   1  14    0.55    0.66
  -8   1  15    0.79    0.60
  -8   1  16    2.50    0.88
  -8   1  17    0.88    0.75
  -8   1  18    0.67    0.76
  -8   1  19    1.38    0.78
  -8   1  20    0.47    0.78
  -8   1  21   -0.42    0.52
  -8   1  22   -0.07    0.52
  -8   0  22    4.72    0.83
  -8   0  21   -0.21    0.48
  -8   0  20    0.13    0.68
  -8   0  19   -0.40    0.44
  -8   0  18    0.00    0.56
  -8   0  17    0.35    0.62
  -8   0  16    2.18    1.04
  -8   0  15   -0.24    0.57
  -8   0  14    2.47    0.63
  -8   0  13    0.61    0.54
  -8   0  12    3.73    0.89
  -8   0  11    0.28    0.45
  -8   0  10    1.05    0.68
  -8   0   9   -0.15    0.60
  -8   0   8    5.86    0.73
  -8   0   7    1.02    0.54
  -8   0   6    0.44    0.49
  -8   0   5    0.09    0.39
  -8   0   4    1.80    0.55
  -8   0   3    0.22    0.62
  -8   0   2    6.34    0.87
  -8   0   1   -0.62    0.47
  -8   0   0   21.88    1.26
  -8   0  -1   -0.49    0.37
  -8  -1  -1    1.10    0.67
  -8  -1   0   -0.22    0.72
  -8  -1   1    2.12    0.69
  -8  -1   2   -0.10    0.55
  -8  -1   3   -0.23    0.45
  -8  -1   4    4.97    0.88
  -8  -1   5    3.78    0.77
  -8  -1   6    0.56    0.68
  -8  -1   7    1.26    0.57
  -8  -1   8    3.38    0.96
  -8  -1   9   -0.69    0.52
  -8  -1  10   -0.40    0.59
  -8  -1  11   -0.06    0.50
  -8  -1  12    4.24    0.89
  -8  -1  13   -0.10    0.57
  -8  -1  14    0.44    0.53
  -8  -1  15    0.15    0.68
  -8  -1  16    5.38    0.86
  -8  -1  17    1.80    0.70
  -8  -1  18    0.76    0.64
  -8  -1  19    0.49    0.69
  -8  -1  20    0.85    0.68
  -8  -1  21    0.13    0.51
  -8  -1  22    0.48    0.53
  -8  -2  20    0.05    0.55
  -8  -2  19    1.50    0.71
  -8  -2  18    0.41    0.58
  -8  -2  17    3.13    0.84
  -8  -2  16    0.88    0.69
  -8  -2  15    0.79    0.81
  -8  -2  14    3.42    0.72
  -8  -2  13    3.93    0.85
  -8  -2  12    0.27    0.48
  -8  -2  11    2.62    0.70
  -8  -2  10    2.37    0.83
  -8  -2   9    7.98    0.90
  -8  -2   8   -0.29    0.51
  -8  -2   8   -0.01    0.49
  -8  -2   7    2.37    0.78
  -8  -2   6    1.29    0.57
  -8  -2   5    1.99    0.65
  -8  -2   4    3.19    0.98
  -8  -2   3    5.66    0.78
  -8  -2   2    3.68    0.95
  -8  -2   1    6.82    0.85
  -8  -2   0    0.76    0.75
  -8  -2  -1    0.28    0.53
  -8  -3  -1    0.89    0.56
  -8  -3   0    7.18    0.85
  -8  -3   1   17.00    1.33
  -8  -3   2    0.96    0.68
  -8  -3   3   -0.23    0.52
  -8  -3   4    0.07    0.72
  -8  -3   5   11.96    1.13
  -8  -3   6    1.16    0.68
  -8  -3   7    7.58    0.99
  -8  -3   8    0.10    0.56
  -8  -3   9    6.24    1.01
  -8  -3  10    0.39    0.50
  -8  -3  11    0.17    0.73
  -8  -3  12    1.01    0.70
  -8  -3  13   -0.42    0.44
  -8  -3  14    0.70    0.65
  -8  -3  15    1.84    0.69
  -8  -3  16    0.49    0.61
  -8  -3  17    0.46    0.72
  -8  -3  18    1.62    0.58
  -8  -4  14    0.79    0.96
  -8  -4  13    0.05    0.53
  -8  -4  12    4.33    0.86
  -8  -4  11    0.68    0.56
  -8  -4  10   -0.28    0.52
  -8  -4   9    0.92    0.57
  -8  -4   8    1.97    0.73
  -8  -4   7    0.47    0.70
  -8  -4   6    1.14    0.66
  -8  -4   5    1.10    0.57
  -8  -4   4   -0.04    0.56
  -8  -4   3    0.52    0.74
  -8  -4   2   10.55    1.03
  -8  -4   1   -0.18    0.41
  -8  -4   0   -0.21    0.55
  -8  -4  -1   -0.46    0.38
  -8  -5  -1    0.93    0.55
  -8  -5   0    2.70    0.67
  -8  -5   1    0.53    0.68
  -8  -5   2    0.45    0.66
  -8  -5   3    1.76    0.71
  -8  -5   4    0.43    0.56
  -8  -5  -4    0.11    0.47
  -8  -5  -3   -0.24    0.61
  -8  -5  -2    3.86    0.85
  -8  -4  -2    1.14    0.85
  -8  -4  -3   -0.37    0.62
  -8  -4  -4    2.31    0.56
  -8  -4  -5    1.10    0.60
  -8  -4  -6   -0.32    0.41
  -8  -4  -7    1.97    0.67
  -8  -4  -8   12.20    1.21
  -8  -4  -9   -0.09    0.75
  -8  -4 -10    0.12    0.52
  -8  -4 -11    0.44    0.57
  -8  -4 -12    4.39    0.83
  -8  -4 -13    0.13    0.58
  -8  -4 -14    0.31    0.58
  -8  -3 -18   -0.02    0.53
  -8  -3 -17   -0.45    0.43
  -8  -3 -16    0.31    0.56
  -8  -3 -15   12.36    1.20
  -8  -3 -14    0.95    0.64
  -8  -3 -13    0.41    0.73
  -8  -3 -12    4.51    0.86
  -8  -3 -11   17.57    1.25
  -8  -3 -10    0.55    0.66
  -8  -3  -9    1.04    0.64
  -8  -3  -8    0.51    0.53
  -8  -3  -7    5.72    1.09
  -8  -3  -6    0.56    0.65
  -8  -3  -5    0.41    0.62
  -8  -3  -4   -0.13    0.65
  -8  -3  -3    4.01    0.81
  -8  -3  -2   10.17    1.03
  -8  -2  -2    0.17    0.55
  -8  -2  -3    1.15    0.55
  -8  -2  -4   -0.04    0.46
  -8  -2  -5    2.78    0.74
  -8  -2  -6    2.06    0.67
  -8  -2  -7   -0.06    0.43
  -8  -2  -8    0.64    0.68
  -8  -2  -9    1.84    0.57
  -8  -2 -10   -0.45    0.45
  -8  -2 -11    5.88    0.77
  -8  -2 -12    1.61    0.61
  -8  -2 -13    8.22    0.97
  -8  -2 -14   -0.59    0.47
  -8  -2 -15    0.83    0.63
  -8  -2 -16    0.20    0.53
  -8  -2 -17    0.86    0.74
  -8  -2 -18    0.53    0.61
  -8  -2 -19    0.25    0.57
  -8  -2 -20   -0.22    0.42
  -8  -1 -22    0.10    0.52
  -8  -1 -21    0.03    0.46
  -8  -1 -20   -0.64    0.36
  -8  -1 -19    1.01    0.69
  -8  -1 -18    6.95    1.15
  -8  -1 -17    0.67    0.47
  -8  -1 -16   -0.21    0.40
  -8  -1 -15    4.35    0.81
  -8  -1 -14   -0.33    0.50
  -8  -1 -13    5.66    0.81
  -8  -1 -12    2.15    0.67
  -8  -1 -11    9.03    1.01
  -8  -1 -10    0.00    0.61
  -8  -1  -9    0.13    0.60
  -8  -1  -8    6.87    1.06
  -8  -1  -7    1.13    0.73
  -8  -1  -6    0.36    0.74
  -8  -1  -5    0.43    0.45
  -8  -1  -4    0.66    0.54
  -8  -1  -3    1.09    0.50
  -8  -1  -2    2.57    0.71
  -8   0  -2    0.57    0.83
  -8   0  -3    0.47    0.52
  -8   0  -4    1.64    0.72
  -8   0  -5    0.37    0.51
  -8   0  -6    0.10    0.47
  -8   0  -7    0.16    0.53
  -8   0  -8    4.43    0.86
  -8   0  -9   -0.40    0.57
  -8   0 -10   -0.21    0.58
  -8   0 -11   -0.06    0.43
  -8   0 -12    6.55    0.92
  -8   0 -13   -0.36    0.49
  -8   0 -14    0.34    0.51
  -8   0 -15   -0.14    0.42
  -8   0 -16    0.19    0.47
  -8   0 -17    0.25    0.52
  -8   0 -18   -0.12    0.51
  -8   0 -19   -0.47    0.40
  -8   0 -20    0.07    0.51
  -8   0 -21    0.53    0.50
  -8   0 -22    0.41    0.63
  -8   1 -22   -0.18    0.56
  -8   1 -21    0.14    0.48
  -8   1 -20   -0.53    0.49
  -8   1 -19    0.82    0.56
  -8   1 -18    5.61    1.18
  -8   1 -17   -0.22    0.58
  -8   1 -16    0.01    0.48
  -8   1 -15    4.50    1.00
  -8   1 -14    0.03    0.64
  -8   1 -13    3.11    0.81
  -8   1 -12    0.84    0.71
  -8   1 -11   10.98    1.08
  -8   1 -10    0.40    0.56
  -8   1  -9    0.73    0.55
  -8   1  -8    4.61    0.91
  -8   1  -7    0.05    0.96
  -8   1  -6    0.21    0.66
  -8   1  -5   -0.11    0.51
  -8   1  -4    0.02    0.77
  -8   1  -3   -0.23    0.50
  -8   1  -2    2.77    0.85
  -7  -6   9    0.25    0.50
  -7  -6   8    0.81    0.69
  -7  -6   7   -0.39    0.39
  -7  -6   6    0.42    0.79
  -7  -6   5    3.94    0.80
  -7  -6   4   -0.05    0.55
  -7  -6   3   -0.34    0.43
  -7  -6   2    1.85    0.82
  -7  -6   1    1.62    0.66
  -7  -6   0   -0.14    0.54
  -7  -6  -1    0.62    0.70
  -7  -5  -1    0.48    0.65
  -7  -5   0    0.34    0.61
  -7  -5   1    3.17    0.75
  -7  -5   2    0.55    0.65
  -7  -5   3   -0.33    0.48
  -7  -5   4    1.00    0.81
  -7  -5   5    1.53    0.61
  -7  -5   6    1.64    0.65
  -7  -5   7    0.03    0.66
  -7  -5   8    6.65    0.85
  -7  -5   9    3.65    1.09
  -7  -5  10    2.33    0.81
  -7  -5  11    6.63    1.05
  -7  -5  12   -0.39    0.48
  -7  -5  13    3.24    0.81
  -7  -5  14    1.09    0.95
  -7  -5  15    1.25    0.64
  -7  -5  16    1.50    0.89
  -7  -5  17    3.99    0.77
  -7  -4  22   -0.27    0.47
  -7  -4  21    2.58    0.67
  -7  -4  20   -0.48    0.44
  -7  -4  19    0.27    0.66
  -7  -4  18   -0.53    0.40
  -7  -4  17    2.94    0.95
  -7  -4  16    0.31    0.45
  -7  -4  15    0.08    0.64
  -7  -4  14    0.99    0.53
  -7  -4  13    0.48    0.43
  -7  -4  12    0.16    0.59
  -7  -4  11    2.82    0.97
  -7  -4  10    3.41    0.77
  -7  -4   9    7.67    0.93
  -7  -4   8    1.48    0.62
  -7  -4   7    7.44    0.93
  -7  -4   6    1.79    0.60
  -7  -4   5    8.61    0.92
  -7  -4   4    0.66    0.55
  -7  -4   3    0.27    0.51
  -7  -4   2   -0.42    0.49
  -7  -4   1    3.78    0.76
  -7  -4   0    1.92    0.62
  -7  -4  -1    0.06    0.53
  -7  -3  -1   20.71    1.35
  -7  -3   0    0.24    0.47
  -7  -3   1   -0.10    0.46
  -7  -3   2    0.16    0.53
  -7  -3   3    2.21    0.62
  -7  -3   4    8.28    0.85
  -7  -3   5   -0.06    0.50
  -7  -3   6    1.80    0.86
  -7  -3   7   10.92    0.93
  -7  -3   8    1.46    0.92
  -7  -3   9    1.16    0.84
  -7  -3  10    0.29    0.42
  -7  -3  11    0.49    0.58
  -7  -3  12    4.07    0.73
  -7  -3  13    0.55    0.56
  -7  -3  14    4.48    0.75
  -7  -3  15    2.53    0.72
  -7  -3  16    4.69    1.04
  -7  -3  17    2.61    0.74
  -7  -3  18   -0.25    0.47
  -7  -3  19   -0.40    0.51
  -7  -3  20    4.44    0.92
  -7  -3  21   -0.47    0.58
  -7  -3  22   -0.11    0.49
  -7  -3  23    0.24    0.65
  -7  -3  24    2.90    0.82
  -7  -2  26    1.13    0.80
  -7  -2  25    1.20    0.72
  -7  -2  24    1.14    0.89
  -7  -2  23    4.37    0.78
  -7  -2  22    3.99    0.85
  -7  -2  21   -0.28    0.55
  -7  -2  20    0.92    0.63
  -7  -2  19    0.48    0.82
  -7  -2  18    5.71    0.79
  -7  -2  17    0.52    0.62
  -7  -2  16    0.94    0.58
  -7  -2  15    0.28    0.53
  -7  -2  14    3.43    0.84
  -7  -2  13    3.41    0.90
  -7  -2  12    2.72    0.61
  -7  -2  11    0.73    0.79
  -7  -2  10    3.17    0.75
  -7  -2   9    1.35    0.55
  -7  -2   8   15.81    1.15
  -7  -2   7    0.47    0.50
  -7  -2   6    2.29    0.96
  -7  -2   5    3.04    0.72
  -7  -2   4    0.58    0.49
  -7  -2   3    0.74    0.82
  -7  -2   2    0.33    0.50
  -7  -2   1    0.36    0.46
  -7  -2   0    1.26    0.58
  -7  -2  -1    1.40    0.59
  -7  -1  -1    0.95    0.35
  -7  -1   0    9.57    0.57
  -7  -1   1    1.00    0.45
  -7  -1   2    3.04    0.42
  -7  -1   3    5.52    0.48
  -7  -1   4    9.54    0.58
  -7  -1   5    0.56    0.59
  -7  -1   6    5.62    0.76
  -7  -1   7    0.15    0.56
  -7  -1   8    7.68    1.03
  -7  -1   9    7.62    0.87
  -7  -1  10   -0.60    0.65
  -7  -1  11    8.39    0.91
  -7  -1  12    0.38    0.61
  -7  -1  13   -0.07    0.55
  -7  -1  14    1.11    0.60
  -7  -1  15    0.14    0.74
  -7  -1  16   13.44    1.14
  -7  -1  17    7.32    1.00
  -7  -1  18    0.80    0.72
  -7  -1  19    0.60    0.58
  -7  -1  20   26.25    1.49
  -7  -1  21    5.92    0.96
  -7  -1  22    0.18    0.97
  -7  -1  23   -0.85    0.46
  -7  -1  24    4.49    0.88
  -7  -1  25    0.87    0.75
  -7  -1  26   -0.17    0.53
  -7  -1  27    0.22    0.47
  -7   0  28   -0.71    0.53
  -7   0  27   -0.42    0.65
  -7   0  26    0.27    0.65
  -7   0  25    3.41    0.74
  -7   0  24   -0.05    0.57
  -7   0  23   12.90    1.12
  -7   0  22    0.15    0.60
  -7   0  21    0.80    0.43
  -7   0  20   -0.12    0.53
  -7   0  19    3.08    0.85
  -7   0  18   -0.41    0.68
  -7   0  17   56.49    1.86
  -7   0  16   -0.36    0.72
  -7   0  15    9.04    0.98
  -7   0  14    0.52    0.69
  -7   0  13    5.83    0.91
  -7   0  12    0.74    0.79
  -7   0  11   -0.23    0.57
  -7   0  10   -0.03    0.52
  -7   0   9    0.34    0.48
  -7   0   8   -0.02    0.49
  -7   0   7    8.76    0.82
  -7   0   6    0.20    0.30
  -7   0   5    0.87    0.35
  -7   0   4    0.29    0.30
  -7   0   3    8.86    0.55
  -7   0   2    0.85    0.38
  -7   0   1   18.76    0.71
  -7   0   0    0.32    0.32
  -7   0  -1   -0.30    0.29
  -7   1  -1    0.49    0.37
  -7   1   0    8.49    0.60
  -7   1   1    0.72    0.39
  -7   1   2    3.67    0.44
  -7   1   3    4.46    0.46
  -7   1   4    9.75    0.64
  -7   1   5    0.80    0.54
  -7   1   6    5.13    0.72
  -7   1   7    0.52    0.57
  -7   1   8    7.78    0.79
  -7   1   9    8.18    0.97
  -7   1  10   -0.24    0.63
  -7   1  11    7.65    1.01
  -7   1  12    0.21    0.52
  -7   1  13    0.84    0.54
  -7   1  14    1.14    0.74
  -7   1  15   -0.64    0.41
  -7   1  16   13.52    1.22
  -7   1  17    7.92    1.04
  -7   1  18    0.28    0.81
  -7   1  19    0.09    0.58
  -7   1  20   22.21    1.37
  -7   1  21    7.29    1.07
  -7   1  22    1.91    0.88
  -7   1  23   -0.23    0.60
  -7   1  24    5.42    0.91
  -7   1  25    3.44    0.82
  -7   1  26    0.15    0.54
  -7   1  27   -0.43    0.58
  -7   1 -27    1.80    0.74
  -7   1 -26    0.51    0.60
  -7   1 -25   -0.03    0.57
  -7   1 -24   12.80    1.29
  -7   1 -23   -0.03    0.92
  -7   1 -22    0.26    0.71
  -7   1 -21    4.68    1.05
  -7   1 -20    0.21    0.65
  -7   1 -19    0.58    0.61
  -7   1 -18    3.82    0.81
  -7   1 -17    0.94    0.66
  -7   1 -16    0.29    0.64
  -7   1 -15    2.06    0.64
  -7   1 -14   -0.40    0.55
  -7   1 -13    0.49    0.64
  -7   1 -12    0.17    0.65
  -7   1 -11    0.36    0.57
  -7   1 -10    1.16    0.55
  -7   1  -9    3.85    0.75
  -7   1  -8   18.27    1.05
  -7   1  -7    9.80    1.06
  -7   1  -6    0.37    0.59
  -7   1  -5   10.15    0.83
  -7   1  -4    0.07    0.30
  -7   1  -3   -0.14    0.35
  -7   1  -2   -0.07    0.31
  -7   0  -2    0.50    0.33
  -7   0  -3   13.95    0.67
  -7   0  -4   -0.21    0.42
  -7   0  -5    1.95    0.38
  -7   0  -6    0.03    0.30
  -7   0  -7    1.04    0.64
  -7   0  -8    0.20    0.54
  -7   0  -9   25.58    1.19
  -7   0 -10   -0.04    0.62
  -7   0 -11   16.43    1.09
  -7   0 -12    0.20    0.62
  -7   0 -13    2.82    0.65
  -7   0 -14   -0.56    0.48
  -7   0 -15    0.28    0.60
  -7   0 -16   -0.04    0.49
  -7   0 -17    4.00    0.79
  -7   0 -18    0.00    0.47
  -7   0 -19    0.28    0.80
  -7   0 -20    0.08    0.49
  -7   0 -21    0.00    0.58
  -7   0 -22    0.11    0.48
  -7   0 -23    0.51    0.61
  -7   0 -24   -0.25    0.48
  -7   0 -25    0.79    0.69
  -7   0 -26   -0.09    0.50
  -7   0 -27    0.69    0.73
  -7   0 -28    0.45    0.55
  -7  -1 -27    0.29    0.68
  -7  -1 -26   -0.47    0.50
  -7  -1 -25   -0.25    0.60
  -7  -1 -24   12.30    1.10
  -7  -1 -23    0.36    0.61
  -7  -1 -22    1.53    0.62
  -7  -1 -21    5.87    0.86
  -7  -1 -20    0.58    0.59
  -7  -1 -19   -0.16    0.51
  -7  -1 -18    3.68    0.70
  -7  -1 -17    2.11    0.67
  -7  -1 -16    0.51    0.50
  -7  -1 -15    0.93    0.60
  -7  -1 -14    0.71    0.54
  -7  -1 -13    1.07    0.55
  -7  -1 -12   -0.08    0.51
  -7  -1 -11    1.08    0.48
  -7  -1 -10    0.25    0.56
  -7  -1  -9    2.76    0.69
  -7  -1  -8   14.72    1.09
  -7  -1  -7    7.98    0.94
  -7  -1  -6    0.02    0.52
  -7  -1  -5   10.76    0.93
  -7  -1  -4    0.18    0.30
  -7  -1  -3    0.61    0.37
  -7  -1  -2    0.33    0.34
  -7  -2  -2   -0.06    0.50
  -7  -2  -3    0.89    0.58
  -7  -2  -4   -0.34    0.46
  -7  -2  -5   -0.05    0.45
  -7  -2  -6   -0.16    0.61
  -7  -2  -7   -0.40    0.55
  -7  -2  -8    6.21    0.80
  -7  -2  -9    1.71    0.71
  -7  -2 -10    3.24    0.63
  -7  -2 -11    0.45    0.55
  -7  -2 -12    0.55    0.57
  -7  -2 -13    0.01    0.52
  -7  -2 -14    1.20    0.58
  -7  -2 -15    0.01    0.47
  -7  -2 -16    1.54    0.51
  -7  -2 -17    0.54    0.62
  -7  -2 -18    0.57    0.57
  -7  -2 -19    0.00    0.59
  -7  -2 -20    4.00    0.70
  -7  -2 -21    0.08    0.58
  -7  -2 -22   11.88    1.08
  -7  -2 -23    2.01    0.94
  -7  -2 -24    4.36    1.07
  -7  -2 -25    0.08    0.60
  -7  -2 -26    1.41    0.72
  -7  -3 -24    1.75    0.74
  -7  -3 -23    3.57    0.88
  -7  -3 -22    1.93    0.69
  -7  -3 -21    0.05    0.60
  -7  -3 -20   -0.83    0.41
  -7  -3 -19    1.80    0.67
  -7  -3 -18    3.75    0.82
  -7  -3 -17    5.65    0.85
  -7  -3 -16    0.42    0.55
  -7  -3 -15    0.14    0.53
  -7  -3 -14    0.07    0.50
  -7  -3 -13    2.45    0.93
  -7  -3 -12    9.61    0.89
  -7  -3 -11   -0.30    0.45
  -7  -3 -10    0.14    0.56
  -7  -3  -9    4.57    0.79
  -7  -3  -8    0.38    0.47
  -7  -3  -7    7.34    0.80
  -7  -3  -6   -0.15    0.70
  -7  -3  -5   10.18    0.91
  -7  -3  -4    3.79    0.69
  -7  -3  -3    2.13    0.66
  -7  -3  -2   28.65    1.32
  -7  -4  -2    0.37    0.59
  -7  -4  -3    0.31    0.52
  -7  -4  -4    0.11    0.59
  -7  -4  -5   14.25    1.17
  -7  -4  -6    0.82    0.63
  -7  -4  -7    3.79    1.01
  -7  -4  -8    0.79    0.65
  -7  -4  -9    0.08    0.48
  -7  -4 -10    0.22    0.49
  -7  -4 -11    0.16    0.48
  -7  -4 -12    2.08    0.62
  -7  -4 -13    0.44    0.55
  -7  -4 -14    0.83    0.64
  -7  -4 -15    0.96    0.70
  -7  -4 -16    0.35    0.59
  -7  -4 -17   -0.31    0.48
  -7  -4 -18    0.42    0.70
  -7  -4 -19    0.77    0.55
  -7  -4 -20    0.50    0.58
  -7  -4 -21   -0.23    0.55
  -7  -5 -17   -0.15    0.48
  -7  -5 -16    0.59    0.63
  -7  -5 -15    0.47    0.60
  -7  -5 -14    0.27    0.55
  -7  -5 -13    0.40    0.66
  -7  -5 -12    0.43    0.69
  -7  -5 -11    3.00    0.66
  -7  -5 -10    3.63    0.93
  -7  -5  -9    0.18    0.60
  -7  -5  -8    0.09    0.48
  -7  -5  -7    1.29    0.63
  -7  -5  -6    1.34    0.68
  -7  -5  -5    6.07    0.92
  -7  -5  -4    1.99    0.56
  -7  -5  -3    0.68    0.56
  -7  -5  -2    1.60    0.60
  -7  -6  -2    0.33    0.60
  -7  -6  -3    0.32    0.57
  -7  -6  -4    0.50    0.61
  -7  -6  -5   -0.10    0.53
  -7  -6  -6    1.28    0.69
  -7  -6  -7   -0.04    0.52
  -7  -6  -8   -0.01    0.53
  -7  -6  -9    0.05    0.56
  -6   1  -1    2.14    0.41
  -6   1   0    1.41    0.38
  -6   1   1    0.09    0.29
  -6   1   2   30.47    0.94
  -6   1   3    0.02    0.33
  -6   1   4    0.26    0.31
  -6   1   5    0.13    0.38
  -6   1   6   -0.12    0.51
  -6   1   7    0.07    0.36
  -6   1   8    1.09    0.37
  -6   1   9    0.38    0.38
  -6   1  10   14.57    0.77
  -6   1  11   22.08    0.81
  -6   1  12    0.04    0.40
  -6   1  13    1.86    0.47
  -6   1  14   35.05    1.46
  -6   1  15    4.31    0.47
  -6   1  16    0.59    0.36
  -6   1  17    0.08    0.49
  -6   1  18   10.78    1.05
  -6   1  19    0.05    0.66
  -6   1  20    5.45    0.86
  -6   1  21   20.09    1.19
  -6   1  22   -0.03    0.55
  -6   1  23    2.39    0.73
  -6   1  24   14.06    1.18
  -6   1  25    1.62    1.10
  -6   1  26   14.89    1.17
  -6   1  27   -0.05    0.83
  -6   1  28   -0.96    0.56
  -6   1  29    0.22    0.64
  -6   1  30    0.54    0.72
  -6   1  31   -0.06    0.82
  -6   1  32   -0.58    0.68
  -6   0  32   10.05    1.12
  -6   0  31    0.75    0.67
  -6   0  30    1.45    0.69
  -6   0  29    0.55    0.64
  -6   0  28   -1.05    0.51
  -6   0  27   -0.09    0.65
  -6   0  26    0.23    0.59
  -6   0  25   -0.45    0.57
  -6   0  24    4.05    0.80
  -6   0  23    0.10    0.58
  -6   0  22   16.88    1.09
  -6   0  21    0.05    0.64
  -6   0  20    1.07    0.57
  -6   0  19   -0.45    0.62
  -6   0  18   16.07    1.07
  -6   0  17    0.53    0.59
  -6   0  16   10.16    0.59
  -6   0  15    0.62    0.41
  -6   0  14   43.58    1.58
  -6   0  13    0.71    0.34
  -6   0  12    4.47    0.49
  -6   0  11   -0.34    0.33
  -6   0  10    5.62    0.49
  -6   0   9   -0.22    0.37
  -6   0   8   92.98    2.39
  -6   0   7    0.57    0.42
  -6   0   6   27.81    0.98
  -6   0   5    0.39    0.32
  -6   0   4   31.97    1.15
  -6   0   3   -0.55    0.41
  -6   0   2   11.12    0.63
  -6   0   1    0.11    0.29
  -6   0   0   10.90    0.60
  -6   0  -1    0.52    0.42
  -6  -1  -1    1.64    0.39
  -6  -1   0    0.77    0.37
  -6  -1   1    0.25    0.33
  -6  -1   2   30.30    0.95
  -6  -1   3   -0.45    0.50
  -6  -1   4    0.40    0.35
  -6  -1   5    0.41    0.37
  -6  -1   6   -0.12    0.51
  -6  -1   7   -0.03    0.29
  -6  -1   8    1.29    0.48
  -6  -1   9   -0.15    0.33
  -6  -1  10   15.70    0.69
  -6  -1  11   25.36    0.89
  -6  -1  12    0.00    0.33
  -6  -1  13    1.94    0.48
  -6  -1  14   31.26    1.36
  -6  -1  15    3.63    0.51
  -6  -1  16    0.54    0.36
  -6  -1  17    0.22    0.70
  -6  -1  18    9.91    0.93
  -6  -1  19    0.49    0.55
  -6  -1  20    3.62    0.79
  -6  -1  21   18.88    1.21
  -6  -1  22    0.57    0.80
  -6  -1  23    0.72    0.75
  -6  -1  24   14.41    1.20
  -6  -1  25    1.57    0.80
  -6  -1  26   15.42    1.20
  -6  -1  27    0.10    0.63
  -6  -1  28   -0.12    0.59
  -6  -1  29   -0.13    0.70
  -6  -1  30    0.88    0.57
  -6  -1  31    0.09    0.76
  -6  -1  32    0.51    0.75
  -6  -2  31    0.58    0.76
  -6  -2  30    2.52    0.73
  -6  -2  29    0.65    0.61
  -6  -2  28    0.46    0.62
  -6  -2  27    5.04    0.85
  -6  -2  26    0.64    0.75
  -6  -2  25    0.77    0.57
  -6  -2  24    1.22    0.77
  -6  -2  23    0.62    0.62
  -6  -2  22    1.85    0.59
  -6  -2  21    0.00    0.53
  -6  -2  20    3.87    0.70
  -6  -2  19   10.00    0.91
  -6  -2  18    3.73    0.77
  -6  -2  17    6.00    0.72
  -6  -2  16    1.17    0.65
  -6  -2  15    1.17    0.50
  -6  -2  14    0.06    0.30
  -6  -2  13    1.57    0.57
  -6  -2  12    2.32    0.42
  -6  -2  11   25.46    0.84
  -6  -2  10    4.74    0.54
  -6  -2   9   -0.03    0.33
  -6  -2   8    1.73    0.42
  -6  -2   7   25.52    0.86
  -6  -2   6    0.62    0.34
  -6  -2   5   16.93    0.82
  -6  -2   4    0.56    0.37
  -6  -2   3    8.07    0.57
  -6  -2   2    4.90    0.44
  -6  -2   1   22.78    0.79
  -6  -2   0    1.33    0.36
  -6  -2  -1    1.62    0.37
  -6  -3  -1    0.83    0.36
  -6  -3   0    1.14    0.36
  -6  -3   1   11.12    0.61
  -6  -3   2   17.79    0.70
  -6  -3   3   19.00    0.75
  -6  -3   4    0.10    0.35
  -6  -3   5    4.64    0.49
  -6  -3   6    1.78    0.56
  -6  -3   7   16.69    0.71
  -6  -3   8   12.53    0.65
  -6  -3   9    0.30    0.35
  -6  -3  10   -0.54    0.33
  -6  -3  11   45.32    1.50
  -6  -3  12    3.34    0.66
  -6  -3  13    0.27    0.59
  -6  -3  14   17.94    1.12
  -6  -3  15    0.55    0.55
  -6  -3  16   15.02    1.13
  -6  -3  17   17.21    1.31
  -6  -3  18   17.63    1.13
  -6  -3  19    0.11    0.59
  -6  -3  20    0.14    0.58
  -6  -3  21    2.74    0.66
  -6  -3  22    0.24    0.47
  -6  -3  23    6.04    0.80
  -6  -3  24    1.69    0.64
  -6  -3  25   -0.05    0.69
  -6  -3  26    1.29    0.84
  -6  -3  27    0.00    0.62
  -6  -3  28    4.45    0.84
  -6  -3  29   -0.63    0.42
  -6  -4  27    0.30    0.71
  -6  -4  26    3.05    0.87
  -6  -4  25    0.12    0.56
  -6  -4  24    1.76    0.86
  -6  -4  23   -0.25    0.54
  -6  -4  22    0.75    0.75
  -6  -4  21    0.42    0.63
  -6  -4  20    1.39    0.69
  -6  -4  19    1.25    0.65
  -6  -4  18    1.21    0.61
  -6  -4  17   -0.52    0.46
  -6  -4  16   19.59    1.27
  -6  -4  15    2.68    0.78
  -6  -4  14   -0.24    0.56
  -6  -4  13    1.20    0.65
  -6  -4  12    1.53    0.62
  -6  -4  11    0.35    0.64
  -6  -4  10    9.29    0.96
  -6  -4   9    6.58    0.83
  -6  -4   8   49.00    1.62
  -6  -4   7   10.09    0.88
  -6  -4   6    5.56    0.81
  -6  -4   5    0.50    0.77
  -6  -4   4    6.68    0.80
  -6  -4   3    4.61    0.82
  -6  -4   2   38.19    1.40
  -6  -4   1    4.44    0.87
  -6  -4   0   54.73    1.81
  -6  -4  -1    0.77    0.78
  -6  -5  -1    2.71    0.69
  -6  -5   0   -0.21    0.50
  -6  -5   1    0.13    0.45
  -6  -5   2    0.52    0.43
  -6  -5   3    3.22    0.87
  -6  -5   4    2.90    0.84
  -6  -5   5    0.36    0.56
  -6  -5   6    5.04    0.78
  -6  -5   7    1.77    0.69
  -6  -5   8   -0.16    0.47
  -6  -5   9    8.49    0.91
  -6  -5  10    0.05    0.66
  -6  -5  11    1.59    0.64
  -6  -5  12    0.54    0.69
  -6  -5  13    0.10    0.76
  -6  -5  14    7.30    0.96
  -6  -5  15    0.59    0.71
  -6  -5  16   -0.27    0.60
  -6  -5  17    0.38    0.51
  -6  -5  18   -0.25    0.60
  -6  -5  19    0.66    0.61
  -6  -5  20   -0.51    0.55
  -6  -5  21   -0.46    0.51
  -6  -5  22    0.33    0.88
  -6  -5  23    0.41    0.75
  -6  -6  18   -0.29    0.61
  -6  -6  17    1.19    0.84
  -6  -6  16    7.05    0.87
  -6  -6  15    0.11    0.48
  -6  -6  14   -0.01    0.49
  -6  -6  13    0.77    0.58
  -6  -6  12   -0.18    0.46
  -6  -6  11    1.40    0.99
  -6  -6  10    6.07    1.14
  -6  -6   9    0.51    0.57
  -6  -6   8    1.12    0.99
  -6  -6   7    1.25    0.92
  -6  -6   6    0.92    0.58
  -6  -6   5    0.62    0.56
  -6  -6   4    2.81    0.73
  -6  -6   3    1.86    0.73
  -6  -6   2    0.33    0.50
  -6  -6   1    2.32    0.94
  -6  -6   0    0.29    0.58
  -6  -6  -1    4.87    0.80
  -6  -7  -1    0.39    0.61
  -6  -7   0    0.19    0.68
  -6  -7   1    7.49    1.01
  -6  -7   2    7.94    1.13
  -6  -7   3    0.18    0.61
  -6  -7   4    1.41    0.80
  -6  -7   5   -0.09    1.08
  -6  -7   6    4.57    1.13
  -6  -7   7    1.66    0.83
  -6  -7   8    1.78    0.69
  -6  -7  -8   -0.29    0.45
  -6  -7  -7    0.62    0.53
  -6  -7  -6   -0.11    0.49
  -6  -7  -5    1.90    0.75
  -6  -7  -4    0.28    0.64
  -6  -7  -3   -0.23    0.39
  -6  -7  -2   -0.44    0.47
  -6  -6  -2    3.36    0.98
  -6  -6  -3    2.27    0.68
  -6  -6  -4    0.56    0.61
  -6  -6  -5    3.89    0.80
  -6  -6  -6    1.32    0.51
  -6  -6  -7    5.07    0.81
  -6  -6  -8    2.43    0.61
  -6  -6  -9    5.81    1.08
  -6  -6 -10    0.07    0.64
  -6  -6 -11    0.12    0.52
  -6  -6 -12    2.17    0.58
  -6  -6 -13    0.29    0.55
  -6  -6 -14    0.90    0.99
  -6  -6 -15    0.39    0.60
  -6  -6 -16    3.80    0.87
  -6  -6 -17    0.34    0.52
  -6  -6 -18   -0.35    0.50
  -6  -5 -23    3.12    0.78
  -6  -5 -22    3.55    0.81
  -6  -5 -21    1.14    0.83
  -6  -5 -20   -0.05    0.49
  -6  -5 -19    0.09    0.52
  -6  -5 -18    1.34    0.64
  -6  -5 -17    0.81    0.75
  -6  -5 -16    0.25    0.50
  -6  -5 -15    1.52    0.70
  -6  -5 -14    1.95    0.60
  -6  -5 -13    0.89    0.69
  -6  -5 -12    0.34    0.47
  -6  -5 -11    5.67    0.83
  -6  -5 -10    4.23    0.81
  -6  -5  -9    0.43    0.66
  -6  -5  -8    0.99    0.57
  -6  -5  -7   14.54    1.14
  -6  -5  -6   12.29    1.05
  -6  -5  -5    7.52    0.89
  -6  -5  -4    0.07    0.53
  -6  -5  -3    1.21    0.57
  -6  -5  -2   -0.39    0.40
  -6  -4  -2    3.18    0.67
  -6  -4  -3    0.10    0.53
  -6  -4  -4    2.11    0.58
  -6  -4  -5    2.71    0.61
  -6  -4  -6    2.99    0.69
  -6  -4  -7    1.95    0.58
  -6  -4  -8   21.74    1.11
  -6  -4  -9    4.01    0.62
  -6  -4 -10    2.68    0.64
  -6  -4 -11    0.61    0.69
  -6  -4 -12    5.49    0.72
  -6  -4 -13   12.11    1.05
  -6  -4 -14   22.44    1.32
  -6  -4 -15    5.32    0.85
  -6  -4 -16   10.59    0.96
  -6  -4 -17   -0.09    0.53
  -6  -4 -18    7.38    0.86
  -6  -4 -19    1.91    0.75
  -6  -4 -20    1.67    0.69
  -6  -4 -21   -0.34    0.58
  -6  -4 -22    0.57    0.73
  -6  -4 -23    1.75    0.61
  -6  -4 -24    0.94    0.85
  -6  -4 -25    1.18    0.84
  -6  -4 -26    0.76    0.66
  -6  -3 -29   -0.15    0.54
  -6  -3 -28    0.19    0.52
  -6  -3 -27    0.33    0.51
  -6  -3 -26    1.87    0.76
  -6  -3 -25    0.48    0.63
  -6  -3 -24   -0.36    0.44
  -6  -3 -23    1.11    0.49
  -6  -3 -22    7.90    0.93
  -6  -3 -21   -0.38    0.48
  -6  -3 -20    2.51    0.66
  -6  -3 -19    0.74    0.56
  -6  -3 -18    1.58    0.55
  -6  -3 -17    2.65    0.76
  -6  -3 -16   -0.15    0.50
  -6  -3 -15    0.82    0.49
  -6  -3 -14    6.84    0.79
  -6  -3 -13    9.02    0.91
  -6  -3 -12    0.18    0.51
  -6  -3 -11    3.73    0.67
  -6  -3 -10    9.41    0.55
  -6  -3  -9   11.87    0.61
  -6  -3  -8    6.66    0.53
  -6  -3  -7   11.96    0.63
  -6  -3  -6   29.90    1.36
  -6  -3  -5   44.66    1.76
  -6  -3  -4    0.57    0.36
  -6  -3  -3    0.76    0.53
  -6  -3  -2    9.51    0.59
  -6  -2  -2   -0.04    0.35
  -6  -2  -3    0.82    0.38
  -6  -2  -4    0.73    0.34
  -6  -2  -5   93.33    2.42
  -6  -2  -6    0.00    0.36
  -6  -2  -7    0.71    0.38
  -6  -2  -8   37.93    1.58
  -6  -2  -9  117.01    2.44
  -6  -2 -10    0.42    0.35
  -6  -2 -11   30.79    1.36
  -6  -2 -12    2.39    0.43
  -6  -2 -13   12.51    0.59
  -6  -2 -14    1.23    0.44
  -6  -2 -15    0.02    0.57
  -6  -2 -16    2.09    0.63
  -6  -2 -17    3.77    0.64
  -6  -2 -18   -0.50    0.36
  -6  -2 -19   -0.22    0.54
  -6  -2 -20    1.04    0.62
  -6  -2 -21    9.67    0.92
  -6  -2 -22   -0.22    0.56
  -6  -2 -23    0.52    0.54
  -6  -2 -24    0.64    0.56
  -6  -2 -25   20.23    1.24
  -6  -2 -26   -0.45    0.58
  -6  -2 -27    5.70    1.02
  -6  -2 -28    2.24    0.80
  -6  -2 -29    1.01    0.73
  -6  -2 -30    0.13    0.46
  -6  -2 -31    0.09    0.62
  -6  -1 -31    0.38    0.57
  -6  -1 -30   -0.38    0.40
  -6  -1 -29    0.63    0.57
  -6  -1 -28    1.07    0.65
  -6  -1 -27   10.40    1.06
  -6  -1 -26    0.44    0.82
  -6  -1 -25    0.35    0.73
  -6  -1 -24    1.31    0.80
  -6  -1 -23    7.54    0.83
  -6  -1 -22    5.31    0.82
  -6  -1 -21    1.23    0.50
  -6  -1 -20    0.26    0.58
  -6  -1 -19   -0.02    0.51
  -6  -1 -18    1.38    0.53
  -6  -1 -17    0.23    0.63
  -6  -1 -16   -0.18    0.33
  -6  -1 -15    0.53    0.34
  -6  -1 -14   -0.19    0.34
  -6  -1 -13    0.55    0.41
  -6  -1 -12    1.61    0.36
  -6  -1 -11   17.70    0.69
  -6  -1 -10    1.91    0.35
  -6  -1  -9    1.24    0.33
  -6  -1  -8    0.34    0.39
  -6  -1  -7   30.78    0.92
  -6  -1  -6    3.17    0.41
  -6  -1  -5   17.97    0.68
  -6  -1  -4    0.17    0.28
  -6  -1  -3    0.87    0.35
  -6  -1  -2   28.99    0.93
  -6   0  -2    9.98    0.57
  -6   0  -3   -0.25    0.30
  -6   0  -4    2.62    0.37
  -6   0  -5    0.30    0.36
  -6   0  -6    0.74    0.32
  -6   0  -7    0.89    0.37
  -6   0  -8    0.20    0.33
  -6   0  -9   -0.28    0.41
  -6   0 -10    3.67    0.41
  -6   0 -11   -0.31    0.50
  -6   0 -12    1.31    0.38
  -6   0 -13   -0.30    0.43
  -6   0 -14   34.34    1.34
  -6   0 -15    0.19    0.34
  -6   0 -16   77.16    1.90
  -6   0 -17   -0.07    0.59
  -6   0 -18    2.34    0.86
  -6   0 -19    0.20    0.41
  -6   0 -20   -0.30    0.44
  -6   0 -21   -0.03    0.45
  -6   0 -22    0.76    0.44
  -6   0 -23   -0.51    0.48
  -6   0 -24    6.78    0.76
  -6   0 -25   -0.40    0.47
  -6   0 -26   -0.11    0.59
  -6   0 -27    0.49    0.49
  -6   0 -28    0.74    0.58
  -6   0 -29   -0.17    0.54
  -6   0 -30   18.77    1.30
  -6   0 -31   -0.38    0.61
  -6   0 -32   11.01    1.19
  -6   1 -31   -0.20    0.48
  -6   1 -30    0.45    0.60
  -6   1 -29    1.12    0.69
  -6   1 -28    0.65    0.81
  -6   1 -27   11.46    1.09
  -6   1 -26    0.32    0.64
  -6   1 -25    1.35    0.57
  -6   1 -24    1.53    0.63
  -6   1 -23    6.29    0.79
  -6   1 -22    4.85    0.75
  -6   1 -21   -0.02    0.51
  -6   1 -20    0.14    0.51
  -6   1 -19    0.56    0.47
  -6   1 -18    2.41    0.82
  -6   1 -17    2.36    0.60
  -6   1 -16    0.87    0.43
  -6   1 -15    0.38    0.37
  -6   1 -14    0.54    0.47
  -6   1 -13    0.67    0.39
  -6   1 -12    1.60    0.36
  -6   1 -11   18.45    0.70
  -6   1 -10    1.76    0.38
  -6   1  -9    0.09    0.30
  -6   1  -8    0.23    0.36
  -6   1  -7   29.21    0.91
  -6   1  -6    3.01    0.38
  -6   1  -5   17.40    0.70
  -6   1  -4   -0.06    0.32
  -6   1  -3    1.43    0.41
  -6   1  -2   26.64    1.41
  -5  -7  -1    3.44    0.86
  -5  -7   0   -0.31    0.41
  -5  -7   1    0.90    0.77
  -5  -7   2   -0.22    0.50
  -5  -7   3    8.29    0.93
  -5  -7   4    8.27    1.10
  -5  -7   5    0.57    0.79
  -5  -7   6    1.94    0.78
  -5  -7   7   -0.28    0.48
  -5  -7   8    5.21    0.89
  -5  -7   9    0.98    0.67
  -5  -7  10    1.47    0.67
  -5  -7  11    0.65    0.66
  -5  -7  12   -0.15    0.43
  -5  -7  13    0.18    0.48
  -5  -7  14    0.67    0.59
  -5  -7  15    1.09    0.78
  -5  -7  16    2.96    1.02
  -5  -7  17    0.05    0.48
  -5  -6  23    0.16    0.63
  -5  -6  22   12.53    1.11
  -5  -6  21    2.96    0.73
  -5  -6  20    1.34    0.62
  -5  -6  19    1.53    0.75
  -5  -6  18   -0.33    0.48
  -5  -6  17    4.80    0.82
  -5  -6  16    1.46    0.77
  -5  -6  15    4.86    0.87
  -5  -6  14   19.91    1.21
  -5  -6  13    3.73    1.02
  -5  -6  12    0.94    0.57
  -5  -6  11    3.97    0.81
  -5  -6  10   10.47    0.95
  -5  -6   9    1.04    0.56
  -5  -6   8    0.81    0.60
  -5  -6   7    4.61    0.84
  -5  -6   6    2.48    0.80
  -5  -6   5   10.83    1.02
  -5  -6   4    4.75    0.94
  -5  -6   3    2.53    0.68
  -5  -6   2    0.85    0.69
  -5  -6   1    0.95    0.65
  -5  -6   0    0.39    0.52
  -5  -6  -1    0.54    0.56
  -5  -5  -1   11.75    0.60
  -5  -5   0    0.16    0.30
  -5  -5   1    5.28    0.59
  -5  -5   2    1.13    0.52
  -5  -5   3    3.14    0.63
  -5  -5   4    6.42    0.76
  -5  -5   5   -0.58    0.33
  -5  -5   6   -0.29    0.39
  -5  -5   7    0.27    0.64
  -5  -5   8   43.86    1.55
  -5  -5   9    8.67    0.84
  -5  -5  10   -0.14    0.46
  -5  -5  11    3.85    0.66
  -5  -5  12   23.54    1.15
  -5  -5  13   -0.18    0.76
  -5  -5  14    1.53    0.69
  -5  -5  15    0.57    0.64
  -5  -5  16   -0.21    0.42
  -5  -5  17    0.53    0.53
  -5  -5  18    2.34    0.65
  -5  -5  19   -0.12    0.41
  -5  -5  20    0.90    0.58
  -5  -5  21    0.39    0.55
  -5  -5  22    2.79    0.72
  -5  -5  23   -0.24    0.58
  -5  -5  24    0.65    0.86
  -5  -5  25    0.98    0.66
  -5  -5  26   -0.11    0.53
  -5  -5  27    1.90    0.68
  -5  -4  30    0.60    0.61
  -5  -4  29    0.61    0.66
  -5  -4  28    0.35    0.65
  -5  -4  27    0.70    0.75
  -5  -4  26   -0.88    0.47
  -5  -4  25    0.30    0.59
  -5  -4  24    0.27    0.74
  -5  -4  23    9.85    1.17
  -5  -4  22    0.40    0.55
  -5  -4  21    3.64    0.74
  -5  -4  20    0.98    0.85
  -5  -4  19   29.87    1.45
  -5  -4  18    1.58    0.69
  -5  -4  17   22.27    1.22
  -5  -4  16    9.56    0.88
  -5  -4  15    0.92    0.50
  -5  -4  14    3.57    0.81
  -5  -4  13    9.84    0.57
  -5  -4  12    1.86    0.42
  -5  -4  11    1.90    0.42
  -5  -4  10    9.38    0.56
  -5  -4   9   12.21    0.63
  -5  -4   8    1.94    0.38
  -5  -4   7   11.65    0.59
  -5  -4   6    2.34    0.50
  -5  -4   5    6.95    0.65
  -5  -4   4   15.89    0.73
  -5  -4   3   -0.74    0.41
  -5  -4   2    1.63    0.36
  -5  -4   1  105.58    2.44
  -5  -4   0   26.80    0.84
  -5  -4  -1    1.29    0.45
  -5  -3  -1    1.05    0.48
  -5  -3   0    3.41    0.42
  -5  -3   1   14.09    0.72
  -5  -3   2    4.64    0.47
  -5  -3   3   14.81    0.66
  -5  -3   4   -0.09    0.36
  -5  -3   5    0.61    0.37
  -5  -3   6    5.44    0.47
  -5  -3   7   20.53    0.75
  -5  -3   8   10.37    0.69
  -5  -3   9   22.18    0.77
  -5  -3  10    3.89    0.46
  -5  -3  11    2.19    0.42
  -5  -3  12    5.19    0.55
  -5  -3  13    2.12    0.41
  -5  -3  14    3.45    0.45
  -5  -3  15    0.04    0.30
  -5  -3  16   11.02    0.60
  -5  -3  17   -0.26    0.28
  -5  -3  18    6.24    0.80
  -5  -3  19    2.44    0.64
  -5  -3  20    3.92    0.71
  -5  -3  21    5.74    0.76
  -5  -3  22   -0.13    0.69
  -5  -3  23    1.78    0.68
  -5  -3  24    0.74    0.58
  -5  -3  25    8.70    0.96
  -5  -3  26    0.39    0.65
  -5  -3  27   11.64    1.03
  -5  -3  28    2.11    0.89
  -5  -3  29    0.53    0.66
  -5  -3  30    2.79    0.67
  -5  -3  31    0.71    0.56
  -5  -3  32   -0.35    0.58
  -5  -2  34    0.28    0.59
  -5  -2  33   -0.02    0.56
  -5  -2  32    1.65    0.76
  -5  -2  31   -0.26    0.54
  -5  -2  30    7.46    1.00
  -5  -2  29   -0.34    0.61
  -5  -2  28    7.64    0.96
  -5  -2  27    6.61    0.89
  -5  -2  26   31.20    1.42
  -5  -2  25    1.23    0.59
  -5  -2  24   17.36    1.17
  -5  -2  23    8.14    0.91
  -5  -2  22   28.12    1.28
  -5  -2  21   -0.52    0.91
  -5  -2  20    0.18    0.31
  -5  -2  19    3.96    0.53
  -5  -2  18    8.34    0.57
  -5  -2  17   13.82    0.63
  -5  -2  16    0.04    0.34
  -5  -2  15    1.47    0.37
  -5  -2  14   30.11    1.48
  -5  -2  13    6.34    0.53
  -5  -2  12   -0.06    0.30
  -5  -2  11    8.29    0.54
  -5  -2  10  120.30    2.68
  -5  -2   9    0.97    0.39
  -5  -2   8    5.37    0.47
  -5  -2   7    0.63    0.52
  -5  -2   6   10.78    0.56
  -5  -2   5    0.48    0.38
  -5  -2   4    2.44    0.38
  -5  -2   3    7.07    0.52
  -5  -2   2    1.83    0.38
  -5  -2   1   -0.08    0.42
  -5  -2   0    0.07    0.31
  -5  -2  -1   -0.16    0.42
  -5  -1  -1    0.87    0.35
  -5  -1   0    1.54    0.36
  -5  -1   1   18.74    0.69
  -5  -1   2   24.50    0.97
  -5  -1   3   92.52    2.60
  -5  -1   4    8.71    0.53
  -5  -1   5   40.27    1.80
  -5  -1   6    0.70    0.41
  -5  -1   7    0.57    0.27
  -5  -1   8    0.45    0.32
  -5  -1   9   13.77    0.62
  -5  -1  10   -0.66    0.34
  -5  -1  11    5.64    0.49
  -5  -1  12   14.03    0.67
  -5  -1  13    0.21    0.34
  -5  -1  14    4.87    0.50
  -5  -1  15    1.00    0.33
  -5  -1  16   15.77    0.70
  -5  -1  17   24.76    0.82
  -5  -1  18   36.84    1.63
  -5  -1  19   27.43    0.87
  -5  -1  20    2.82    0.43
  -5  -1  21    1.71    0.38
  -5  -1  22   18.60    1.21
  -5  -1  23    0.96    0.92
  -5  -1  24   59.69    1.71
  -5  -1  25   -0.02    0.69
  -5  -1  26    0.35    0.79
  -5  -1  27    0.48    0.67
  -5  -1  28   -0.25    0.58
  -5  -1  29    1.89    0.84
  -5  -1  30    0.67    0.81
  -5  -1  31    2.28    0.62
  -5  -1  32   -0.18    0.63
  -5  -1  33    4.56    0.89
  -5  -1  34    3.76    0.82
  -5  -1  35    0.14    1.08
  -5   0  35   12.19    1.25
  -5   0  34   -0.14    0.79
  -5   0  33   21.68    1.43
  -5   0  32   -0.46    0.58
  -5   0  31    1.15    0.74
  -5   0  30   -0.26    0.46
  -5   0  29   10.31    0.97
  -5   0  28   -0.08    0.53
  -5   0  27    0.69    0.56
  -5   0  26    0.21    0.59
  -5   0  25    2.14    0.77
  -5   0  24    0.08    0.70
  -5   0  23   60.19    1.73
  -5   0  22   -0.03    0.37
  -5   0  21   24.31    0.82
  -5   0  20    0.07    0.34
  -5   0  19   79.38    2.06
  -5   0  18    0.19    0.34
  -5   0  17   30.27    0.97
  -5   0  16    0.23    0.36
  -5   0  15    8.12    0.57
  -5   0  14   -0.04    0.41
  -5   0  13   20.25    0.89
  -5   0  12   -0.67    0.39
  -5   0  11   23.06    0.88
  -5   0  10    0.37    0.30
  -5   0   9   26.96    0.89
  -5   0   8    0.26    0.33
  -5   0   7    1.53    0.42
  -5   0   6   -0.23    0.30
  -5   0   5   -0.15    0.29
  -5   0   4   -0.27    0.33
  -5   0   3  150.83    3.23
  -5   0   2    0.30    0.44
  -5   0   1   90.49    2.48
  -5   0   0   -0.63    0.26
  -5   0  -1    1.64    0.37
  -5   1  -1    0.55    0.35
  -5   1   0    2.26    0.36
  -5   1   1   18.31    0.66
  -5   1   2   23.68    0.77
  -5   1   3   86.66    2.62
  -5   1   4    6.26    0.46
  -5   1   5   39.39    1.73
  -5   1   6    0.64    0.30
  -5   1   7    0.23    0.28
  -5   1   8    0.50    0.32
  -5   1   9   13.26    0.60
  -5   1  10   -0.21    0.32
  -5   1  11    6.35    0.48
  -5   1  12   13.69    0.64
  -5   1  13    0.36    0.41
  -5   1  14    5.14    0.48
  -5   1  15    0.67    0.34
  -5   1  16   17.95    0.71
  -5   1  17   23.47    0.81
  -5   1  18   35.43    1.51
  -5   1  19   26.29    0.88
  -5   1  20    2.40    0.42
  -5   1  21    1.38    0.42
  -5   1  22   19.00    1.18
  -5   1  23    0.70    0.53
  -5   1  24   57.18    1.67
  -5   1  25    0.51    0.60
  -5   1  26    0.94    0.69
  -5   1  27    1.46    0.69
  -5   1  28   -0.23    0.65
  -5   1  29    0.28    0.79
  -5   1  30    0.16    0.62
  -5   1  31    0.53    0.83
  -5   1  32    0.82    0.58
  -5   1  33    4.06    1.16
  -5   1  34    3.89    0.99
  -5   1  35    2.04    0.76
  -5   1 -35    0.83    0.61
  -5   1 -34    0.60    0.78
  -5   1 -33    0.48    0.58
  -5   1 -32    1.78    0.60
  -5   1 -31    4.59    0.83
  -5   1 -30    0.55    0.85
  -5   1 -29    7.94    0.94
  -5   1 -28    1.83    0.64
  -5   1 -27    0.01    0.68
  -5   1 -26    1.42    0.63
  -5   1 -25    3.61    0.72
  -5   1 -24    2.46    0.78
  -5   1 -23    4.44    0.71
  -5   1 -22    1.31    0.47
  -5   1 -21    5.80    0.63
  -5   1 -20   10.36    0.58
  -5   1 -19    1.28    0.41
  -5   1 -18    0.05    0.32
  -5   1 -17   -0.16    0.35
  -5   1 -16    8.00    0.52
  -5   1 -15    0.43    0.28
  -5   1 -14    1.19    0.46
  -5   1 -13    1.48    0.39
  -5   1 -12    9.79    0.59
  -5   1 -11    1.03    0.35
  -5   1 -10    3.95    0.55
  -5   1  -9   13.79    0.61
  -5   1  -8    5.59    0.49
  -5   1  -7   82.54    2.44
  -5   1  -6    8.09    0.52
  -5   1  -5    1.22    0.38
  -5   1  -4    1.53    0.45
  -5   1  -3    0.79    0.34
  -5   1  -2    6.24    0.47
  -5   0  -2    0.26    0.24
  -5   0  -3   -0.56    0.35
  -5   0  -4    0.07    0.27
  -5   0  -6    0.61    0.25
  -5   0  -7    3.84    0.48
  -5   0  -8    0.26    0.35
  -5   0  -9    0.13    0.30
  -5   0 -10   -0.45    0.38
  -5   0 -11   -0.04    0.27
  -5   0 -12   -0.28    0.27
  -5   0 -13    3.69    0.66
  -5   0 -14   -0.31    0.25
  -5   0 -16   -0.52    0.34
  -5   0 -17    5.46    0.55
  -5   0 -18    0.14    0.30
  -5   0 -19   13.64    0.67
  -5   0 -20    0.24    0.27
  -5   0 -21   -0.11    0.34
  -5   0 -22    0.32    0.28
  -5   0 -23   13.74    1.09
  -5   0 -24   -0.02    0.62
  -5   0 -25    5.15    0.91
  -5   0 -26   -0.33    0.39
  -5   0 -27    0.04    0.46
  -5   0 -28   -0.38    0.40
  -5   0 -29   -0.30    0.52
  -5   0 -30   -0.14    0.51
  -5   0 -31   24.96    1.37
  -5   0 -32   -0.46    0.66
  -5   0 -33    0.43    0.79
  -5   0 -34    0.50    0.54
  -5   0 -35    2.59    1.02
  -5  -1 -35    0.02    0.67
  -5  -1 -34    0.26    0.73
  -5  -1 -33   -0.19    0.58
  -5  -1 -32    0.28    0.57
  -5  -1 -31    4.03    0.91
  -5  -1 -30   -0.39    0.50
  -5  -1 -29    5.24    0.97
  -5  -1 -28    1.79    0.67
  -5  -1 -27    0.80    0.52
  -5  -1 -26    1.57    0.76
  -5  -1 -25    3.28    0.60
  -5  -1 -24    3.43    0.67
  -5  -1 -23    3.87    0.69
  -5  -1 -22    1.08    0.63
  -5  -1 -21    5.66    0.53
  -5  -1 -20   10.69    0.61
  -5  -1 -19    1.47    0.34
  -5  -1 -18    0.09    0.35
  -5  -1 -17    0.17    0.34
  -5  -1 -16    8.07    0.53
  -5  -1 -15    1.16    0.33
  -5  -1 -14    1.49    0.35
  -5  -1 -13    2.43    0.35
  -5  -1 -12   10.12    0.54
  -5  -1 -11    0.68    0.33
  -5  -1 -10    4.82    0.46
  -5  -1  -9   13.35    0.61
  -5  -1  -8    6.38    0.48
  -5  -1  -7   77.73    2.37
  -5  -1  -6   10.13    0.67
  -5  -1  -5    2.75    0.36
  -5  -1  -4    1.40    0.34
  -5  -1  -3    1.03    0.35
  -5  -1  -2    6.46    0.46
  -5  -2  -2   31.35    1.03
  -5  -2  -3    2.71    0.40
  -5  -2  -4   18.04    0.69
  -5  -2  -5    6.32    0.49
  -5  -2  -6   27.01    0.91
  -5  -2  -7   35.87    1.11
  -5  -2  -8   17.44    0.69
  -5  -2  -9    0.53    0.33
  -5  -2 -10   16.81    0.66
  -5  -2 -11    1.22    0.37
  -5  -2 -12    0.15    0.37
  -5  -2 -13    8.29    0.50
  -5  -2 -14   11.05    0.60
  -5  -2 -15    0.39    0.35
  -5  -2 -16    0.69    0.28
  -5  -2 -17   -0.26    0.30
  -5  -2 -18   26.33    0.82
  -5  -2 -19    2.36    0.39
  -5  -2 -20    0.41    0.31
  -5  -2 -21    2.27    0.74
  -5  -2 -22   41.75    1.58
  -5  -2 -23    4.49    0.76
  -5  -2 -24    8.69    0.85
  -5  -2 -25   -0.38    0.53
  -5  -2 -26   -0.35    0.50
  -5  -2 -27    1.04    0.51
  -5  -2 -28    2.24    0.91
  -5  -2 -29    0.80    0.53
  -5  -2 -30    1.28    0.61
  -5  -2 -31   -0.13    0.41
  -5  -2 -32    3.95    0.76
  -5  -2 -33    0.26    0.54
  -5  -2 -34    4.66    0.88
  -5  -3 -32    0.80    0.71
  -5  -3 -31    0.69    0.68
  -5  -3 -30    2.22    0.67
  -5  -3 -29    3.30    0.69
  -5  -3 -28    0.84    0.66
  -5  -3 -27    0.01    0.41
  -5  -3 -26    0.27    0.56
  -5  -3 -25    2.95    0.61
  -5  -3 -24    0.55    0.45
  -5  -3 -23    4.47    0.80
  -5  -3 -22    8.59    0.94
  -5  -3 -21   12.22    1.00
  -5  -3 -20    6.10    0.70
  -5  -3 -19    0.53    0.43
  -5  -3 -18    6.43    0.73
  -5  -3 -17    2.02    0.38
  -5  -3 -16    4.21    0.45
  -5  -3 -15    1.90    0.36
  -5  -3 -14    2.34    0.37
  -5  -3 -13    9.93    0.55
  -5  -3 -12    0.48    0.32
  -5  -3 -11    3.49    0.43
  -5  -3 -10    6.39    0.50
  -5  -3  -9    3.15    0.48
  -5  -3  -8   21.56    0.76
  -5  -3  -7    0.81    0.34
  -5  -3  -6   13.48    0.70
  -5  -3  -5    1.09    0.30
  -5  -3  -4   29.69    1.47
  -5  -3  -3   11.87    0.71
  -5  -3  -2    1.97    0.38
  -5  -4  -2    4.69    0.45
  -5  -4  -3   22.75    0.77
  -5  -4  -4    0.49    0.35
  -5  -4  -5   17.75    0.69
  -5  -4  -6    1.17    0.36
  -5  -4  -7   20.88    0.74
  -5  -4  -8    0.90    0.42
  -5  -4  -9    2.40    0.41
  -5  -4 -10   10.83    0.59
  -5  -4 -11   17.96    0.71
  -5  -4 -12    9.71    0.58
  -5  -4 -13    2.32    0.39
  -5  -4 -14   -0.44    0.45
  -5  -4 -15   16.22    1.09
  -5  -4 -16    8.02    0.85
  -5  -4 -17   12.66    0.92
  -5  -4 -18    8.75    0.85
  -5  -4 -19    2.02    0.58
  -5  -4 -20    1.61    0.83
  -5  -4 -21    7.17    0.79
  -5  -4 -22    0.20    0.52
  -5  -4 -23   10.37    0.91
  -5  -4 -24    4.37    0.75
  -5  -4 -25    1.96    0.75
  -5  -4 -26    1.62    0.62
  -5  -4 -27    4.32    0.81
  -5  -4 -28    0.58    0.44
  -5  -4 -29    1.19    0.58
  -5  -4 -30    0.43    0.64
  -5  -5 -27    0.82    0.51
  -5  -5 -26    0.86    0.65
  -5  -5 -25    0.19    0.48
  -5  -5 -24    2.58    0.63
  -5  -5 -23   -0.11    0.39
  -5  -5 -22    1.60    0.54
  -5  -5 -21    0.45    0.69
  -5  -5 -20    0.47    0.52
  -5  -5 -19    0.51    0.45
  -5  -5 -18   -0.06    0.41
  -5  -5 -17    0.64    0.61
  -5  -5 -16    1.15    0.47
  -5  -5 -15   -0.39    0.35
  -5  -5 -14    0.00    0.43
  -5  -5 -13    0.09    0.47
  -5  -5 -12    0.30    0.61
  -5  -5 -11    0.44    0.45
  -5  -5 -10    2.95    0.63
  -5  -5  -9   -0.13    0.49
  -5  -5  -8   10.44    0.90
  -5  -5  -7    0.37    0.45
  -5  -5  -6   17.34    1.04
  -5  -5  -5    0.77    0.53
  -5  -5  -4   -0.35    0.50
  -5  -5  -3    6.70    0.74
  -5  -5  -2   -0.20    0.41
  -5  -6  -2    0.43    0.47
  -5  -6  -3   -0.24    0.48
  -5  -6  -4    5.91    0.88
  -5  -6  -5    7.74    0.83
  -5  -6  -6    2.40    0.64
  -5  -6  -7    0.80    0.55
  -5  -6  -8    1.25    0.54
  -5  -6  -9    8.30    0.93
  -5  -6 -10   -0.21    0.49
  -5  -6 -11    2.27    0.63
  -5  -6 -12    0.01    0.52
  -5  -6 -13   -0.01    0.42
  -5  -6 -14    0.13    0.60
  -5  -6 -15    0.34    0.53
  -5  -6 -16    0.11    0.45
  -5  -6 -17    0.57    0.56
  -5  -6 -18    5.31    0.91
  -5  -6 -19    0.15    0.52
  -5  -6 -20    3.45    0.71
  -5  -6 -21    1.90    0.73
  -5  -6 -22    3.81    0.95
  -5  -6 -23    2.85    0.98
  -5  -7 -16   -0.30    0.45
  -5  -7 -15    1.86    0.68
  -5  -7 -14    0.93    0.95
  -5  -7 -13    3.83    0.83
  -5  -7 -12    0.02    0.50
  -5  -7 -11    3.72    0.69
  -5  -7 -10    0.59    0.61
  -5  -7  -9    2.21    0.72
  -5  -7  -8   -0.31    0.37
  -5  -7  -7    0.43    0.48
  -5  -7  -6    1.03    0.59
  -5  -7  -5    0.58    0.46
  -5  -7  -4    0.45    0.65
  -5  -7  -3    0.53    0.52
  -5  -7  -2    0.52    0.53
  -4   1  -1    7.63    0.47
  -4   1   0    7.04    0.47
  -4   1   1   19.38    0.66
  -4   1   2    1.70    0.38
  -4   1   3   72.58    2.34
  -4   1   4    0.06    0.37
  -4   1   5    9.10    0.52
  -4   1   6   20.37    0.65
  -4   1   7  100.52    2.76
  -4   1   8    5.71    0.52
  -4   1   9   29.70    1.03
  -4   1  10   99.78    2.77
  -4   1  11    8.19    0.53
  -4   1  12   16.63    0.65
  -4   1  13   14.99    0.63
  -4   1  14   13.27    0.61
  -4   1  15    0.99    0.41
  -4   1  16    0.57    0.40
  -4   1  17    0.35    0.46
  -4   1  18    3.56    0.53
  -4   1  19   12.48    0.62
  -4   1  20    0.12    0.33
  -4   1  21   16.52    0.71
  -4   1  22    0.31    0.33
  -4   1  23   11.65    0.67
  -4   1  24    0.10    0.34
  -4   1  25   -0.12    0.31
  -4   1  26    1.56    0.60
  -4   1  27    6.54    0.97
  -4   1  28    0.90    0.75
  -4   1  29    1.52    0.65
  -4   1  30   -0.30    0.63
  -4   1  31    7.96    1.06
  -4   1  32    0.67    0.86
  -4   1  33    0.52    0.71
  -4   1  34    1.22    0.80
  -4   1  35    0.43    0.79
  -4   1  36    0.93    0.71
  -4   1  37    2.23    0.90
  -4   0  37    0.97    0.70
  -4   0  36   27.41    1.50
  -4   0  35   -0.18    0.73
  -4   0  34    0.31    0.55
  -4   0  33   -0.23    0.59
  -4   0  32   10.19    0.99
  -4   0  31    0.19    0.48
  -4   0  30    0.60    0.56
  -4   0  29    0.03    0.44
  -4   0  28   11.35    0.98
  -4   0  27   -0.14    0.55
  -4   0  26   29.90    1.22
  -4   0  25   -0.06    0.31
  -4   0  24    0.40    0.37
  -4   0  23   -0.11    0.35
  -4   0  22   85.49    2.19
  -4   0  21   -0.02    0.34
  -4   0  20   90.80    2.40
  -4   0  19    0.44    0.48
  -4   0  18    0.19    0.31
  -4   0  17   -0.52    0.47
  -4   0  16  135.03    3.14
  -4   0  15    0.22    0.34
  -4   0  14   47.31    1.93
  -4   0  13    0.24    0.41
  -4   0  12    0.25    0.33
  -4   0  11    0.35    0.26
  -4   0  10   54.49    2.19
  -4   0   9   -0.34    0.37
  -4   0   8  155.85    3.48
  -4   0   7   -0.26    0.29
  -4   0   6   73.65    2.44
  -4   0   5   -0.13    0.24
  -4   0   4   39.97    1.35
  -4   0   3   -0.02    0.25
  -4   0   2    0.94    0.28
  -4   0   1   -0.22    0.28
  -4   0   0   79.25    2.52
  -4   0  -1   -0.45    0.33
  -4  -1  -1    8.23    0.48
  -4  -1   0    5.96    0.46
  -4  -1   1   18.12    0.63
  -4  -1   2    0.85    0.33
  -4  -1   3   75.82    2.35
  -4  -1   4    0.37    0.26
  -4  -1   5    9.16    0.53
  -4  -1   6   20.56    0.73
  -4  -1   7  104.01    3.00
  -4  -1   8    6.53    0.47
  -4  -1   9   30.88    0.92
  -4  -1  10  101.91    2.75
  -4  -1  11    7.15    0.55
  -4  -1  12   15.61    0.66
  -4  -1  13   14.27    0.61
  -4  -1  14   13.57    0.72
  -4  -1  15    0.37    0.41
  -4  -1  16    0.42    0.33
  -4  -1  17    0.09    0.29
  -4  -1  18    2.52    0.62
  -4  -1  19   10.48    0.60
  -4  -1  20    0.10    0.33
  -4  -1  21   16.76    0.86
  -4  -1  22    0.32    0.36
  -4  -1  23    9.63    0.65
  -4  -1  24   -0.20    0.36
  -4  -1  25   -0.22    0.29
  -4  -1  26    2.75    0.89
  -4  -1  27    9.15    0.89
  -4  -1  28    0.98    0.72
  -4  -1  29    0.28    0.58
  -4  -1  30    0.71    0.52
  -4  -1  31    8.30    1.03
  -4  -1  32    3.57    0.72
  -4  -1  33    1.28    0.87
  -4  -1  34    1.44    0.81
  -4  -1  35    0.66    0.61
  -4  -1  36    0.67    0.78
  -4  -1  37    3.14    0.83
  -4  -2  36    0.51    0.86
  -4  -2  35    1.05    0.77
  -4  -2  34    2.54    0.78
  -4  -2  33    3.76    0.74
  -4  -2  32    0.96    0.57
  -4  -2  31   -0.16    0.50
  -4  -2  30    1.12    0.56
  -4  -2  29    6.24    0.79
  -4  -2  28   15.28    1.08
  -4  -2  27   13.33    0.94
  -4  -2  26    7.06    0.71
  -4  -2  25    9.16    0.99
  -4  -2  24    2.61    0.40
  -4  -2  23   29.45    1.31
  -4  -2  22    0.65    0.31
  -4  -2  21   48.49    1.69
  -4  -2  20    6.36    0.48
  -4  -2  19   -0.09    0.30
  -4  -2  18    1.47    0.36
  -4  -2  17    2.76    0.37
  -4  -2  16    0.60    0.31
  -4  -2  15    4.21    0.48
  -4  -2  14    0.51    0.36
  -4  -2  13   99.61    2.67
  -4  -2  12   11.53    0.65
  -4  -2  11  134.41    3.09
  -4  -2  10   62.81    2.14
  -4  -2   9   75.40    2.47
  -4  -2   8    8.97    0.55
  -4  -2   7    4.36    0.40
  -4  -2   6    2.99    0.37
  -4  -2   5    4.08    0.39
  -4  -2   4   34.22    1.13
  -4  -2   3    0.29    0.28
  -4  -2   2    2.31    0.34
  -4  -2   1   32.68    1.12
  -4  -2   0   14.03    0.61
  -4  -2  -1   79.19    2.58
  -4  -3  -1   21.40    0.85
  -4  -3   0   16.59    0.70
  -4  -3   1    1.45    0.49
  -4  -3   2  165.06    3.47
  -4  -3   3    1.34    0.37
  -4  -3   4    1.26    0.32
  -4  -3   5   41.99    1.75
  -4  -3   6    0.08    0.49
  -4  -3   7   16.05    0.62
  -4  -3   8    0.37    0.25
  -4  -3   9    5.27    0.48
  -4  -3  10   27.33    0.97
  -4  -3  11    2.69    0.38
  -4  -3  12   66.12    2.14
  -4  -3  13   -0.15    0.29
  -4  -3  14    3.19    0.39
  -4  -3  15    1.39    0.37
  -4  -3  16    0.48    0.30
  -4  -3  17    4.69    0.59
  -4  -3  18   53.66    1.75
  -4  -3  19    0.00    0.30
  -4  -3  20   32.75    1.41
  -4  -3  21    7.90    0.54
  -4  -3  22   20.80    0.72
  -4  -3  23    5.03    0.72
  -4  -3  24    0.36    0.51
  -4  -3  25    0.74    0.52
  -4  -3  26    5.30    0.79
  -4  -3  27    3.21    0.66
  -4  -3  28    4.57    0.73
  -4  -3  29    1.98    0.72
  -4  -3  30    0.29    0.62
  -4  -3  31    0.41    0.56
  -4  -3  32   -0.07    0.57
  -4  -3  33    1.57    0.84
  -4  -3  34    2.32    0.77
  -4  -3  35    0.06    0.62
  -4  -4  33    5.49    0.94
  -4  -4  32   -0.27    0.58
  -4  -4  31    2.57    0.86
  -4  -4  30    2.34    0.71
  -4  -4  29    0.98    0.58
  -4  -4  28    3.61    0.64
  -4  -4  27    0.83    0.58
  -4  -4  26    2.17    0.61
  -4  -4  25    6.70    0.89
  -4  -4  24    9.99    0.93
  -4  -4  23    0.88    0.61
  -4  -4  22    1.83    0.54
  -4  -4  21   -0.05    0.67
  -4  -4  20   53.35    1.65
  -4  -4  19   13.58    1.01
  -4  -4  18   10.15    0.57
  -4  -4  17    8.57    0.56
  -4  -4  16    9.38    0.55
  -4  -4  15    8.72    0.56
  -4  -4  14   11.77    0.58
  -4  -4  13   29.28    0.91
  -4  -4  12   54.68    1.78
  -4  -4  11    0.87    0.31
  -4  -4  10    5.94    0.52
  -4  -4   9   17.09    0.67
  -4  -4   8   42.91    1.78
  -4  -4   7    8.44    0.56
  -4  -4   6    3.53    0.40
  -4  -4   5    6.10    0.45
  -4  -4   4   65.13    2.19
  -4  -4   3   15.54    0.65
  -4  -4   2   14.03    0.63
  -4  -4   1    3.87    0.41
  -4  -4   0   18.80    0.82
  -4  -4  -1    0.13    0.29
  -4  -5  -1   48.22    1.72
  -4  -5   0    0.25    0.44
  -4  -5   1   30.41    1.52
  -4  -5   2    0.17    0.30
  -4  -5   3    8.64    0.52
  -4  -5   4   10.89    0.69
  -4  -5   5    2.58    0.38
  -4  -5   6   26.53    0.86
  -4  -5   7    0.47    0.36
  -4  -5   8   12.78    0.62
  -4  -5   9    9.26    0.56
  -4  -5  10   68.17    1.85
  -4  -5  11    0.82    0.53
  -4  -5  12    0.70    0.38
  -4  -5  13    0.16    0.34
  -4  -5  14   10.02    0.91
  -4  -5  15    1.86    0.59
  -4  -5  16    0.91    0.79
  -4  -5  17    0.88    0.75
  -4  -5  18    0.51    0.54
  -4  -5  19    3.00    0.84
  -4  -5  20    4.42    0.76
  -4  -5  21    7.84    0.86
  -4  -5  22    1.32    0.70
  -4  -5  23    0.24    0.58
  -4  -5  24    0.36    0.52
  -4  -5  25    0.26    0.56
  -4  -5  26    2.73    0.76
  -4  -5  27    5.08    0.91
  -4  -5  28    2.87    0.78
  -4  -5  29   -0.09    0.41
  -4  -5  30    0.54    0.61
  -4  -6  26   12.67    1.10
  -4  -6  25    0.87    0.73
  -4  -6  24    1.30    0.67
  -4  -6  23    1.65    0.66
  -4  -6  22    0.61    0.69
  -4  -6  21    3.33    0.84
  -4  -6  20    3.91    0.78
  -4  -6  19    4.03    0.84
  -4  -6  18    2.99    0.79
  -4  -6  17    3.10    0.59
  -4  -6  16    7.47    0.91
  -4  -6  15    2.11    0.68
  -4  -6  14    6.86    0.85
  -4  -6  13    5.92    0.89
  -4  -6  12    4.24    0.76
  -4  -6  11    7.05    0.78
  -4  -6  10   11.21    1.09
  -4  -6   9    0.17    0.58
  -4  -6   8    4.09    0.66
  -4  -6   7    1.41    0.53
  -4  -6   6   -0.31    0.48
  -4  -6   5    0.98    0.44
  -4  -6   4    5.13    0.75
  -4  -6   3    0.04    0.43
  -4  -6   2    1.29    0.68
  -4  -6   1    0.38    0.58
  -4  -6   0   -0.24    0.42
  -4  -6  -1    6.89    0.76
  -4  -7  -1    0.68    0.54
  -4  -7   0    1.36    0.67
  -4  -7   1   11.54    1.00
  -4  -7   2    4.95    0.73
  -4  -7   3    0.08    0.40
  -4  -7   4    0.45    0.63
  -4  -7   5   -0.01    0.47
  -4  -7   6   -0.17    0.52
  -4  -7   7    0.16    0.56
  -4  -7   8    0.51    0.46
  -4  -7   9    0.33    0.59
  -4  -7  10   11.30    1.00
  -4  -7  11   -0.11    0.56
  -4  -7  12    5.75    0.88
  -4  -7  13    0.44    0.76
  -4  -7  14   -0.28    0.31
  -4  -7  15    0.82    0.41
  -4  -7  16    0.66    0.54
  -4  -7  17   -0.70    0.37
  -4  -7  18    2.74    0.81
  -4  -7  19    2.79    0.85
  -4  -7  20    0.78    0.74
  -4  -7  21   -0.48    0.44
  -4  -8  12    3.44    0.90
  -4  -8  11    0.30    0.58
  -4  -8  10    0.47    0.63
  -4  -8   9   -0.30    0.51
  -4  -8   8   14.37    1.24
  -4  -8   7    2.59    0.76
  -4  -8   6    1.02    0.75
  -4  -8   5    0.23    0.57
  -4  -8   4   11.45    1.06
  -4  -8   3    4.69    0.86
  -4  -8   2    5.01    1.14
  -4  -8   1   10.82    1.02
  -4  -8   0    1.22    0.60
  -4  -8  -1    0.66    0.60
  -4  -8  -2    0.01    0.47
  -4  -8  -3    0.92    0.80
  -4  -8  -4    0.03    0.40
  -4  -8  -5   -0.08    0.49
  -4  -8  -6    0.19    0.57
  -4  -8  -7    3.08    1.05
  -4  -8  -8   10.92    1.19
  -4  -8  -9    6.14    1.01
  -4  -8 -10    3.30    0.76
  -4  -8 -11    0.04    0.57
  -4  -8 -12   12.27    1.17
  -4  -7 -21    4.22    0.78
  -4  -7 -20    0.42    0.48
  -4  -7 -19    3.86    0.95
  -4  -7 -18    0.57    0.77
  -4  -7 -17   -0.44    0.42
  -4  -7 -16   -0.29    0.51
  -4  -7 -15    6.69    0.88
  -4  -7 -14    7.06    0.95
  -4  -7 -13    6.89    1.04
  -4  -7 -12    0.67    0.64
  -4  -7 -11    4.28    0.78
  -4  -7 -10    1.66    0.70
  -4  -7  -9    0.14    0.55
  -4  -7  -8    1.55    0.51
  -4  -7  -7   -0.68    0.32
  -4  -7  -6    0.14    0.50
  -4  -7  -5    0.95    0.82
  -4  -7  -4    0.05    0.55
  -4  -7  -3    3.64    0.69
  -4  -7  -2    0.71    0.71
  -4  -6  -2   11.60    0.86
  -4  -6  -3   37.96    1.44
  -4  -6  -4   38.29    1.40
  -4  -6  -5   16.35    1.03
  -4  -6  -6    7.61    0.85
  -4  -6  -7   16.35    1.15
  -4  -6  -8   -0.09    0.47
  -4  -6  -9    3.54    0.76
  -4  -6 -10    0.75    0.42
  -4  -6 -11   -0.17    0.32
  -4  -6 -12    5.24    0.77
  -4  -6 -13    0.36    0.56
  -4  -6 -14    0.94    0.53
  -4  -6 -15   -0.01    0.49
  -4  -6 -16    0.85    0.68
  -4  -6 -17    3.79    0.76
  -4  -6 -18    0.32    0.54
  -4  -6 -19    2.81    0.64
  -4  -6 -20    4.74    0.81
  -4  -6 -21   20.14    1.32
  -4  -6 -22    2.93    0.87
  -4  -6 -23   -0.32    0.44
  -4  -6 -24    0.45    0.58
  -4  -6 -25    2.83    0.73
  -4  -6 -26    0.42    0.53
  -4  -5 -30    0.23    0.49
  -4  -5 -29    1.77    0.97
  -4  -5 -28    3.16    0.71
  -4  -5 -27    2.26    0.92
  -4  -5 -26    4.67    0.88
  -4  -5 -25    3.41    0.71
  -4  -5 -24    0.15    0.56
  -4  -5 -23    5.22    0.78
  -4  -5 -22    3.62    0.60
  -4  -5 -21    1.10    0.72
  -4  -5 -20    1.14    0.51
  -4  -5 -19    5.49    0.70
  -4  -5 -18    0.35    0.58
  -4  -5 -17    0.00    0.38
  -4  -5 -16    3.62    0.64
  -4  -5 -15    7.12    0.77
  -4  -5 -14    1.95    0.72
  -4  -5 -13   19.18    0.70
  -4  -5 -12   59.83    1.74
  -4  -5 -11    5.65    0.50
  -4  -5 -10   15.13    0.67
  -4  -5  -9    0.24    0.35
  -4  -5  -8    3.09    0.41
  -4  -5  -7   32.88    1.49
  -4  -5  -6   24.76    0.80
  -4  -5  -5    0.54    0.36
  -4  -5  -4   -0.36    0.52
  -4  -5  -3    9.69    0.71
  -4  -5  -2    7.72    0.61
  -4  -4  -2    5.68    0.44
  -4  -4  -3    1.26    0.31
  -4  -4  -4    2.07    0.36
  -4  -4  -5    2.55    0.41
  -4  -4  -6    0.37    0.37
  -4  -4  -7    8.19    0.52
  -4  -4  -8    7.74    0.54
  -4  -4  -9    0.90    0.40
  -4  -4 -10    1.90    0.41
  -4  -4 -11    0.96    0.33
  -4  -4 -12   41.15    1.60
  -4  -4 -13   10.43    0.58
  -4  -4 -14    2.16    0.40
  -4  -4 -15    7.95    0.54
  -4  -4 -16   13.93    0.76
  -4  -4 -17    0.11    0.34
  -4  -4 -18   15.85    0.66
  -4  -4 -19   12.09    0.90
  -4  -4 -20    7.70    0.83
  -4  -4 -21    2.89    0.59
  -4  -4 -22    8.60    0.81
  -4  -4 -23   -0.33    0.40
  -4  -4 -24    0.60    0.40
  -4  -4 -25    0.28    0.52
  -4  -4 -26    0.09    0.58
  -4  -4 -27    0.27    0.54
  -4  -4 -28    2.67    0.91
  -4  -4 -29    3.20    0.77
  -4  -4 -30    0.95    0.92
  -4  -4 -31    0.18    0.65
  -4  -4 -32    2.47    0.74
  -4  -4 -33    0.32    0.54
  -4  -3 -35    3.76    0.86
  -4  -3 -34    5.31    1.00
  -4  -3 -33    1.07    0.58
  -4  -3 -32    2.54    0.96
  -4  -3 -31    3.91    0.74
  -4  -3 -30    0.44    0.49
  -4  -3 -29    4.62    0.73
  -4  -3 -28    3.53    0.63
  -4  -3 -27   11.20    0.91
  -4  -3 -26   -0.24    0.53
  -4  -3 -25   17.06    1.05
  -4  -3 -24    2.25    0.62
  -4  -3 -23    0.23    0.52
  -4  -3 -22   13.84    0.61
  -4  -3 -21    6.02    0.61
  -4  -3 -20    0.34    0.37
  -4  -3 -19   19.44    0.72
  -4  -3 -18    5.14    0.45
  -4  -3 -17    0.98    0.36
  -4  -3 -16    0.32    0.31
  -4  -3 -15   27.09    0.93
  -4  -3 -14    1.65    0.32
  -4  -3 -13   -0.11    0.24
  -4  -3 -12    0.07    0.26
  -4  -3 -11    0.94    0.32
  -4  -3 -10    7.84    0.50
  -4  -3  -9   32.45    1.60
  -4  -3  -8   24.45    0.85
  -4  -3  -7    0.78    0.30
  -4  -3  -6   12.03    0.56
  -4  -3  -5   51.24    2.01
  -4  -3  -4   78.88    2.52
  -4  -3  -3   13.32    0.58
  -4  -3  -2   38.45    1.82
  -4  -2  -2   14.48    0.62
  -4  -2  -3  453.79    5.54
  -4  -2  -4  108.50    3.04
  -4  -2  -5  330.85    4.72
  -4  -2  -6   31.87    1.11
  -4  -2  -7   30.63    0.96
  -4  -2  -8   48.33    2.02
  -4  -2  -9   79.67    2.40
  -4  -2 -10   47.10    1.82
  -4  -2 -11    0.38    0.27
  -4  -2 -12    0.54    0.30
  -4  -2 -13    2.03    0.36
  -4  -2 -14    1.45    0.40
  -4  -2 -15    0.40    0.32
  -4  -2 -16    2.11    0.35
  -4  -2 -17    3.19    0.38
  -4  -2 -18    1.49    0.37
  -4  -2 -19   10.69    0.59
  -4  -2 -20    0.07    0.32
  -4  -2 -21   86.14    2.13
  -4  -2 -22    0.46    0.35
  -4  -2 -23   22.32    0.78
  -4  -2 -24    0.76    0.33
  -4  -2 -25    7.02    0.72
  -4  -2 -26    5.76    0.88
  -4  -2 -27    1.52    0.55
  -4  -2 -28    1.44    0.60
  -4  -2 -29   -0.12    0.45
  -4  -2 -30    0.26    0.50
  -4  -2 -31    9.40    0.90
  -4  -2 -32    0.04    0.49
  -4  -2 -33    0.36    0.62
  -4  -2 -34   -0.30    0.60
  -4  -2 -35    2.58    0.74
  -4  -2 -36    4.42    0.94
  -4  -1 -37    1.79    0.59
  -4  -1 -36    0.23    0.61
  -4  -1 -35    0.32    0.48
  -4  -1 -34    0.02    0.40
  -4  -1 -33    0.69    0.58
  -4  -1 -32    8.86    0.95
  -4  -1 -31   22.67    1.23
  -4  -1 -30    2.49    0.59
  -4  -1 -29    1.48    0.52
  -4  -1 -28   24.71    1.15
  -4  -1 -27    2.66    0.68
  -4  -1 -26    0.91    0.54
  -4  -1 -25    0.47    0.28
  -4  -1 -24    5.76    0.56
  -4  -1 -23   67.95    1.97
  -4  -1 -22    1.74    0.38
  -4  -1 -21    0.58    0.30
  -4  -1 -20   10.62    0.56
  -4  -1 -19   10.19    0.53
  -4  -1 -18    4.32    0.44
  -4  -1 -17    3.42    0.38
  -4  -1 -16    3.00    0.39
  -4  -1 -15   12.94    0.58
  -4  -1 -14   33.39    1.55
  -4  -1 -13   12.70    0.68
  -4  -1 -12   10.84    0.53
  -4  -1 -11   18.60    0.74
  -4  -1 -10    8.06    0.47
  -4  -1  -9   21.44    0.80
  -4  -1  -8  233.34    4.12
  -4  -1  -7  228.13    3.93
  -4  -1  -6   81.68    2.46
  -4  -1  -5   12.34    0.54
  -4  -1  -4  112.94    2.88
  -4  -1  -3   95.44    2.71
  -4  -1  -2    7.24    0.45
  -4   0  -2  165.37    3.41
  -4   0  -3   -0.21    0.30
  -4   0  -4   14.65    0.57
  -4   0  -5    0.19    0.22
  -4   0  -6   14.40    0.61
  -4   0  -7    0.06    0.26
  -4   0  -8   11.73    0.63
  -4   0  -9    0.21    0.32
  -4   0 -10    1.62    0.32
  -4   0 -11   -0.02    0.26
  -4   0 -12  131.87    3.04
  -4   0 -13   -0.19    0.26
  -4   0 -14    4.27    0.42
  -4   0 -15   -0.14    0.43
  -4   0 -16    3.71    0.40
  -4   0 -17   -0.29    0.26
  -4   0 -18    0.96    0.41
  -4   0 -19    0.23    0.24
  -4   0 -20   13.16    0.60
  -4   0 -21   -0.24    0.30
  -4   0 -22   52.38    1.69
  -4   0 -23    0.37    0.34
  -4   0 -24    6.12    0.49
  -4   0 -25   -0.06    0.30
  -4   0 -26   11.83    0.89
  -4   0 -27    0.23    0.50
  -4   0 -28   11.48    0.97
  -4   0 -29   -0.16    0.57
  -4   0 -30    0.63    0.53
  -4   0 -31   -0.34    0.42
  -4   0 -32    0.25    0.50
  -4   0 -33   -0.68    0.44
  -4   0 -34    1.11    0.63
  -4   0 -35   -0.71    0.41
  -4   0 -36    0.32    0.62
  -4   0 -37    0.05    0.42
  -4   1 -37    1.24    0.78
  -4   1 -36    1.00    0.58
  -4   1 -35    0.41    0.53
  -4   1 -34   -0.05    0.44
  -4   1 -33    1.16    0.51
  -4   1 -32    7.71    0.92
  -4   1 -31   17.81    1.17
  -4   1 -30    2.81    0.74
  -4   1 -29    0.82    0.63
  -4   1 -28   23.81    1.20
  -4   1 -27    4.37    0.70
  -4   1 -26    0.30    0.76
  -4   1 -25    0.65    0.35
  -4   1 -24    6.58    0.55
  -4   1 -23   67.62    1.82
  -4   1 -22    1.82    0.39
  -4   1 -21    0.37    0.29
  -4   1 -20   10.11    0.58
  -4   1 -19   10.13    0.55
  -4   1 -18    4.27    0.50
  -4   1 -17    3.47    0.38
  -4   1 -16    1.11    0.33
  -4   1 -15   13.49    0.60
  -4   1 -14   32.15    1.60
  -4   1 -13   13.07    0.56
  -4   1 -12   11.68    0.54
  -4   1 -11   18.18    0.75
  -4   1 -10    9.33    0.50
  -4   1  -9   20.19    0.77
  -4   1  -8  240.88    4.07
  -4   1  -7  231.92    4.12
  -4   1  -6   82.42    2.57
  -4   1  -5   11.36    0.53
  -4   1  -4  109.50    2.88
  -4   1  -3   91.58    2.75
  -4   1  -2    7.39    0.46
  -3  -8  17   -0.31    0.47
  -3  -8  16    0.14    0.59
  -3  -8  15   -0.03    0.49
  -3  -8  14   -0.01    0.59
  -3  -8  13   -0.04    0.36
  -3  -8  12    0.28    0.79
  -3  -8  11    0.37    0.47
  -3  -8  10    1.32    0.64
  -3  -8   9    6.59    0.93
  -3  -8   8    0.28    0.52
  -3  -8   7    9.61    0.97
  -3  -8   6   11.68    1.23
  -3  -8   5    0.62    1.01
  -3  -8   4    0.83    0.54
  -3  -8   3    0.55    0.65
  -3  -8   2    2.27    0.77
  -3  -8   1    0.30    0.53
  -3  -8   0    2.46    0.83
  -3  -8  -1    0.59    0.70
  -3  -7  -1    0.72    0.42
  -3  -7   0   11.00    0.95
  -3  -7   1    0.74    0.70
  -3  -7   2    0.34    0.45
  -3  -7   3    0.58    0.51
  -3  -7   4    8.47    0.93
  -3  -7   5   14.24    1.04
  -3  -7   6    5.03    0.90
  -3  -7   7   -0.12    0.35
  -3  -7   8   -0.26    0.46
  -3  -7   9    2.37    0.61
  -3  -7  10    0.92    0.45
  -3  -7  11   -0.10    0.47
  -3  -7  12    0.18    0.48
  -3  -7  13    4.94    0.88
  -3  -7  14    0.21    0.54
  -3  -7  15    0.83    0.50
  -3  -7  16   18.67    1.21
  -3  -7  17   -0.10    0.56
  -3  -7  18   -0.61    0.35
  -3  -7  19    0.16    0.55
  -3  -7  20    8.54    1.00
  -3  -7  21    0.98    0.61
  -3  -7  22    0.84    0.73
  -3  -7  23    0.30    0.56
  -3  -7  24    0.68    0.71
  -3  -6  29    0.41    0.62
  -3  -6  28    2.06    0.73
  -3  -6  27    2.90    0.69
  -3  -6  26    6.14    0.93
  -3  -6  25   -0.43    0.45
  -3  -6  24    7.29    0.87
  -3  -6  23    2.25    0.72
  -3  -6  22    0.53    0.57
  -3  -6  21    3.39    0.73
  -3  -6  20    4.40    0.78
  -3  -6  19   -0.01    0.51
  -3  -6  18   17.23    1.14
  -3  -6  17    0.37    0.46
  -3  -6  16    5.02    0.73
  -3  -6  15    8.20    0.83
  -3  -6  14   12.19    0.92
  -3  -6  13   14.74    1.03
  -3  -6  12    4.53    0.72
  -3  -6  11    1.55    0.62
  -3  -6  10   50.96    1.56
  -3  -6   9    3.46    0.60
  -3  -6   8    0.46    0.33
  -3  -6   7    7.17    0.49
  -3  -6   6    1.04    0.31
  -3  -6   5   -0.02    0.30
  -3  -6   4    0.17    0.27
  -3  -6   3    5.94    0.46
  -3  -6   2    0.29    0.26
  -3  -6   1   21.35    0.76
  -3  -6   0    2.51    0.41
  -3  -6  -1    0.77    0.31
  -3  -5  -1    2.30    0.39
  -3  -5   0   13.60    0.62
  -3  -5   1    9.76    0.55
  -3  -5   2   62.68    2.09
  -3  -5   3   61.57    2.04
  -3  -5   4    0.11    0.34
  -3  -5   5    1.84    0.38
  -3  -5   6    3.53    0.42
  -3  -5   7   94.27    2.42
  -3  -5   8    0.67    0.40
  -3  -5   9   16.49    0.68
  -3  -5  10   13.35    0.76
  -3  -5  11    1.70    0.37
  -3  -5  12   61.79    1.84
  -3  -5  13    2.47    0.38
  -3  -5  14    7.43    0.51
  -3  -5  15    3.95    0.49
  -3  -5  16   10.67    0.57
  -3  -5  17    0.75    0.33
  -3  -5  18    1.71    0.66
  -3  -5  19   16.63    1.05
  -3  -5  20    0.32    0.55
  -3  -5  21   -0.30    0.42
  -3  -5  22    0.30    0.59
  -3  -5  23   23.24    1.35
  -3  -5  24   -0.14    0.46
  -3  -5  25    6.99    0.93
  -3  -5  26   -0.18    0.45
  -3  -5  27   -0.17    0.49
  -3  -5  28   -0.08    0.58
  -3  -5  29   12.08    1.06
  -3  -5  30    2.59    0.63
  -3  -5  31   -0.06    0.49
  -3  -5  32    1.83    0.55
  -3  -4  35    8.58    0.95
  -3  -4  34   -0.10    0.47
  -3  -4  33    0.20    0.47
  -3  -4  32   -0.42    0.45
  -3  -4  31    3.80    0.77
  -3  -4  30   -0.07    0.52
  -3  -4  29    3.45    0.67
  -3  -4  28    0.28    0.58
  -3  -4  27    0.20    0.50
  -3  -4  26    0.32    0.51
  -3  -4  25    2.62    0.85
  -3  -4  24    3.48    0.77
  -3  -4  23    8.48    0.87
  -3  -4  22    9.45    0.52
  -3  -4  21    0.03    0.37
  -3  -4  20    6.80    0.48
  -3  -4  19   11.44    0.59
  -3  -4  18    5.54    0.47
  -3  -4  17    4.38    0.51
  -3  -4  16    0.08    0.26
  -3  -4  15    7.35    0.50
  -3  -4  14   -0.04    0.26
  -3  -4  13    6.27    0.47
  -3  -4  12    9.90    0.53
  -3  -4  11    1.17    0.31
  -3  -4  10   34.06    1.60
  -3  -4   9    3.72    0.41
  -3  -4   8    0.62    0.39
  -3  -4   7   36.79    1.68
  -3  -4   6   46.93    1.92
  -3  -4   5    1.52    0.32
  -3  -4   4   18.19    0.68
  -3  -4   3   13.87    0.58
  -3  -4   2    0.15    0.28
  -3  -4   1    4.50    0.44
  -3  -4   0    0.18    0.30
  -3  -4  -1    0.77    0.28
  -3  -3  -1    2.80    0.38
  -3  -3   0  124.84    3.07
  -3  -3   1    0.80    0.33
  -3  -3   2   43.37    1.88
  -3  -3   3   53.72    1.98
  -3  -3   4    0.09    0.27
  -3  -3   5   21.14    0.78
  -3  -3   6   23.24    0.85
  -3  -3   7    2.93    0.40
  -3  -3   8    9.20    0.51
  -3  -3   9    7.50    0.45
  -3  -3  10   14.33    0.68
  -3  -3  11   31.56    1.18
  -3  -3  12   55.43    1.98
  -3  -3  13    0.28    0.26
  -3  -3  14   12.29    0.58
  -3  -3  15    6.49    0.52
  -3  -3  16   40.62    1.66
  -3  -3  17    0.55    0.35
  -3  -3  18    2.50    0.37
  -3  -3  19   72.30    2.02
  -3  -3  20    1.12    0.40
  -3  -3  21   76.48    2.01
  -3  -3  22    1.20    0.37
  -3  -3  23   10.57    0.56
  -3  -3  24    6.92    0.52
  -3  -3  25    0.54    0.45
  -3  -3  26   16.88    1.00
  -3  -3  27    1.69    0.59
  -3  -3  28    1.13    0.56
  -3  -3  29    8.36    0.92
  -3  -3  30    2.05    0.65
  -3  -3  31    6.69    0.85
  -3  -3  32   17.80    1.23
  -3  -3  33   -0.09    0.54
  -3  -3  34    3.20    0.72
  -3  -3  35    1.56    0.80
  -3  -3  36    2.47    0.81
  -3  -3  37   15.60    1.24
  -3  -2  38    2.97    0.87
  -3  -2  37    0.44    0.68
  -3  -2  36    4.35    0.82
  -3  -2  35    0.77    0.62
  -3  -2  34    0.29    0.69
  -3  -2  33    0.73    0.53
  -3  -2  32    8.60    0.95
  -3  -2  31   -0.09    0.56
  -3  -2  30   10.09    1.01
  -3  -2  29   35.79    1.36
  -3  -2  28    4.90    0.77
  -3  -2  27    0.50    0.58
  -3  -2  26   74.69    1.84
  -3  -2  25    3.51    0.46
  -3  -2  24   27.51    1.31
  -3  -2  23    8.56    0.53
  -3  -2  22   10.83    0.69
  -3  -2  21   15.57    0.71
  -3  -2  20   14.96    0.64
  -3  -2  19   53.42    1.93
  -3  -2  18    1.92    0.40
  -3  -2  17    8.01    0.61
  -3  -2  16   21.79    0.75
  -3  -2  15   23.20    0.80
  -3  -2  14   86.71    2.51
  -3  -2  13   43.56    1.87
  -3  -2  12   11.24    0.53
  -3  -2  11   76.87    2.34
  -3  -2  10   86.87    2.51
  -3  -2   9    3.27    0.37
  -3  -2   8    3.71    0.33
  -3  -2   7   87.83    2.66
  -3  -2   6    0.27    0.27
  -3  -2   5   13.00    0.51
  -3  -2   4   51.01    1.95
  -3  -2   3   18.14    0.72
  -3  -2   2    9.75    0.45
  -3  -2   1    6.23    0.41
  -3  -2   0   18.70    0.71
  -3  -2  -1  159.32    3.38
  -3  -1  -1   20.86    0.78
  -3  -1   0   64.20    2.22
  -3  -1   1    1.26    0.26
  -3  -1   2   43.53    1.82
  -3  -1   3   94.00    2.63
  -3  -1   4    4.53    0.33
  -3  -1   5   85.33    2.56
  -3  -1   6  169.44    3.56
  -3  -1   7    0.10    0.23
  -3  -1   8   50.00    2.04
  -3  -1   9    3.93    0.35
  -3  -1  10    7.42    0.44
  -3  -1  11  162.93    3.37
  -3  -1  12   49.29    1.37
  -3  -1  13    2.02    0.32
  -3  -1  14   60.71    2.14
  -3  -1  15    1.16    0.32
  -3  -1  16   49.64    1.88
  -3  -1  17   14.76    0.59
  -3  -1  18    6.59    0.45
  -3  -1  19    2.16    0.37
  -3  -1  20   77.00    2.26
  -3  -1  21   24.78    0.84
  -3  -1  22   11.47    0.59
  -3  -1  23   32.06    1.42
  -3  -1  24   -0.37    0.32
  -3  -1  25   31.53    1.45
  -3  -1  26    8.75    0.57
  -3  -1  27    4.22    0.46
  -3  -1  28   24.27    1.28
  -3  -1  29   45.35    1.53
  -3  -1  30   13.49    0.97
  -3  -1  31   15.98    1.05
  -3  -1  32    1.23    0.62
  -3  -1  33    0.05    0.49
  -3  -1  34    6.18    1.04
  -3  -1  35    2.71    0.75
  -3  -1  36    0.51    0.94
  -3  -1  37    0.92    0.72
  -3  -1  38    1.44    0.79
  -3  -1  39    0.89    0.58
  -3   0  39   31.85    1.68
  -3   0  38    0.79    0.76
  -3   0  37    0.39    0.62
  -3   0  36    0.18    0.55
  -3   0  35   12.05    1.06
  -3   0  34   -0.66    0.43
  -3   0  33    1.67    0.59
  -3   0  32    0.02    0.52
  -3   0  31   -0.02    0.60
  -3   0  30    0.29    0.48
  -3   0  29    1.14    0.51
  -3   0  28    0.26    0.38
  -3   0  27   71.84    1.96
  -3   0  26    0.26    0.33
  -3   0  25    0.71    0.30
  -3   0  24    0.09    0.33
  -3   0  23  177.75    3.13
  -3   0  22   -0.32    0.29
  -3   0  21    0.39    0.31
  -3   0  20   -0.01    0.29
  -3   0  19    3.17    0.42
  -3   0  18   -0.16    0.25
  -3   0  17   85.36    2.48
  -3   0  16    0.21    0.27
  -3   0  15    1.23    0.32
  -3   0  14    0.35    0.47
  -3   0  13   81.37    2.54
  -3   0  12    0.09    0.26
  -3   0  11  102.86    2.78
  -3   0  10    0.24    0.27
  -3   0   9    1.30    0.29
  -3   0   8    0.02    0.27
  -3   0   7    9.19    0.42
  -3   0   6   -0.10    0.25
  -3   0   5  236.12    3.99
  -3   0   4    0.34    0.23
  -3   0   3  253.11    4.10
  -3   0   2    0.08    0.21
  -3   0   1    8.30    0.40
  -3   0   0    0.76    0.23
  -3   0  -1   45.50    1.91
  -3   1  -1   21.14    0.79
  -3   1   0   64.77    2.15
  -3   1   1    0.07    0.26
  -3   1   2   39.74    1.34
  -3   1   3   97.78    2.63
  -3   1   4    3.22    0.34
  -3   1   5   78.09    2.50
  -3   1   6  167.09    3.53
  -3   1   7   -0.10    0.27
  -3   1   8   50.54    2.04
  -3   1   9    2.28    0.35
  -3   1  10    6.32    0.46
  -3   1  11  161.86    3.37
  -3   1  12   47.71    2.08
  -3   1  13    0.67    0.31
  -3   1  14   66.04    2.17
  -3   1  15   -0.06    0.30
  -3   1  16   48.23    1.88
  -3   1  17   15.03    0.63
  -3   1  18    7.06    0.48
  -3   1  19    1.81    0.38
  -3   1  20   73.95    2.23
  -3   1  21   25.37    0.83
  -3   1  22   11.35    0.60
  -3   1  23   29.91    0.93
  -3   1  24    0.10    0.29
  -3   1  25   32.06    0.94
  -3   1  26   10.02    0.58
  -3   1  27    4.17    0.45
  -3   1  28   22.41    1.14
  -3   1  29   44.05    1.55
  -3   1  30    9.82    0.95
  -3   1  31   13.74    1.04
  -3   1  32    0.51    0.67
  -3   1  33   -0.36    0.47
  -3   1  34    4.91    0.98
  -3   1  35    3.27    0.90
  -3   1  36    0.46    0.55
  -3   1  37    1.15    0.69
  -3   1  38    0.35    0.78
  -3   1  39    0.20    0.61
  -3   1 -39    0.35    0.53
  -3   1 -38    4.64    0.90
  -3   1 -37    8.55    1.10
  -3   1 -36    1.30    0.68
  -3   1 -35   -0.33    0.57
  -3   1 -34    3.95    0.70
  -3   1 -33    3.17    0.76
  -3   1 -32    8.43    0.94
  -3   1 -31    5.31    0.74
  -3   1 -30   50.20    1.61
  -3   1 -29   13.81    0.92
  -3   1 -28    0.46    0.54
  -3   1 -27    0.31    0.32
  -3   1 -26    0.26    0.28
  -3   1 -25    3.91    0.43
  -3   1 -24   11.99    0.58
  -3   1 -23    1.12    0.33
  -3   1 -22   12.14    0.59
  -3   1 -21   75.91    2.18
  -3   1 -20   11.49    0.57
  -3   1 -19   39.34    1.73
  -3   1 -18    0.33    0.34
  -3   1 -17    0.16    0.36
  -3   1 -16   25.95    0.80
  -3   1 -15   31.43    1.03
  -3   1 -14   16.03    0.59
  -3   1 -13  108.38    2.73
  -3   1 -12   20.39    0.73
  -3   1 -11    4.50    0.41
  -3   1 -10    5.36    0.39
  -3   1  -9   10.95    0.47
  -3   1  -8    1.64    0.29
  -3   1  -7    3.87    0.34
  -3   1  -6   10.75    0.46
  -3   1  -5    9.61    0.44
  -3   1  -4    0.20    0.22
  -3   1  -3   73.67    2.34
  -3   1  -2    8.79    0.51
  -3   0  -2    0.10    0.22
  -3   0  -3  105.60    2.79
  -3   0  -4   -0.01    0.21
  -3   0  -5  180.30    3.51
  -3   0  -6    0.25    0.22
  -3   0  -7    6.05    0.36
  -3   0  -8    0.37    0.36
  -3   0  -9    0.21    0.23
  -3   0 -10    0.03    0.21
  -3   0 -11    0.56    0.24
  -3   0 -12    0.10    0.23
  -3   0 -13    6.57    0.41
  -3   0 -14    0.12    0.25
  -3   0 -15   59.04    2.13
  -3   0 -16   -0.13    0.28
  -3   0 -17    0.73    0.26
  -3   0 -18    0.25    0.30
  -3   0 -19  181.28    3.33
  -3   0 -20   -0.29    0.39
  -3   0 -21    0.14    0.34
  -3   0 -22   -0.08    0.27
  -3   0 -23   14.13    0.69
  -3   0 -24   -0.08    0.25
  -3   0 -25    0.46    0.24
  -3   0 -26   -0.07    0.36
  -3   0 -27    0.83    0.33
  -3   0 -28   -0.52    0.32
  -3   0 -29   30.10    1.24
  -3   0 -30   -0.21    0.43
  -3   0 -31    4.08    0.67
  -3   0 -32    0.82    0.49
  -3   0 -33    2.98    0.64
  -3   0 -34    0.23    0.45
  -3   0 -35   14.09    1.07
  -3   0 -36   -0.46    0.40
  -3   0 -37    0.51    0.79
  -3   0 -38    0.07    0.44
  -3   0 -39    0.16    0.54
  -3  -1 -39    0.21    0.50
  -3  -1 -38    5.55    0.89
  -3  -1 -37    9.91    1.04
  -3  -1 -36    2.50    0.64
  -3  -1 -35    0.88    0.53
  -3  -1 -34    3.42    0.93
  -3  -1 -33    3.61    0.80
  -3  -1 -32    8.95    0.87
  -3  -1 -31    7.99    0.86
  -3  -1 -30   51.03    1.60
  -3  -1 -29   13.67    0.99
  -3  -1 -28    0.49    0.54
  -3  -1 -27    1.18    0.32
  -3  -1 -26    0.43    0.52
  -3  -1 -25    4.65    0.52
  -3  -1 -24   12.07    0.60
  -3  -1 -23    1.57    0.34
  -3  -1 -22   11.14    0.59
  -3  -1 -21   76.81    2.22
  -3  -1 -20   10.93    0.58
  -3  -1 -19   37.26    1.69
  -3  -1 -18    0.19    0.27
  -3  -1 -17    0.53    0.25
  -3  -1 -16   26.98    0.99
  -3  -1 -15   30.08    1.12
  -3  -1 -14   15.10    0.60
  -3  -1 -13  109.78    2.85
  -3  -1 -12   20.90    0.70
  -3  -1 -11    5.41    0.44
  -3  -1 -10    5.74    0.39
  -3  -1  -9   11.38    0.48
  -3  -1  -8    2.18    0.31
  -3  -1  -7    4.41    0.47
  -3  -1  -6   10.73    0.45
  -3  -1  -5   11.35    0.44
  -3  -1  -4    0.36    0.23
  -3  -1  -3   81.35    2.49
  -3  -1  -2    8.68    0.41
  -3  -2  -2    1.14    0.26
  -3  -2  -3    1.19    0.26
  -3  -2  -4    3.47    0.40
  -3  -2  -5   21.52    0.84
  -3  -2  -6  153.56    3.36
  -3  -2  -7    5.29    0.39
  -3  -2  -8   59.19    2.15
  -3  -2  -9    9.68    0.47
  -3  -2 -10  120.70    2.93
  -3  -2 -11   27.33    0.97
  -3  -2 -12    1.53    0.30
  -3  -2 -13   29.56    1.05
  -3  -2 -14   -0.08    0.26
  -3  -2 -15   11.57    0.55
  -3  -2 -16    3.87    0.41
  -3  -2 -17   12.92    0.57
  -3  -2 -18   17.10    0.68
  -3  -2 -19    4.99    0.47
  -3  -2 -20    6.65    0.44
  -3  -2 -21    1.20    0.32
  -3  -2 -22    7.36    0.49
  -3  -2 -23    1.06    0.36
  -3  -2 -24    1.56    0.34
  -3  -2 -25    0.61    0.34
  -3  -2 -26    9.88    0.69
  -3  -2 -27    1.26    0.58
  -3  -2 -28    1.49    0.51
  -3  -2 -29    2.89    0.64
  -3  -2 -30    1.41    0.59
  -3  -2 -31   15.20    1.03
  -3  -2 -32   11.77    1.10
  -3  -2 -33    0.32    0.46
  -3  -2 -34    1.76    0.63
  -3  -2 -35    3.07    0.64
  -3  -2 -36    0.07    0.60
  -3  -2 -37   -0.80    0.41
  -3  -2 -38    0.90    0.86
  -3  -3 -37    3.15    0.98
  -3  -3 -36    0.13    0.54
  -3  -3 -35    0.37    0.59
  -3  -3 -34   12.68    1.13
  -3  -3 -33    2.05    0.66
  -3  -3 -32   15.07    1.18
  -3  -3 -31    4.53    0.82
  -3  -3 -30    8.70    0.92
  -3  -3 -29    4.10    0.68
  -3  -3 -28   14.70    1.05
  -3  -3 -27    4.19    0.83
  -3  -3 -26    2.37    0.62
  -3  -3 -25    2.26    0.52
  -3  -3 -24    4.00    0.41
  -3  -3 -23    3.45    0.44
  -3  -3 -22    8.81    0.53
  -3  -3 -21   60.90    1.84
  -3  -3 -20   10.37    0.58
  -3  -3 -19   10.45    0.59
  -3  -3 -18    1.35    0.33
  -3  -3 -17    5.44    0.48
  -3  -3 -16  101.37    2.51
  -3  -3 -15   23.19    0.90
  -3  -3 -14   17.77    0.71
  -3  -3 -13    0.46    0.30
  -3  -3 -12   65.00    2.18
  -3  -3 -11    5.23    0.40
  -3  -3 -10   12.26    0.57
  -3  -3  -9    3.86    0.38
  -3  -3  -8    8.94    0.48
  -3  -3  -7    9.34    0.48
  -3  -3  -6    3.57    0.36
  -3  -3  -5   77.01    2.40
  -3  -3  -4   63.65    2.21
  -3  -3  -3   18.93    0.65
  -3  -3  -2    7.97    0.46
  -3  -4  -2   13.20    0.59
  -3  -4  -3    0.14    0.32
  -3  -4  -4    8.10    0.48
  -3  -4  -5    0.03    0.26
  -3  -4  -6    2.53    0.42
  -3  -4  -7   16.62    0.69
  -3  -4  -8   20.22    0.72
  -3  -4  -9   22.11    0.84
  -3  -4 -10   24.12    0.90
  -3  -4 -11   17.93    0.68
  -3  -4 -12    5.54    0.42
  -3  -4 -13    1.14    0.46
  -3  -4 -14   -0.02    0.26
  -3  -4 -15    2.91    0.39
  -3  -4 -16    3.06    0.37
  -3  -4 -17    0.76    0.31
  -3  -4 -18   11.92    0.65
  -3  -4 -19   42.47    1.64
  -3  -4 -20    1.04    0.33
  -3  -4 -21   11.04    0.60
  -3  -4 -22    2.36    0.57
  -3  -4 -23   26.52    1.25
  -3  -4 -24    1.60    0.79
  -3  -4 -25    3.40    0.80
  -3  -4 -26    9.93    1.01
  -3  -4 -27    9.86    0.88
  -3  -4 -28   -0.33    0.41
  -3  -4 -29    6.32    0.73
  -3  -4 -30    2.29    0.63
  -3  -4 -31    0.79    0.60
  -3  -4 -32   -0.54    0.32
  -3  -4 -33    0.40    0.53
  -3  -4 -34    0.38    0.56
  -3  -4 -35    6.52    0.87
  -3  -5 -32    1.63    0.70
  -3  -5 -31    0.33    0.51
  -3  -5 -30    9.46    1.07
  -3  -5 -29   -0.44    0.40
  -3  -5 -28    0.83    0.48
  -3  -5 -27    0.04    0.37
  -3  -5 -26    0.14    0.49
  -3  -5 -25    8.47    0.80
  -3  -5 -24    0.51    0.45
  -3  -5 -23   -0.31    0.32
  -3  -5 -22    7.71    0.85
  -3  -5 -21   24.56    1.30
  -3  -5 -20    6.22    0.70
  -3  -5 -19    0.38    0.53
  -3  -5 -18    5.18    0.67
  -3  -5 -17   16.43    0.65
  -3  -5 -16    2.54    0.38
  -3  -5 -15    8.11    0.54
  -3  -5 -14   13.59    0.71
  -3  -5 -13    5.95    0.49
  -3  -5 -12   11.79    0.62
  -3  -5 -11    2.38    0.42
  -3  -5 -10   36.06    1.55
  -3  -5  -9   27.68    0.89
  -3  -5  -8    2.48    0.40
  -3  -5  -7    4.99    0.52
  -3  -5  -6    0.27    0.29
  -3  -5  -5   34.93    1.55
  -3  -5  -4   29.65    1.53
  -3  -5  -3    1.58    0.35
  -3  -5  -2    3.92    0.41
  -3  -6  -2    2.64    0.41
  -3  -6  -3    8.09    0.64
  -3  -6  -4   18.98    0.73
  -3  -6  -5    8.93    0.54
  -3  -6  -6   10.57    0.57
  -3  -6  -7   19.35    0.73
  -3  -6  -8    0.07    0.37
  -3  -6  -9    0.10    0.27
  -3  -6 -10    7.23    0.80
  -3  -6 -11    3.85    0.63
  -3  -6 -12    4.79    0.76
  -3  -6 -13   -0.17    0.36
  -3  -6 -14    3.47    0.68
  -3  -6 -15    1.35    0.52
  -3  -6 -16    0.33    0.53
  -3  -6 -17    0.51    0.59
  -3  -6 -18    0.17    0.40
  -3  -6 -19    0.05    0.36
  -3  -6 -20    1.85    0.60
  -3  -6 -21    4.85    0.71
  -3  -6 -22    0.65    0.50
  -3  -6 -23   13.17    1.16
  -3  -6 -24    0.10    0.50
  -3  -6 -25    3.09    0.69
  -3  -6 -26    3.58    0.80
  -3  -6 -27   -0.44    0.54
  -3  -6 -28    0.61    0.46
  -3  -6 -29    4.65    0.85
  -3  -7 -24    0.72    0.85
  -3  -7 -23   -0.26    0.39
  -3  -7 -22    1.22    0.63
  -3  -7 -21   15.98    1.22
  -3  -7 -20    0.28    0.50
  -3  -7 -19    1.34    0.56
  -3  -7 -18    4.80    0.97
  -3  -7 -17    0.77    0.69
  -3  -7 -16   13.92    1.22
  -3  -7 -15   -0.20    0.40
  -3  -7 -14    1.91    0.58
  -3  -7 -13    1.53    0.58
  -3  -7 -12    1.49    0.90
  -3  -7 -11    5.69    0.75
  -3  -7 -10    0.48    0.45
  -3  -7  -9    0.28    0.50
  -3  -7  -8    3.30    0.69
  -3  -7  -7    3.22    0.84
  -3  -7  -6    0.90    0.61
  -3  -7  -5    2.35    0.83
  -3  -7  -4   -0.45    0.42
  -3  -7  -3    1.38    0.53
  -3  -7  -2   10.62    0.88
  -3  -8  -2    0.11    0.42
  -3  -8  -3    1.76    1.00
  -3  -8  -4   -0.16    0.44
  -3  -8  -5    4.00    0.79
  -3  -8  -6    0.29    0.44
  -3  -8  -7    1.39    0.65
  -3  -8  -8    3.72    0.82
  -3  -8  -9    4.26    0.90
  -3  -8 -10    8.79    0.92
  -3  -8 -11    2.13    0.80
  -3  -8 -12    3.22    0.76
  -3  -8 -13   -0.02    0.46
  -3  -8 -14    0.29    0.57
  -3  -8 -15    0.18    0.54
  -3  -8 -16    0.35    0.53
  -3  -8 -17   -0.04    0.37
  -2   1  -1 1048.91    7.50
  -2   1   0  189.74    3.30
  -2   1   1  495.62    5.23
  -2   1   2   16.01    0.55
  -2   1   3   14.51    0.51
  -2   1   4   72.78    2.30
  -2   1   5   27.58    0.93
  -2   1   6   76.50    2.26
  -2   1   7  119.62    2.86
  -2   1   8    1.07    0.28
  -2   1   9   20.36    0.66
  -2   1  10  279.81    4.44
  -2   1  11   27.66    0.89
  -2   1  12  217.45    4.06
  -2   1  13  120.96    3.01
  -2   1  14  129.18    3.03
  -2   1  15   65.35    2.26
  -2   1  16  120.13    3.00
  -2   1  17  104.15    2.75
  -2   1  18    0.30    0.34
  -2   1  19   20.07    0.83
  -2   1  20    4.27    0.44
  -2   1  21   18.51    0.66
  -2   1  22   54.46    1.94
  -2   1  23   45.78    1.73
  -2   1  24   18.81    0.71
  -2   1  25    1.40    0.36
  -2   1  26    0.07    0.30
  -2   1  27   10.78    0.58
  -2   1  28    6.17    0.49
  -2   1  29    0.09    0.31
  -2   1  30   -0.14    0.62
  -2   1  31    0.19    0.55
  -2   1  32    1.27    0.60
  -2   1  33    0.21    0.64
  -2   1  34    3.65    0.60
  -2   1  35    8.76    0.92
  -2   1  36    0.43    0.63
  -2   1  37    8.25    1.04
  -2   1  38    6.98    1.09
  -2   1  39    6.43    1.14
  -2   1  40    0.43    0.78
  -2   0  40    1.38    0.77
  -2   0  39   -0.26    0.68
  -2   0  38   10.48    0.95
  -2   0  37    0.13    0.81
  -2   0  36    9.67    0.93
  -2   0  35   -0.66    0.54
  -2   0  34   11.43    0.97
  -2   0  33    0.19    0.52
  -2   0  32    4.85    0.84
  -2   0  31    0.81    0.51
  -2   0  30   28.02    1.35
  -2   0  29   -0.61    0.33
  -2   0  28   41.63    1.60
  -2   0  27   -0.11    0.34
  -2   0  26    1.82    0.44
  -2   0  25   -0.10    0.28
  -2   0  24    1.39    0.35
  -2   0  23   -0.46    0.49
  -2   0  22   75.48    2.29
  -2   0  21   -0.38    0.44
  -2   0  20   59.78    1.99
  -2   0  19   -0.18    0.28
  -2   0  18    0.76    0.30
  -2   0  17    0.06    0.25
  -2   0  16   41.51    1.92
  -2   0  15    0.16    0.27
  -2   0  14   83.56    2.51
  -2   0  13    0.35    0.23
  -2   0  12   58.75    2.19
  -2   0  11   -0.19    0.23
  -2   0  10  413.21    5.25
  -2   0   9    0.28    0.22
  -2   0   8   13.71    0.53
  -2   0   7    0.25    0.21
  -2   0   6  258.83    3.98
  -2   0   5    0.03    0.24
  -2   0   4  155.94    3.14
  -2   0   3   -0.27    0.29
  -2   0   2   89.83    2.37
  -2   0   1    0.11    0.24
  -2   0   0  456.64    4.84
  -2   0  -1    0.57    0.21
  -2  -1  -1 1032.44    7.56
  -2  -1   0  181.40    3.31
  -2  -1   1  492.64    5.20
  -2  -1   2   15.57    0.53
  -2  -1   3   15.40    0.54
  -2  -1   4   81.22    2.29
  -2  -1   5   26.84    0.90
  -2  -1   6   76.94    2.32
  -2  -1   7  121.95    2.91
  -2  -1   8    0.92    0.26
  -2  -1   9   20.76    0.74
  -2  -1  10  279.63    4.35
  -2  -1  11   28.20    0.94
  -2  -1  12  214.80    3.88
  -2  -1  13  122.02    3.02
  -2  -1  14  126.51    3.08
  -2  -1  15   67.23    2.28
  -2  -1  16  126.81    3.06
  -2  -1  17  105.15    2.76
  -2  -1  18    0.07    0.26
  -2  -1  19   19.18    0.80
  -2  -1  20    4.03    0.39
  -2  -1  21   19.22    0.66
  -2  -1  22   57.65    2.10
  -2  -1  23   44.21    1.72
  -2  -1  24   19.00    0.71
  -2  -1  25    1.53    0.34
  -2  -1  26    0.11    0.29
  -2  -1  27   11.34    0.61
  -2  -1  28    6.09    0.48
  -2  -1  29    0.12    0.29
  -2  -1  30   -0.40    0.49
  -2  -1  31    0.65    0.48
  -2  -1  32    1.33    0.57
  -2  -1  33    0.35    0.53
  -2  -1  34    2.79    0.63
  -2  -1  35    8.32    1.03
  -2  -1  36    0.79    0.64
  -2  -1  37   11.18    0.99
  -2  -1  38    6.43    0.96
  -2  -1  39    5.52    0.97
  -2  -1  40    0.99    0.64
  -2  -2  39    1.42    0.72
  -2  -2  38    0.80    0.54
  -2  -2  37    1.00    0.78
  -2  -2  36    0.83    0.52
  -2  -2  35    1.80    0.61
  -2  -2  34    1.43    0.73
  -2  -2  33    7.93    0.85
  -2  -2  32    0.10    0.50
  -2  -2  31    2.01    0.71
  -2  -2  30    0.66    0.55
  -2  -2  29    2.63    0.63
  -2  -2  28    9.85    0.54
  -2  -2  27    2.45    0.38
  -2  -2  26    9.26    0.53
  -2  -2  25    9.30    0.54
  -2  -2  24    1.73    0.38
  -2  -2  23    9.53    0.53
  -2  -2  22   46.93    1.79
  -2  -2  21   -0.60    0.27
  -2  -2  20   36.74    1.59
  -2  -2  19    7.25    0.48
  -2  -2  18   14.98    0.69
  -2  -2  17    2.28    0.32
  -2  -2  16    1.47    0.30
  -2  -2  15   52.58    2.00
  -2  -2  14   77.58    2.42
  -2  -2  13    1.85    0.29
  -2  -2  12    0.41    0.23
  -2  -2  11    9.31    0.44
  -2  -2  10   22.68    0.78
  -2  -2   9   33.07    1.11
  -2  -2   8    4.64    0.33
  -2  -2   7  166.12    3.41
  -2  -2   6    6.66    0.35
  -2  -2   5    9.07    0.39
  -2  -2   4  124.16    2.93
  -2  -2   3    0.48    0.21
  -2  -2   2   61.46    2.15
  -2  -2   1  397.94    5.04
  -2  -2   0   92.36    2.56
  -2  -2  -1  193.86    3.65
  -2  -3  -1   49.43    2.05
  -2  -3   0   37.14    1.27
  -2  -3   1  127.43    3.02
  -2  -3   2    0.38    0.35
  -2  -3   3  245.29    4.18
  -2  -3   4   74.23    2.34
  -2  -3   5   97.93    2.71
  -2  -3   6    1.94    0.28
  -2  -3   7   91.36    2.60
  -2  -3   8   44.08    1.95
  -2  -3   9   35.54    1.65
  -2  -3  10    0.49    0.24
  -2  -3  11   24.13    0.95
  -2  -3  12   93.24    2.61
  -2  -3  13   45.84    1.93
  -2  -3  14  244.41    4.08
  -2  -3  15   37.01    1.12
  -2  -3  16    0.56    0.28
  -2  -3  17    5.70    0.42
  -2  -3  18    1.20    0.31
  -2  -3  19   14.36    0.60
  -2  -3  20    2.15    0.36
  -2  -3  21   19.18    0.69
  -2  -3  22    3.10    0.41
  -2  -3  23   58.73    1.89
  -2  -3  24    8.41    0.54
  -2  -3  25   13.53    0.63
  -2  -3  26    0.85    0.34
  -2  -3  27    4.00    0.62
  -2  -3  28   -0.27    0.50
  -2  -3  29   -0.53    0.48
  -2  -3  30   18.28    1.19
  -2  -3  31    4.27    0.84
  -2  -3  32   -0.60    0.43
  -2  -3  33    0.98    0.48
  -2  -3  34   -0.11    0.47
  -2  -3  35    5.45    0.86
  -2  -3  36    0.20    0.77
  -2  -3  37    0.56    0.76
  -2  -3  38    4.68    0.81
  -2  -4  36    0.94    0.58
  -2  -4  35    1.10    0.62
  -2  -4  34    0.07    0.59
  -2  -4  33    2.00    0.68
  -2  -4  32    0.03    0.52
  -2  -4  31    0.13    0.47
  -2  -4  30    0.92    0.78
  -2  -4  29    2.03    0.56
  -2  -4  28    2.73    0.79
  -2  -4  27    8.99    0.88
  -2  -4  26    2.24    0.62
  -2  -4  25    3.65    0.64
  -2  -4  24   30.96    1.26
  -2  -4  23   16.16    0.69
  -2  -4  22  106.15    2.38
  -2  -4  21   30.72    1.47
  -2  -4  20    3.50    0.42
  -2  -4  19   -0.35    0.31
  -2  -4  18    1.55    0.40
  -2  -4  17    2.41    0.34
  -2  -4  16   30.11    0.97
  -2  -4  15   12.61    0.57
  -2  -4  14    0.18    0.32
  -2  -4  13   27.25    0.92
  -2  -4  12   28.05    0.90
  -2  -4  11    0.43    0.28
  -2  -4  10    1.88    0.35
  -2  -4   9   16.15    0.63
  -2  -4   8   35.92    1.68
  -2  -4   7    5.05    0.41
  -2  -4   6    1.07    0.29
  -2  -4   5   44.13    1.82
  -2  -4   4   67.27    2.31
  -2  -4   3   30.96    1.12
  -2  -4   2    0.46    0.30
  -2  -4   1   18.77    0.68
  -2  -4   0  113.36    2.89
  -2  -4  -1   33.87    1.66
  -2  -5  -1    8.99    0.60
  -2  -5   0   23.47    0.86
  -2  -5   1    5.37    0.41
  -2  -5   2    1.75    0.32
  -2  -5   3    0.89    0.40
  -2  -5   4   35.32    1.58
  -2  -5   5   18.46    0.72
  -2  -5   6   27.96    0.97
  -2  -5   7   52.40    1.92
  -2  -5   8   12.12    0.57
  -2  -5   9   43.75    1.73
  -2  -5  10   59.69    2.00
  -2  -5  11    1.22    0.39
  -2  -5  12   10.73    0.68
  -2  -5  13    1.76    0.36
  -2  -5  14   70.97    2.00
  -2  -5  15    6.13    0.50
  -2  -5  16   56.06    1.75
  -2  -5  17    0.95    0.31
  -2  -5  18    0.00    0.29
  -2  -5  19    2.05    0.35
  -2  -5  20   39.83    1.37
  -2  -5  21    2.21    0.58
  -2  -5  22    2.06    0.52
  -2  -5  23   24.98    1.33
  -2  -5  24    1.17    0.56
  -2  -5  25    5.27    0.70
  -2  -5  26   12.61    1.04
  -2  -5  27    0.27    0.52
  -2  -5  28    1.59    0.58
  -2  -5  29    1.18    0.54
  -2  -5  30    3.81    0.74
  -2  -5  31    6.86    0.90
  -2  -5  32    3.77    0.86
  -2  -5  33   -0.40    0.36
  -2  -5  34   -0.38    0.49
  -2  -6  30    0.01    0.49
  -2  -6  29    0.01    0.46
  -2  -6  28    0.02    0.39
  -2  -6  27   -0.30    0.44
  -2  -6  26    0.62    0.51
  -2  -6  25    0.78    0.50
  -2  -6  24    0.26    0.46
  -2  -6  23    0.28    0.50
  -2  -6  22    0.85    0.57
  -2  -6  21    0.41    0.46
  -2  -6  20   -0.04    0.55
  -2  -6  19    1.12    0.52
  -2  -6  18   15.74    1.05
  -2  -6  17    0.74    0.46
  -2  -6  16   -0.11    0.38
  -2  -6  15    0.27    0.40
  -2  -6  14    5.57    0.64
  -2  -6  13    0.03    0.26
  -2  -6  12   -0.04    0.30
  -2  -6  11   55.00    1.63
  -2  -6  10    7.20    0.47
  -2  -6   9    1.91    0.34
  -2  -6   8    2.56    0.45
  -2  -6   7    9.19    0.59
  -2  -6   6    4.25    0.42
  -2  -6   5    0.09    0.26
  -2  -6   4    4.47    0.46
  -2  -6   3   16.87    0.68
  -2  -6   2    9.60    0.55
  -2  -6   1   14.95    0.63
  -2  -6   0    1.02    0.32
  -2  -6  -1    4.58    0.44
  -2  -7  -1    9.62    0.93
  -2  -7   0    7.48    0.79
  -2  -7   1   23.53    1.17
  -2  -7   2    1.34    0.60
  -2  -7   3    9.14    0.84
  -2  -7   4    2.60    0.64
  -2  -7   5    0.23    0.44
  -2  -7   6   14.98    0.95
  -2  -7   7    4.18    0.69
  -2  -7   8    1.04    0.57
  -2  -7   9    2.70    0.57
  -2  -7  10    2.84    0.63
  -2  -7  11    7.76    0.78
  -2  -7  12    1.63    0.61
  -2  -7  13    0.54    0.52
  -2  -7  14   15.43    1.01
  -2  -7  15    0.07    0.49
  -2  -7  16   -0.19    0.45
  -2  -7  17   23.69    1.38
  -2  -7  18    0.51    0.50
  -2  -7  19    3.25    0.68
  -2  -7  20    1.28    0.58
  -2  -7  21    0.25    0.45
  -2  -7  22    0.74    0.62
  -2  -7  23    0.33    0.49
  -2  -7  24    7.52    0.84
  -2  -7  25   -0.33    0.42
  -2  -7  26   -0.18    0.44
  -2  -8  19    0.15    0.50
  -2  -8  18    1.08    0.91
  -2  -8  17   -0.37    0.42
  -2  -8  16   -0.54    0.34
  -2  -8  15    0.01    0.45
  -2  -8  14    0.51    0.53
  -2  -8  13    0.42    0.73
  -2  -8  12   11.33    1.04
  -2  -8  11    0.61    0.58
  -2  -8  10    0.73    0.55
  -2  -8   9    1.22    0.77
  -2  -8   8    4.09    0.69
  -2  -8   7    0.49    0.48
  -2  -8   6    0.42    0.38
  -2  -8   5    1.66    0.58
  -2  -8   4    2.13    0.53
  -2  -8   3    0.31    0.48
  -2  -8   2    1.08    0.48
  -2  -8   1    0.69    0.44
  -2  -8   0    0.49    0.46
  -2  -8  -1    2.80    0.56
  -2  -9  -1    0.47    0.61
  -2  -9   0    0.28    0.44
  -2  -9   1    4.29    0.72
  -2  -9   2    0.67    0.55
  -2  -9   3    0.90    0.92
  -2  -9   4    7.98    0.96
  -2  -9   5    2.13    0.67
  -2  -9   6    2.33    0.68
  -2  -9   7    0.07    0.53
  -2  -9  -7   10.59    1.18
  -2  -9  -6   13.83    1.16
  -2  -9  -5    0.22    0.51
  -2  -9  -4   -0.09    0.47
  -2  -9  -3   -0.10    0.45
  -2  -9  -2    3.75    0.81
  -2  -8  -2    0.17    0.42
  -2  -8  -3    0.13    0.41
  -2  -8  -4    6.30    0.78
  -2  -8  -5    9.05    0.90
  -2  -8  -6    0.97    0.53
  -2  -8  -7   -0.60    0.38
  -2  -8  -8    7.13    0.79
  -2  -8  -9    0.04    0.37
  -2  -8 -10    0.03    0.34
  -2  -8 -11    0.90    0.52
  -2  -8 -12   -0.06    0.41
  -2  -8 -13    0.73    0.61
  -2  -8 -14    0.60    0.50
  -2  -8 -15   -0.37    0.30
  -2  -8 -16   -0.03    0.41
  -2  -8 -17    0.15    0.40
  -2  -8 -18    0.51    0.47
  -2  -8 -19    0.53    0.62
  -2  -7 -26    0.26    0.42
  -2  -7 -25    0.14    0.48
  -2  -7 -24   -0.26    0.42
  -2  -7 -23    3.33    0.74
  -2  -7 -22    0.14    0.47
  -2  -7 -21    2.64    0.71
  -2  -7 -20    0.06    0.55
  -2  -7 -19   33.51    1.52
  -2  -7 -18    1.52    0.58
  -2  -7 -17    4.63    0.75
  -2  -7 -16    1.81    0.49
  -2  -7 -15   10.61    1.05
  -2  -7 -14    0.72    0.50
  -2  -7 -13   17.04    1.11
  -2  -7 -12    1.12    0.41
  -2  -7 -11    0.68    0.45
  -2  -7 -10    0.82    0.63
  -2  -7  -9   10.08    0.88
  -2  -7  -8    0.30    0.39
  -2  -7  -7    0.77    0.51
  -2  -7  -6    5.02    0.68
  -2  -7  -5    1.47    0.54
  -2  -7  -4    0.02    0.42
  -2  -7  -3   19.96    1.07
  -2  -7  -2   49.44    1.57
  -2  -6  -2   -0.17    0.34
  -2  -6  -3    0.10    0.32
  -2  -6  -4   -0.28    0.31
  -2  -6  -5    5.78    0.45
  -2  -6  -6    1.20    0.39
  -2  -6  -7    0.08    0.28
  -2  -6  -8    1.80    0.35
  -2  -6  -9   69.57    2.03
  -2  -6 -10   30.71    0.93
  -2  -6 -11    0.80    0.37
  -2  -6 -12   16.56    0.71
  -2  -6 -13   48.34    1.57
  -2  -6 -14   -0.19    0.48
  -2  -6 -15    8.43    0.80
  -2  -6 -16   -0.12    0.39
  -2  -6 -17    8.02    0.79
  -2  -6 -18    6.03    0.73
  -2  -6 -19    0.25    0.40
  -2  -6 -20    0.14    0.43
  -2  -6 -21    3.93    0.67
  -2  -6 -22    0.14    0.53
  -2  -6 -23    0.33    0.51
  -2  -6 -24    0.80    0.63
  -2  -6 -25   21.92    1.28
  -2  -6 -26    0.17    0.48
  -2  -6 -27   -0.28    0.47
  -2  -6 -28   16.83    1.28
  -2  -6 -29    6.92    0.86
  -2  -6 -30    1.06    0.69
  -2  -5 -34   -0.05    0.30
  -2  -5 -33    0.05    0.40
  -2  -5 -32    0.01    0.54
  -2  -5 -31    2.00    0.75
  -2  -5 -30    1.54    0.61
  -2  -5 -29    7.35    1.03
  -2  -5 -28   -0.02    0.41
  -2  -5 -27    6.77    0.85
  -2  -5 -26   16.30    1.05
  -2  -5 -25   -0.18    0.35
  -2  -5 -24    0.72    0.76
  -2  -5 -23    0.40    0.54
  -2  -5 -22    9.72    0.87
  -2  -5 -21    0.57    0.55
  -2  -5 -20    9.86    0.86
  -2  -5 -19   35.37    1.42
  -2  -5 -18    0.82    0.33
  -2  -5 -17   34.81    1.44
  -2  -5 -16    5.70    0.50
  -2  -5 -15   41.11    1.62
  -2  -5 -14    2.19    0.39
  -2  -5 -13   27.35    0.92
  -2  -5 -12    0.95    0.35
  -2  -5 -11   14.06    0.64
  -2  -5 -10   77.12    2.18
  -2  -5  -9    0.95    0.38
  -2  -5  -8    7.08    0.56
  -2  -5  -7   11.56    0.60
  -2  -5  -6   59.47    1.97
  -2  -5  -5    0.05    0.23
  -2  -5  -4   55.14    1.92
  -2  -5  -3    2.57    0.49
  -2  -5  -2   44.54    1.68
  -2  -4  -2   83.46    2.40
  -2  -4  -3   73.41    2.23
  -2  -4  -4   52.79    1.95
  -2  -4  -5   52.70    1.92
  -2  -4  -6   68.50    2.14
  -2  -4  -7    3.49    0.41
  -2  -4  -8   28.07    0.84
  -2  -4  -9    1.28    0.34
  -2  -4 -10   17.29    0.63
  -2  -4 -11    1.00    0.36
  -2  -4 -12    1.62    0.32
  -2  -4 -13    9.73    0.57
  -2  -4 -14    1.85    0.32
  -2  -4 -15    1.07    0.30
  -2  -4 -16   30.19    0.97
  -2  -4 -17   -0.42    0.33
  -2  -4 -18    0.03    0.30
  -2  -4 -19   18.66    0.71
  -2  -4 -20    0.81    0.40
  -2  -4 -21    3.90    0.45
  -2  -4 -22   27.68    1.37
  -2  -4 -23    0.15    0.28
  -2  -4 -24    9.03    0.54
  -2  -4 -25    0.38    0.40
  -2  -4 -26   -0.07    0.38
  -2  -4 -27    0.52    0.59
  -2  -4 -28   -0.35    0.41
  -2  -4 -29    0.36    0.69
  -2  -4 -30   -0.49    0.43
  -2  -4 -31    0.70    0.64
  -2  -4 -32    1.89    0.62
  -2  -4 -33    4.05    0.78
  -2  -4 -34    3.53    0.93
  -2  -4 -35    4.66    0.92
  -2  -4 -36    0.80    0.61
  -2  -3 -38    0.53    0.63
  -2  -3 -37   -0.42    0.49
  -2  -3 -36    4.50    1.00
  -2  -3 -35    3.99    0.78
  -2  -3 -34    9.83    1.04
  -2  -3 -33    5.06    0.77
  -2  -3 -32    3.09    0.66
  -2  -3 -31    1.15    0.58
  -2  -3 -30   10.24    0.90
  -2  -3 -29   -0.32    0.48
  -2  -3 -28    1.11    0.66
  -2  -3 -27    0.68    0.41
  -2  -3 -26    8.13    0.52
  -2  -3 -25   20.51    0.73
  -2  -3 -24    4.13    0.42
  -2  -3 -23    2.81    0.43
  -2  -3 -22    1.18    0.32
  -2  -3 -21    0.39    0.29
  -2  -3 -20   -0.36    0.42
  -2  -3 -19  101.15    2.61
  -2  -3 -18   34.20    1.58
  -2  -3 -17    2.34    0.37
  -2  -3 -16   65.46    2.17
  -2  -3 -15  101.84    2.75
  -2  -3 -14    3.91    0.42
  -2  -3 -13   52.31    1.95
  -2  -3 -12   19.35    0.69
  -2  -3 -11    0.14    0.25
  -2  -3 -10   35.88    1.13
  -2  -3  -9    0.27    0.27
  -2  -3  -8    5.68    0.43
  -2  -3  -6    7.87    0.47
  -2  -3  -4   58.03    2.07
  -2  -3  -3   48.63    1.95
  -2  -3  -2  192.70    3.59
  -2  -2  -2   -0.28    0.20
  -2  -2  -7   -0.10    0.19
  -2  -2  -8    0.44    0.27
  -2  -2 -10    9.26    0.48
  -2  -2 -11    8.71    0.55
  -2  -2 -12   22.32    0.72
  -2  -2 -14    0.45    0.35
  -2  -2 -15    6.59    0.47
  -2  -2 -16   12.52    0.55
  -2  -2 -17    0.01    0.32
  -2  -2 -18   -0.02    0.22
  -2  -2 -19    4.76    0.42
  -2  -2 -20  105.78    2.61
  -2  -2 -21   19.95    0.70
  -2  -2 -22    1.24    0.41
  -2  -2 -23    0.29    0.38
  -2  -2 -24    8.76    0.56
  -2  -2 -25   98.32    2.36
  -2  -2 -26   14.28    0.67
  -2  -2 -27    2.76    0.43
  -2  -2 -28    0.68    0.36
  -2  -2 -29   46.92    1.47
  -2  -2 -30    0.55    0.57
  -2  -2 -31    1.06    0.59
  -2  -2 -32    5.98    0.73
  -2  -2 -33    6.88    0.87
  -2  -2 -34    0.50    0.50
  -2  -2 -35    0.69    0.46
  -2  -2 -36    0.60    0.43
  -2  -2 -37    4.32    0.77
  -2  -2 -38    0.19    0.55
  -2  -2 -39    0.43    0.61
  -2  -1 -40    0.26    0.66
  -2  -1 -39    0.47    0.54
  -2  -1 -38    0.67    0.46
  -2  -1 -37    2.07    0.61
  -2  -1 -36   -0.32    0.47
  -2  -1 -35    5.72    0.82
  -2  -1 -34    0.84    0.71
  -2  -1 -33    4.23    0.63
  -2  -1 -32    0.68    0.53
  -2  -1 -31    2.16    0.62
  -2  -1 -30    7.39    0.92
  -2  -1 -29    2.55    0.38
  -2  -1 -28   -0.45    0.30
  -2  -1 -27   28.57    1.31
  -2  -1 -26   13.81    0.61
  -2  -1 -25   33.57    1.52
  -2  -1 -24    0.52    0.33
  -2  -1 -23    0.94    0.34
  -2  -1 -22   25.01    0.87
  -2  -1 -21   56.68    1.90
  -2  -1 -20   31.07    1.02
  -2  -1 -19   76.67    2.24
  -2  -1 -18   26.30    0.94
  -2  -1 -17   94.34    2.59
  -2  -1 -16   12.16    0.51
  -2  -1 -15    0.30    0.24
  -2  -1 -14   71.62    2.27
  -2  -1 -13   34.58    1.72
  -2  -1 -12   31.45    1.11
  -2  -1 -11  201.63    3.71
  -2  -1 -10  319.16    4.56
  -2  -1  -9    0.67    0.22
  -2  -1  -8   10.47    0.39
  -2  -1  -7   66.85    2.10
  -2  -1  -6  203.84    3.51
  -2  -1  -5   73.19    2.23
  -2  -1  -4    2.60    0.28
  -2  -1  -3  995.38    7.46
  -2  -1  -2 3219.15   13.30
  -2   0  -2  441.38    4.82
  -2   0  -3    0.25    0.20
  -2   0  -4  667.05    5.96
  -2   0  -5    0.34    0.21
  -2   0  -6 1711.73    9.74
  -2   0  -7    0.01    0.21
  -2   0  -8   34.43    1.56
  -2   0  -9    0.03    0.20
  -2   0 -10   27.39    0.96
  -2   0 -11   -0.04    0.18
  -2   0 -12    5.92    0.36
  -2   0 -13    0.04    0.26
  -2   0 -14    6.74    0.39
  -2   0 -15    0.05    0.25
  -2   0 -16   34.55    1.13
  -2   0 -17   -0.05    0.26
  -2   0 -18   55.10    1.95
  -2   0 -19   -0.02    0.36
  -2   0 -20    2.02    0.31
  -2   0 -21   -0.18    0.31
  -2   0 -22   89.41    2.37
  -2   0 -23    0.15    0.24
  -2   0 -24   13.12    0.60
  -2   0 -25    0.27    0.27
  -2   0 -26    7.17    0.55
  -2   0 -27   -0.06    0.24
  -2   0 -28    0.04    0.49
  -2   0 -29   -0.03    0.26
  -2   0 -30    0.86    0.65
  -2   0 -31    0.28    0.45
  -2   0 -32    5.17    0.91
  -2   0 -33    0.40    0.53
  -2   0 -34    1.04    0.55
  -2   0 -35   -0.30    0.42
  -2   0 -36    2.98    0.67
  -2   0 -37    0.10    0.50
  -2   0 -38    7.86    0.92
  -2   0 -39    0.00    0.53
  -2   0 -40    2.44    0.72
  -2   1 -40    0.13    0.70
  -2   1 -39   -0.33    0.41
  -2   1 -38    0.21    0.40
  -2   1 -37    0.87    0.85
  -2   1 -36   -0.06    0.47
  -2   1 -35    3.86    0.79
  -2   1 -34    0.40    0.54
  -2   1 -33    3.88    0.69
  -2   1 -32    1.08    0.52
  -2   1 -31    3.34    0.64
  -2   1 -30    7.45    0.78
  -2   1 -29    1.33    0.37
  -2   1 -28   -0.21    0.37
  -2   1 -27   27.71    0.86
  -2   1 -26   13.36    0.65
  -2   1 -25   34.72    1.00
  -2   1 -24   -0.49    0.40
  -2   1 -23    0.55    0.36
  -2   1 -22   24.86    0.80
  -2   1 -21   61.13    1.97
  -2   1 -20   30.78    1.15
  -2   1 -19   83.81    2.42
  -2   1 -18   23.62    0.80
  -2   1 -17   95.80    2.62
  -2   1 -16   12.21    0.54
  -2   1 -15   -0.14    0.24
  -2   1 -14   71.25    2.51
  -2   1 -13   33.37    1.21
  -2   1 -12   30.93    0.96
  -2   1 -11  207.39    3.80
  -2   1 -10  323.11    4.45
  -2   1  -9   -0.01    0.22
  -2   1  -8   10.61    0.44
  -2   1  -7   59.68    2.02
  -2   1  -6  215.27    3.42
  -2   1  -5   71.95    2.21
  -2   1  -4    1.30    0.28
  -2   1  -3  970.30    7.22
  -2   1  -2 3316.91   13.25
  -1  -9  -1    0.47    0.56
  -1  -9   0    1.54    0.94
  -1  -9   1    0.41    0.51
  -1  -9   2    1.00    0.53
  -1  -9   3    0.13    0.49
  -1  -9   4    0.70    0.55
  -1  -9   5   -0.27    0.46
  -1  -9   6    1.67    0.64
  -1  -9   7    1.07    0.70
  -1  -9   8    6.67    0.94
  -1  -9   9    5.12    0.95
  -1  -9  10    0.77    0.73
  -1  -8  21   -0.24    0.46
  -1  -8  20    0.06    0.36
  -1  -8  19    0.31    0.58
  -1  -8  18    0.11    0.41
  -1  -8  17    0.39    0.42
  -1  -8  16    5.19    0.91
  -1  -8  15    4.52    0.82
  -1  -8  14    2.51    0.73
  -1  -8  13    0.03    0.40
  -1  -8  12    0.46    0.47
  -1  -8  11    2.82    0.80
  -1  -8  10    0.86    0.57
  -1  -8   9    2.91    0.75
  -1  -8   8    1.85    0.66
  -1  -8   7    0.28    0.44
  -1  -8   6    0.37    0.47
  -1  -8   5    0.05    0.56
  -1  -8   4    0.98    0.52
  -1  -8   3    5.52    0.77
  -1  -8   2   -0.07    0.37
  -1  -8   1    0.08    0.46
  -1  -8   0   25.88    1.27
  -1  -8  -1    2.03    0.77
  -1  -7  -1   37.30    1.30
  -1  -7   0    0.93    0.44
  -1  -7   1    3.57    0.56
  -1  -7   2    0.58    0.41
  -1  -7   3    0.69    0.39
  -1  -7   4    0.00    0.31
  -1  -7   5    1.54    0.58
  -1  -7   6   17.93    1.02
  -1  -7   7    4.30    0.62
  -1  -7   8    0.69    0.50
  -1  -7   9    0.02    0.42
  -1  -7  10    1.80    0.69
  -1  -7  11    5.30    0.71
  -1  -7  12   13.63    0.99
  -1  -7  13   -0.28    0.33
  -1  -7  14    0.04    0.47
  -1  -7  15   13.32    0.95
  -1  -7  16    3.46    0.65
  -1  -7  17    4.27    0.81
  -1  -7  18    5.30    0.77
  -1  -7  19    6.71    1.05
  -1  -7  20    1.28    0.60
  -1  -7  21    0.36    0.53
  -1  -7  22    4.07    0.71
  -1  -7  23    0.04    0.51
  -1  -7  24    0.61    0.57
  -1  -7  25    0.22    0.47
  -1  -7  26    0.75    0.55
  -1  -7  27    0.47    0.49
  -1  -6  31    0.25    0.49
  -1  -6  30    1.31    0.65
  -1  -6  29    0.08    0.57
  -1  -6  28   -0.39    0.50
  -1  -6  27    1.24    0.62
  -1  -6  26    1.78    0.73
  -1  -6  25    3.01    0.76
  -1  -6  24    0.19    0.57
  -1  -6  23    7.31    0.99
  -1  -6  22   22.56    1.35
  -1  -6  21    0.97    0.54
  -1  -6  20    0.35    0.47
  -1  -6  19    0.48    0.67
  -1  -6  18   16.16    1.14
  -1  -6  17    3.10    0.68
  -1  -6  16    8.82    0.86
  -1  -6  15    0.10    0.35
  -1  -6  14   36.39    1.39
  -1  -6  13    1.14    0.52
  -1  -6  12    0.77    0.28
  -1  -6  11    1.49    0.38
  -1  -6  10    2.73    0.44
  -1  -6   9   35.70    1.48
  -1  -6   8    0.69    0.34
  -1  -6   7   38.74    1.58
  -1  -6   6   52.78    1.75
  -1  -6   5    0.68    0.39
  -1  -6   4   29.54    0.97
  -1  -6   3   26.85    0.86
  -1  -6   2   34.52    1.42
  -1  -6   1    2.23    0.37
  -1  -6   0    0.18    0.28
  -1  -6  -1   26.08    0.81
  -1  -5  -1    6.77    0.46
  -1  -5   0   44.78    1.74
  -1  -5   1    3.63    0.39
  -1  -5   2    3.45    0.40
  -1  -5   3    0.10    0.33
  -1  -5   4   14.01    0.66
  -1  -5   5    0.31    0.23
  -1  -5   6   26.74    0.95
  -1  -5   7   11.81    0.64
  -1  -5   8   11.80    0.56
  -1  -5   9   86.58    2.42
  -1  -5  10    0.56    0.34
  -1  -5  11   10.09    0.56
  -1  -5  12   62.83    2.00
  -1  -5  13   52.13    1.79
  -1  -5  14    0.84    0.31
  -1  -5  15   18.74    0.70
  -1  -5  16   -0.21    0.25
  -1  -5  17   -0.10    0.28
  -1  -5  18   14.19    0.62
  -1  -5  19    3.99    0.45
  -1  -5  20   18.99    0.68
  -1  -5  21    0.59    0.30
  -1  -5  22    5.30    0.69
  -1  -5  23    1.83    0.66
  -1  -5  24    7.70    0.86
  -1  -5  25   19.07    1.08
  -1  -5  26    1.35    0.54
  -1  -5  27    2.25    0.73
  -1  -5  28   -0.10    0.50
  -1  -5  29   13.28    1.04
  -1  -5  30   12.72    1.00
  -1  -5  31    2.14    0.64
  -1  -5  32    0.14    0.48
  -1  -5  33    1.96    0.64
  -1  -5  34   -0.13    0.49
  -1  -4  37   -0.76    0.41
  -1  -4  36   -0.03    0.44
  -1  -4  35    2.38    0.84
  -1  -4  34    0.43    0.67
  -1  -4  33    2.43    0.73
  -1  -4  32    3.03    0.89
  -1  -4  31   26.04    1.30
  -1  -4  30   -0.20    0.61
  -1  -4  29   -0.32    0.47
  -1  -4  28    1.86    0.74
  -1  -4  27    9.15    0.95
  -1  -4  26    0.71    0.55
  -1  -4  25   67.06    1.81
  -1  -4  24    7.04    0.53
  -1  -4  23   38.69    1.47
  -1  -4  22    9.47    0.60
  -1  -4  21   23.85    0.75
  -1  -4  20    0.29    0.35
  -1  -4  19    4.50    0.47
  -1  -4  18    0.14    0.33
  -1  -4  17   47.59    1.78
  -1  -4  16   29.55    0.92
  -1  -4  15   51.94    1.90
  -1  -4  14   18.67    0.67
  -1  -4  13  117.68    2.85
  -1  -4  12    4.40    0.40
  -1  -4  11    1.31    0.34
  -1  -4  10    5.38    0.41
  -1  -4   9   12.12    0.62
  -1  -4   8    2.10    0.34
  -1  -4   7   -0.01    0.21
  -1  -4   6   -0.10    0.31
  -1  -4   5    1.59    0.28
  -1  -4   4    5.44    0.40
  -1  -4   3   36.62    1.67
  -1  -4   2   35.64    1.16
  -1  -4   1   25.10    0.86
  -1  -4   0   36.36    1.66
  -1  -4  -1   47.69    1.86
  -1  -3  -1   23.00    0.89
  -1  -3   0   96.94    2.61
  -1  -3   1  145.50    3.19
  -1  -3   2   35.29    1.56
  -1  -3   3  115.65    2.83
  -1  -3   4   87.05    2.44
  -1  -3   5   -0.06    0.23
  -1  -3   6    1.80    0.28
  -1  -3   7  258.21    4.06
  -1  -3   8   25.64    0.84
  -1  -3   9  206.63    3.72
  -1  -3  10    1.32    0.31
  -1  -3  11    2.15    0.31
  -1  -3  12   15.37    0.57
  -1  -3  13   11.38    0.56
  -1  -3  14    8.17    0.47
  -1  -3  15   16.88    0.59
  -1  -3  16   15.38    0.59
  -1  -3  17   34.65    1.09
  -1  -3  18   28.10    0.90
  -1  -3  19    0.18    0.30
  -1  -3  20   22.50    0.75
  -1  -3  21    2.25    0.38
  -1  -3  22   34.21    0.99
  -1  -3  23   13.26    0.61
  -1  -3  24   17.12    0.68
  -1  -3  25   34.99    1.40
  -1  -3  26    0.60    0.36
  -1  -3  27   24.00    0.77
  -1  -3  28   33.12    1.24
  -1  -3  29    5.31    0.70
  -1  -3  30    2.30    0.55
  -1  -3  31   16.67    1.13
  -1  -3  32    7.19    0.96
  -1  -3  33   11.40    1.13
  -1  -3  34    1.72    0.69
  -1  -3  35    1.13    0.65
  -1  -3  36    9.33    0.97
  -1  -3  37    0.09    0.53
  -1  -3  38    0.41    0.63
  -1  -3  39    0.95    0.84
  -1  -2  40    2.92    0.98
  -1  -2  39    4.09    0.77
  -1  -2  38   13.48    1.12
  -1  -2  37    4.14    0.80
  -1  -2  36   11.10    0.99
  -1  -2  35    0.97    0.54
  -1  -2  34    1.72    0.85
  -1  -2  33    0.06    0.53
  -1  -2  32   19.40    1.07
  -1  -2  31    0.45    0.54
  -1  -2  30    1.88    0.56
  -1  -2  29    1.00    0.34
  -1  -2  28   15.15    0.63
  -1  -2  27    1.42    0.36
  -1  -2  26   51.05    1.72
  -1  -2  25    4.49    0.45
  -1  -2  24    9.22    0.53
  -1  -2  23    7.69    0.52
  -1  -2  22  205.71    3.58
  -1  -2  21    5.50    0.43
  -1  -2  20    5.11    0.41
  -1  -2  19    8.68    0.57
  -1  -2  18    2.63    0.32
  -1  -2  17   12.61    0.54
  -1  -2  16    0.03    0.35
  -1  -2  15    2.63    0.32
  -1  -2  14   32.47    1.09
  -1  -2  13   74.71    2.48
  -1  -2  12    0.23    0.23
  -1  -2  11    4.78    0.35
  -1  -2  10   49.30    2.09
  -1  -2   9    2.93    0.30
  -1  -2   8    1.27    0.22
  -1  -2   7   31.70    1.04
  -1  -2   6  278.80    4.12
  -1  -2   5   50.98    1.80
  -1  -2   4   95.18    2.41
  -1  -2   3   13.29    0.50
  -1  -2   2   39.32    1.62
  -1  -2   1   14.91    0.64
  -1  -2   0   77.64    2.22
  -1  -2  -1   -0.17    0.15
  -1  -1  -1    1.22    0.17
  -1  -1   0   28.31    1.15
  -1  -1   1    6.32    0.25
  -1  -1   2   11.08    0.42
  -1  -1   3  233.47    3.15
  -1  -1   4   80.85    2.03
  -1  -1   5   17.93    0.60
  -1  -1   6    2.16    0.25
  -1  -1   7   -0.09    0.18
  -1  -1   8  386.95    4.68
  -1  -1   9   55.94    1.95
  -1  -1  10   -0.05    0.21
  -1  -1  11   48.11    1.94
  -1  -1  12  310.69    4.53
  -1  -1  13   50.71    2.02
  -1  -1  14   37.92    1.09
  -1  -1  15  229.60    4.34
  -1  -1  16   80.53    2.55
  -1  -1  17   39.95    1.27
  -1  -1  18    0.92    0.47
  -1  -1  19   82.31    2.44
  -1  -1  20    1.06    0.33
  -1  -1  21   23.40    0.79
  -1  -1  22    4.40    0.44
  -1  -1  23    2.20    0.36
  -1  -1  24   44.91    1.76
  -1  -1  25   96.23    2.50
  -1  -1  26   22.15    0.83
  -1  -1  27   19.59    0.75
  -1  -1  28    4.71    0.49
  -1  -1  29   63.83    1.76
  -1  -1  30    0.89    0.37
  -1  -1  31   16.85    1.10
  -1  -1  32    1.04    0.71
  -1  -1  33   21.63    1.17
  -1  -1  34   13.55    1.06
  -1  -1  35    2.69    0.74
  -1  -1  36   -0.17    0.58
  -1  -1  37    2.70    0.96
  -1  -1  38    0.02    0.66
  -1  -1  39    1.01    0.83
  -1  -1  40    4.39    1.06
  -1  -1  41   12.69    1.32
  -1   0  41    7.15    0.94
  -1   0  40    0.26    0.73
  -1   0  39    0.36    0.61
  -1   0  38   -0.01    0.37
  -1   0  37    0.31    0.63
  -1   0  36   -0.27    0.45
  -1   0  35   -0.49    0.46
  -1   0  34    0.34    0.54
  -1   0  33   23.66    1.43
  -1   0  32    1.60    0.74
  -1   0  31  151.17    2.48
  -1   0  30    3.13    0.42
  -1   0  29   10.09    0.54
  -1   0  28   -0.78    0.47
  -1   0  27    9.90    0.54
  -1   0  26    0.15    0.35
  -1   0  25    7.62    0.56
  -1   0  24   -0.69    0.29
  -1   0  23   71.11    2.19
  -1   0  22   -1.51    0.34
  -1   0  21  106.94    2.70
  -1   0  20   -2.09    0.27
  -1   0  19  222.54    3.89
  -1   0  18   -0.73    0.25
  -1   0  17    2.42    0.30
  -1   0  16    0.20    0.23
  -1   0  15   75.96    2.39
  -1   0  14    0.19    0.27
  -1   0  13  174.47    3.44
  -1   0  12    0.01    0.22
  -1   0  11   29.00    1.02
  -1   0  10    0.18    0.19
  -1   0   9    2.80    0.24
  -1   0   8   -0.05    0.18
  -1   0   7  168.37    2.93
  -1   0   6    0.25    0.17
  -1   0   5   -0.14    0.16
  -1   0   4    0.07    0.16
  -1   0   3  364.31    3.54
  -1   0   2    0.02    0.13
  -1   0   1    3.73    0.17
  -1   0   0   -0.16    0.11
  -1   0  -1   10.10    0.32
  -1   1  -1    0.95    0.16
  -1   1   0   26.83    1.13
  -1   1   1    5.11    0.25
  -1   1   2    8.72    0.29
  -1   1   3  228.07    3.12
  -1   1   4   80.44    1.99
  -1   1   5   18.32    0.62
  -1   1   6    3.33    0.25
  -1   1   7    0.03    0.17
  -1   1   8  382.74    4.66
  -1   1   9   60.48    1.97
  -1   1  10    0.29    0.22
  -1   1  11   48.14    1.83
  -1   1  12  313.36    4.55
  -1   1  13   49.95    1.93
  -1   1  14   38.16    1.72
  -1   1  15  236.87    4.05
  -1   1  16   84.28    2.52
  -1   1  17   43.62    1.86
  -1   1  18    2.12    0.32
  -1   1  19   79.36    2.41
  -1   1  20    0.29    0.27
  -1   1  21   23.35    0.95
  -1   1  22    4.94    0.42
  -1   1  23    2.22    0.37
  -1   1  24   38.49    1.64
  -1   1  25   93.38    2.49
  -1   1  26   20.35    0.79
  -1   1  27   20.76    0.75
  -1   1  28    3.98    0.50
  -1   1  29   64.55    1.78
  -1   1  30    0.71    0.35
  -1   1  31   18.50    1.10
  -1   1  32    4.05    0.69
  -1   1  33   16.47    1.08
  -1   1  34   13.91    1.06
  -1   1  35    1.56    0.63
  -1   1  36    0.11    0.67
  -1   1  37    1.30    0.70
  -1   1  38    0.13    0.60
  -1   1  39    0.91    0.54
  -1   1  40    5.19    0.92
  -1   1  41   14.02    1.21
  -1   1 -41    1.02    1.01
  -1   1 -40    5.79    0.85
  -1   1 -39    0.09    0.57
  -1   1 -38    0.62    0.49
  -1   1 -37    0.47    0.40
  -1   1 -36    0.12    0.49
  -1   1 -35    0.42    0.57
  -1   1 -34    6.05    0.82
  -1   1 -33   35.86    1.40
  -1   1 -32   23.46    1.21
  -1   1 -31    1.56    0.72
  -1   1 -30   28.34    1.27
  -1   1 -29    0.13    0.37
  -1   1 -28   16.83    0.69
  -1   1 -27    4.25    0.51
  -1   1 -26    1.44    0.33
  -1   1 -25    8.11    0.50
  -1   1 -24   12.04    0.58
  -1   1 -23   45.87    1.74
  -1   1 -22    2.67    0.42
  -1   1 -21   29.39    0.98
  -1   1 -20   11.15    0.51
  -1   1 -19    4.89    0.39
  -1   1 -18    0.51    0.26
  -1   1 -17   90.93    2.48
  -1   1 -16   56.72    2.05
  -1   1 -15    0.38    0.25
  -1   1 -14   12.16    0.49
  -1   1 -13   68.50    2.22
  -1   1 -12   13.73    0.53
  -1   1 -11    1.13    0.23
  -1   1 -10   42.77    1.68
  -1   1  -9   88.67    2.34
  -1   1  -8  475.27    4.97
  -1   1  -7   88.00    2.27
  -1   1  -6   26.80    0.85
  -1   1  -5  100.89    2.18
  -1   1  -4  169.76    2.65
  -1   1  -3  140.84    2.36
  -1   1  -2   88.67    2.03
  -1   0  -2   -0.08    0.12
  -1   0  -3   10.78    0.35
  -1   0  -4   -0.24    0.13
  -1   0  -5  328.07    3.65
  -1   0  -6   -0.39    0.14
  -1   0  -7  164.67    2.86
  -1   0  -8   -0.01    0.16
  -1   0  -9   23.14    0.79
  -1   0 -10   -0.06    0.17
  -1   0 -11   86.73    2.40
  -1   0 -12   -0.23    0.24
  -1   0 -13   92.17    2.48
  -1   0 -14   -0.20    0.20
  -1   0 -15  191.62    3.57
  -1   0 -16    0.19    0.23
  -1   0 -17  170.57    3.42
  -1   0 -18   -0.52    0.46
  -1   0 -19  569.97    6.07
  -1   0 -20   -0.06    0.36
  -1   0 -21    6.57    0.43
  -1   0 -22   -0.19    0.24
  -1   0 -23   20.30    0.73
  -1   0 -24   -0.25    0.40
  -1   0 -25    0.56    0.27
  -1   0 -26   -0.37    0.24
  -1   0 -27   13.58    0.61
  -1   0 -28   -0.48    0.34
  -1   0 -29   31.21    1.30
  -1   0 -30    0.05    0.32
  -1   0 -31   65.23    1.70
  -1   0 -32    0.55    0.57
  -1   0 -33    0.48    0.47
  -1   0 -34    0.43    0.62
  -1   0 -35   63.76    1.88
  -1   0 -36    0.07    0.88
  -1   0 -37    8.02    0.93
  -1   0 -38   -0.10    0.41
  -1   0 -39   -0.31    0.38
  -1   0 -40    0.04    0.41
  -1   0 -41    0.36    0.44
  -1  -1 -41    1.54    0.75
  -1  -1 -40    6.08    0.87
  -1  -1 -39   -0.51    0.47
  -1  -1 -38    0.70    0.69
  -1  -1 -37    0.13    0.42
  -1  -1 -36   -0.38    0.47
  -1  -1 -35    1.05    0.56
  -1  -1 -34    5.94    0.84
  -1  -1 -33   40.56    1.59
  -1  -1 -32   26.64    1.18
  -1  -1 -31    2.22    0.63
  -1  -1 -30   26.46    1.16
  -1  -1 -29    0.42    0.31
  -1  -1 -28   16.38    0.65
  -1  -1 -27    5.66    0.45
  -1  -1 -26    2.11    0.37
  -1  -1 -25    8.33    0.49
  -1  -1 -24   11.95    0.58
  -1  -1 -23   43.35    1.71
  -1  -1 -22    2.39    0.34
  -1  -1 -21   30.02    0.98
  -1  -1 -20   10.91    0.55
  -1  -1 -19    5.74    0.39
  -1  -1 -18    0.98    0.27
  -1  -1 -17   94.66    2.56
  -1  -1 -16   58.16    2.07
  -1  -1 -15    0.63    0.24
  -1  -1 -14   11.97    0.52
  -1  -1 -13   64.68    2.19
  -1  -1 -12   14.39    0.53
  -1  -1 -11    1.52    0.22
  -1  -1 -10   41.89    1.73
  -1  -1  -9   91.03    2.38
  -1  -1  -8  478.23    5.08
  -1  -1  -7   90.62    2.24
  -1  -1  -6   28.43    1.38
  -1  -1  -5  100.77    2.25
  -1  -1  -4  167.95    2.80
  -1  -1  -3  137.45    2.48
  -1  -1  -2   84.42    1.88
  -1  -2  -2    4.80    0.29
  -1  -2  -3    0.15    0.19
  -1  -2  -4   21.34    0.77
  -1  -2  -5   80.05    2.21
  -1  -2  -6  325.52    4.40
  -1  -2  -7   -0.01    0.21
  -1  -2  -8   -0.04    0.21
  -1  -2  -9  164.08    3.33
  -1  -2 -10  153.39    3.31
  -1  -2 -11    0.14    0.19
  -1  -2 -12   71.17    2.29
  -1  -2 -13   26.93    0.93
  -1  -2 -14   16.59    0.76
  -1  -2 -15    5.15    0.37
  -1  -2 -16    0.40    0.21
  -1  -2 -17   31.53    1.16
  -1  -2 -18   -0.01    0.37
  -1  -2 -19    1.29    0.32
  -1  -2 -20    1.60    0.34
  -1  -2 -21    1.47    0.33
  -1  -2 -22   46.15    1.90
  -1  -2 -23    8.17    0.52
  -1  -2 -24    0.74    0.30
  -1  -2 -25   24.20    0.80
  -1  -2 -26   47.84    1.74
  -1  -2 -27   -0.05    0.37
  -1  -2 -28  106.56    2.28
  -1  -2 -29   34.36    1.38
  -1  -2 -30    3.88    0.69
  -1  -2 -31    5.71    0.68
  -1  -2 -32    8.29    0.83
  -1  -2 -33    6.78    0.74
  -1  -2 -34   -0.15    0.43
  -1  -2 -35    0.20    0.51
  -1  -2 -36    0.06    0.48
  -1  -2 -37    3.31    0.83
  -1  -2 -38    5.82    0.80
  -1  -2 -39    1.24    0.57
  -1  -2 -40   -0.06    0.42
  -1  -3 -39    0.24    0.59
  -1  -3 -38   -0.32    0.40
  -1  -3 -37    0.19    0.55
  -1  -3 -36    0.58    0.58
  -1  -3 -35   -0.30    0.40
  -1  -3 -34   -0.05    0.58
  -1  -3 -33   13.66    1.07
  -1  -3 -32    2.13    0.62
  -1  -3 -31    0.91    0.54
  -1  -3 -30    1.94    0.57
  -1  -3 -29   10.66    0.87
  -1  -3 -28    5.23    0.66
  -1  -3 -27    1.11    0.30
  -1  -3 -26   16.24    0.69
  -1  -3 -25    2.74    0.41
  -1  -3 -24   48.12    1.63
  -1  -3 -23    0.33    0.39
  -1  -3 -22    5.80    0.48
  -1  -3 -21   36.92    1.62
  -1  -3 -20   10.92    0.55
  -1  -3 -19    1.28    0.30
  -1  -3 -18    8.15    0.48
  -1  -3 -17   85.10    2.50
  -1  -3 -16   80.99    2.40
  -1  -3 -15   13.01    0.56
  -1  -3 -14    2.65    0.33
  -1  -3 -13   23.48    0.89
  -1  -3 -12    7.95    0.46
  -1  -3 -11   14.89    0.61
  -1  -3 -10   49.01    2.02
  -1  -3  -9   27.34    1.02
  -1  -3  -8  147.15    3.27
  -1  -3  -7    5.13    0.47
  -1  -3  -6   36.28    1.15
  -1  -3  -5   22.00    0.79
  -1  -3  -4   62.82    2.14
  -1  -3  -3    9.10    0.40
  -1  -3  -2   35.85    1.16
  -1  -4  -2    2.30    0.39
  -1  -4  -3  153.44    3.33
  -1  -4  -4   28.60    0.92
  -1  -4  -5   24.23    0.84
  -1  -4  -6   18.24    0.75
  -1  -4  -7    9.57    0.47
  -1  -4  -8    8.19    0.45
  -1  -4  -9    5.26    0.41
  -1  -4 -10    0.82    0.40
  -1  -4 -11   73.47    2.30
  -1  -4 -12    0.26    0.22
  -1  -4 -13   19.88    0.83
  -1  -4 -14   38.44    1.73
  -1  -4 -15   79.17    2.30
  -1  -4 -16   30.81    1.06
  -1  -4 -17    0.22    0.27
  -1  -4 -18   13.43    0.68
  -1  -4 -19  119.36    2.70
  -1  -4 -20    4.95    0.49
  -1  -4 -21    0.42    0.35
  -1  -4 -22    2.63    0.39
  -1  -4 -23    2.50    0.42
  -1  -4 -24    1.66    0.37
  -1  -4 -25    2.97    0.35
  -1  -4 -26    0.19    0.56
  -1  -4 -27   14.46    0.97
  -1  -4 -28    0.30    0.68
  -1  -4 -29   -0.05    0.40
  -1  -4 -30   -0.11    0.41
  -1  -4 -31   35.29    1.54
  -1  -4 -32   19.76    1.30
  -1  -4 -33    1.83    0.67
  -1  -4 -34    1.74    0.93
  -1  -4 -35   15.96    1.26
  -1  -4 -36   -0.52    0.48
  -1  -4 -37    0.32    0.55
  -1  -5 -34    0.26    0.53
  -1  -5 -33    2.34    0.71
  -1  -5 -32    0.14    0.40
  -1  -5 -31   -0.40    0.33
  -1  -5 -30    0.01    0.48
  -1  -5 -29    0.51    0.62
  -1  -5 -28    0.59    0.57
  -1  -5 -27   11.87    1.06
  -1  -5 -26   -0.01    0.39
  -1  -5 -25    1.79    0.84
  -1  -5 -24   77.46    2.01
  -1  -5 -23    7.09    0.83
  -1  -5 -22    0.09    0.53
  -1  -5 -21    1.39    0.33
  -1  -5 -20    0.19    0.26
  -1  -5 -19    4.46    0.44
  -1  -5 -18   15.16    0.71
  -1  -5 -17   43.09    1.70
  -1  -5 -16   13.01    0.73
  -1  -5 -15    1.14    0.32
  -1  -5 -14    1.45    0.35
  -1  -5 -13    1.50    0.33
  -1  -5 -12    3.72    0.41
  -1  -5 -11   15.81    0.71
  -1  -5 -10    1.69    0.36
  -1  -5  -9   18.52    0.70
  -1  -5  -8  121.51    2.67
  -1  -5  -7   33.92    1.51
  -1  -5  -6    4.19    0.43
  -1  -5  -5    4.90    0.46
  -1  -5  -4   33.67    1.07
  -1  -5  -3   21.60    0.74
  -1  -5  -2    7.03    0.44
  -1  -6  -2    0.97    0.38
  -1  -6  -3   10.22    0.58
  -1  -6  -4    7.31    0.48
  -1  -6  -5   -0.02    0.23
  -1  -6  -6   12.39    0.59
  -1  -6  -7    4.14    0.41
  -1  -6  -8    3.51    0.42
  -1  -6  -9   49.20    1.63
  -1  -6 -10   35.71    1.48
  -1  -6 -11    1.45    0.33
  -1  -6 -12    1.18    0.33
  -1  -6 -13    6.26    0.53
  -1  -6 -14    3.31    0.40
  -1  -6 -15   15.31    0.66
  -1  -6 -16   -0.39    0.41
  -1  -6 -17    7.99    0.83
  -1  -6 -18    5.53    0.66
  -1  -6 -19    0.66    0.39
  -1  -6 -20    3.88    0.71
  -1  -6 -21    4.43    0.72
  -1  -6 -22    2.37    0.60
  -1  -6 -23    2.08    0.56
  -1  -6 -24   -0.28    0.42
  -1  -6 -25    1.39    0.67
  -1  -6 -26   -0.14    0.35
  -1  -6 -27    0.07    0.41
  -1  -6 -28    6.59    0.94
  -1  -6 -29    1.17    0.76
  -1  -6 -30    8.41    1.05
  -1  -6 -31    0.51    0.53
  -1  -7 -27    0.03    0.34
  -1  -7 -26    0.29    0.46
  -1  -7 -25   -0.32    0.39
  -1  -7 -24    0.07    0.43
  -1  -7 -23    1.75    0.66
  -1  -7 -22   -0.26    0.46
  -1  -7 -21   13.34    1.04
  -1  -7 -20    2.57    0.80
  -1  -7 -19    0.05    0.46
  -1  -7 -18    3.90    0.68
  -1  -7 -17   31.21    1.47
  -1  -7 -16    0.42    0.68
  -1  -7 -15   -0.51    0.38
  -1  -7 -14    0.38    0.40
  -1  -7 -13   -0.04    0.31
  -1  -7 -12    3.60    0.78
  -1  -7 -11   -0.22    0.35
  -1  -7 -10   16.77    1.01
  -1  -7  -9    0.98    0.50
  -1  -7  -8    0.22    0.42
  -1  -7  -7    0.45    0.36
  -1  -7  -6    6.98    0.71
  -1  -7  -5    2.31    0.59
  -1  -7  -4    0.26    0.43
  -1  -7  -3    0.70    0.51
  -1  -7  -2   19.62    1.14
  -1  -8  -2    0.38    0.59
  -1  -8  -3   13.85    1.06
  -1  -8  -4    0.07    0.55
  -1  -8  -5    0.05    0.41
  -1  -8  -6    0.29    0.52
  -1  -8  -7    2.93    0.61
  -1  -8  -8    1.75    0.57
  -1  -8  -9    0.62    0.51
  -1  -8 -10    0.50    0.43
  -1  -8 -11   -0.20    0.32
  -1  -8 -12    5.91    0.89
  -1  -8 -13    2.10    0.62
  -1  -8 -14    0.86    0.64
  -1  -8 -15    8.04    0.96
  -1  -8 -16    9.53    0.97
  -1  -8 -17    0.23    0.38
  -1  -8 -18    0.32    0.54
  -1  -8 -19    2.68    0.72
  -1  -8 -20   -0.01    0.38
  -1  -8 -21   -0.07    0.45
  -1  -9 -10    2.05    0.72
  -1  -9  -9    0.29    0.61
  -1  -9  -8    7.23    0.96
  -1  -9  -7    0.53    0.89
  -1  -9  -6    0.48    0.71
  -1  -9  -5    3.58    0.80
  -1  -9  -4    0.77    0.55
  -1  -9  -3   -0.07    0.53
  -1  -9  -2    0.14    0.52
   0   1  -1   87.95    1.62
   0   1   0   -0.03    0.11
   0   1   1   86.86    1.62
   0   1   2  145.22    2.09
   0   1   3  147.00    2.29
   0   1   4  173.17    2.54
   0   1   5  185.60    2.81
   0   1   6  119.12    2.46
   0   1   7   77.31    2.01
   0   1   8  141.31    2.70
   0   1   9   54.28    1.86
   0   1  10   34.36    1.03
   0   1  11   98.76    2.51
   0   1  12    2.91    0.33
   0   1  13  224.13    3.84
   0   1  14   27.53    0.92
   0   1  15   76.95    2.35
   0   1  16    8.06    0.46
   0   1  17   88.71    2.53
   0   1  18   23.98    0.90
   0   1  19   21.49    0.91
   0   1  20    6.78    0.43
   0   1  21   26.23    0.85
   0   1  22    3.56    0.39
   0   1  23   71.54    2.12
   0   1  24    1.70    0.41
   0   1  25    1.57    0.36
   0   1  26    5.98    0.45
   0   1  27    9.38    0.53
   0   1  28   13.95    0.77
   0   1  29   16.17    0.65
   0   1  30    0.49    0.37
   0   1  31   29.95    1.36
   0   1  32    2.05    0.56
   0   1  33    0.30    0.52
   0   1  34    3.57    0.66
   0   1  35    0.58    0.46
   0   1  36    5.37    0.70
   0   1  37   -0.07    0.57
   0   1  38    1.03    0.62
   0   1  39    8.19    1.00
   0   1  40    5.77    0.82
   0   1  41    0.25    0.69
   0   0  41   -1.07    0.39
   0   0  40    0.37    0.62
   0   0  39    0.23    0.63
   0   0  38    8.09    0.88
   0   0  37    0.22    0.49
   0   0  36    0.18    0.55
   0   0  35   -0.01    0.62
   0   0  34   12.96    1.02
   0   0  33    0.42    0.55
   0   0  32    1.67    0.83
   0   0  31    0.51    0.31
   0   0  30   13.64    0.62
   0   0  29    0.14    0.30
   0   0  28   24.69    0.83
   0   0  27    0.09    0.29
   0   0  26    4.85    0.46
   0   0  25    0.14    0.27
   0   0  24    4.73    0.43
   0   0  23    0.11    0.30
   0   0  22   21.60    0.78
   0   0  21    0.63    0.37
   0   0  20  121.38    2.89
   0   0  19    0.20    0.37
   0   0  18   96.13    2.61
   0   0  17    5.82    0.60
   0   0  16  643.36    6.57
   0   0  15    1.98    0.42
   0   0  14   52.10    1.99
   0   0  13    2.04    0.39
   0   0  12  234.13    3.81
   0   0  11   -0.59    0.18
   0   0  10    2.41    0.24
   0   0   9    0.05    0.18
   0   0   8   30.36    1.30
   0   0   7   -0.24    0.16
   0   0   6   61.31    1.56
   0   0   5   -0.29    0.14
   0   0   4  186.52    2.15
   0   0   3   -0.01    0.04
   0  -1  -1   90.67    1.59
   0  -1   0    0.17    0.10
   0  -1   1   89.13    1.59
   0  -1   2  142.67    2.06
   0  -1   3  144.96    2.20
   0  -1   4  169.95    2.48
   0  -1   5  185.14    2.72
   0  -1   6  116.75    2.34
   0  -1   7   73.75    2.04
   0  -1   8  144.71    2.76
   0  -1   9   51.72    1.82
   0  -1  10   35.06    1.53
   0  -1  11   99.82    2.57
   0  -1  12    3.59    0.31
   0  -1  13  224.39    3.83
   0  -1  14   25.26    0.76
   0  -1  15   77.45    2.37
   0  -1  16    5.72    0.40
   0  -1  17   87.85    2.49
   0  -1  18   21.65    0.66
   0  -1  19   20.99    0.76
   0  -1  20    5.42    0.41
   0  -1  21   24.77    0.97
   0  -1  22    2.03    0.35
   0  -1  23   72.14    2.23
   0  -1  24    0.93    0.39
   0  -1  25    0.99    0.34
   0  -1  26    5.25    0.45
   0  -1  27    9.39    0.55
   0  -1  28   14.01    0.66
   0  -1  29   16.57    0.70
   0  -1  30    0.42    0.34
   0  -1  31   30.47    1.23
   0  -1  32    2.30    0.68
   0  -1  33   -0.19    0.62
   0  -1  34    4.37    0.69
   0  -1  35    0.41    0.52
   0  -1  36    3.59    0.83
   0  -1  37   -0.02    0.52
   0  -1  38   -0.49    0.52
   0  -1  39    8.53    1.00
   0  -1  40    4.72    0.88
   0  -1  41    0.42    0.59
   0  -2  40   -0.10    0.65
   0  -2  39    4.31    0.82
   0  -2  38   -0.62    0.41
   0  -2  37    1.35    0.70
   0  -2  36    0.60    0.50
   0  -2  35    0.64    0.46
   0  -2  34    1.15    0.46
   0  -2  33    1.80    0.58
   0  -2  32    0.44    0.56
   0  -2  31    1.62    0.56
   0  -2  30    5.60    0.82
   0  -2  29    2.36    0.38
   0  -2  28    2.84    0.39
   0  -2  27    0.37    0.28
   0  -2  26    0.34    0.35
   0  -2  25   86.01    2.18
   0  -2  24    2.62    0.45
   0  -2  23  127.34    2.74
   0  -2  22   -0.23    0.43
   0  -2  21    5.61    0.46
   0  -2  20    6.60    0.46
   0  -2  19   11.41    0.53
   0  -2  18   43.65    1.88
   0  -2  17    3.95    0.44
   0  -2  16    4.19    0.40
   0  -2  15    1.43    0.33
   0  -2  14  378.45    4.91
   0  -2  13  145.50    3.15
   0  -2  12  177.88    3.43
   0  -2  11  115.52    2.82
   0  -2  10    6.62    0.41
   0  -2   7   13.18    0.49
   0  -2   4   -0.10    0.17
   0  -2   1   11.06    0.37
   0  -2   0    0.14    0.16
   0  -2  -1   11.63    0.45
   0  -3  -1   11.50    0.41
   0  -3   0    0.15    0.21
   0  -3   1   10.58    0.41
   0  -3   2  363.78    4.79
   0  -3   3   53.95    1.95
   0  -3   4   37.56    1.68
   0  -3   5    5.84    0.37
   0  -3   6    3.43    0.30
   0  -3   7   15.96    0.58
   0  -3   8   36.29    1.10
   0  -3   9    8.96    0.42
   0  -3  10   15.06    0.54
   0  -3  11   93.85    2.62
   0  -3  12    5.01    0.38
   0  -3  13   14.35    0.58
   0  -3  14   22.36    0.78
   0  -3  15    0.24    0.26
   0  -3  16   11.21    0.51
   0  -3  17   12.89    0.56
   0  -3  18   42.01    1.74
   0  -3  19    0.46    0.53
   0  -3  20   60.84    2.00
   0  -3  21    6.98    0.46
   0  -3  22    1.91    0.38
   0  -3  23    0.10    0.38
   0  -3  24   82.89    2.09
   0  -3  25    6.97    0.50
   0  -3  26   -0.02    0.32
   0  -3  27   26.02    0.82
   0  -3  28    0.37    0.26
   0  -3  29    4.23    0.72
   0  -3  30    1.31    0.52
   0  -3  31   -0.06    0.59
   0  -3  32    0.05    0.44
   0  -3  33    0.41    0.47
   0  -3  34    4.20    0.71
   0  -3  35   -0.12    0.44
   0  -3  36    0.35    0.73
   0  -3  37    1.15    0.67
   0  -3  38   -0.06    0.57
   0  -3  39    5.26    0.91
   0  -4  37   -0.38    0.53
   0  -4  36   -0.23    0.47
   0  -4  35    3.35    0.70
   0  -4  34    0.35    0.88
   0  -4  33    1.05    0.62
   0  -4  32   39.91    1.62
   0  -4  31   -0.44    0.89
   0  -4  30    2.42    0.60
   0  -4  29    0.38    0.49
   0  -4  28    1.68    0.67
   0  -4  27    7.22    0.85
   0  -4  26    0.05    0.52
   0  -4  25    0.27    0.30
   0  -4  24   23.04    0.80
   0  -4  23    2.61    0.46
   0  -4  21    0.09    0.35
   0  -4  20    0.38    0.32
   0  -4  18    0.74    0.40
   0  -4  17   -0.55    0.28
   0  -4  15   16.60    0.66
   0  -4  14    5.65    0.45
   0  -4  13    9.02    0.52
   0  -4  10   19.09    0.68
   0  -4   9    0.13    0.23
   0  -4   8   69.48    2.20
   0  -4   7    2.49    0.41
   0  -4   6  125.15    2.88
   0  -4   5    3.24    0.31
   0  -4   4   28.74    0.97
   0  -4   3  256.86    4.12
   0  -4   2    0.96    0.25
   0  -4   1   35.69    1.16
   0  -4   0  405.62    5.46
   0  -4  -1   35.95    1.60
   0  -5  -1   43.13    1.81
   0  -5   0    0.12    0.23
   0  -5   1   36.38    1.62
   0  -5   2   18.95    0.73
   0  -5   3    4.07    0.41
   0  -5   4   19.34    0.74
   0  -5   5   17.95    0.66
   0  -5   6   28.60    1.03
   0  -5   7   47.99    1.76
   0  -5   8    2.71    0.39
   0  -5   9    5.42    0.42
   0  -5  10   36.46    1.62
   0  -5  11   36.93    1.64
   0  -5  12    7.17    0.47
   0  -5  13    6.14    0.43
   0  -5  14    1.56    0.31
   0  -5  15    0.15    0.26
   0  -5  16    7.05    0.49
   0  -5  17    0.84    0.27
   0  -5  18    2.28    0.40
   0  -5  19    4.71    0.47
   0  -5  20    3.58    0.40
   0  -5  21    1.40    0.36
   0  -5  22   11.19    0.86
   0  -5  23   28.96    1.19
   0  -5  24    7.97    0.84
   0  -5  25    2.13    0.60
   0  -5  26   19.76    1.16
   0  -5  27    6.45    0.77
   0  -5  28    7.81    0.95
   0  -5  29    1.01    0.49
   0  -5  30    4.56    0.74
   0  -5  31    1.08    0.85
   0  -5  32    1.07    0.69
   0  -5  33    0.92    0.65
   0  -5  34    3.65    0.66
   0  -5  35    0.28    0.64
   0  -6  31   -0.45    0.39
   0  -6  30    0.36    0.59
   0  -6  29    1.11    0.54
   0  -6  28    2.58    0.65
   0  -6  27    0.58    0.52
   0  -6  26    6.13    1.00
   0  -6  25    6.53    0.83
   0  -6  24    0.77    0.69
   0  -6  23    4.90    0.70
   0  -6  22   11.61    0.97
   0  -6  21   -0.01    0.44
   0  -6  20    5.20    0.70
   0  -6  19   18.26    1.07
   0  -6  18    0.05    0.51
   0  -6  17   32.42    1.27
   0  -6  16    0.48    0.30
   0  -6  15   31.20    1.34
   0  -6  14    0.11    0.25
   0  -6  13   44.66    1.49
   0  -6  12    2.53    0.40
   0  -6  11   31.55    0.90
   0  -6  10   28.50    0.87
   0  -6   9   63.41    1.82
   0  -6   8    0.41    0.32
   0  -6   7    9.69    0.63
   0  -6   6   19.85    0.71
   0  -6   5    0.39    0.33
   0  -6   4    7.31    0.49
   0  -6   3   12.12    0.61
   0  -6   2    2.51    0.33
   0  -6   1    4.66    0.41
   0  -6   0    4.57    0.40
   0  -6  -1    5.41    0.45
   0  -7  -1    1.34    0.32
   0  -7   0    0.44    0.27
   0  -7   1    0.34    0.29
   0  -7   2   18.29    0.96
   0  -7   3   10.56    0.83
   0  -7   4   -0.02    0.43
   0  -7   5    0.82    0.44
   0  -7   6    0.07    0.41
   0  -7   7    5.86    0.69
   0  -7   8   26.14    1.14
   0  -7   9    0.32    0.51
   0  -7  10    0.31    0.68
   0  -7  11    1.78    0.70
   0  -7  12   -0.12    0.41
   0  -7  13   28.09    1.30
   0  -7  14    0.18    0.52
   0  -7  15    2.63    0.66
   0  -7  16    0.94    0.50
   0  -7  17    0.05    0.39
   0  -7  18    0.64    0.54
   0  -7  19    5.02    0.77
   0  -7  20   12.14    0.98
   0  -7  21   -0.71    0.37
   0  -7  22    0.65    0.62
   0  -7  23    2.51    0.72
   0  -7  24    2.02    0.79
   0  -7  25    0.18    0.54
   0  -7  26   -0.35    0.45
   0  -7  27    1.27    0.61
   0  -8  21    0.04    0.51
   0  -8  20    1.27    0.58
   0  -8  19    5.19    0.93
   0  -8  18   -0.21    0.47
   0  -8  17    2.53    0.73
   0  -8  16    9.01    1.04
   0  -8  15    0.84    0.61
   0  -8  14    0.48    0.75
   0  -8  13    3.83    1.00
   0  -8  12    0.48    0.66
   0  -8  11    0.00    0.40
   0  -8  10    1.41    0.51
   0  -8   9   -0.05    0.40
   0  -8   8    5.55    0.77
   0  -8   7    2.96    0.77
   0  -8   6   -0.35    0.31
   0  -8   5    0.07    0.32
   0  -8   4    6.49    0.76
   0  -8   3    3.08    0.63
   0  -8   2    4.14    0.69
   0  -8   1   -0.09    0.47
   0  -8   0   70.98    1.92
   0  -8  -1   -0.17    0.53
   0  -9  -1    1.21    0.70
   0  -9   0   -0.32    0.35
   0  -9   1    2.80    0.89
   0  -9   2   -0.18    0.32
   0  -9   3    0.17    0.46
   0  -9   4    0.06    0.41
   0  -9   5    0.73    0.53
   0  -9   6    1.49    0.85
   0  -9   7    0.33    0.77
   0  -9   8    1.20    0.60
   0  -9   9    0.97    0.79
   0  -9  10   -0.06    0.48
   0  -9  11    4.40    0.91
   0  -9 -11    5.29    0.89
   0  -9 -10    0.54    0.54
   0  -9  -9    0.84    0.71
   0  -9  -8    1.74    0.59
   0  -9  -7    1.43    0.51
   0  -9  -6    4.23    0.82
   0  -9  -5    1.59    0.56
   0  -9  -4    0.52    0.42
   0  -9  -3   -0.04    0.38
   0  -9  -2    0.47    0.49
   0  -8  -2    4.04    0.74
   0  -8  -3    1.86    0.63
   0  -8  -4    6.38    0.78
   0  -8  -5    0.11    0.32
   0  -8  -6   -0.33    0.28
   0  -8  -7    2.76    0.55
   0  -8  -8    4.30    0.69
   0  -8  -9   -0.28    0.34
   0  -8 -10    0.33    0.45
   0  -8 -11    0.38    0.40
   0  -8 -12    1.01    0.56
   0  -8 -13    2.74    0.75
   0  -8 -14    0.74    0.83
   0  -8 -15    1.19    0.90
   0  -8 -16    9.84    0.97
   0  -8 -17    2.78    0.79
   0  -8 -18    0.12    0.49
   0  -8 -19    8.13    0.97
   0  -8 -20    0.85    0.59
   0  -8 -21    0.67    0.49
   0  -7 -27    0.67    0.54
   0  -7 -26    0.21    0.36
   0  -7 -25    0.59    0.42
   0  -7 -24    1.97    0.71
   0  -7 -23    2.38    0.64
   0  -7 -22    1.41    0.51
   0  -7 -21    0.21    0.51
   0  -7 -20   11.60    1.08
   0  -7 -19    2.44    0.73
   0  -7 -18    0.11    0.39
   0  -7 -17    0.13    0.45
   0  -7 -16    1.71    0.58
   0  -7 -15    2.01    0.66
   0  -7 -14   -0.47    0.37
   0  -7 -13   33.37    1.36
   0  -7 -12    0.03    0.41
   0  -7 -11    2.79    0.64
   0  -7 -10    0.88    0.48
   0  -7  -9   -0.01    0.42
   0  -7  -8   28.72    1.30
   0  -7  -7    6.46    0.78
   0  -7  -6    0.35    0.43
   0  -7  -5   -0.27    0.45
   0  -7  -4   -0.13    0.34
   0  -7  -3   10.80    0.90
   0  -7  -2   19.25    1.07
   0  -6  -2    2.42    0.39
   0  -6  -3   11.99    0.58
   0  -6  -4    7.29    0.51
   0  -6  -5    0.74    0.36
   0  -6  -6   21.34    0.82
   0  -6  -7    9.09    0.51
   0  -6  -8    1.91    0.41
   0  -6  -9   65.96    1.95
   0  -6 -10   29.98    0.91
   0  -6 -11   32.18    1.40
   0  -6 -12    3.14    0.42
   0  -6 -13   40.70    1.54
   0  -6 -14    0.13    0.35
   0  -6 -15   30.79    1.29
   0  -6 -16    1.49    0.44
   0  -6 -17   35.92    1.37
   0  -6 -18   -0.21    0.48
   0  -6 -19   19.73    1.16
   0  -6 -20    7.53    0.78
   0  -6 -21   -0.16    0.35
   0  -6 -22   12.12    1.01
   0  -6 -23    5.97    0.81
   0  -6 -24    1.65    0.62
   0  -6 -25    7.53    0.92
   0  -6 -26    7.74    0.87
   0  -6 -27    0.63    0.55
   0  -6 -28    3.43    0.68
   0  -6 -29    0.63    0.66
   0  -6 -30    0.14    0.51
   0  -6 -31    0.53    0.50
   0  -5 -35    0.82    0.70
   0  -5 -34    3.14    0.80
   0  -5 -33    1.03    0.54
   0  -5 -32    0.75    0.74
   0  -5 -31    1.31    0.54
   0  -5 -30    3.16    0.86
   0  -5 -29   -0.11    0.56
   0  -5 -28    8.01    0.84
   0  -5 -27    8.97    0.82
   0  -5 -26   20.68    1.23
   0  -5 -25    1.50    0.75
   0  -5 -24    6.86    0.80
   0  -5 -23   26.97    1.24
   0  -5 -22   11.02    0.84
   0  -5 -21    0.71    0.35
   0  -5 -20    3.20    0.43
   0  -5 -19    4.54    0.42
   0  -5 -18    2.07    0.37
   0  -5 -17    0.86    0.31
   0  -5 -16    6.77    0.50
   0  -5 -15   -0.17    0.28
   0  -5 -14    1.40    0.35
   0  -5 -13    6.42    0.47
   0  -5 -12    8.74    0.59
   0  -5 -11   38.52    1.61
   0  -5 -10   39.96    1.69
   0  -5  -9    5.51    0.44
   0  -5  -8    2.06    0.34
   0  -5  -7   48.24    1.85
   0  -5  -6   29.85    1.06
   0  -5  -5   18.63    0.76
   0  -5  -4   19.63    0.67
   0  -5  -3    3.29    0.37
   0  -5  -2   18.86    0.77
   0  -4  -2    0.82    0.37
   0  -4  -3  259.33    4.35
   0  -4  -4   29.77    1.00
   0  -4  -5    2.95    0.33
   0  -4  -6  121.38    2.98
   0  -4  -7    2.44    0.31
   0  -4  -8   72.63    2.32
   0  -4  -9    0.31    0.25
   0  -4 -10   19.55    0.79
   0  -4 -11   55.60    2.03
   0  -4 -12   20.23    0.78
   0  -4 -13   10.89    0.60
   0  -4 -14    6.57    0.47
   0  -4 -15   21.26    0.82
   0  -4 -16  193.38    3.50
   0  -4 -17    0.06    0.41
   0  -4 -18    3.23    0.40
   0  -4 -19   40.96    1.72
   0  -4 -20    1.12    0.37
   0  -4 -21    1.60    0.40
   0  -4 -22   36.27    1.56
   0  -4 -23    4.98    0.48
   0  -4 -24   24.29    1.17
   0  -4 -25    0.77    0.51
   0  -4 -26    0.39    0.38
   0  -4 -27   11.14    0.88
   0  -4 -28    3.68    0.83
   0  -4 -29    0.20    0.39
   0  -4 -30    3.72    0.64
   0  -4 -31    2.85    0.75
   0  -4 -32   43.44    1.70
   0  -4 -33    2.35    0.76
   0  -4 -34    1.38    0.65
   0  -4 -35    3.40    1.00
   0  -4 -36    1.59    0.55
   0  -4 -37    0.23    0.46
   0  -3 -39    6.48    0.98
   0  -3 -38    0.13    0.49
   0  -3 -37    2.75    0.97
   0  -3 -36    0.04    0.52
   0  -3 -35   -0.03    0.48
   0  -3 -34    4.59    0.84
   0  -3 -33    0.01    0.45
   0  -3 -32   -0.34    0.33
   0  -3 -31    1.15    0.51
   0  -3 -30    1.47    0.59
   0  -3 -29    3.44    0.57
   0  -3 -28    0.52    0.28
   0  -3 -27   25.97    1.24
   0  -3 -26    0.58    0.50
   0  -3 -25    5.97    0.53
   0  -3 -24   82.62    2.21
   0  -3 -23    0.61    0.50
   0  -3 -22    1.99    0.35
   0  -3 -21    6.44    0.48
   0  -3 -20   63.51    2.13
   0  -3 -19    0.45    0.32
   0  -3 -18   42.84    1.81
   0  -3 -17   12.19    0.57
   0  -3 -16   12.95    0.58
   0  -3 -15    0.28    0.27
   0  -3 -14   22.32    0.83
   0  -3 -13   14.92    0.67
   0  -3 -12    5.77    0.41
   0  -3 -11  100.33    2.80
   0  -3 -10   15.46    0.66
   0  -3  -9    9.89    0.49
   0  -3  -8   37.02    1.79
   0  -3  -7   16.64    0.71
   0  -3  -6    4.48    0.32
   0  -3  -5    7.68    0.43
   0  -3  -4   37.94    1.73
   0  -3  -3   53.67    1.98
   0  -3  -2  367.87    4.89
   0  -2  -2   37.80    1.47
   0  -2  -3  570.61    5.42
   0  -2  -4    1.61    0.21
   0  -2  -5  136.85    2.86
   0  -2  -6  105.31    2.57
   0  -2  -7   15.16    0.60
   0  -2  -8  215.17    3.68
   0  -2  -9  559.61    5.92
   0  -2 -10    8.43    0.41
   0  -2 -11  118.60    2.88
   0  -2 -12  180.56    3.54
   0  -2 -13  144.76    3.23
   0  -2 -14  378.08    5.12
   0  -2 -15    0.86    0.34
   0  -2 -16    6.35    0.42
   0  -2 -17    6.10    0.57
   0  -2 -18   44.42    1.84
   0  -2 -19   11.76    0.55
   0  -2 -20    7.41    0.48
   0  -2 -21    6.29    0.45
   0  -2 -22    2.84    0.41
   0  -2 -23  130.55    2.86
   0  -2 -24    5.51    0.51
   0  -2 -25   88.44    2.33
   0  -2 -26    1.70    0.41
   0  -2 -27    0.52    0.40
   0  -2 -28    2.21    0.39
   0  -2 -29    2.83    0.42
   0  -2 -30    6.72    0.78
   0  -2 -31    2.67    0.71
   0  -2 -32    0.73    0.47
   0  -2 -33    3.51    0.76
   0  -2 -34    0.47    0.46
   0  -2 -35    0.08    0.47
   0  -2 -36    0.41    0.65
   0  -2 -37    0.03    0.76
   0  -2 -38    0.10    0.53
   0  -2 -39    5.63    0.92
   0  -2 -40    0.44    0.80
   0  -1 -41   -0.32    0.61
   0  -1 -40    3.64    0.95
   0  -1 -39    7.63    1.01
   0  -1 -38   -0.49    0.45
   0  -1 -37    0.40    0.56
   0  -1 -36    4.55    0.76
   0  -1 -35    0.33    0.48
   0  -1 -34    3.26    0.78
   0  -1 -33    0.78    0.50
   0  -1 -32    2.16    0.63
   0  -1 -31   29.17    1.24
   0  -1 -30    1.02    0.36
   0  -1 -29   17.00    0.70
   0  -1 -28   15.32    0.67
   0  -1 -27   10.70    0.56
   0  -1 -26    7.22    0.50
   0  -1 -25    1.87    0.38
   0  -1 -24    2.77    0.41
   0  -1 -23   75.79    2.25
   0  -1 -22    4.02    0.41
   0  -1 -21   26.03    1.05
   0  -1 -20    6.98    0.53
   0  -1 -19   23.50    0.93
   0  -1 -18   24.50    0.90
   0  -1 -17   91.01    2.54
   0  -1 -16    8.67    0.49
   0  -1 -15   77.01    2.40
   0  -1 -14   28.31    0.98
   0  -1 -13  247.87    3.98
   0  -1 -12    1.91    0.34
   0  -1 -11  101.71    2.58
   0  -1 -10   33.45    1.04
   0  -1  -9   56.22    1.92
   0  -1  -8  140.54    2.81
   0  -1  -7   74.63    1.94
   0  -1  -6  118.33    2.42
   0  -1  -5  191.96    2.88
   0  -1  -4  172.89    2.65
   0  -1  -3  149.13    2.36
   0  -1  -2  147.43    2.16
   0   0  -3    0.00    0.05
   0   0  -4  183.72    2.14
   0   0  -6   63.17    1.57
   0   0  -7   -0.54    0.17
   0   0  -8   31.46    1.40
   0   0 -10    1.57    0.24
   0   0 -11    0.77    0.22
   0   0 -12  241.65    3.81
   0   0 -13    0.94    0.33
   0   0 -14   56.22    1.99
   0   0 -15    5.95    0.43
   0   0 -16  645.73    6.50
   0   0 -18  100.05    2.76
   0   0 -19    1.65    0.42
   0   0 -20  120.17    2.92
   0   0 -21    0.95    0.39
   0   0 -22   22.25    0.75
   0   0 -23    0.53    0.27
   0   0 -24    3.24    0.43
   0   0 -25   -0.23    0.27
   0   0 -26    4.24    0.43
   0   0 -27   -0.06    0.31
   0   0 -28   23.89    0.78
   0   0 -29    0.45    0.33
   0   0 -30   14.38    0.67
   0   0 -31    0.45    0.35
   0   0 -32    2.16    0.72
   0   0 -33    0.51    0.72
   0   0 -34   11.00    1.15
   0   0 -35    0.22    0.50
   0   0 -36    0.21    0.56
   0   0 -37   -0.46    0.50
   0   0 -38    8.41    1.08
   0   0 -39    0.93    0.51
   0   0 -40    0.75    0.65
   0   0 -41    0.42    0.53
   0   1 -41    0.54    0.62
   0   1 -40    3.12    0.85
   0   1 -39    8.53    1.01
   0   1 -38    0.05    0.51
   0   1 -37   -0.72    0.44
   0   1 -36    4.03    0.80
   0   1 -35    1.14    0.58
   0   1 -34    2.08    0.74
   0   1 -33    0.75    0.52
   0   1 -32    1.50    0.65
   0   1 -31   31.83    1.28
   0   1 -30    0.74    0.33
   0   1 -29   16.65    0.67
   0   1 -28   14.17    0.64
   0   1 -27    9.43    0.61
   0   1 -26    6.73    0.50
   0   1 -25    0.83    0.57
   0   1 -24    0.36    0.40
   0   1 -23   73.29    2.19
   0   1 -22    2.69    0.48
   0   1 -21   25.99    0.88
   0   1 -20    5.63    0.42
   0   1 -19   20.15    0.85
   0   1 -18   23.01    0.69
   0   1 -17   86.64    2.45
   0   1 -16    2.58    0.39
   0   1 -15   77.62    2.39
   0   1 -14   23.77    0.76
   0   1 -13  231.18    3.80
   0   1 -12    0.05    0.31
   0   1 -10   36.67    1.06
   0   1  -8  143.99    2.97
   0   1  -7   74.73    2.00
   0   1  -6  115.34    2.31
   0   1  -5  184.64    2.75
   0   1  -4  172.73    2.52
   0   1  -3  146.56    2.18
   1  -9  -1    0.43    0.59
   1  -9   0    0.82    0.83
   1  -9   1    0.73    0.65
   1  -9   2    0.45    0.54
   1  -9   3    1.62    0.54
   1  -9   4    1.21    0.86
   1  -9   5    3.56    0.98
   1  -9   6    0.62    0.75
   1  -9   7    2.51    0.79
   1  -9   8    7.46    0.99
   1  -9   9    0.14    0.64
   1  -9  10    2.04    0.67
   1  -8  21    1.05    0.61
   1  -8  20   -0.08    0.46
   1  -8  19    3.13    0.80
   1  -8  18    0.35    0.59
   1  -8  17    0.58    0.65
   1  -8  16    9.43    1.12
   1  -8  15    9.40    1.02
   1  -8  14   -0.39    0.45
   1  -8  13    0.48    0.65
   1  -8  12    5.80    0.85
   1  -8  11   -0.75    0.36
   1  -8  10    0.56    0.61
   1  -8   9   -0.17    0.43
   1  -8   8    0.45    0.60
   1  -8   7    2.90    0.65
   1  -8   6    0.22    0.59
   1  -8   5   -0.44    0.39
   1  -8   4    0.09    0.47
   1  -8   3   15.14    1.10
   1  -8   2    0.05    0.45
   1  -8   1    3.13    0.90
   1  -8   0   27.49    1.44
   1  -8  -1    0.57    0.64
   1  -7  -1    4.07    0.56
   1  -7   0    0.42    0.42
   1  -7   1   39.10    1.49
   1  -7   2   20.91    1.22
   1  -7   3    0.53    0.46
   1  -7   4    0.28    0.40
   1  -7   5    1.88    0.53
   1  -7   6    6.33    0.71
   1  -7   7   -0.07    0.43
   1  -7   8    0.36    0.55
   1  -7   9    1.86    0.80
   1  -7  10   17.88    1.07
   1  -7  11   -0.35    0.41
   1  -7  12    3.82    0.61
   1  -7  13    0.18    0.47
   1  -7  14    0.13    0.54
   1  -7  15    0.82    0.58
   1  -7  16    0.17    0.69
   1  -7  17   33.80    1.58
   1  -7  18    2.62    0.77
   1  -7  19   -0.43    0.54
   1  -7  20    0.62    0.54
   1  -7  21   13.51    1.26
   1  -7  22    0.90    0.54
   1  -7  23    1.19    0.93
   1  -7  24   -0.04    0.54
   1  -7  25    0.01    0.51
   1  -7  26    0.27    0.47
   1  -7  27    0.33    0.50
   1  -6  31    0.40    0.60
   1  -6  30    6.87    1.16
   1  -6  29    0.57    0.84
   1  -6  28    5.88    0.87
   1  -6  27   -0.29    0.45
   1  -6  26   -0.77    0.46
   1  -6  25    2.14    0.80
   1  -6  24    0.02    0.50
   1  -6  23    0.39    0.60
   1  -6  22    0.93    0.72
   1  -6  21    2.84    0.70
   1  -6  20    3.72    0.95
   1  -6  19   -0.32    0.42
   1  -6  18    4.06    0.85
   1  -6  17    7.49    0.83
   1  -6  16    0.56    0.44
   1  -6  15   14.98    0.66
   1  -6  14    0.79    0.48
   1  -6  13    6.38    0.52
   1  -6  12    0.15    0.33
   1  -6  11    0.47    0.34
   1  -6  10   37.80    1.52
   1  -6   9   53.73    1.70
   1  -6   8    1.98    0.43
   1  -6   7    3.68    0.52
   1  -6   6   12.75    0.62
   1  -6   5    0.50    0.31
   1  -6   4    6.72    0.61
   1  -6   3   10.25    0.56
   1  -6   2    0.24    0.33
   1  -6   1   24.17    0.91
   1  -6   0   -0.19    0.35
   1  -6  -1    2.02    0.34
   1  -5  -1    3.05    0.39
   1  -5   0   44.99    1.79
   1  -5   1    6.26    0.46
   1  -5   2    7.92    0.50
   1  -5   3   21.70    0.73
   1  -5   4   32.60    1.04
   1  -5   5    5.18    0.42
   1  -5   6    4.30    0.50
   1  -5   7   36.21    1.56
   1  -5   8  119.00    2.70
   1  -5   9   19.95    0.72
   1  -5  10    1.67    0.35
   1  -5  11   14.84    0.63
   1  -5  12    4.18    0.41
   1  -5  13    1.45    0.44
   1  -5  14    1.85    0.40
   1  -5  15    1.46    0.38
   1  -5  16   14.50    0.63
   1  -5  17   45.13    1.55
   1  -5  18   14.54    0.62
   1  -5  19    4.40    0.54
   1  -5  20    0.21    0.29
   1  -5  21    1.29    0.35
   1  -5  22    1.54    0.56
   1  -5  23    5.06    0.70
   1  -5  24   87.86    2.04
   1  -5  25    1.03    0.57
   1  -5  26   -0.50    0.57
   1  -5  27   13.85    1.04
   1  -5  28   -0.12    0.64
   1  -5  29    1.35    0.61
   1  -5  30   -0.50    0.38
   1  -5  31    0.61    0.53
   1  -5  32   -0.30    0.43
   1  -5  33    2.52    0.74
   1  -5  34    0.67    0.52
   1  -4  37   -0.06    0.52
   1  -4  36   -0.94    0.46
   1  -4  35   13.21    1.22
   1  -4  34    1.21    0.71
   1  -4  33    0.58    0.96
   1  -4  32   19.78    1.43
   1  -4  31   32.24    1.64
   1  -4  30    1.59    0.56
   1  -4  29    0.50    0.43
   1  -4  28    1.27    0.61
   1  -4  27   16.66    1.16
   1  -4  26   -0.42    0.48
   1  -4  25    3.23    0.40
   1  -4  24    1.21    0.38
   1  -4  23    2.01    0.44
   1  -4  22    2.33    0.42
   1  -4  21    0.38    0.43
   1  -4  20    5.35    0.64
   1  -4  19  122.85    2.61
   1  -4  18   12.93    0.64
   1  -4  17   -0.15    0.35
   1  -4  16   32.88    0.97
   1  -4  15   83.63    2.33
   1  -4  14   41.13    1.75
   1  -4  13   21.57    0.72
   1  -4  12    0.70    0.31
   1  -4  11   73.82    2.25
   1  -4  10    1.40    0.38
   1  -4   9    5.62    0.45
   1  -4   8    8.46    0.54
   1  -4   7    9.80    0.60
   1  -4   6   19.40    0.67
   1  -4   5   24.61    0.85
   1  -4   4   29.06    1.04
   1  -4   3  161.76    3.37
   1  -4   2    1.32    0.31
   1  -4   1   51.79    2.08
   1  -4   0   38.96    1.24
   1  -4  -1   27.44    0.94
   1  -3  -1  144.89    3.24
   1  -3   0  102.95    2.71
   1  -3   1   24.01    0.95
   1  -3   2   33.48    1.13
   1  -3   3    8.61    0.39
   1  -3   4   57.32    2.12
   1  -3   5   20.34    0.76
   1  -3   6   37.46    1.68
   1  -3   7    5.25    0.39
   1  -3   8  152.06    3.23
   1  -3   9   30.09    1.10
   1  -3  10   54.19    1.98
   1  -3  11   16.92    0.74
   1  -3  12    8.68    0.44
   1  -3  13   26.37    0.90
   1  -3  14    3.15    0.33
   1  -3  15   14.88    0.57
   1  -3  16   84.11    2.41
   1  -3  17   90.25    2.48
   1  -3  18    8.89    0.48
   1  -3  19    1.71    0.36
   1  -3  20   10.73    0.54
   1  -3  21   42.34    1.67
   1  -3  22    5.57    0.46
   1  -3  23    0.02    0.30
   1  -3  24   45.43    1.70
   1  -3  25    2.30    0.40
   1  -3  26   17.53    0.68
   1  -3  27    0.00    0.54
   1  -3  28    4.86    0.75
   1  -3  29   12.48    1.04
   1  -3  30    0.96    0.64
   1  -3  31    1.20    0.61
   1  -3  32    0.72    0.50
   1  -3  33   16.28    1.08
   1  -3  34    1.38    0.59
   1  -3  35    0.60    0.43
   1  -3  36    0.92    0.50
   1  -3  37    0.51    0.84
   1  -3  38   -0.10    0.48
   1  -3  39    0.97    0.73
   1  -2  40   -0.47    0.57
   1  -2  39    0.15    0.62
   1  -2  38    5.98    0.91
   1  -2  37    1.20    0.68
   1  -2  36   -0.26    0.49
   1  -2  35    0.50    0.54
   1  -2  34    0.04    0.49
   1  -2  33    9.74    0.84
   1  -2  32    9.79    0.87
   1  -2  31    5.73    0.71
   1  -2  30    4.99    0.75
   1  -2  29   36.02    1.39
   1  -2  28  116.46    2.30
   1  -2  27   -0.56    0.35
   1  -2  26   52.14    1.86
   1  -2  25   26.54    0.87
   1  -2  24    0.78    0.30
   1  -2  23    8.77    0.54
   1  -2  22   51.42    1.91
   1  -2  21    1.14    0.32
   1  -2  20    1.23    0.33
   1  -2  19    1.08    0.27
   1  -2  18    0.52    0.27
   1  -2  17   36.52    1.69
   1  -2  16    1.33    0.36
   1  -2  15    6.73    0.41
   1  -2  14   17.36    0.65
   1  -2  13   28.37    1.01
   1  -2  12   75.29    2.41
   1  -2  11   -0.09    0.20
   1  -2  10  153.43    3.23
   1  -2   9  172.78    3.39
   1  -2   8    0.11    0.24
   1  -2   7    0.29    0.19
   1  -2   6  358.08    4.56
   1  -2   5   79.03    2.23
   1  -2   4   20.82    0.72
   1  -2   3    0.18    0.19
   1  -2   2    5.35    0.28
   1  -2   1   -0.08    0.16
   1  -2   0   78.42    2.13
   1  -2  -1   14.82    0.57
   1  -1  -1    6.16    0.25
   1  -1   0   28.70    1.14
   1  -1   1    1.33    0.17
   1  -1   2   86.08    1.92
   1  -1   3  142.69    2.42
   1  -1   4  177.36    2.81
   1  -1   5   99.97    2.23
   1  -1   6   30.93    0.97
   1  -1   7   94.94    2.35
   1  -1   8  494.10    5.23
   1  -1   9   94.43    2.41
   1  -1  10   38.36    1.77
   1  -1  11    1.24    0.24
   1  -1  12   13.37    0.51
   1  -1  13   67.69    2.27
   1  -1  14   12.79    0.48
   1  -1  15    0.34    0.27
   1  -1  16   60.84    2.15
   1  -1  17   91.07    2.55
   1  -1  18    0.21    0.26
   1  -1  19    5.07    0.44
   1  -1  20   11.87    0.54
   1  -1  21   31.13    1.53
   1  -1  22    1.97    0.38
   1  -1  23   38.47    1.67
   1  -1  24   10.42    0.59
   1  -1  25    7.00    0.51
   1  -1  26    0.57    0.33
   1  -1  27    5.48    0.64
   1  -1  28   17.20    0.70
   1  -1  29    0.07    0.31
   1  -1  30   26.92    0.80
   1  -1  31    1.39    0.70
   1  -1  32   26.07    1.45
   1  -1  33   38.27    1.46
   1  -1  34    4.72    0.91
   1  -1  35    1.24    0.54
   1  -1  36    0.31    0.52
   1  -1  37    0.31    0.54
   1  -1  38    0.60    0.53
   1  -1  39    0.38    0.66
   1  -1  40    4.57    0.89
   1  -1  41    1.33    0.72
   1   0  41   -0.39    0.45
   1   0  40    0.61    0.57
   1   0  39    0.81    0.55
   1   0  38   -0.44    0.59
   1   0  37   11.15    1.06
   1   0  36   -0.23    0.89
   1   0  35   69.80    1.98
   1   0  34    0.36    0.59
   1   0  33    0.32    0.53
   1   0  32    0.17    0.67
   1   0  31   66.81    1.71
   1   0  30   -0.82    0.50
   1   0  29   29.16    1.41
   1   0  28   -0.26    0.29
   1   0  27   14.83    0.62
   1   0  26    0.08    0.27
   1   0  25    0.35    0.33
   1   0  24    1.16    0.39
   1   0  23   20.50    0.78
   1   0  22    0.26    0.34
   1   0  21    6.23    0.47
   1   0  20    1.66    0.40
   1   0  19  569.76    6.05
   1   0  18   -0.74    0.27
   1   0  17  177.53    3.58
   1   0  16    0.68    0.27
   1   0  15  181.90    3.58
   1   0  14    0.29    0.25
   1   0  13   90.45    2.56
   1   0  12   -0.09    0.20
   1   0  11   86.11    2.36
   1   0  10    0.10    0.18
   1   0   9   23.41    0.77
   1   0   8    0.10    0.16
   1   0   7  171.40    2.85
   1   0   6    0.10    0.16
   1   0   5  339.11    3.64
   1   0   4    0.25    0.14
   1   0   3   10.17    0.33
   1   0   2    0.12    0.12
   1   0   1    9.07    0.29
   1   0   0   -0.25    0.10
   1   0  -1    3.18    0.17
   1   1  -1    5.87    0.25
   1   1   0   26.27    1.20
   1   1   1    0.58    0.17
   1   1   2   92.09    1.95
   1   1  11   -0.34    0.22
   1   1  12   11.53    0.47
   1   1  14   10.77    0.50
   1   1  15   -0.14    0.27
   1   1  18   -0.34    0.28
   1   1  19    5.87    0.54
   1   1  20    9.51    0.54
   1   1  21   29.95    0.94
   1   1  22    0.05    0.44
   1   1  24    7.24    0.59
   1   1  25    5.59    0.50
   1   1  26    0.03    0.34
   1   1  27    3.43    0.46
   1   1  28   15.72    0.71
   1   1  29   -0.29    0.32
   1   1  30   25.65    0.79
   1   1  31    1.24    0.66
   1   1  32   26.51    1.26
   1   1  33   37.80    1.49
   1   1  34    5.28    0.85
   1   1  35    1.02    0.57
   1   1  36    1.81    0.59
   1   1  37    0.00    0.56
   1   1  38    0.38    0.54
   1   1  39   -0.12    0.72
   1   1  40    4.65    1.04
   1   1  41    1.00    0.85
   1   1 -41   15.45    1.21
   1   1 -40    6.16    0.98
   1   1 -39    2.42    0.72
   1   1 -38    0.46    0.78
   1   1 -37    1.22    0.59
   1   1 -36    1.42    0.62
   1   1 -35    2.30    0.60
   1   1 -34   13.45    1.05
   1   1 -33   19.30    1.21
   1   1 -32    3.02    0.65
   1   1 -31   17.66    1.00
   1   1 -30    1.55    0.39
   1   1 -29   62.56    1.76
   1   1 -28    5.17    0.46
   1   1 -27   20.79    0.72
   1   1 -26   23.60    0.80
   1   1 -25   98.76    2.51
   1   1 -24   44.11    1.73
   1   1 -23    3.69    0.47
   1   1 -22    4.71    0.44
   1   1 -21   25.31    0.96
   1   1 -20    0.47    0.30
   1   1 -19   76.53    2.39
   1   1 -18    2.15    0.35
   1   1 -17   42.71    1.86
   1   1 -16   84.45    2.56
   1   1 -15  229.63    4.07
   1   1 -14   36.28    1.02
   1   1 -13   53.50    2.03
   1   1 -12  320.45    4.61
   1   1 -11   47.87    1.93
   1   1 -10    0.27    0.21
   1   1  -9   52.36    1.95
   1   1  -8  390.79    4.63
   1   1  -7    0.31    0.19
   1   1  -6    3.67    0.26
   1   1  -5   17.79    0.66
   1   1  -4   78.81    1.97
   1   1  -3  230.36    3.17
   1   1  -2    9.62    0.34
   1   0  -2    0.05    0.13
   1   0  -3  368.29    3.54
   1   0  -4    0.16    0.18
   1   0  -5    0.12    0.18
   1   0  -6    0.16    0.17
   1   0  -7  166.19    2.91
   1   0  -8    0.14    0.21
   1   0  -9    2.67    0.25
   1   0 -10    0.11    0.17
   1   0 -11   30.44    1.52
   1   0 -12    0.17    0.20
   1   0 -13  176.57    3.41
   1   0 -14   -0.16    0.23
   1   0 -15   75.77    2.43
   1   0 -16   -0.19    0.23
   1   0 -17    1.61    0.30
   1   0 -18   -0.20    0.25
   1   0 -19  223.15    3.90
   1   0 -20   -1.92    0.31
   1   0 -21  107.82    2.73
   1   0 -22   -1.55    0.29
   1   0 -23   76.09    2.28
   1   0 -24    0.99    0.33
   1   0 -25    6.85    0.56
   1   0 -26   -0.10    0.36
   1   0 -27   10.28    0.55
   1   0 -28    0.80    0.38
   1   0 -29   10.07    0.68
   1   0 -30    2.15    0.41
   1   0 -31  143.89    2.48
   1   0 -32    3.69    0.82
   1   0 -33   20.94    1.17
   1   0 -34    0.73    0.50
   1   0 -35   -0.11    0.46
   1   0 -36   -0.53    0.34
   1   0 -37    0.79    0.59
   1   0 -38   -0.19    0.56
   1   0 -39    0.09    0.52
   1   0 -40    0.08    0.63
   1   0 -41    7.96    1.00
   1  -1 -41   14.49    1.34
   1  -1 -40    6.05    1.03
   1  -1 -39    0.45    0.59
   1  -1 -38    0.48    0.61
   1  -1 -37    2.65    0.60
   1  -1 -36    0.53    0.37
   1  -1 -35    1.52    0.63
   1  -1 -34   13.75    1.11
   1  -1 -33   20.21    1.15
   1  -1 -32    2.82    0.67
   1  -1 -31   18.29    1.04
   1  -1 -30    0.02    0.31
   1  -1 -29   65.41    1.80
   1  -1 -28    3.75    0.46
   1  -1 -27   20.77    0.73
   1  -1 -26   21.05    0.79
   1  -1 -25   89.78    2.36
   1  -1 -24   42.56    1.73
   1  -1 -23    1.88    0.35
   1  -1 -22    4.31    0.42
   1  -1 -21   24.43    0.83
   1  -1 -20   -0.42    0.48
   1  -1 -19   76.01    2.32
   1  -1 -18    1.87    0.32
   1  -1 -17   41.14    1.82
   1  -1 -16   86.46    2.53
   1  -1 -15  231.03    4.10
   1  -1 -14   37.47    1.17
   1  -1 -13   49.17    1.87
   1  -1 -12  314.40    4.59
   1  -1 -11   51.41    1.94
   1  -1 -10    0.03    0.20
   1  -1  -9   55.89    1.91
   1  -1  -8  387.65    4.64
   1  -1  -7    0.53    0.18
   1  -1  -6    3.44    0.24
   1  -1  -5   18.59    0.58
   1  -1  -4   78.90    1.93
   1  -1  -3  230.00    3.15
   1  -1  -2   10.42    0.32
   1  -2  -2   42.29    1.68
   1  -2  -3   13.95    0.45
   1  -2  -4   88.30    2.32
   1  -2  -5   53.67    1.91
   1  -2  -6  287.79    4.18
   1  -2  -7   30.52    1.52
   1  -2  -8    1.56    0.25
   1  -2  -9    2.87    0.29
   1  -2 -10   46.36    1.95
   1  -2 -11    4.94    0.36
   1  -2 -12    0.29    0.22
   1  -2 -13   73.00    2.39
   1  -2 -14   35.84    1.68
   1  -2 -15    3.09    0.33
   1  -2 -16   -0.10    0.42
   1  -2 -17   13.90    0.63
   1  -2 -18    2.02    0.33
   1  -2 -19    8.08    0.53
   1  -2 -20    3.76    0.38
   1  -2 -21    1.99    0.37
   1  -2 -22  201.95    3.54
   1  -2 -23    3.03    0.47
   1  -2 -24    8.49    0.50
   1  -2 -25    2.61    0.40
   1  -2 -26   45.96    1.65
   1  -2 -27    0.50    0.34
   1  -2 -28   14.28    0.64
   1  -2 -29    0.66    0.43
   1  -2 -30    1.15    0.64
   1  -2 -31   -0.04    0.42
   1  -2 -32   19.53    1.12
   1  -2 -33    0.17    0.48
   1  -2 -34    0.32    0.50
   1  -2 -35    0.06    0.44
   1  -2 -36    8.79    0.96
   1  -2 -37    3.94    0.77
   1  -2 -38   11.23    1.15
   1  -2 -39    2.41    0.84
   1  -2 -40    3.05    0.77
   1  -3 -39    3.72    0.66
   1  -3 -38    0.20    0.56
   1  -3 -37    0.51    0.65
   1  -3 -36   10.09    1.00
   1  -3 -35    0.02    0.58
   1  -3 -34    3.05    0.70
   1  -3 -33   12.52    1.02
   1  -3 -32    8.45    0.94
   1  -3 -31   16.89    1.05
   1  -3 -30    1.97    0.60
   1  -3 -29    5.49    0.72
   1  -3 -28   30.69    1.29
   1  -3 -27   20.88    0.75
   1  -3 -26    0.82    0.32
   1  -3 -25   33.59    1.54
   1  -3 -24   16.99    0.67
   1  -3 -23   12.59    0.70
   1  -3 -22   34.65    1.58
   1  -3 -21    1.80    0.46
   1  -3 -20   21.40    0.78
   1  -3 -19    0.48    0.29
   1  -3 -18   31.45    1.09
   1  -3 -17   37.82    1.72
   1  -3 -16   15.53    0.64
   1  -3 -15   17.08    0.62
   1  -3 -14    8.31    0.52
   1  -3 -13   10.80    0.51
   1  -3 -12   15.70    0.70
   1  -3 -11    3.27    0.33
   1  -3 -10    2.72    0.37
   1  -3  -9  205.63    3.85
   1  -3  -8   25.41    0.87
   1  -3  -7  269.64    4.37
   1  -3  -6    2.13    0.31
   1  -3  -5    0.20    0.21
   1  -3  -4   80.94    2.45
   1  -3  -3  126.84    2.90
   1  -3  -2   35.73    1.70
   1  -4  -2   34.27    1.74
   1  -4  -3   42.00    1.70
   1  -4  -4    5.94    0.42
   1  -4  -5    2.72    0.34
   1  -4  -6    0.04    0.34
   1  -4  -7   -0.13    0.23
   1  -4  -8    3.97    0.40
   1  -4  -9   13.36    0.54
   1  -4 -10    5.99    0.46
   1  -4 -11    2.48    0.38
   1  -4 -12    4.46    0.39
   1  -4 -13  118.39    2.87
   1  -4 -14   20.37    0.83
   1  -4 -15   53.91    2.02
   1  -4 -16   28.64    0.98
   1  -4 -17   46.23    1.81
   1  -4 -18    0.27    0.29
   1  -4 -19    5.79    0.49
   1  -4 -20    0.17    0.35
   1  -4 -21   24.06    0.90
   1  -4 -22    9.44    0.70
   1  -4 -23   38.05    1.46
   1  -4 -24    6.30    0.52
   1  -4 -25   62.71    1.78
   1  -4 -26    1.41    0.54
   1  -4 -27   10.72    0.90
   1  -4 -28    3.39    0.60
   1  -4 -29    0.51    0.56
   1  -4 -30    0.69    0.53
   1  -4 -31   26.67    1.39
   1  -4 -32    2.77    0.77
   1  -4 -33    4.22    0.73
   1  -4 -34    0.39    0.62
   1  -4 -35    0.95    0.83
   1  -4 -36   -0.15    0.48
   1  -4 -37   -0.13    0.51
   1  -5 -34    0.24    0.43
   1  -5 -33    2.18    0.73
   1  -5 -32    0.06    0.37
   1  -5 -31    0.94    0.80
   1  -5 -30   10.34    1.06
   1  -5 -29   14.42    1.06
   1  -5 -28    0.60    0.58
   1  -5 -27    0.60    0.48
   1  -5 -26    1.13    0.58
   1  -5 -25   21.51    1.26
   1  -5 -24    6.25    0.76
   1  -5 -23    2.17    0.59
   1  -5 -22    6.40    0.75
   1  -5 -21    0.58    0.35
   1  -5 -20   18.43    0.71
   1  -5 -19    3.54    0.42
   1  -5 -18   13.95    0.66
   1  -5 -17    0.10    0.30
   1  -5 -16    0.05    0.31
   1  -5 -15   18.65    0.72
   1  -5 -14    0.39    0.42
   1  -5 -13   54.21    1.93
   1  -5 -12   68.67    2.09
   1  -5 -11   12.19    0.66
   1  -5 -10    0.45    0.26
   1  -5  -9   84.43    2.38
   1  -5  -8   12.41    0.58
   1  -5  -7   11.73    0.55
   1  -5  -6   25.53    0.93
   1  -5  -5    0.11    0.33
   1  -5  -4   12.54    0.55
   1  -5  -3    0.13    0.29
   1  -5  -2    3.38    0.36
   1  -6  -2   35.24    1.55
   1  -6  -3   26.59    0.90
   1  -6  -4   32.11    1.46
   1  -6  -5    1.82    0.37
   1  -6  -6   47.75    1.78
   1  -6  -7   41.12    1.57
   1  -6  -8    1.30    0.33
   1  -6  -9   38.35    1.57
   1  -6 -10    6.13    0.51
   1  -6 -11    2.89    0.36
   1  -6 -12    0.18    0.33
   1  -6 -13    0.97    0.34
   1  -6 -14   37.80    1.45
   1  -6 -15    0.39    0.32
   1  -6 -16   10.60    0.83
   1  -6 -17    3.71    0.66
   1  -6 -18   15.53    1.00
   1  -6 -19    1.08    0.66
   1  -6 -20    0.06    0.41
   1  -6 -21    0.22    0.90
   1  -6 -22   22.94    1.27
   1  -6 -23    6.75    0.85
   1  -6 -24    0.60    0.47
   1  -6 -25    3.64    0.70
   1  -6 -26    2.70    0.68
   1  -6 -27    1.36    0.60
   1  -6 -28    0.04    0.46
   1  -6 -29    0.80    0.59
   1  -6 -30    0.56    0.57
   1  -6 -31    0.88    0.42
   1  -7 -27    0.38    0.48
   1  -7 -26    0.11    0.37
   1  -7 -25   -0.07    0.37
   1  -7 -24    0.27    0.51
   1  -7 -23    0.76    0.60
   1  -7 -22    4.97    0.80
   1  -7 -21    0.41    0.43
   1  -7 -20    1.78    0.55
   1  -7 -19    5.53    0.86
   1  -7 -18    3.07    0.76
   1  -7 -17    4.73    0.69
   1  -7 -16    2.91    0.90
   1  -7 -15   14.55    1.12
   1  -7 -14    0.63    0.55
   1  -7 -13    0.18    0.40
   1  -7 -12   12.48    0.95
   1  -7 -11    4.80    0.78
   1  -7 -10    3.45    0.60
   1  -7  -9    0.02    0.35
   1  -7  -8    0.18    0.41
   1  -7  -7    4.00    0.70
   1  -7  -6   17.13    1.03
   1  -7  -5    2.69    0.60
   1  -7  -4    0.38    0.39
   1  -7  -3    0.22    0.39
   1  -7  -2    1.37    0.49
   1  -8  -2   -0.28    0.35
   1  -8  -3    4.69    0.86
   1  -8  -4    1.81    0.50
   1  -8  -5    1.76    0.56
   1  -8  -6   -0.43    0.35
   1  -8  -7    0.04    0.42
   1  -8  -8    3.73    0.66
   1  -8  -9    4.30    0.73
   1  -8 -10    1.22    0.48
   1  -8 -11    3.56    0.70
   1  -8 -12    0.09    0.43
   1  -8 -13    0.73    0.59
   1  -8 -14    3.18    0.88
   1  -8 -15    5.15    0.89
   1  -8 -16    6.46    0.89
   1  -8 -17   -0.19    0.34
   1  -8 -18    0.44    0.42
   1  -8 -19    1.34    0.71
   1  -8 -20   -0.08    0.40
   1  -8 -21    0.40    0.46
   1  -9 -10   -0.20    0.56
   1  -9  -9    6.78    0.95
   1  -9  -8    6.66    0.95
   1  -9  -7   -0.24    0.49
   1  -9  -6    1.48    0.71
   1  -9  -5   -0.04    0.45
   1  -9  -4    0.86    0.58
   1  -9  -3   -0.53    0.29
   1  -9  -2    2.58    0.86
   0   0   0    0.00    0.00
;
_shelx_hkl_checksum              7872
loop_
_space_group_symop_operation_xyz
'x, y, z'
'-x+1/2, y+1/2, -z+1/2'
'-x, -y, -z'
'x-1/2, -y-1/2, z-1/2'
loop_
_atom_site_label
_atom_site_type_symbol
_atom_site_fract_x
_atom_site_fract_y
_atom_site_fract_z
_atom_site_U_iso_or_equiv
_atom_site_adp_type
_atom_site_occupancy
_atom_site_site_symmetry_order
_atom_site_calc_flag
_atom_site_refinement_flags_posn
_atom_site_refinement_flags_adp
C1 C 0.2594(5) 0.1151(5) 0.06949(10) 0.0468(9) Uani 1 1 d . .
H1A H 0.2657 0.0566 0.0464 0.056 Uiso 1 1 calc R U
C2 C 0.3212(5) 0.2798(5) 0.07278(10) 0.0464(9) Uani 1 1 d . .
C3 C 0.3054(5) 0.3659(5) 0.10671(10) 0.0468(9) Uani 1 1 d . .
H3A H 0.3430 0.4774 0.1084 0.056 Uiso 1 1 calc R U
C4 C 0.2341(4) 0.2890(5) 0.13856(9) 0.0415(9) Uani 1 1 d . .
C4A C 0.1786(4) 0.1227(4) 0.13706(9) 0.0352(8) Uani 1 1 d . .
C4B C 0.0996(4) 0.0038(4) 0.16503(9) 0.0348(8) Uani 1 1 d . .
C5 C 0.0705(4) 0.0040(4) 0.20417(9) 0.0369(8) Uani 1 1 d . .
C6 C -0.0205(4) -0.1224(4) 0.22189(9) 0.0387(8) Uani 1 1 d . .
H6A H -0.0399 -0.1194 0.2481 0.046 Uiso 1 1 calc R U
C7 C -0.0817(4) -0.2530(5) 0.19976(10) 0.0403(8) Uani 1 1 d . .
C8 C -0.0503(5) -0.2669(4) 0.16103(10) 0.0436(9) Uani 1 1 d . .
H8A H -0.0901 -0.3580 0.1467 0.052 Uiso 1 1 calc R U
C8A C 0.0429(4) -0.1393(4) 0.14459(9) 0.0386(8) Uani 1 1 d . .
C9 C 0.1015(5) -0.1271(5) 0.10415(10) 0.0454(9) Uani 1 1 d . .
C9A C 0.1882(5) 0.0403(5) 0.10142(10) 0.0429(9) Uani 1 1 d . .
O10 O 0.0843(4) -0.2332(4) 0.07940(8) 0.0687(9) Uani 1 1 d . .
C11 C 0.3959(5) 0.3742(6) 0.04003(11) 0.0534(10) Uani 1 1 d . .
O12 O 0.4007(4) 0.2913(4) 0.00785(8) 0.0750(10) Uani 1 1 d . .
H12 H 0.4609 0.3591 -0.0076 0.112 Uiso 1 1 d R U
O13 O 0.4468(4) 0.5202(4) 0.04428(8) 0.0666(9) Uani 1 1 d . .
N14 N 0.1981(5) 0.4017(5) 0.17083(10) 0.0646(10) Uani 1 1 d . .
O15 O 0.0621(4) 0.3792(4) 0.18751(9) 0.0692(9) Uani 1 1 d . .
O16 O 0.2968(5) 0.5145(5) 0.17827(10) 0.0971(13) Uani 1 1 d . .
N17 N 0.1500(5) 0.1284(4) 0.22989(9) 0.0540(9) Uani 1 1 d . .
O18 O 0.0697(4) 0.1832(4) 0.25675(7) 0.0656(8) Uani 1 1 d . .
O19 O 0.2968(4) 0.1670(4) 0.22240(9) 0.0721(9) Uani 1 1 d . .
N20 N -0.1828(4) -0.3869(4) 0.21841(9) 0.0482(8) Uani 1 1 d . .
O21 O -0.2660(4) -0.4800(4) 0.19796(8) 0.0601(8) Uani 1 1 d . .
O22 O -0.1789(4) -0.3959(4) 0.25332(8) 0.0671(9) Uani 1 1 d . .
S23 S 0.62603(16) -0.15486(15) 0.09560(3) 0.0665(4) Uani 1 1 d . .
C24 C 0.5414(5) -0.1894(6) 0.14087(14) 0.0659(12) Uani 1 1 d . .
H24A H 0.4883 -0.2913 0.1466 0.079 Uiso 1 1 calc R U
C25 C 0.5540(5) -0.0687(6) 0.16654(14) 0.0618(12) Uani 1 1 d . .
H25A H 0.5101 -0.0823 0.1909 0.074 Uiso 1 1 calc R U
S26 S 0.65547(14) 0.11721(14) 0.15357(3) 0.0545(3) Uani 1 1 d . .
C27 C 0.6921(5) 0.0517(5) 0.10612(10) 0.0473(9) Uani 1 1 d . .
C28 C 0.7644(5) 0.1553(5) 0.08012(10) 0.0484(10) Uani 1 1 d . .
S29 S 0.80821(18) 0.09091(17) 0.03299(3) 0.0751(4) Uani 1 1 d . .
C30 C 0.8616(7) 0.2936(8) 0.01798(14) 0.0861(16) Uani 1 1 d . .
H30A H 0.8833 0.3156 -0.0077 0.103 Uiso 1 1 calc R U
C31 C 0.8706(7) 0.4144(7) 0.04336(14) 0.0829(16) Uani 1 1 d . .
H31A H 0.9013 0.5241 0.0364 0.100 Uiso 1 1 calc R U
S32 S 0.82364(15) 0.36462(14) 0.09036(3) 0.0608(3) Uani 1 1 d . .
loop_
_atom_site_aniso_label
_atom_site_aniso_U_11
_atom_site_aniso_U_22
_atom_site_aniso_U_33
_atom_site_aniso_U_23
_atom_site_aniso_U_13
_atom_site_aniso_U_12
C1 0.060(2) 0.049(2) 0.0317(18) 0.0022(16) 0.0065(16) -0.0089(19)
C2 0.049(2) 0.053(2) 0.0379(19) 0.0081(17) 0.0077(16) -0.0092(19)
C3 0.053(2) 0.043(2) 0.044(2) 0.0045(17) 0.0032(17) -0.0131(19)
C4 0.047(2) 0.042(2) 0.0357(18) -0.0010(16) 0.0057(16) -0.0086(17)
C4A 0.0358(18) 0.0385(19) 0.0315(17) 0.0042(15) 0.0037(14) 0.0002(16)
C4B 0.0342(18) 0.0350(18) 0.0354(17) 0.0037(15) 0.0030(14) 0.0031(15)
C5 0.0388(19) 0.0403(19) 0.0316(17) -0.0007(15) 0.0017(15) 0.0003(16)
C6 0.0385(19) 0.046(2) 0.0316(17) 0.0043(16) 0.0050(14) 0.0061(17)
C7 0.041(2) 0.040(2) 0.0401(19) 0.0100(16) 0.0092(16) 0.0005(17)
C8 0.055(2) 0.0333(19) 0.042(2) 0.0018(16) 0.0037(17) -0.0044(18)
C8A 0.044(2) 0.0376(19) 0.0344(17) 0.0040(16) 0.0051(15) 0.0020(17)
C9 0.059(2) 0.043(2) 0.0349(18) -0.0004(17) 0.0073(17) -0.0050(19)
C9A 0.048(2) 0.044(2) 0.0360(18) 0.0029(16) 0.0061(16) -0.0068(18)
O10 0.108(2) 0.0540(17) 0.0437(15) -0.0124(14) 0.0224(15) -0.0247(18)
C11 0.062(3) 0.059(3) 0.039(2) 0.008(2) 0.0071(18) -0.014(2)
O12 0.111(3) 0.073(2) 0.0409(16) 0.0045(15) 0.0220(16) -0.0347(19)
O13 0.092(2) 0.0609(19) 0.0468(16) 0.0076(14) 0.0138(15) -0.0302(17)
N14 0.092(3) 0.050(2) 0.052(2) -0.0020(17) 0.016(2) -0.014(2)
O15 0.084(2) 0.0568(18) 0.0665(19) 0.0010(15) 0.0207(17) 0.0130(17)
O16 0.137(3) 0.078(2) 0.076(2) -0.0277(19) 0.030(2) -0.062(2)
N17 0.062(2) 0.058(2) 0.0417(18) 0.0008(16) -0.0022(16) -0.0106(19)
O18 0.090(2) 0.0700(19) 0.0369(14) -0.0144(14) 0.0169(15) -0.0128(17)
O19 0.0573(19) 0.087(2) 0.072(2) -0.0101(18) -0.0114(16) -0.0109(18)
N20 0.0471(19) 0.0455(18) 0.052(2) 0.0063(16) 0.0109(15) -0.0027(16)
O21 0.0657(18) 0.0532(17) 0.0616(18) 0.0002(14) 0.0137(15) -0.0178(15)
O22 0.074(2) 0.081(2) 0.0456(16) 0.0186(15) 0.0090(14) -0.0199(17)
S23 0.0802(8) 0.0514(6) 0.0680(7) -0.0041(5) -0.0005(6) -0.0172(6)
C24 0.054(3) 0.064(3) 0.079(3) 0.021(3) 0.000(2) -0.012(2)
C25 0.047(2) 0.074(3) 0.064(3) 0.022(3) 0.008(2) 0.002(2)
S26 0.0618(7) 0.0567(7) 0.0450(5) 0.0008(5) 0.0048(5) 0.0014(5)
C27 0.050(2) 0.046(2) 0.046(2) -0.0004(18) -0.0008(18) -0.0008(19)
C28 0.054(2) 0.051(2) 0.0395(19) -0.0034(18) -0.0022(17) -0.010(2)
S29 0.1050(10) 0.0767(8) 0.0435(6) -0.0086(6) 0.0071(6) -0.0172(7)
C30 0.111(4) 0.102(4) 0.046(3) 0.013(3) 0.010(3) -0.029(4)
C31 0.104(4) 0.077(3) 0.068(3) 0.018(3) 0.009(3) -0.032(3)
S32 0.0791(8) 0.0507(6) 0.0528(6) 0.0011(5) -0.0034(5) -0.0155(6)
loop_
_atom_type_symbol
_atom_type_description
_atom_type_scat_dispersion_real
_atom_type_scat_dispersion_imag
_atom_type_scat_source
C C 0.0033 0.0016 'International Tables Vol C Tables 4.2.6.8 and 6.1.1.4'
H H 0.0000 0.0000 'International Tables Vol C Tables 4.2.6.8 and 6.1.1.4'
N N 0.0061 0.0033 'International Tables Vol C Tables 4.2.6.8 and 6.1.1.4'
O O 0.0106 0.0060 'International Tables Vol C Tables 4.2.6.8 and 6.1.1.4'
S S 0.1246 0.1234 'International Tables Vol C Tables 4.2.6.8 and 6.1.1.4'
loop_
_geom_angle_atom_site_label_1
_geom_angle_atom_site_label_2
_geom_angle_atom_site_label_3
_geom_angle
C9A C1 C2 118.4(3)
C9A C1 H1A 120.8
C2 C1 H1A 120.8
C3 C2 C1 119.8(3)
C3 C2 C11 117.1(3)
C1 C2 C11 122.9(3)
C2 C3 C4 121.1(3)
C2 C3 H3A 119.5
C4 C3 H3A 119.5
C4A C4 C3 120.9(3)
C4A C4 N14 122.6(3)
C3 C4 N14 115.8(3)
C4 C4A C9A 116.8(3)
C4 C4A C4B 134.8(3)
C9A C4A C4B 108.3(3)
C5 C4B C8A 116.5(3)
C5 C4B C4A 135.7(3)
C8A C4B C4A 107.8(3)
C6 C5 C4B 122.1(3)
C6 C5 N17 115.7(3)
C4B C5 N17 121.9(3)
C7 C6 C5 118.3(3)
C7 C6 H6A 120.9
C5 C6 H6A 120.9
C6 C7 C8 123.0(3)
C6 C7 N20 118.6(3)
C8 C7 N20 118.4(3)
C8A C8 C7 116.8(3)
C8A C8 H8A 121.6
C7 C8 H8A 121.6
C8 C8A C4B 123.1(3)
C8 C8A C9 127.9(3)
C4B C8A C9 109.1(3)
O10 C9 C9A 128.0(3)
O10 C9 C8A 126.6(3)
C9A C9 C8A 105.4(3)
C1 C9A C4A 122.7(3)
C1 C9A C9 128.3(3)
C4A C9A C9 108.9(3)
O13 C11 O12 124.2(4)
O13 C11 C2 120.5(4)
O12 C11 C2 115.3(4)
C11 O12 H12 103.9
O16 N14 O15 124.9(4)
O16 N14 C4 118.5(4)
O15 N14 C4 116.5(3)
O18 N17 O19 125.3(3)
O18 N17 C5 118.4(3)
O19 N17 C5 116.3(3)
O21 N20 O22 124.2(3)
O21 N20 C7 117.9(3)
O22 N20 C7 117.9(3)
C24 S23 C27 94.2(2)
C25 C24 S23 118.6(4)
C25 C24 H24A 120.7
S23 C24 H24A 120.7
C24 C25 S26 117.9(4)
C24 C25 H25A 121.1
S26 C25 H25A 121.1
C25 S26 C27 94.5(2)
C28 C27 S23 123.3(3)
C28 C27 S26 121.9(3)
S23 C27 S26 114.7(2)
C27 C28 S32 123.1(3)
C27 C28 S29 122.8(3)
S32 C28 S29 114.1(2)
C30 S29 C28 93.9(2)
C31 C30 S29 118.6(4)
C31 C30 H30A 120.7
S29 C30 H30A 120.7
C30 C31 S32 118.0(4)
C30 C31 H31A 121.0
S32 C31 H31A 121.0
C31 S32 C28 94.5(2)
loop_
_geom_bond_atom_site_label_1
_geom_bond_atom_site_label_2
_geom_bond_distance
C1 C9A 1.386(5)
C1 C2 1.392(5)
C1 H1A 0.9300
C2 C3 1.372(5)
C2 C11 1.491(5)
C3 C4 1.391(5)
C3 H3A 0.9300
C4 C4A 1.383(5)
C4 N14 1.464(5)
C4A C9A 1.407(5)
C4A C4B 1.495(4)
C4B C5 1.389(4)
C4B C8A 1.408(5)
C5 C6 1.382(5)
C5 N17 1.474(5)
C6 C7 1.376(5)
C6 H6A 0.9300
C7 C8 1.382(5)
C7 N20 1.482(5)
C8 C8A 1.378(5)
C8 H8A 0.9300
C8A C9 1.494(5)
C9 O10 1.210(4)
C9 C9A 1.492(5)
C11 O13 1.228(5)
C11 O12 1.301(5)
O12 H12 0.9011
N14 O16 1.218(4)
N14 O15 1.252(4)
N17 O18 1.219(4)
N17 O19 1.246(4)
N20 O21 1.222(4)
N20 O22 1.223(4)
S23 C24 1.745(5)
S23 C27 1.749(4)
C24 C25 1.310(6)
C24 H24A 0.9300
C25 S26 1.735(5)
C25 H25A 0.9300
S26 C27 1.762(4)
C27 C28 1.353(5)
C28 S32 1.751(4)
C28 S29 1.760(4)
S29 C30 1.733(6)
C30 C31 1.302(7)
C30 H30A 0.9300
C31 S32 1.731(5)
C31 H31A 0.9300
loop_
_geom_hbond_atom_site_label_D
_geom_hbond_atom_site_label_H
_geom_hbond_atom_site_label_A
_geom_hbond_distance_DH
_geom_hbond_distance_HA
_geom_hbond_distance_DA
_geom_hbond_angle_DHA
_geom_hbond_site_symmetry_A
C8 H8A S32 0.93 3.02 3.940(4) 170.3 1_445
O12 H12 O13 0.90 1.76 2.651(4) 169.7 3_665
C24 H24A O16 0.93 2.43 3.317(5) 158.3 1_545
C30 H30A O10 0.93 2.60 3.466(6) 154.3 3_655
loop_
_geom_torsion_atom_site_label_1
_geom_torsion_atom_site_label_2
_geom_torsion_atom_site_label_3
_geom_torsion_atom_site_label_4
_geom_torsion
C9A C1 C2 C3 -2.3(6)
C9A C1 C2 C11 -178.2(4)
C1 C2 C3 C4 2.5(6)
C11 C2 C3 C4 178.7(4)
C2 C3 C4 C4A 0.7(6)
C2 C3 C4 N14 -169.9(4)
C3 C4 C4A C9A -3.9(5)
N14 C4 C4A C9A 166.1(3)
C3 C4 C4A C4B 179.4(4)
N14 C4 C4A C4B -10.6(6)
C4 C4A C4B C5 -10.3(7)
C9A C4A C4B C5 172.9(4)
C4 C4A C4B C8A 169.1(4)
C9A C4A C4B C8A -7.7(4)
C8A C4B C5 C6 -4.9(5)
C4A C4B C5 C6 174.4(4)
C8A C4B C5 N17 168.2(3)
C4A C4B C5 N17 -12.4(6)
C4B C5 C6 C7 0.8(5)
N17 C5 C6 C7 -172.7(3)
C5 C6 C7 C8 2.8(5)
C5 C6 C7 N20 -178.6(3)
C6 C7 C8 C8A -1.9(5)
N20 C7 C8 C8A 179.5(3)
C7 C8 C8A C4B -2.6(5)
C7 C8 C8A C9 176.8(3)
C5 C4B C8A C8 5.9(5)
C4A C4B C8A C8 -173.6(3)
C5 C4B C8A C9 -173.6(3)
C4A C4B C8A C9 6.9(4)
C8 C8A C9 O10 -4.4(7)
C4B C8A C9 O10 175.0(4)
C8 C8A C9 C9A 176.9(4)
C4B C8A C9 C9A -3.6(4)
C2 C1 C9A C4A -1.1(6)
C2 C1 C9A C9 174.4(4)
C4 C4A C9A C1 4.2(5)
C4B C4A C9A C1 -178.3(3)
C4 C4A C9A C9 -172.1(3)
C4B C4A C9A C9 5.4(4)
O10 C9 C9A C1 4.1(7)
C8A C9 C9A C1 -177.3(4)
O10 C9 C9A C4A -179.9(4)
C8A C9 C9A C4A -1.3(4)
C3 C2 C11 O13 3.0(6)
C1 C2 C11 O13 179.0(4)
C3 C2 C11 O12 -176.5(4)
C1 C2 C11 O12 -0.4(6)
C4A C4 N14 O16 151.4(4)
C3 C4 N14 O16 -38.1(5)
C4A C4 N14 O15 -32.3(5)
C3 C4 N14 O15 138.2(4)
C6 C5 N17 O18 -43.2(5)
C4B C5 N17 O18 143.3(4)
C6 C5 N17 O19 135.8(4)
C4B C5 N17 O19 -37.7(5)
C6 C7 N20 O21 164.3(3)
C8 C7 N20 O21 -17.1(5)
C6 C7 N20 O22 -14.9(5)
C8 C7 N20 O22 163.7(3)
C27 S23 C24 C25 -1.6(4)
S23 C24 C25 S26 -0.2(5)
C24 C25 S26 C27 2.0(4)
C24 S23 C27 C28 -176.5(4)
C24 S23 C27 S26 2.9(3)
C25 S26 C27 C28 176.4(4)
C25 S26 C27 S23 -3.0(3)
S23 C27 C28 S32 177.7(2)
S26 C27 C28 S32 -1.7(5)
S23 C27 C28 S29 -2.7(5)
S26 C27 C28 S29 178.0(2)
C27 C28 S29 C30 170.9(4)
S32 C28 S29 C30 -9.4(3)
C28 S29 C30 C31 6.7(5)
S29 C30 C31 S32 -1.5(7)
C30 C31 S32 C28 -4.6(5)
C27 C28 S32 C31 -171.4(4)
S29 C28 S32 C31 8.9(3)
