#------------------------------------------------------------------------------
#$Date: 2015-09-03 03:29:13 +0300 (Thu, 03 Sep 2015) $
#$Revision: 153900 $
#$URL: svn://www.crystallography.net/cod/cif/1/52/95/1529502.cif $
#------------------------------------------------------------------------------
#
# This file is available in the Crystallography Open Database (COD),
# http://www.crystallography.net/
#
# All data on this site have been placed in the public domain by the
# contributors.
#
data_1529502
loop_
_publ_author_name
'N.N. Golovnev'
'M.S. Molokeev'
'I.V. Sterkhova'
'Yu.V. Goryunov'
'V.V. Atuchin'
_publ_section_title
;
 New class of bicyclic compounds derived from thiobarbituric acid with
 representative compound 1,3-diethyl-7-hydroxy-5,5,7-trimethyl-
 2-thioxo-1,2,3,5,6,7-hexahydro-4H-pyrano[2,3-d]pyrimidin-4-one.
 Preparation, crystal structure, mass spectrometry and IR spectroscopy.
;
_journal_issue                   0
_journal_name_full               'Journal of Molecular Structure'
_journal_page_first              101
_journal_page_last               107
_journal_paper_doi               10.1016/j.molstruc.2015.08.046
_journal_volume                  1102
_journal_year                    2015
_chemical_absolute_configuration ad
_chemical_formula_moiety         'C14 H22 N2 O3 S'
_chemical_formula_sum            'C14 H22 N2 O3 S'
_chemical_formula_weight         298.39
_chemical_name_common
;
1,3-diethyl-7-hydroxy-5,5,7-trimethyl-2-thioxo-1,2,3,5,6,7-hexahydro
-4H-pyrano[2,3-d]pyrimidin-4-one
;
_space_group_crystal_system      orthorhombic
_space_group_IT_number           19
_space_group_name_Hall           'P 2ac 2ab'
_space_group_name_H-M_alt        'P 21 21 21'
_symmetry_space_group_name_Hall  'P 2ac 2ab'
_symmetry_space_group_name_H-M   'P 21 21 21'
_atom_sites_solution_hydrogens   mixed
_audit_creation_method           SHELXL-2014/7
_cell_angle_alpha                90
_cell_angle_beta                 90
_cell_angle_gamma                90
_cell_formula_units_Z            4
_cell_length_a                   9.7454(4)
_cell_length_b                   11.2225(4)
_cell_length_c                   13.9171(5)
_cell_measurement_temperature    296(2)
_cell_volume                     1522.08(10)
_computing_cell_refinement       'APEX2 (Bruker, 2003-2008)'
_computing_data_collection       'APEX2 (Bruker, 2003-2008)'
_computing_data_reduction        'SAINT (Bruker, 2009)'
_computing_molecular_graphics    'DIAMOND (Brandenburg, 2005)'
_computing_publication_material  'publCIF (Westrip, 2009)'
_computing_structure_refinement  'SHELXL-2014/7 (Sheldrick, 2014)'
_computing_structure_solution    'SHELXS-97 (Sheldrick, 2008)'
_diffrn_ambient_temperature      296(2)
_diffrn_measured_fraction_theta_full 0.999
_diffrn_measured_fraction_theta_max 1.000
_diffrn_measurement_device_type  'Bruker APEX-II CCD'
_diffrn_measurement_method       '\f and \w scans'
_diffrn_radiation_source         'sealed tube'
_diffrn_radiation_type           MoK\a
_diffrn_radiation_wavelength     0.71073
_diffrn_reflns_av_R_equivalents  0.0476
_diffrn_reflns_av_unetI/netI     0.0480
_diffrn_reflns_laue_measured_fraction_full 0.999
_diffrn_reflns_laue_measured_fraction_max 1.000
_diffrn_reflns_limit_h_max       11
_diffrn_reflns_limit_h_min       -13
_diffrn_reflns_limit_k_max       15
_diffrn_reflns_limit_k_min       -15
_diffrn_reflns_limit_l_max       18
_diffrn_reflns_limit_l_min       -19
_diffrn_reflns_number            18798
_diffrn_reflns_point_group_measured_fraction_full 1.000
_diffrn_reflns_point_group_measured_fraction_max 0.998
_diffrn_reflns_theta_full        25.242
_diffrn_reflns_theta_max         30.084
_diffrn_reflns_theta_min         2.331
_exptl_absorpt_coefficient_mu    0.222
_exptl_absorpt_correction_T_max  0.7460
_exptl_absorpt_correction_T_min  0.6612
_exptl_absorpt_correction_type   multi-scan
_exptl_absorpt_process_details
;
SADABS-2004/1. Bruker AXS Inc., Madison, Wisconsin, USA, 2004
;
_exptl_crystal_colour            colourless
_exptl_crystal_density_diffrn    1.302
_exptl_crystal_description       block
_exptl_crystal_F_000             640
_exptl_crystal_size_max          0.410
_exptl_crystal_size_mid          0.230
_exptl_crystal_size_min          0.220
_refine_diff_density_max         0.585
_refine_diff_density_min         -0.269
_refine_diff_density_rms         0.063
_refine_ls_abs_structure_details
;
 Flack x determined using 1506 quotients [(I+)-(I-)]/[(I+)+(I-)]
 (Parsons, Flack and Wagner, Acta Cryst. B69 (2013) 249-259).
;
_refine_ls_abs_structure_Flack   -0.01(3)
_refine_ls_extinction_coef       .
_refine_ls_extinction_method     none
_refine_ls_goodness_of_fit_ref   1.034
_refine_ls_hydrogen_treatment    mixed
_refine_ls_matrix_type           full
_refine_ls_number_parameters     190
_refine_ls_number_reflns         4473
_refine_ls_number_restraints     0
_refine_ls_restrained_S_all      1.034
_refine_ls_R_factor_all          0.0534
_refine_ls_R_factor_gt           0.0417
_refine_ls_shift/su_max          0.001
_refine_ls_shift/su_mean         0.000
_refine_ls_structure_factor_coef Fsqd
_refine_ls_weighting_details
'w=1/[\s^2^(Fo^2^)+(0.0444P)^2^+0.4465P] where P=(Fo^2^+2Fc^2^)/3'
_refine_ls_weighting_scheme      calc
_refine_ls_wR_factor_gt          0.0899
_refine_ls_wR_factor_ref         0.0950
_reflns_Friedel_coverage         0.762
_reflns_friedel_fraction_full    1.000
_reflns_friedel_fraction_max     0.997
_reflns_number_gt                3918
_reflns_number_total             4473
_reflns_threshold_expression     'I > 2\s(I)'
_cod_data_source_file            C14H22N2O3S.cif
_cod_data_source_block           c
_cod_database_code               1529502
_shelx_shelxl_version_number     2014/7
_shelx_space_group_comment
;
The symmetry employed for this shelxl refinement is uniquely defined
by the following loop, which should always be used as a source of
symmetry information in preference to the above space-group names.
They are only intended as comments.
;
_shelx_estimated_absorpt_t_min   0.915
_shelx_estimated_absorpt_t_max   0.953
_shelx_res_file
;

    c.res created by SHELXL-2014/7

TITL C14H22N2O3S in P2(1)2(1)2(1)
CELL 0.71073 9.7454 11.2225 13.9171 90.000 90.000 90.000
ZERR 4.00 0.0004 0.0004 0.0005 0.000 0.000 0.000
LATT -1
SYMM x+1/2, -y+1/2, -z
SYMM -x, y+1/2, -z+1/2
SYMM -x+1/2, -y, z+1/2
SFAC C  H  N  O  S
UNIT 56  88  8  12  4
L.S. 10
ACTA
BOND $H
FMAP 2
PLAN -4
EQIV $2 -x+3/2, -y+1, z-1/2
HTAB O2 O3_$2
SIZE 0.220 0.230 0.410
HTAB
CONF
OMIT 0 6 3
TEMP 23.000
WGHT    0.044400    0.446500
FVAR       0.19891
S     5    1.253917    0.449681    0.805280    11.00000    0.01217    0.01831 =
         0.02501   -0.00113    0.00099   -0.00127
O1    4    0.773732    0.323566    0.764790    11.00000    0.01073    0.01803 =
         0.01474   -0.00496   -0.00198   -0.00008
O2    4    0.903578    0.511551    1.056110    11.00000    0.02587    0.02975 =
         0.01103   -0.00466   -0.00025   -0.00714
O3    4    0.596646    0.461435    0.752849    11.00000    0.02402    0.01837 =
         0.01515    0.00176   -0.00069    0.00451
H3    2    0.593298    0.464993    0.686567    11.00000    0.04912
N1    3    1.059450    0.467050    0.939909    11.00000    0.01542    0.01300 =
         0.01394   -0.00033   -0.00354   -0.00282
N3    3    0.990367    0.385568    0.793732    11.00000    0.01400    0.01098 =
         0.01252   -0.00036   -0.00193    0.00073
C2    1    1.094778    0.433287    0.848152    11.00000    0.01577    0.01052 =
         0.01563    0.00283   -0.00327    0.00119
C4    1    0.857868    0.374910    0.828707    11.00000    0.01418    0.00834 =
         0.01271    0.00237   -0.00281    0.00097
C5    1    0.820324    0.413674    0.917359    11.00000    0.01577    0.00923 =
         0.01306    0.00251    0.00020   -0.00056
C6    1    0.923899    0.466474    0.975903    11.00000    0.02012    0.01087 =
         0.01277    0.00168   -0.00144   -0.00213
C7    1    1.166205    0.516151    1.004954    11.00000    0.01892    0.01996 =
         0.01923   -0.00171   -0.00945   -0.00302
AFIX  23
H7A   2    1.253362    0.478110    0.991097    11.00000   -1.20000
H7B   2    1.142084    0.497874    1.070949    11.00000   -1.20000
AFIX   0
C8    1    1.181598    0.649825    0.993958    11.00000    0.02379    0.02218 =
         0.02458   -0.00303   -0.00587   -0.00750
AFIX 137
H8A   2    1.205096    0.668327    0.928652    11.00000   -1.50000
H8B   2    1.252818    0.677757    1.035956    11.00000   -1.50000
H8C   2    1.096634    0.688074    1.010301    11.00000   -1.50000
AFIX   0
C9    1    1.021755    0.342800    0.695266    11.00000    0.01595    0.01960 =
         0.01047   -0.00026    0.00104    0.00098
AFIX  23
H9A   2    1.092233    0.392872    0.667125    11.00000   -1.20000
H9B   2    0.940141    0.349150    0.655700    11.00000   -1.20000
AFIX   0
C10   1    1.070641    0.214202    0.696164    11.00000    0.02492    0.01788 =
         0.01843   -0.00443    0.00076    0.00002
AFIX 137
H10A  2    1.152933    0.208167    0.733766    11.00000   -1.50000
H10B  2    1.089043    0.188755    0.631580    11.00000   -1.50000
H10C  2    1.000824    0.164455    0.723713    11.00000   -1.50000
AFIX   0
C11   1    0.672956    0.405816    0.952956    11.00000    0.01567    0.01312 =
         0.01147    0.00070    0.00013   -0.00133
C12   1    0.664530    0.345828    1.052366    11.00000    0.02491    0.03063 =
         0.01738    0.00975    0.00198   -0.00684
AFIX 137
H12A  2    0.714929    0.272343    1.051233    11.00000   -1.50000
H12B  2    0.570288    0.329915    1.067812    11.00000   -1.50000
H12C  2    0.703123    0.397851    1.099990    11.00000   -1.50000
AFIX   0
C13   1    0.609718    0.531313    0.960556    11.00000    0.02362    0.02044 =
         0.01850   -0.00437    0.00474    0.00329
AFIX 137
H13A  2    0.659776    0.577204    1.007033    11.00000   -1.50000
H13B  2    0.515597    0.524913    0.980246    11.00000   -1.50000
H13C  2    0.614386    0.570006    0.899123    11.00000   -1.50000
AFIX   0
C14   1    0.591895    0.326128    0.883685    11.00000    0.01381    0.01782 =
         0.01861   -0.00064    0.00056   -0.00063
AFIX  23
H14A  2    0.609960    0.243543    0.899900    11.00000   -1.20000
H14B  2    0.494742    0.340322    0.893617    11.00000   -1.20000
AFIX   0
C15   1    0.623738    0.344264    0.779004    11.00000    0.01421    0.01928 =
         0.01882   -0.00170    0.00023    0.00070
C16   1    0.556677    0.254772    0.712848    11.00000    0.01426    0.02086 =
         0.02214   -0.00728   -0.00348    0.00091
AFIX 137
H16A  2    0.458790    0.263470    0.716113    11.00000   -1.50000
H16B  2    0.581717    0.175627    0.732281    11.00000   -1.50000
H16C  2    0.586920    0.268365    0.648121    11.00000   -1.50000
AFIX   0
HKLF 4 1 1 0 0 0 1 0 0 0 1

REM  C14H22N2O3S in P2(1)2(1)2(1)
REM R1 =  0.0417 for    3918 Fo > 4sig(Fo)  and  0.0534 for all    4473 data
REM    190 parameters refined using      0 restraints

END

WGHT      0.0445      0.3806

REM Instructions for potential hydrogen bonds
HTAB O3 O2_$2
EQIV $3 x-1, y, z
HTAB C14 S_$3

REM Highest difference peak  0.585,  deepest hole -0.269,  1-sigma level  0.063
Q1    1   0.6831  0.1744  0.8439  11.00000  0.05    0.58
Q2    1   0.6641  0.2721  0.7958  11.00000  0.05    0.34
Q3    1   0.6164  0.3592  0.8439  11.00000  0.05    0.29
Q4    1   0.6332  0.3717  0.9209  11.00000  0.05    0.29
;
_shelx_res_checksum              3503
_shelx_hkl_file
;
   2   0   0    0.18    0.07
   3   0   0    0.39    0.12
  -3   0   0    0.37    0.11
  -4   0   0   31.22    1.34
   4   0   0   30.38    1.31
  -5   0   0    0.15    0.16
   5   0   0    0.23    0.19
   6   0   0  118.39    4.50
  -6   0   0  118.01    4.54
  -7   0   0    0.34    0.28
   7   0   0    0.43    0.32
   8   0   0    7.35    0.86
  -8   0   0    6.72    0.73
  -9   0   0    0.10    0.34
   9   0   0    0.32    0.54
  10   0   0    3.16    0.80
 -10   0   0    3.05    0.65
 -11   0   0   -0.29    0.51
 -12   0   0   59.76    3.06
 -13   0   0   -0.12    0.83
   1  -1   0   41.01    1.48
   1   1   0   40.97    1.48
  -1  -1   0   39.06    1.47
  -1   1   0   39.11    1.47
   2   1   0  164.61    5.60
  -2   1   0  149.10    5.60
   2  -1   0  160.19    5.61
  -2  -1   0  154.75    5.59
  -3   1   0  462.86   16.13
   3   1   0  450.77   16.09
   3  -1   0  460.65   16.12
  -4  -1   0  171.55    6.11
  -4   1   0  172.12    6.15
   4   1   0  161.94    6.10
  -5   1   0  114.41    4.18
   5   1   0  104.48    4.11
   6   1   0    4.40    0.51
  -6   1   0    4.23    0.47
  -6  -1   0    4.48    0.48
   6  -1   0    3.57    0.49
   7  -1   0    0.21    0.31
   7   1   0    0.50    0.33
  -7   1   0    0.06    0.22
  -7  -1   0    0.15    0.24
  -8  -1   0    0.39    0.31
  -8   1   0    0.16    0.27
   8   1   0    0.00    0.40
   8  -1   0    0.09    0.41
  -9  -1   0   37.26    1.95
   9   1   0   37.37    1.95
  -9   1   0   36.90    1.95
   9  -1   0   36.89    1.96
 -10   1   0    7.57    0.93
  10   1   0    7.80    1.24
  10  -1   0    8.32    1.31
 -10  -1   0    7.26    0.94
 -11   1   0   21.40    1.60
 -11  -1   0   21.35    1.59
 -12   1   0    1.08    0.77
 -12  -1   0    1.73    0.78
 -13   1   0    1.69    0.92
 -13  -1   0    1.52    0.87
   0  -2   0  386.92   13.30
   0   2   0  378.69   13.28
   0   2   0  369.65   13.46
   0  -2   0  366.49   13.35
   0   2   0  394.64   13.30
   0  -2   0  374.63   13.43
  -1   2   0   11.75    0.50
  -1  -2   0   13.94    0.59
   1  -2   0   11.83    0.56
   1   2   0   15.05    0.60
  -1  -2   0   14.92    0.59
  -1   2   0   10.92    0.55
   2   2   0   21.17    0.94
   2  -2   0   24.02    0.96
  -2  -2   0   22.27    0.94
  -3   2   0  110.63    3.94
  -3  -2   0  112.19    3.93
   3   2   0  101.13    3.91
   3  -2   0  102.62    3.93
  -4   2   0   19.23    0.93
   4  -2   0   17.95    0.93
   4   2   0   18.58    0.91
  -4  -2   0   19.50    0.90
  -5   2   0   16.67    0.91
  -5  -2   0   16.07    0.87
   5  -2   0   18.07    0.95
   5   2   0   15.58    0.88
  -6  -2   0   52.55    2.19
   6   2   0   50.94    2.19
  -6   2   0   52.53    2.24
  -7   2   0    1.10    0.31
   7   2   0    1.49    0.39
   8   2   0   15.91    1.11
   8  -2   0   15.00    1.13
  -8   2   0   16.31    1.08
  -8  -2   0   13.70    1.03
  -9   2   0    5.28    0.78
   9  -2   0    5.15    0.79
  -9  -2   0    3.21    0.61
   9   2   0    7.00    0.95
 -10   2   0    0.48    0.47
  10  -2   0    0.65    0.75
 -10  -2   0    0.31    0.43
 -11   2   0    0.97    0.61
 -11  -2   0    1.57    0.63
 -12  -2   0   21.47    1.77
 -12   2   0   24.38    1.81
 -13   2   0    0.97    0.83
 -13  -2   0    2.17    0.94
   0   3   0    0.05    0.05
   0  -3   0    0.11    0.07
   0   3   0    0.11    0.09
   0  -3   0    0.02    0.04
   1  -3   0  207.39    7.88
   1   3   0  231.32    7.93
  -1   3   0  210.97    7.76
  -1  -3   0  230.70    7.90
  -1  -3   0  228.66    7.87
  -1   3   0  225.09    7.91
  -2  -3   0   11.91    0.62
   2   3   0   11.37    0.62
   2  -3   0   11.85    0.61
  -2   3   0   13.66    0.62
  -2  -3   0   11.44    0.63
   3   3   0   76.76    3.03
  -3  -3   0   82.09    3.04
  -3   3   0   83.02    3.05
   3  -3   0   78.02    3.04
  -4  -3   0    1.83    0.28
   4   3   0    1.90    0.32
   4  -3   0    1.99    0.32
  -4   3   0    1.74    0.25
  -5   3   0    8.63    0.58
  -5  -3   0    6.44    0.52
   5  -3   0    8.14    0.63
   5   3   0    6.63    0.58
   6   3   0    7.85    0.66
  -6   3   0    6.80    0.60
  -6  -3   0    7.49    0.60
   6  -3   0    7.12    0.69
  -7  -3   0    1.69    0.48
   7   3   0    1.96    0.45
  -7  -3   0    1.31    0.33
  -7   3   0    1.75    0.36
  -8   3   0    3.84    0.61
   8   3   0    3.26    0.61
   9   3   0   25.68    1.62
  -9   3   0   27.85    1.57
   9  -3   0   25.08    1.70
  10   3   0    0.73    0.69
 -10  -3   0    0.55    0.54
 -11  -3   0   25.35    1.81
 -11   3   0   24.77    1.65
 -12   3   0    1.71    0.68
 -12  -3   0    3.33    0.85
 -13  -3   0    0.36    0.83
   0  -4   0    6.94    0.42
   0  -4   0    6.75    0.31
   0   4   0    6.83    0.41
   0  -4   0    6.32    0.43
  -1   4   0  163.97    5.71
   1  -4   0  159.40    5.75
  -1  -4   0  165.92    5.76
   1  -4   0  152.38    5.70
  -1   4   0  153.00    5.53
   1  -4   0  157.53    5.54
   1   4   0  156.87    5.74
  -1  -4   0  156.05    5.71
  -1  -4   0  156.91    5.65
  -2   4   0   21.01    0.87
  -2  -4   0   24.92    1.08
   2   4   0   23.04    1.06
  -2  -4   0   23.33    1.04
  -2   4   0   23.34    1.02
   2  -4   0   21.61    1.03
  -3   4   0    0.43    0.14
  -3  -4   0    0.63    0.18
   3   4   0    0.81    0.23
  -3  -4   0    0.72    0.22
   3  -4   0    0.94    0.20
  -4   4   0    9.87    0.61
  -4  -4   0    8.35    0.67
  -4  -4   0    8.91    0.60
   4  -4   0    9.01    0.64
   4   4   0    9.64    0.65
   5  -4   0   38.99    1.82
   5   4   0   39.42    1.79
  -5  -4   0   40.10    1.89
  -5   4   0   40.79    1.79
  -5  -4   0   42.68    1.80
  -6  -4   0  184.47    6.63
  -6  -4   0  178.09    6.76
   6  -4   0  174.45    6.67
   6   4   0  173.62    6.61
  -6   4   0  175.57    6.62
  -7  -4   0    0.22    0.39
  -7   4   0    0.20    0.25
   7  -4   0    0.24    0.37
  -7  -4   0    0.42    0.29
   7   4   0    0.34    0.37
   8  -4   0    4.04    0.69
  -8  -4   0    4.21    0.77
   8   4   0    3.79    0.67
  -8  -4   0    4.06    0.62
  -8   4   0    3.90    0.60
  -9   4   0    8.91    0.88
   9   4   0    9.89    1.20
 -10   4   0    2.50    0.60
 -10   4   0    2.46    0.82
  10   4   0    1.26    0.84
 -11  -4   0   11.46    1.38
 -11   4   0    8.50    1.07
 -12   4   0    0.93    0.64
 -12  -4   0    0.03    0.75
 -13  -4   0    1.92    1.02
 -13   4   0    1.48    0.80
   0  -5   0    0.27    0.08
   0   5   0    0.39    0.13
   0  -5   0    0.46    0.15
   0  -5   0    0.28    0.12
   1  -5   0    1.53    0.25
  -1   5   0    1.22    0.20
  -1  -5   0    1.14    0.23
  -1  -5   0    1.16    0.19
   1  -5   0    1.35    0.11
   1   5   0    0.88    0.23
   1  -5   0    1.30    0.25
  -1  -5   0    1.35    0.27
  -1   5   0    0.92    0.11
   2  -5   0    9.42    0.60
  -2   5   0    9.28    0.56
  -2  -5   0   10.12    0.61
   2   5   0    9.80    0.64
  -2   5   0    8.92    0.39
  -2  -5   0    9.33    0.62
  -2  -5   0    9.04    0.56
   3   5   0   48.08    2.04
  -3   5   0   49.06    1.99
  -3  -5   0   47.92    2.03
  -3  -5   0   48.45    2.02
   3  -5   0   48.98    2.02
  -3   5   0   46.38    1.80
  -4  -5   0   14.25    0.85
  -4  -5   0   14.74    0.91
   4   5   0   13.82    0.87
  -4   5   0   13.62    0.80
   4  -5   0   12.58    0.82
  -5   5   0   34.60    1.66
   5   5   0   36.88    1.72
   5  -5   0   35.53    1.72
  -5  -5   0   36.08    1.79
  -5  -5   0   40.44    1.72
  -6  -5   0    4.49    0.77
  -6   5   0    6.96    0.60
   6   5   0    4.98    0.71
   6  -5   0    6.57    0.72
  -6  -5   0    5.48    0.56
   7   5   0   71.80    3.12
  -7   5   0   69.84    3.07
  -7  -5   0   76.64    3.09
  -7  -5   0   73.72    3.27
   7  -5   0   72.67    3.17
  -8   5   0    3.47    0.59
  -8  -5   0    3.53    0.62
   8   5   0    2.59    0.63
   8  -5   0    3.03    0.65
  -8  -5   0    2.87    0.79
   9   5   0   11.57    1.34
  -9   5   0   11.51    1.01
  -9   5   0   10.27    1.20
  -9  -5   0   11.53    1.00
 -10   5   0    3.59    0.67
 -10   5   0    3.07    0.88
 -11   5   0    1.20    0.60
 -12   5   0   -0.04    0.73
 -12  -5   0    1.05    0.93
 -13  -5   0    0.33    1.05
 -13   5   0   -0.58    0.86
   0  -6   0   76.88    3.09
   0  -6   0   81.75    2.91
   0   6   0   79.71    3.12
   0  -6   0   84.13    3.19
   1  -6   0   11.71    0.51
   1  -6   0   12.74    0.76
  -1   6   0   12.77    0.71
  -1  -6   0   13.42    0.80
   1   6   0   12.05    0.79
  -1  -6   0   12.61    0.73
   1  -6   0   12.20    0.72
  -1  -6   0   12.42    0.62
   2  -6   0    1.17    0.26
   2   6   0    1.13    0.30
  -2  -6   0    1.81    0.33
  -2   6   0    0.62    0.17
  -2  -6   0    1.06    0.28
  -2  -6   0    1.35    0.24
  -2   6   0    0.94    0.11
   2  -6   0    1.07    0.27
  -3  -6   0    2.48    0.40
   3   6   0    2.72    0.44
   3  -6   0    2.52    0.42
  -3  -6   0    2.60    0.43
  -3   6   0    2.43    0.33
  -3   6   0    2.36    0.19
  -3  -6   0    2.05    0.35
  -4  -6   0   11.30    0.81
  -4   6   0    9.53    0.70
   4  -6   0   12.55    0.81
  -4   6   0   11.99    0.74
   4   6   0    9.99    0.83
  -4  -6   0   12.34    0.82
   5  -6   0    0.19    0.30
  -5  -6   0    0.00    0.31
  -5   6   0    0.20    0.19
   5   6   0    0.19    0.35
  -5  -6   0   -0.04    0.24
  -6  -6   0    0.31    0.28
  -6   6   0    0.69    0.28
   6  -6   0    1.21    0.46
   6   6   0    0.17    0.39
  -6  -6   0    0.04    0.41
  -7   6   0    4.67    0.59
  -7  -6   0    5.27    0.67
   7   6   0    4.14    0.70
  -7  -6   0    5.58    0.84
   7  -6   0    5.41    0.90
   8   6   0    1.84    0.64
  -8  -6   0    1.05    0.39
  -8   6   0    1.61    0.45
  -9   6   0    3.99    0.78
  -9  -6   0    4.56    0.80
   9   6   0    4.10    0.86
  -9   6   0    3.25    0.62
 -10   6   0    3.08    0.95
 -10   6   0    4.22    0.72
 -11   6   0   -0.19    0.58
 -12  -6   0    2.52    1.04
 -12   6   0    0.70    0.72
   0  -7   0    0.22    0.09
   0  -7   0    0.25    0.22
   0  -7   0    0.06    0.18
   0   7   0    0.37    0.18
   1   7   0    8.28    0.72
   1  -7   0   10.13    0.69
   1  -7   0    9.92    0.42
  -1  -7   0    7.57    0.62
  -1  -7   0    9.92    0.74
  -1  -7   0    8.80    0.51
   1  -7   0    9.37    0.69
  -1   7   0    9.98    0.66
  -2  -7   0   10.62    0.75
   2  -7   0    9.77    0.72
  -2  -7   0   11.46    0.80
  -2  -7   0   10.24    0.64
   2   7   0   10.44    0.80
   2  -7   0   10.03    0.73
  -3  -7   0    0.36    0.21
  -3   7   0    0.15    0.07
   3   7   0   -0.06    0.30
   3  -7   0    0.47    0.25
  -3   7   0    0.23    0.17
  -3  -7   0    0.22    0.27
  -3  -7   0   -0.08    0.27
   4   7   0   21.74    1.27
  -4  -7   0   21.98    1.24
  -4   7   0   21.81    1.16
  -4  -7   0   21.06    1.20
   4  -7   0   22.35    1.24
  -4  -7   0   20.55    1.22
  -4   7   0   19.87    0.86
   5   7   0    4.88    0.70
  -5  -7   0    5.28    0.74
   5  -7   0    4.52    0.71
  -5  -7   0    5.99    0.67
  -5   7   0    4.14    0.50
  -5   7   0    4.06    0.38
  -6   7   0    9.64    0.64
  -6  -7   0    7.41    0.98
  -6   7   0   10.10    0.78
   6  -7   0    9.07    0.94
  -6  -7   0    8.83    0.82
   6   7   0    7.40    0.97
   7   7   0   70.03    3.22
  -7   7   0   77.07    3.19
  -7  -7   0   75.41    3.20
  -7  -7   0   70.72    3.34
   8   7   0    0.22    0.69
  -8   7   0    1.10    0.51
  -8  -7   0    1.12    0.43
  -8   7   0    0.20    0.33
  -9   7   0    9.48    0.99
  -9  -7   0   10.22    1.10
  -9   7   0    8.78    1.26
 -10  -7   0   -0.25    0.62
 -10   7   0   -0.10    0.48
 -10   7   0    0.01    0.87
 -11   7   0    0.42    0.61
 -12   7   0    8.05    1.16
   0  -8   0   13.65    0.88
   0  -8   0   12.28    0.59
   0   8   0   14.00    0.86
   0  -8   0   13.57    0.89
   1  -8   0    0.08    0.25
  -1   8   0    0.08    0.17
  -1  -8   0    0.36    0.29
  -1  -8   0    0.18    0.15
  -1  -8   0    0.29    0.25
   1  -8   0    0.03    0.25
  -2  -8   0   46.62    2.16
   2  -8   0   45.94    2.14
  -2  -8   0   47.33    1.93
  -2   8   0   43.94    2.04
   2  -8   0   45.19    2.10
  -2  -8   0   52.12    2.13
   2   8   0   47.66    2.18
  -3  -8   0   29.26    1.57
  -3  -8   0   28.16    1.52
   3   8   0   28.41    1.58
  -3   8   0   31.35    1.49
   3  -8   0   30.98    1.56
  -3  -8   0   28.81    1.41
  -4   8   0   19.10    1.08
  -4   8   0   17.97    0.72
  -4  -8   0   17.38    1.19
  -4   8   0   17.90    0.75
  -4  -8   0   17.79    1.19
   4   8   0   17.76    1.24
   4  -8   0   20.93    1.25
  -4  -8   0   19.03    1.13
  -5  -8   0   -0.63    0.43
  -5   8   0   -0.04    0.23
  -5  -8   0    0.43    0.38
   5   8   0   -0.06    0.47
  -5  -8   0    0.14    0.35
  -5   8   0    0.07    0.20
   6   8   0   64.75    2.89
  -6  -8   0   63.43    2.89
  -6   8   0   63.08    2.40
  -6  -8   0   64.36    2.81
  -6   8   0   58.42    2.71
  -6   8   0   58.63    2.46
  -7  -8   0    7.80    1.25
  -7  -8   0    9.64    0.95
  -7   8   0    9.82    0.89
   7   8   0    9.08    1.17
  -7   8   0   11.77    0.92
  -7   8   0   11.88    0.77
  -8  -8   0    6.11    0.92
  -8   8   0    5.79    0.95
  -8   8   0    6.54    0.77
  -8   8   0    6.00    0.80
  -9   8   0    2.85    0.65
  -9  -8   0    3.54    0.72
  -9   8   0    4.81    0.84
  -9   8   0    2.91    0.78
 -10   8   0    1.57    0.64
 -10  -8   0    2.35    0.72
 -11   8   0    4.11    0.82
 -11   8   0    5.25    0.91
 -11  -8   0    5.22    1.03
   0  -9   0   -0.04    0.26
   0   9   0    0.87    0.29
   0  -9   0    0.24    0.13
   0  -9   0    0.33    0.33
   1  -9   0   21.43    1.24
  -1  -9   0   19.56    1.28
   1  -9   0   20.72    1.25
  -1   9   0   21.53    1.19
  -1  -9   0   19.50    1.20
  -1  -9   0   20.80    0.95
  -2  -9   0    0.11    0.20
  -2   9   0    0.00    0.24
  -2  -9   0    0.37    0.37
   2  -9   0    0.16    0.35
   2   9   0    0.24    0.40
  -2  -9   0   -0.10    0.34
   2  -9   0    0.23    0.28
  -3  -9   0    5.38    0.62
   3   9   0    5.89    0.93
  -3  -9   0    6.51    0.82
   3  -9   0    4.97    0.66
  -3   9   0    5.65    0.60
  -3  -9   0    5.83    0.80
  -4   9   0    1.88    0.41
   4   9   0    2.72    0.62
   4  -9   0    2.67    0.54
  -4  -9   0    2.81    0.52
  -4  -9   0    3.20    0.62
  -4  -9   0    2.92    0.57
  -5  -9   0   21.57    1.42
  -5  -9   0   19.94    1.46
  -5  -9   0   23.21    1.44
  -5   9   0   22.83    1.31
   5   9   0   23.81    1.60
  -6  -9   0    2.71    0.66
  -6   9   0    2.38    0.48
  -6   9   0    2.84    0.46
  -6  -9   0    2.50    0.60
   6   9   0    2.82    0.78
  -7   9   0    0.51    0.24
  -7   9   0    0.87    0.39
  -7   9   0    0.60    0.37
  -7  -9   0    0.34    0.51
  -8   9   0    0.26    0.51
  -8  -9   0   -0.37    0.48
  -8   9   0   -0.18    0.41
  -9   9   0    9.42    0.95
  -9  -9   0   10.08    1.24
  -9   9   0   10.78    1.12
 -10  -9   0    1.70    0.77
 -10   9   0    1.34    0.68
 -10   9   0    2.48    0.74
 -11  -9   0    7.03    1.30
 -11   9   0    6.33    1.02
   0 -10   0   60.49    2.74
   0 -10   0   59.42    2.19
   0 -10   0   57.69    2.64
  -1 -10   0    2.21    0.34
  -1 -10   0    1.05    0.49
  -1  10   0    1.74    0.42
   1 -10   0    1.63    0.45
  -1 -10   0    1.86    0.51
  -2 -10   0    5.03    0.81
  -2  10   0    3.51    0.58
  -2 -10   0    4.66    0.51
  -2 -10   0    4.65    0.77
   2 -10   0    3.58    0.63
  -3 -10   0    2.92    0.55
  -3 -10   0    2.79    0.62
   3  10   0    3.07    0.72
  -3  10   0    4.06    0.60
   3 -10   0    2.97    0.54
  -3 -10   0    2.20    0.56
  -4  10   0    6.51    0.72
  -4 -10   0    6.76    0.83
   4 -10   0    5.95    0.84
  -4 -10   0    6.45    0.89
   4  10   0    7.75    1.21
  -5 -10   0    1.18    0.54
   5 -10   0    1.73    0.55
  -5  10   0    1.10    0.39
  -5 -10   0    1.00    0.55
  -6 -10   0   31.89    1.96
  -6 -10   0   34.71    1.99
   6 -10   0   32.34    1.93
  -6  10   0   33.21    1.80
  -7  10   0    4.78    0.48
  -7  10   0    5.22    0.81
  -7 -10   0    3.49    0.79
  -8  10   0   10.78    1.15
  -8  10   0   11.46    0.68
  -8 -10   0   12.05    1.29
  -9 -10   0   -1.01    0.69
  -9  10   0    0.12    0.55
 -10 -10   0   10.57    1.56
 -10  10   0    7.08    1.02
   0 -11   0    0.57    0.15
   0 -11   0    0.87    0.53
   1 -11   0   24.71    1.57
  -1  11   0   26.64    1.53
  -1 -11   0   26.64    1.70
  -1 -11   0   24.92    1.12
   2 -11   0    6.78    0.89
  -2 -11   0    6.58    0.64
  -2 -11   0    6.27    1.00
  -2  11   0    7.33    0.78
  -3 -11   0   42.04    2.24
  -3  11   0   40.05    2.05
   3 -11   0   39.21    2.16
  -3 -11   0   40.91    1.85
  -4 -11   0    1.66    0.63
  -4  11   0    2.29    0.51
  -4 -11   0    2.82    0.54
   4 -11   0    2.27    0.64
   5 -11   0   15.32    1.35
  -5 -11   0   16.22    1.45
  -5  11   0   17.50    1.26
  -5 -11   0   15.54    1.30
   6 -11   0    4.21    0.77
  -6 -11   0    6.14    1.09
  -6 -11   0    2.72    0.84
  -6  11   0    3.09    0.59
  -7  11   0    2.49    0.62
   7 -11   0    1.70    0.69
  -7 -11   0    1.05    0.69
  -8 -11   0    3.28    0.83
   8 -11   0    1.93    0.81
  -8  11   0    3.22    0.70
  -9 -11   0    0.24    0.80
  -9  11   0    1.48    0.68
   0 -12   0    2.89    0.78
  -1  12   0    1.83    0.55
   1 -12   0    2.02    0.67
  -1 -12   0    1.68    0.68
   2 -12   0    0.21    0.44
  -2  12   0    0.59    0.42
  -2 -12   0    0.42    0.32
  -2 -12   0   -0.75    0.53
  -3  12   0    0.04    0.40
  -3 -12   0    0.10    0.40
   3 -12   0    0.42    0.55
  -3 -12   0    0.20    0.60
  -4 -12   0    3.05    0.85
  -4  12   0    3.48    0.66
  -4 -12   0    3.21    0.64
   4 -12   0    2.95    0.74
  -5 -12   0    2.61    0.87
  -5 -12   0    3.14    0.74
   5 -12   0    2.93    0.78
  -5  12   0    2.33    0.61
  -6  12   0   19.93    1.48
  -6 -12   0   20.22    1.72
   6 -12   0   19.06    1.64
  -7 -12   0   -0.24    0.77
  -7  12   0    1.38    0.68
   7 -12   0   -0.11    0.77
  -8  12   0    8.22    1.29
  -8 -12   0    8.87    1.46
   8 -12   0   12.32    1.73
   0 -13   0    1.17    0.76
  -1 -13   0    0.60    0.75
  -1 -13   0    1.04    0.25
   2 -13   0   -0.25    0.57
  -2  13   0    0.75    0.54
  -2 -13   0    0.45    0.71
  -3 -13   0    8.59    1.45
  -3  13   0   13.17    1.24
   3 -13   0    9.59    1.26
  -4  13   0    0.09    0.52
  -4 -13   0    0.49    0.72
   4 -13   0   -0.15    0.61
  -5 -13   0    1.41    0.87
   5 -13   0    1.49    0.82
  -5  13   0    1.31    0.65
  -6  13   0    0.58    0.60
  -6 -13   0    1.27    0.87
   6 -13   0    0.66    0.79
  -7  13   0    0.05    0.67
   7 -13   0    0.95    0.94
   0 -14   0   16.26    1.94
  -1 -14   0    3.96    1.06
   1 -14   0    5.78    1.18
  -2 -14   0    0.85    0.87
  -3 -14   0    6.55    1.21
   3 -14   0    5.80    1.04
  -3  14   0    6.48    1.07
  -4 -14   0    1.94    0.97
   4 -14   0    3.00    0.86
  -5  14   0    1.83    0.77
  -5 -14   0    1.32    1.00
   5 -14   0    1.14    0.88
  -6 -14   0    9.29    1.45
   6 -14   0    6.01    1.22
  -6  14   0    6.47    1.03
   0 -15   0    1.48    1.14
   1 -15   0    9.71    1.64
  -1 -15   0    6.50    1.43
  -2 -15   0    0.67    1.09
   2 -15   0    3.17    1.35
   3 -15   0    5.36    1.24
  -3  15   0    4.84    1.07
  -4  15   0    0.19    0.91
  -4 -15   0    1.12    1.07
   4 -15   0   -0.36    0.93
   1   0  -1   21.26    0.82
   1   0  -1   20.45    0.81
  -1   0   1   21.35    0.81
  -1   0   1   19.61    0.81
  -1   0  -1   21.79    0.78
  -2   0  -1  160.82    5.92
   2   0  -1  166.38    5.96
  -2   0   1  174.20    5.98
  -3   0   1   20.55    0.89
   3   0  -1   18.81    0.88
   3   0   1   19.11    0.83
  -4   0  -1   50.73    2.00
  -4   0   1   51.50    2.03
   4   0  -1   48.78    2.01
   4   0   1   48.68    1.95
   5   0   1  139.32    5.30
   5   0  -1  141.52    5.37
  -5   0   1  149.66    5.41
  -5   0  -1  147.72    5.37
  -6   0   1    0.47    0.23
   6   0  -1    0.32    0.25
   6   0   1    0.30    0.24
  -6   0  -1    0.11    0.20
  -7   0   1    3.07    0.50
  -7   0  -1    3.41    0.51
  -7   0   1    2.36    0.45
   7   0   1    4.04    0.56
   7   0  -1    3.37    0.53
  -8   0   1    6.01    0.88
   8   0  -1    7.44    0.90
   8   0   1    7.09    0.81
  -8   0   1    6.21    0.72
  -8   0  -1    6.12    0.69
   9   0  -1    1.62    0.64
   9   0   1    1.41    0.57
  -9   0   1    0.51    0.58
  -9   0  -1    0.96    0.43
  -9   0   1    0.55    0.37
 -10   0  -1    6.00    0.86
 -10   0   1    3.83    0.68
  10   0   1    5.52    0.89
  10   0  -1    4.67    0.91
 -11   0   1   -0.22    0.53
 -11   0  -1    0.16    0.52
 -12   0   1    1.61    0.75
 -12   0  -1    1.12    0.68
 -13   0  -1    5.57    1.06
 -13   0   1    4.25    1.15
   0   1  -1   51.93    2.18
   0  -1   1   67.40    2.18
   0  -1  -1   63.44    2.16
   0  -1   1   62.11    2.16
   0  -1  -1   56.52    2.15
   1  -1   1  179.54    6.33
  -1   1   1  177.25    6.35
  -1  -1  -1  181.44    6.33
   1   1  -1  182.08    6.37
   1   1  -1  181.49    6.36
  -1   1   1  180.68    6.37
  -1   1  -1  168.85    6.32
   1  -1  -1  180.32    6.35
   1   1   1  185.07    6.36
  -1  -1   1  190.54    6.37
   1  -1  -1  173.24    6.36
  -2   1   1   81.39    3.03
   2   1  -1   79.16    3.03
  -2   1   1   88.20    3.03
   2  -1   1   85.01    3.02
  -2  -1  -1   78.86    2.98
   2   1   1   82.65    2.98
   2  -1  -1   86.89    3.05
  -2  -1   1   78.32    3.03
  -2  -1   1   84.04    3.07
  -2   1  -1   83.57    3.01
   3   1  -1    9.27    0.52
  -3  -1  -1    8.42    0.46
   3  -1   1    8.60    0.49
  -3   1   1    9.01    0.51
  -3   1  -1    9.65    0.50
   3  -1  -1    8.82    0.51
  -3  -1   1    8.36    0.53
   3   1   1    9.33    0.47
  -3  -1   1    9.77    0.52
   4   1  -1   98.76    3.77
  -4   1   1  104.91    3.80
  -4  -1   1   97.88    3.76
  -4  -1   1   97.52    3.83
   4   1   1   98.17    3.71
  -4   1  -1  104.94    3.77
  -5   1   1   11.55    0.73
   5   1  -1   12.54    0.75
   5   1   1   12.72    0.70
  -5   1  -1   11.54    0.71
  -5  -1   1   12.93    0.82
   5  -1  -1   11.42    0.75
   6   1  -1   20.04    1.12
  -6  -1  -1   20.25    1.10
  -6   1   1   21.60    1.14
   6  -1   1   21.02    1.09
   6  -1  -1   20.76    1.14
  -6   1  -1   22.54    1.13
  -6  -1   1   20.34    1.20
   6   1   1   20.70    1.07
   7  -1   1   10.60    0.82
  -7   1   1   10.63    0.90
   7   1  -1   10.87    0.86
  -7  -1  -1   11.74    0.85
  -7   1   1   11.72    0.85
  -7  -1   1   11.45    0.96
   7  -1  -1   11.35    0.88
  -7   1  -1   11.46    0.82
  -7  -1   1   11.37    0.87
   7   1   1   11.62    0.82
   8   1  -1    7.81    0.87
  -8  -1  -1    7.92    0.77
  -8   1   1    7.21    0.88
   8  -1   1    7.72    0.82
  -8   1   1    7.36    0.76
  -8  -1   1    6.90    0.75
   8   1   1    7.49    0.82
  -8  -1   1    7.50    0.95
   8  -1  -1    7.38    0.89
  -8   1  -1    6.84    0.73
  -9  -1  -1    6.90    0.82
   9   1  -1    8.43    1.06
  -9   1   1    6.36    1.04
   9  -1   1    6.52    0.95
  -9   1   1    6.84    0.84
   9  -1  -1    6.63    1.00
  -9   1  -1    6.33    0.77
   9   1   1    8.75    0.99
  -9  -1   1    6.46    0.83
  -9  -1   1    5.22    0.89
  10  -1   1    3.51    0.83
 -10  -1  -1    1.91    0.52
  10   1  -1    3.25    0.86
 -10   1   1    1.81    0.54
 -10   1  -1    2.64    0.60
  10   1   1    3.05    0.77
 -10  -1   1    2.65    0.61
 -11  -1  -1    5.00    0.86
 -11   1   1    3.63    0.75
 -11   1  -1    4.42    0.80
 -11  -1   1    4.18    0.82
 -12  -1  -1   13.46    1.47
 -12   1   1   13.79    1.52
 -12   1  -1   11.71    1.41
 -12  -1   1   11.81    1.43
 -13  -1  -1    5.01    1.05
 -13   1   1    4.07    1.11
 -13   1  -1    4.13    1.04
 -13  -1   1    4.45    1.12
   0   2   1  887.06   33.48
   0  -2   1  949.14   33.53
   0  -2   1  989.46   33.46
   0   2  -1  925.75   33.45
   0  -2   1  964.82   33.66
   0  -2  -1  980.46   33.57
   0   2  -1 1000.00   33.59
   0   2  -1  932.85   33.54
  -1   2   1  146.49    5.45
   1  -2   1  161.29    5.55
   1   2  -1  158.83    5.58
   1   2  -1  152.81    5.56
  -1  -2  -1  151.96    5.53
   1  -2   1  153.42    5.51
  -1   2   1  146.96    5.54
  -1  -2   1  156.18    5.55
   1  -2  -1  164.21    5.56
  -1   2  -1  157.81    5.50
  -1   2  -1  159.12    5.54
  -1  -2   1  155.76    5.58
   1   2   1  164.31    5.54
  -2   2   1    2.31    0.19
  -2   2   1    1.70    0.23
  -2  -2  -1    2.61    0.21
   2  -2   1    2.02    0.20
   2   2  -1    2.60    0.25
   2   2   1    2.89    0.22
   2  -2  -1    2.22    0.22
  -2  -2   1    2.89    0.26
  -3  -2  -1   11.00    0.60
   3   2  -1   11.64    0.65
  -3   2   1   12.34    0.64
   3  -2   1   12.67    0.64
  -3  -2   1   12.46    0.65
   3   2   1   13.09    0.62
  -3  -2   1   11.51    0.68
  -3   2  -1   13.46    0.64
   3  -2  -1   12.82    0.66
   4   2  -1   22.02    1.03
  -4  -2  -1   21.68    0.96
  -4   2   1   20.55    1.02
   4  -2   1   20.63    1.01
  -4  -2   1   21.79    1.09
  -4   2  -1   21.09    1.00
  -4  -2   1   20.73    1.00
   4  -2  -1   21.30    1.03
   4   2   1   20.62    0.97
   5  -2   1   47.11    2.01
  -5   2   1   46.81    2.02
   5   2  -1   46.41    2.01
  -5  -2  -1   49.64    1.96
  -5  -2   1   48.52    2.02
   5   2   1   48.39    1.96
  -5   2  -1   49.38    2.01
   5  -2  -1   45.65    2.03
  -5  -2   1   47.96    2.11
   6   2  -1   12.74    0.85
  -6   2   1   11.09    0.79
  -6   2  -1   12.31    0.80
  -6  -2   1   11.61    0.76
  -6  -2   1   10.91    0.87
   6   2   1   12.87    0.78
   7   2  -1   39.27    1.81
  -7   2   1   37.67    1.80
  -7   2  -1   38.30    1.78
   7  -2  -1   33.08    1.77
   7   2   1   38.54    1.74
  -7  -2   1   35.11    1.89
  -8   2   1   49.46    2.33
   8   2  -1   51.57    2.34
  -8  -2  -1   52.13    2.33
   8  -2   1   48.05    2.29
  -8   2   1   48.74    2.36
  -8  -2   1   52.15    2.35
  -8   2  -1   50.42    2.30
  -8  -2   1   47.20    2.43
   8  -2  -1   46.00    2.32
   8   2   1   52.50    2.27
  -9   2   1   12.33    1.06
   9  -2   1   11.06    1.15
  -9   2   1   12.21    1.23
  -9  -2  -1   12.47    1.06
   9   2  -1   12.77    1.21
  -9   2  -1   12.04    1.03
  -9  -2   1   11.58    1.09
   9  -2  -1   13.06    1.27
   9   2   1   15.26    1.12
 -10  -2  -1   -0.10    0.44
  10  -2   1    0.67    0.72
 -10   2   1    0.03    0.47
 -10   2  -1   -0.59    0.42
 -10  -2   1    0.74    0.49
  10   2   1   -0.08    0.64
 -11   2   1    0.51    0.57
 -11  -2  -1    0.03    0.52
 -11  -2   1    0.03    0.54
 -11   2  -1   -0.08    0.48
 -12  -2  -1    5.72    0.94
 -12   2   1    6.59    1.07
 -12   2  -1    7.01    1.23
 -12  -2   1    8.14    1.20
 -13  -2  -1    3.98    1.02
 -13   2   1    5.88    1.10
 -13   2  -1    2.37    0.89
 -13  -2   1    5.01    1.13
   0  -3   1  194.22    6.59
   0  -3  -1  190.79    6.57
   0  -3  -1  156.26    6.64
   0  -3   1  185.05    6.51
   0   3  -1  195.51    6.63
   0   3  -1  187.08    6.52
   1   3  -1  137.91    5.19
   1   3  -1  141.67    5.24
   1  -3   1  143.83    5.23
  -1  -3  -1  139.56    5.21
   1  -3   1  145.71    5.20
  -1   3   1  143.18    5.20
   1  -3   1  141.83    5.12
  -1  -3  -1  143.65    5.19
   1  -3  -1  151.28    5.22
   1   3   1  150.97    5.21
  -1  -3   1  155.54    5.27
  -1   3  -1  139.68    5.11
  -1   3  -1  145.30    5.21
  -1  -3   1  148.60    5.19
  -2   3   1   65.51    2.34
  -2   3   1   60.79    2.21
   2   3  -1   59.14    2.35
   2  -3   1   59.43    2.32
   2   3   1   60.57    2.31
  -2  -3   1   59.56    2.34
   2  -3  -1   60.42    2.33
  -2   3  -1   56.40    2.24
  -2  -3   1   63.39    2.37
  -2   3  -1   63.48    2.32
   3  -3   1   49.64    2.10
  -3  -3  -1   56.52    2.10
   3   3  -1   53.44    2.15
  -3   3   1   55.43    2.13
  -3  -3   1   51.63    2.16
   3  -3  -1   52.48    2.13
   3   3   1   54.11    2.10
  -3   3  -1   55.60    2.11
  -3  -3   1   53.79    2.15
   4  -3   1    3.81    0.40
   4   3  -1    3.13    0.40
  -4   3   1    3.61    0.36
  -4  -3  -1    3.50    0.33
  -4  -3   1    3.43    0.37
  -4  -3   1    3.26    0.44
   4   3   1    3.88    0.38
   4  -3  -1    2.61    0.38
  -4   3  -1    3.64    0.34
   5  -3   1   88.12    3.44
   5   3  -1   88.22    3.43
  -5  -3  -1   90.78    3.37
  -5   3   1   86.90    3.43
  -5  -3   1   88.52    3.53
  -5   3  -1   89.68    3.41
   5   3   1   86.22    3.36
  -5  -3   1   83.74    3.41
   5  -3  -1   84.03    3.44
  -6  -3  -1    3.36    0.39
  -6   3   1    2.52    0.44
   6  -3   1    1.97    0.39
   6   3  -1    3.20    0.54
   6   3   1    2.70    0.46
  -6  -3   1    2.21    0.47
  -6   3  -1    2.55    0.40
   6  -3  -1    3.12    0.50
  -6  -3   1    2.55    0.43
  -7   3   1   25.48    1.40
   7   3  -1   25.10    1.43
  -7  -3  -1   27.83    1.34
   7  -3   1   24.36    1.42
  -7  -3   1   26.37    1.55
   7   3   1   26.13    1.36
  -7   3  -1   26.04    1.38
  -7  -3   1   29.12    1.42
  -8   3   1    8.67    0.95
  -8   3   1    9.07    0.83
   8   3  -1    7.33    0.97
   8   3   1    7.74    0.86
  -8   3  -1    7.46    0.73
  -9   3   1   11.33    1.25
  -9   3   1   14.35    1.10
   9   3  -1   12.61    1.30
   9  -3   1   13.12    1.22
  -9   3  -1   11.52    0.99
   9   3   1   13.54    1.16
   9  -3  -1   13.88    1.30
 -10   3   1    5.92    0.92
  10  -3   1    4.46    1.06
 -10  -3  -1    4.78    0.79
  10   3   1    5.45    0.94
 -10   3  -1    4.46    0.70
 -10  -3   1    5.68    0.98
 -11  -3  -1   11.94    1.28
 -11   3   1    9.77    1.20
 -11   3  -1    9.44    1.12
 -11  -3   1   11.75    1.34
 -12   3   1    7.56    1.06
 -12  -3  -1    8.20    1.36
 -12  -3   1    6.65    1.04
 -12   3  -1    6.16    0.94
 -13  -3  -1    2.14    0.93
 -13   3   1    1.65    0.89
 -13   3  -1    1.67    0.82
 -13  -3   1    3.59    1.06
   0   4   1  147.68    5.21
   0   4  -1  143.37    5.21
   0  -4   1  144.33    5.21
   0  -4  -1  138.22    5.06
   0   4  -1  144.47    5.25
   0   4  -1  137.10    5.12
   0  -4   1  143.07    5.26
   0  -4   1  146.40    5.10
   0  -4  -1  143.87    5.19
   0  -4  -1  149.11    5.24
   1  -4   1  170.31    6.33
   1  -4   1  177.52    6.23
  -1   4   1  181.95    6.34
   1   4  -1  178.33    6.41
  -1  -4  -1  183.20    6.37
   1   4  -1  157.76    6.31
  -1  -4  -1  180.90    6.35
   1  -4   1  180.59    6.39
  -1  -4   1  177.49    6.29
  -1   4  -1  169.66    6.33
  -1  -4   1  187.84    6.42
   1   4   1  173.50    6.36
  -1   4  -1  169.52    6.21
  -1  -4   1  176.35    6.36
   1  -4  -1  180.19    6.35
   2  -4   1   18.88    0.86
  -2  -4  -1   18.75    0.86
   2   4  -1   16.06    0.87
  -2   4   1   18.19    0.67
   2  -4  -1   17.44    0.85
  -2  -4   1   17.87    0.90
  -2   4  -1   16.96    0.72
   2   4   1   16.54    0.85
  -2  -4   1   16.14    0.83
  -2   4  -1   18.56    0.84
   3   4  -1    7.71    0.56
  -3  -4  -1    7.64    0.52
   3  -4   1    8.16    0.53
  -3   4   1    8.31    0.52
   3  -4  -1    7.53    0.54
  -3  -4   1    7.85    0.56
  -3   4  -1    7.97    0.50
  -3  -4   1    7.99    0.56
   3   4   1    7.41    0.52
  -3   4  -1    6.48    0.48
  -4  -4  -1    1.56    0.28
  -4   4   1    1.23    0.24
   4   4  -1    1.34    0.32
   4  -4   1    1.36    0.26
  -4   4  -1    1.89    0.28
   4   4   1    1.78    0.32
   4  -4  -1    1.79    0.32
  -4  -4   1    1.42    0.30
  -4  -4   1    1.95    0.33
  -5  -4  -1   18.78    0.98
   5  -4   1   19.29    1.05
   5   4  -1   18.36    1.07
  -5   4   1   19.10    1.02
   5  -4  -1   18.77    1.07
  -5  -4   1   18.67    1.03
  -5  -4   1   18.27    1.11
   5   4   1   17.43    1.00
  -5   4  -1   19.07    1.01
   6   4  -1   35.81    1.73
  -6  -4  -1   38.46    1.65
  -6   4   1   34.28    1.67
   6  -4   1   33.14    1.71
  -6   4  -1   35.60    1.66
  -6  -4   1   34.47    1.79
   6   4   1   35.54    1.67
   6  -4  -1   34.72    1.73
  -6  -4   1   38.40    1.71
  -7   4   1   21.90    1.30
  -7   4   1   23.86    1.32
   7   4  -1   22.18    1.39
  -7  -4  -1   24.47    1.26
   7  -4   1   22.89    1.39
  -7   4  -1   23.92    1.29
   7  -4  -1   24.17    1.43
  -7  -4   1   23.04    1.48
   7   4   1   22.73    1.31
  -7  -4   1   23.20    1.30
  -8   4   1    6.45    0.71
  -8   4   1    7.22    0.88
   8   4  -1    6.34    0.95
   8  -4   1    7.38    0.95
  -8  -4  -1    7.79    0.71
   8   4   1    7.29    0.89
  -8  -4   1    5.61    0.89
  -8  -4   1    6.53    0.75
  -8   4  -1    6.18    0.69
  -9   4   1    2.95    0.56
   9   4  -1    3.36    0.77
  -9   4   1    3.14    0.71
   9   4   1    4.14    0.74
  -9   4  -1    3.30    0.54
 -10   4   1    8.79    1.44
 -10   4   1    7.95    0.97
 -10   4  -1   10.25    0.99
 -11   4   1   -0.88    0.50
 -11  -4  -1   -0.09    0.62
 -11  -4   1    0.65    0.67
 -11   4  -1    0.12    0.51
 -12  -4  -1   24.96    1.99
 -12   4   1   23.22    1.76
 -12   4  -1   24.35    1.74
 -12  -4   1   24.77    2.05
 -13  -4  -1    2.80    1.09
 -13   4   1    1.29    0.80
 -13  -4   1    1.12    1.00
 -13   4  -1    3.66    0.91
   0   5  -1    7.70    0.55
   0   5   1    7.52    0.49
   0   5  -1    8.06    0.50
   0  -5  -1    7.08    0.47
   0  -5  -1    7.57    0.51
   0  -5  -1    7.71    0.35
   0  -5   1    7.76    0.53
   0   5  -1    7.17    0.41
   0  -5   1    8.01    0.39
   0  -5   1    7.72    0.50
  -1  -5  -1  144.67    5.16
   1  -5   1  142.03    4.96
   1   5  -1  138.77    5.19
   1  -5   1  135.00    5.11
   1  -5   1  142.88    5.18
  -1  -5  -1  130.63    5.09
  -1   5   1  143.16    5.12
   1   5  -1  131.06    5.16
  -1  -5  -1  139.03    5.02
  -1   5  -1  146.20    5.13
  -1  -5   1  140.45    5.13
  -1  -5   1  136.79    5.03
  -1  -5   1  145.69    5.20
   1  -5  -1  139.49    5.12
  -1   5  -1  131.31    4.95
   1   5   1  144.00    5.15
  -2   5   1    9.84    0.56
   2  -5   1    9.14    0.59
   2   5  -1    9.09    0.63
  -2  -5  -1    8.53    0.56
  -2  -5  -1    9.12    0.60
  -2  -5  -1    8.94    0.56
   2  -5   1    8.94    0.56
  -2  -5   1    8.40    0.54
   2   5   1    8.12    0.58
   2  -5  -1    8.13    0.57
  -2  -5   1    8.06    0.60
  -2   5  -1    8.19    0.41
  -2   5  -1    9.06    0.54
  -3   5   1   63.62    2.36
  -3   5   1   66.34    2.58
   3  -5   1   64.81    2.58
  -3  -5  -1   66.00    2.59
   3   5  -1   59.58    2.60
  -3   5  -1   59.53    2.39
   3   5   1   65.55    2.58
   3  -5  -1   67.30    2.60
  -3  -5   1   63.85    2.58
  -3   5  -1   68.50    2.57
  -3  -5   1   63.50    2.62
   4   5  -1   30.21    1.55
  -4   5   1   37.14    1.56
   4  -5   1   32.67    1.54
  -4  -5  -1   32.98    1.52
   4  -5  -1   35.18    1.58
   4   5   1   31.78    1.52
  -4  -5   1   34.59    1.58
  -4   5  -1   34.64    1.52
  -4  -5   1   31.31    1.57
  -4   5  -1   34.53    1.41
  -5  -5  -1   21.33    1.14
   5   5  -1   21.66    1.24
  -5   5   1   22.17    1.17
   5  -5   1   24.31    1.24
  -5   5  -1   23.84    1.17
   5  -5  -1   22.88    1.24
  -5  -5   1   21.18    1.18
  -5  -5   1   21.23    1.26
   5   5   1   21.22    1.17
  -6  -5  -1   13.15    0.83
   6   5  -1   12.52    0.98
   6  -5   1   11.81    0.95
  -6   5   1   11.43    0.82
  -6   5   1   11.45    0.80
   6   5   1   12.63    0.90
   6  -5  -1   12.58    0.96
  -6  -5   1   12.80    0.87
  -6  -5   1   12.39    1.00
  -6   5  -1   11.68    0.82
   7   5  -1   57.02    2.63
  -7   5   1   57.56    2.56
  -7   5   1   57.54    2.49
  -7  -5  -1   58.98    2.50
   7  -5   1   58.97    2.64
  -7  -5  -1   52.72    2.68
   7  -5  -1   58.35    2.65
  -7   5  -1   59.61    2.55
   7   5   1   58.12    2.56
  -7  -5   1   56.65    2.70
  -7  -5   1   58.40    2.57
  -8   5   1    4.68    0.66
  -8   5   1    5.29    0.75
  -8  -5  -1    5.88    1.06
   8  -5   1    5.26    0.80
  -8  -5  -1    6.17    0.69
   8   5  -1    6.36    1.03
  -8  -5   1    4.78    0.79
  -8  -5   1    5.45    0.69
   8   5   1    5.18    0.76
  -8   5  -1    4.84    0.68
  -9   5   1   21.16    1.42
   9   5  -1   23.26    1.72
  -9  -5  -1   24.55    1.42
  -9   5   1   23.81    1.61
  -9  -5   1   24.63    1.49
  -9   5  -1   23.31    1.45
   9   5   1   22.01    1.64
 -10   5   1    1.97    0.82
 -10   5   1    1.07    0.44
 -10   5  -1    0.75    0.53
  10   5   1    0.62    0.85
 -11   5   1    8.56    1.11
 -11  -5  -1    9.51    1.30
 -11   5  -1    7.49    1.04
 -12   5   1    2.76    0.79
 -12  -5  -1    4.62    1.10
 -12   5  -1    3.07    0.82
 -12  -5   1    4.35    1.07
 -13  -5  -1    2.81    1.36
 -13  -5   1    3.02    1.42
   0  -6   1   28.05    1.34
   0   6   1   28.79    1.29
   0   6  -1   27.50    1.17
   0  -6  -1   28.28    1.28
   0  -6  -1   28.92    1.34
   0  -6  -1   27.91    1.07
   0   6  -1   28.82    1.30
   0  -6   1   27.96    1.29
   0  -6   1   28.90    1.13
  -1  -6  -1   54.95    2.23
  -1  -6  -1   52.72    2.16
   1  -6   1   51.41    2.17
   1  -6   1   52.55    1.98
  -1   6   1   53.63    2.17
  -1  -6  -1   52.48    2.04
   1   6  -1   52.66    2.24
   1  -6   1   55.13    2.24
  -1   6  -1   54.21    2.18
  -1  -6   1   56.81    2.20
  -1  -6   1   54.66    2.26
   1  -6  -1   51.94    2.17
  -1   6  -1   50.44    1.98
  -1  -6   1   52.90    2.05
   1  -6  -1   53.65    2.22
  -2   6   1   69.42    2.75
  -2  -6  -1   69.79    2.71
   2  -6   1   66.55    2.80
  -2  -6  -1   71.74    2.79
   2  -6   1   65.62    2.76
  -2  -6  -1   72.34    2.82
   2   6  -1   70.19    2.84
  -2   6  -1   66.60    2.53
   2  -6  -1   67.35    2.77
  -2  -6   1   70.80    2.80
   2   6   1   72.89    2.82
  -2  -6   1   68.62    2.70
  -2  -6   1   74.21    2.88
  -2   6  -1   71.26    2.77
  -3  -6  -1    7.90    0.64
   3  -6   1    8.72    0.65
   3   6  -1    8.10    0.70
  -3  -6  -1    7.60    0.63
  -3  -6  -1    7.06    0.61
  -3   6   1    8.90    0.60
   3  -6  -1    8.71    0.65
  -3  -6   1    8.53    0.68
   3   6   1    8.10    0.66
  -3   6  -1    7.95    0.42
  -3   6  -1    8.83    0.59
  -3  -6   1    7.62    0.60
  -4   6   1   22.72    1.01
   4   6  -1   23.05    1.31
  -4  -6  -1   25.88    1.31
  -4   6   1   24.30    1.22
  -4  -6  -1   24.00    1.26
  -4   6   1   21.64    0.99
   4  -6   1   25.01    1.27
  -4  -6   1   25.59    1.29
  -4   6  -1   24.66    1.21
   4   6   1   26.63    1.29
  -4  -6   1   24.53    1.30
   4  -6  -1   23.15    1.26
  -4   6  -1   24.94    1.05
   5  -6   1   27.96    1.48
   5   6  -1   26.33    1.50
  -5  -6  -1   28.92    1.54
  -5   6   1   27.67    1.26
  -5  -6  -1   29.72    1.44
  -5   6   1   29.56    1.43
   5  -6  -1   27.60    1.49
  -5  -6   1   29.04    1.53
   5   6   1   26.49    1.45
  -5  -6   1   29.83    1.48
  -5   6  -1   27.61    1.40
  -5   6  -1   29.06    1.28
   6  -6   1   86.50    3.62
  -6  -6  -1   81.22    3.66
  -6   6   1   86.23    3.39
   6   6  -1   83.80    3.60
  -6   6   1   90.44    3.58
  -6  -6  -1   85.89    3.52
   6   6   1   84.91    3.54
   6  -6  -1   90.13    3.66
  -6  -6   1   91.21    3.61
  -6  -6   1   87.24    3.68
  -6   6  -1   91.92    3.57
  -7  -6  -1    4.35    0.61
   7   6  -1    6.06    0.89
  -7   6   1    4.77    0.70
  -7  -6  -1    4.33    0.76
  -7   6   1    5.50    0.63
   7  -6   1    5.78    0.89
  -7   6  -1    5.13    0.60
  -7  -6   1    5.07    0.81
   7   6   1    4.44    0.69
  -7  -6   1    3.85    0.62
  -8   6   1    7.60    0.80
  -8  -6  -1    8.50    0.81
  -8   6   1    7.41    0.94
   8   6  -1    6.80    1.16
  -8   6  -1    7.61    0.78
   8   6   1    7.18    0.99
  -8  -6   1    8.11    0.85
  -9   6   1    4.17    0.69
  -9   6   1    3.15    0.74
  -9  -6  -1    2.74    0.62
  -9   6  -1    3.04    0.53
  -9  -6   1    4.97    0.86
   9   6   1    2.82    0.80
 -10   6   1    6.64    1.02
 -10   6   1    6.98    0.95
 -10   6  -1    5.61    0.93
 -10  -6   1    6.63    1.03
 -11   6   1    8.46    1.16
 -11   6  -1    6.93    1.12
 -12  -6  -1    7.97    1.26
 -12   6   1    8.99    1.34
 -12   6  -1    7.94    1.12
 -12  -6   1    9.62    1.66
   0  -7  -1    0.34    0.09
   0   7  -1    0.61    0.22
   0  -7  -1    0.20    0.21
   0  -7   1    0.33    0.24
   0  -7   1    0.24    0.19
   0  -7   1    0.30    0.12
   0  -7  -1    0.34    0.21
   0   7   1    0.41    0.18
  -1   7   1    4.09    0.42
   1  -7   1    3.78    0.47
   1  -7   1    4.71    0.29
  -1  -7  -1    4.93    0.52
  -1  -7  -1    4.02    0.47
   1   7  -1    3.73    0.57
   1  -7   1    4.54    0.50
  -1  -7  -1    4.04    0.34
   1  -7  -1    3.54    0.44
   1  -7  -1    3.30    0.45
  -1   7  -1    4.06    0.31
  -1  -7   1    4.03    0.34
  -1   7  -1    4.45    0.44
  -1  -7   1    4.07    0.48
  -1  -7   1    4.01    0.54
  -2   7   1    4.42    0.44
   2  -7   1    4.37    0.48
   2  -7   1    4.85    0.52
  -2  -7  -1    4.38    0.52
  -2  -7  -1    4.10    0.41
  -2  -7  -1    3.75    0.53
   2   7  -1    4.56    0.60
  -2  -7   1    4.45    0.42
   2  -7  -1    4.32    0.49
  -2   7  -1    5.27    0.46
  -2  -7   1    4.12    0.54
   2  -7  -1    4.52    0.51
  -2  -7   1    4.92    0.55
  -2   7  -1    3.58    0.27
   2   7   1    3.39    0.56
  -3  -7  -1   13.64    0.86
   3  -7   1   15.45    0.95
  -3  -7  -1   14.96    0.95
  -3   7   1   14.96    0.86
   3   7  -1   14.15    1.01
   3  -7   1   14.45    0.92
  -3  -7  -1   13.12    0.91
  -3  -7   1   14.16    0.87
  -3  -7   1   14.16    0.97
  -3   7  -1   14.34    0.63
  -3  -7   1   13.67    0.92
   3  -7  -1   15.61    0.96
   3   7   1   14.74    0.97
  -3   7  -1   14.52    0.86
  -4  -7  -1    9.75    0.79
  -4  -7  -1    8.52    0.77
   4   7  -1    9.26    0.87
  -4   7   1    9.46    0.45
   4  -7   1   10.49    0.82
  -4   7   1    8.60    0.41
  -4  -7  -1    8.94    0.79
  -4   7   1    9.78    0.70
  -4  -7   1    9.67    0.81
  -4   7  -1   10.28    0.71
  -4  -7   1    9.12    0.77
   4  -7  -1   10.83    0.81
   4   7   1    9.54    0.84
  -4   7  -1    8.97    0.51
  -5   7   1   10.87    0.79
  -5   7   1   11.55    0.62
   5  -7   1   10.57    0.93
   5   7  -1    9.36    0.97
  -5  -7  -1   11.40    0.88
  -5  -7  -1   10.94    0.96
  -5  -7   1   10.66    0.92
  -5   7  -1   10.52    0.78
  -5  -7   1   10.74    0.90
   5  -7  -1   11.45    0.96
   5   7   1   11.23    0.93
  -5   7  -1   10.41    0.61
  -6   7   1   37.78    1.83
  -6  -7  -1   37.60    1.83
  -6   7   1   36.26    1.61
  -6  -7  -1   36.69    1.99
   6  -7   1   36.78    1.92
   6   7  -1   35.35    1.95
  -6   7  -1   37.25    1.81
  -6  -7   1   38.85    1.96
  -6   7  -1   38.90    1.64
  -6  -7   1   37.36    1.89
   6   7   1   36.47    1.91
  -7  -7  -1    2.53    0.75
  -7  -7  -1    3.76    0.60
  -7   7   1    2.17    0.41
  -7   7   1    2.16    0.43
   7   7  -1    2.40    0.73
  -7   7  -1    1.83    0.40
  -7  -7   1    3.08    0.55
  -7  -7   1    2.54    0.64
   7   7   1    1.75    0.65
  -8   7   1    1.19    0.41
  -8   7   1    1.15    0.48
  -8  -7  -1    1.43    0.49
   8   7  -1    0.75    0.75
  -8  -7   1    1.11    0.46
  -8   7  -1    1.22    0.42
  -8   7  -1    0.77    0.35
   8   7   1    0.48    0.67
  -9   7   1   21.86    1.53
  -9  -7  -1   21.00    1.46
  -9   7   1   23.70    1.49
  -9   7  -1   21.55    1.43
  -9  -7   1   23.31    1.56
   9   7   1   18.37    1.74
 -10  -7  -1    3.79    0.78
 -10   7   1    3.66    1.22
 -10   7   1    3.74    0.71
 -10   7  -1    4.58    1.00
 -10  -7   1    4.22    0.82
 -10   7  -1    2.68    0.62
 -11   7   1   11.18    1.27
 -11   7  -1    8.66    1.19
 -12   7   1    1.01    0.75
 -12   7  -1    0.03    0.73
   0  -8  -1   74.70    3.07
   0   8  -1   75.68    3.03
   0  -8  -1   72.27    2.99
   0  -8  -1   73.60    2.65
   0  -8   1   74.02    2.73
   0   8   1   70.76    2.99
   0  -8   1   71.54    2.99
   0  -8   1   76.90    3.11
   1  -8   1    1.21    0.21
   1  -8   1    0.72    0.30
   1  -8   1    0.76    0.32
  -1  -8  -1    1.69    0.40
  -1   8   1    0.84    0.25
  -1  -8  -1    1.03    0.34
   1   8  -1    0.89    0.40
  -1  -8  -1    1.02    0.20
  -1   8  -1    1.02    0.19
  -1  -8   1    1.12    0.36
   1  -8  -1    1.18    0.34
  -1  -8   1    0.97    0.32
   1  -8  -1    1.01    0.30
  -1  -8   1    1.03    0.20
  -1   8  -1    0.91    0.27
  -2  -8  -1    5.75    0.69
   2  -8   1    6.14    0.60
  -2  -8  -1    5.62    0.49
   2   8  -1    5.81    0.75
  -2  -8  -1    4.03    0.59
  -2   8   1    6.43    0.57
   2  -8   1    5.64    0.64
  -2  -8   1    4.21    0.64
  -2  -8   1    4.87    0.47
   2  -8  -1    4.65    0.60
   2   8   1    4.31    0.67
   2  -8  -1    5.67    0.61
  -2  -8   1    4.93    0.62
  -2   8  -1    5.29    0.53
  -2   8  -1    4.94    0.32
   3  -8   1    1.34    0.36
   3   8  -1    1.14    0.45
  -3  -8  -1    0.46    0.30
   3  -8   1    1.76    0.40
  -3  -8  -1    1.21    0.31
  -3  -8  -1    1.05    0.37
  -3   8   1    2.09    0.37
  -3  -8   1    1.28    0.32
  -3   8  -1    2.23    0.39
   3  -8  -1    1.58    0.37
   3   8   1    0.90    0.39
  -3  -8   1    1.27    0.39
  -3  -8   1    0.89    0.38
  -3   8  -1    1.11    0.20
  -4   8   1   13.78    0.91
   4  -8   1   14.87    1.07
   4  -8   1   13.11    0.98
  -4  -8  -1   12.88    1.04
   4   8  -1   14.69    1.15
  -4  -8  -1   14.28    1.01
  -4  -8  -1   15.16    1.04
  -4   8  -1   12.58    0.65
  -4   8  -1   13.73    0.90
  -4  -8   1   15.55    1.10
  -4  -8   1   14.89    1.07
   4   8   1   14.48    1.11
  -4  -8   1   14.68    0.99
   4  -8  -1   15.31    1.05
  -5   8   1    2.30    0.27
  -5  -8  -1    2.09    0.52
  -5  -8  -1    1.81    0.51
  -5  -8  -1    2.34    0.54
   5   8  -1    2.00    0.60
  -5   8   1    2.51    0.44
  -5   8   1    2.11    0.22
   5  -8   1    1.56    0.48
  -5   8  -1    1.91    0.41
  -5  -8   1    1.96    0.49
  -5  -8   1    2.09    0.49
  -5   8  -1    2.51    0.29
   5   8   1    2.06    0.56
  -6   8   1   41.12    1.74
  -6   8   1   44.23    1.72
  -6  -8  -1   43.32    2.11
  -6  -8  -1   40.41    2.20
   6   8  -1   39.17    2.27
  -6   8   1   46.16    2.10
  -6   8  -1   45.84    1.78
   6   8   1   41.15    2.18
  -6  -8   1   41.98    2.14
  -6  -8   1   44.59    2.23
  -6   8  -1   45.03    2.08
  -7   8   1   10.03    0.79
   7   8  -1    7.34    1.07
  -7  -8  -1    8.74    1.27
  -7   8   1   10.99    0.92
  -7   8   1   11.45    0.74
  -7  -8  -1   10.80    0.97
   7   8   1   11.02    1.23
  -7   8  -1   10.68    0.90
  -7  -8   1   11.31    1.21
  -7   8  -1    9.46    0.73
  -7  -8   1   11.30    1.01
  -8  -8  -1    9.41    1.03
  -8   8   1   11.21    1.01
  -8   8   1   11.75    0.88
  -8   8   1   10.07    0.96
  -8  -8   1    9.82    1.08
  -8   8  -1   11.45    0.92
   8   8   1    8.03    1.45
  -8   8  -1   10.10    0.96
  -9   8   1    1.41    0.67
  -9   8   1    1.28    0.51
  -9  -8  -1    2.47    0.59
  -9   8  -1    1.52    0.48
  -9   8  -1    2.47    0.59
  -9  -8   1    1.88    0.63
  -9   8  -1    1.67    0.75
 -10   8   1    1.75    0.55
 -10  -8  -1    2.36    0.76
 -10  -8   1    2.43    0.76
 -10   8  -1    1.51    0.65
 -10   8  -1    0.81    0.54
 -11   8   1   -0.32    0.63
 -11   8  -1   -0.39    0.62
 -11  -8   1    0.51    0.84
 -11   8  -1    0.17    0.75
   0   9   1    5.55    0.60
   0  -9   1    6.21    0.70
   0  -9  -1    4.64    0.59
   0  -9  -1    4.82    0.29
   0  -9   1    6.28    0.75
   0  -9   1    4.82    0.37
   0  -9  -1    6.03    0.68
   1  -9   1    6.85    0.71
  -1  -9  -1    6.55    0.72
  -1   9   1    5.87    0.61
   1  -9   1    7.06    0.76
  -1  -9  -1    8.28    0.84
  -1  -9  -1    6.48    0.45
   1  -9   1    6.14    0.41
  -1  -9   1    7.53    0.51
  -1   9  -1    6.91    0.66
  -1  -9   1    8.79    0.87
  -1  -9   1    7.51    0.76
   1  -9  -1    6.68    0.70
   1  -9  -1    7.50    0.75
   2  -9   1   18.24    1.17
  -2  -9  -1   18.03    0.95
   2  -9   1   18.50    1.18
  -2  -9  -1   19.94    1.25
   2   9  -1   18.84    1.31
  -2  -9  -1   19.91    1.19
  -2   9   1   18.06    1.09
   2  -9  -1   17.95    1.17
  -2  -9   1   18.64    1.18
  -2  -9   1   18.60    1.25
  -2  -9   1   17.25    0.96
  -2   9  -1   18.71    1.10
   2  -9  -1   18.52    1.18
  -3  -9  -1   36.39    1.85
   3  -9   1   34.64    1.80
  -3   9   1   32.57    1.68
   3  -9   1   32.61    1.77
   3   9  -1   38.37    1.96
  -3  -9  -1   35.71    1.62
  -3  -9  -1   36.79    1.80
  -3  -9   1   33.45    1.84
  -3  -9   1   36.17    1.82
   3   9   1   35.38    1.84
  -3  -9   1   33.34    1.60
  -3   9  -1   33.17    1.69
   3  -9  -1   34.41    1.80
   3  -9  -1   32.43    1.77
  -4  -9  -1   19.58    1.30
  -4  -9  -1   18.83    1.13
   4  -9   1   14.10    1.47
   4   9  -1   18.25    1.38
   4  -9   1   19.06    1.24
  -4   9   1   17.86    1.11
  -4  -9  -1   16.76    1.23
  -4  -9   1   18.15    1.30
  -4   9  -1   16.50    0.74
  -4  -9   1   18.62    1.15
  -4  -9   1   18.27    1.28
  -4   9  -1   19.15    1.14
   4   9   1   17.96    1.31
  -5   9   1    3.45    0.55
  -5  -9  -1    2.32    0.54
  -5  -9  -1    2.08    0.53
   5   9  -1    2.18    0.69
   5  -9   1    3.82    0.67
  -5   9  -1    3.42    0.56
  -5  -9   1    2.88    0.68
   5   9   1    2.92    0.73
  -5  -9   1    2.77    0.59
  -6   9   1   11.03    0.97
  -6  -9  -1    9.94    1.04
  -6  -9  -1   12.21    1.28
   6   9   1   12.67    1.32
  -6  -9   1   10.21    1.07
  -6  -9   1   13.90    1.24
  -6   9  -1   13.06    0.99
  -6   9  -1   13.19    0.67
  -7   9   1    1.14    0.23
  -7   9   1    1.38    0.45
  -7   9   1    1.93    0.35
  -7  -9  -1    0.78    0.50
  -7   9  -1    1.81    0.31
   7   9   1    1.18    0.81
  -7   9  -1    1.48    0.44
  -7  -9   1    0.69    0.52
  -8   9   1    1.63    0.49
  -8   9   1    0.92    0.45
  -8   9   1    0.64    0.35
  -8  -9  -1    1.18    0.57
  -8  -9   1    0.56    0.52
  -8   9  -1    1.10    0.34
  -8   9  -1    1.12    0.45
  -8   9  -1    1.52    0.60
  -9   9   1    2.27    0.63
  -9  -9  -1    1.53    0.63
  -9   9  -1    1.02    0.46
  -9  -9   1    1.48    0.66
  -9   9  -1    2.23    0.58
 -10  -9  -1    7.38    1.11
 -10   9   1    6.79    1.09
 -10  -9   1    6.44    1.12
 -10   9  -1    5.45    0.78
 -10   9  -1    6.51    1.11
 -11  -9  -1   -0.60    0.91
 -11   9   1    1.55    0.76
 -11  -9   1    0.18    1.00
 -11   9  -1    0.18    0.76
   0 -10  -1    0.25    0.41
   0 -10   1    1.01    0.47
   0 -10  -1    0.46    0.35
   0 -10   1    0.31    0.18
  -1 -10  -1    9.35    0.96
  -1 -10  -1    7.91    0.88
  -1  10   1    8.57    0.79
  -1 -10  -1    9.22    0.52
   1 -10   1    6.91    0.80
  -1 -10   1    7.51    0.95
  -1 -10   1    8.46    0.56
   1 -10  -1    7.50    0.87
   1 -10  -1    6.47    0.77
  -1  10  -1    6.43    0.76
  -2 -10  -1    9.89    0.68
  -2  10   1    8.85    0.78
   2  10  -1   11.19    1.18
  -2 -10  -1   10.93    1.00
  -2 -10  -1   12.26    1.08
   2 -10   1    9.51    0.90
   2 -10  -1    8.81    0.99
  -2 -10   1   10.33    0.73
   2 -10  -1   10.43    0.94
  -2 -10   1    9.35    1.01
  -2  10  -1   10.25    0.84
   3 -10   1    2.15    0.55
   3  10  -1    1.36    0.71
  -3 -10  -1    2.35    0.44
  -3  10   1    2.17    0.41
  -3 -10  -1    1.75    0.55
  -3 -10  -1    2.83    0.63
  -3 -10   1    2.76    0.46
  -3 -10   1    0.84    0.56
  -3  10  -1    1.94    0.43
   3 -10  -1    2.87    0.54
  -3 -10   1    2.88    0.66
  -4 -10  -1    1.20    0.44
  -4  10   1    0.45    0.29
   4 -10   1    0.03    0.38
  -4 -10  -1    0.57    0.48
   4  10   1    0.89    0.63
  -4  10  -1    0.59    0.29
   4 -10  -1    0.59    0.43
  -4 -10   1    0.52    0.40
  -4 -10   1    0.90    0.53
  -5  10   1    0.72    0.38
   5 -10   1    0.81    0.55
  -5 -10  -1    1.59    0.56
  -5 -10  -1    1.47    0.53
   5  10   1    1.00    0.76
  -5  10  -1    0.91    0.36
  -5 -10   1    1.25    0.58
   5 -10  -1    1.93    0.53
  -5 -10   1    1.81    0.56
  -6  10   1    5.31    0.73
  -6 -10  -1    4.98    0.83
  -6 -10  -1    4.43    0.84
   6 -10   1    5.90    0.92
  -6  10  -1    5.30    0.75
  -6  10  -1    4.94    0.50
  -6 -10   1    5.20    0.87
   7 -10   1    0.48    0.60
  -7  10   1    0.98    0.50
  -7 -10  -1    1.10    0.57
  -7  10  -1    0.83    0.42
  -7  10  -1    1.35    0.45
  -7  10  -1    1.68    0.30
  -7 -10   1    1.41    0.63
  -8  10   1    0.88    0.53
  -8 -10  -1    0.72    0.63
  -8 -10   1    1.03    0.68
  -8  10  -1    1.58    0.33
  -8  10  -1    0.98    0.55
  -9  10   1    1.15    0.59
  -9 -10  -1    1.54    0.74
  -9 -10   1    1.04    0.80
  -9  10  -1    1.46    0.65
 -10  10   1   -0.02    0.66
 -10 -10  -1    0.91    0.87
 -10 -10   1    0.53    0.88
 -10  10  -1    0.32    0.72
   0 -11  -1    2.22    0.57
   0 -11   1    2.15    0.33
   0 -11   1    2.16    0.62
  -1 -11  -1    2.40    0.64
   1 -11   1    1.84    0.57
  -1 -11  -1    1.81    0.33
  -1  11   1    1.74    0.47
  -1 -11   1    1.94    0.33
  -1 -11   1    1.96    0.58
   1 -11  -1    1.87    0.50
  -1  11  -1    1.39    0.42
  -2 -11  -1    2.34    0.38
  -2 -11  -1    2.25    0.63
   2 -11   1    2.44    0.60
  -2 -11   1    3.10    0.54
  -2 -11   1    1.92    0.64
  -2  11  -1    4.16    0.70
   2 -11  -1    2.16    0.54
  -3 -11  -1    1.71    0.41
  -3  11   1    0.83    0.41
   3 -11   1    1.71    0.51
  -3 -11  -1    1.80    0.64
  -3  11  -1    1.44    0.40
  -3 -11   1    1.53    0.41
   3 -11  -1    0.92    0.46
  -3 -11   1    1.40    0.61
  -4 -11  -1    4.33    0.83
   4 -11   1    4.44    0.77
  -4  11   1    4.25    0.72
  -4 -11  -1    4.47    0.66
   4 -11  -1    2.81    0.65
  -4 -11   1    3.20    0.72
  -4 -11   1    4.35    0.66
  -4  11  -1    4.54    0.76
  -5  11   1    0.56    0.40
  -5 -11  -1    1.03    0.61
  -5 -11  -1    0.60    0.58
   5 -11   1    0.35    0.50
  -5 -11   1    0.39    0.58
  -5  11  -1    0.60    0.41
   5 -11  -1    0.93    0.54
  -5 -11   1   -0.16    0.55
  -6 -11  -1    1.87    0.73
  -6 -11  -1    2.86    0.72
  -6  11   1    0.81    0.45
   6 -11   1    1.48    0.69
   6 -11  -1    1.00    0.63
  -6  11  -1    1.77    0.52
  -6 -11   1    0.34    0.65
  -7 -11  -1    0.80    0.65
  -7  11   1    1.55    0.55
   7 -11   1    1.64    0.77
   7 -11  -1    1.53    0.72
  -7  11  -1    0.83    0.52
  -7 -11   1    0.82    0.66
   8 -11   1    3.15    0.93
  -8  11   1    3.23    0.67
  -8 -11  -1    1.56    0.81
  -8 -11   1    0.93    0.77
  -8  11  -1    2.60    0.68
   9 -11   1    3.70    1.10
  -9 -11  -1    2.73    0.95
  -9  11   1    5.17    0.93
  -9 -11   1    3.23    0.95
  -9  11  -1    5.72    0.94
   0 -12  -1    1.85    0.63
   0 -12   1    0.99    0.25
   0 -12   1    1.50    0.68
  -1 -12  -1    3.58    0.36
  -1 -12  -1    5.94    0.97
  -1 -12   1    2.89    0.50
  -1 -12   1    4.84    0.90
   1 -12  -1    3.85    0.80
   2 -12   1    2.88    0.71
  -2 -12  -1    4.04    0.86
  -2  12   1    5.43    0.86
  -2 -12  -1    4.08    0.54
  -2 -12   1    4.18    0.61
  -2  12  -1    2.61    0.58
  -2 -12   1    2.33    0.75
   2 -12  -1    3.20    0.65
   3 -12   1    1.27    0.55
  -3 -12  -1    1.05    0.68
  -3  12   1    0.20    0.39
  -3 -12  -1    1.47    0.45
  -3  12  -1    0.92    0.43
  -3 -12   1    2.17    0.50
  -3 -12   1    1.13    0.65
   3 -12  -1    1.35    0.54
  -4 -12  -1    1.44    0.57
  -4  12   1    0.72    0.48
   4 -12   1    1.01    0.60
  -4 -12  -1    0.94    0.70
  -4 -12   1    2.64    0.74
  -4 -12   1    1.68    0.55
  -4  12  -1    1.02    0.41
   4 -12  -1    1.07    0.61
  -5 -12  -1    2.09    0.73
  -5  12   1    2.13    0.55
   5 -12   1    2.84    0.78
  -5 -12  -1    1.79    0.79
  -5  12  -1    1.59    0.53
   5 -12  -1    1.80    0.66
  -5 -12   1    2.41    0.82
  -5 -12   1    2.08    0.72
  -6  12   1    2.91    0.67
   6 -12   1    3.51    0.78
  -6 -12  -1    3.31    0.87
  -6  12  -1    3.65    0.69
  -6 -12   1    3.64    0.92
   6 -12  -1    3.66    0.95
   7 -12   1    1.25    0.80
  -7 -12  -1   -0.10    0.79
  -7  12   1    1.58    0.69
  -7 -12   1   -0.64    0.76
   7 -12  -1    1.65    0.81
  -7  12  -1    1.39    0.64
  -8  12   1    3.10    0.83
  -8 -12  -1    3.09    0.97
   8 -12   1    2.21    0.97
   8 -12  -1    3.23    0.97
  -8  12  -1    2.99    0.85
  -8 -12   1    3.85    0.97
   0 -13   1    1.39    0.84
   0 -13  -1    0.65    0.75
   1 -13   1   25.67    1.99
  -1 -13  -1   24.23    1.95
  -1 -13   1   22.61    1.89
   1 -13  -1   27.48    1.85
  -1 -13   1   20.91    1.17
   2 -13   1    2.66    0.74
  -2  13   1    1.76    0.63
  -2 -13  -1    0.06    0.73
  -2 -13   1    1.57    0.80
  -2  13  -1    2.03    0.66
   2 -13  -1    0.83    0.65
  -3 -13  -1    5.06    1.01
   3 -13   1    5.44    0.92
  -3  13  -1    3.63    0.70
  -3 -13   1    3.87    1.06
   3 -13  -1    4.76    0.93
  -4  13   1    0.24    0.59
  -4 -13  -1   -0.56    0.75
   4 -13   1   -0.13    0.63
  -4 -13   1    0.30    0.69
  -4  13  -1   -0.85    0.49
   4 -13  -1    0.16    0.66
  -5 -13  -1   15.70    1.69
  -5  13   1   13.68    1.37
   5 -13   1   15.18    1.52
  -5  13  -1   13.57    1.29
   5 -13  -1   15.92    1.54
  -5 -13   1   13.69    1.67
   6 -13   1    1.41    0.87
  -6  13   1    0.40    0.59
  -6 -13  -1    0.32    0.90
   6 -13  -1    0.79    0.85
  -6 -13   1    1.23    0.97
  -6  13  -1    0.47    0.59
  -7 -13  -1    5.49    1.18
   7 -13   1    6.51    1.21
  -7  13   1    8.15    1.35
  -7  13  -1    4.12    0.87
   7 -13  -1    4.34    1.09
  -7 -13   1    4.90    1.13
   0 -14   1    4.27    1.15
   0 -14  -1    3.25    1.04
   1 -14   1   13.27    1.83
  -1 -14  -1   12.18    1.81
  -1 -14   1   10.20    1.67
   1 -14  -1   15.86    1.84
  -2  14   1    7.59    1.35
   2 -14   1   11.82    1.81
  -2 -14  -1    7.21    1.28
  -2 -14   1    7.44    1.23
   2 -14  -1    5.23    0.97
  -3 -14  -1    4.29    1.13
  -3  14   1    1.64    0.68
   3 -14   1    2.94    0.90
  -3 -14   1    2.74    1.11
   3 -14  -1    3.90    0.91
  -3  14  -1    3.21    0.83
  -4  14   1    4.22    0.78
   4 -14   1    5.91    1.06
  -4 -14  -1    4.13    1.08
  -4 -14   1    6.04    1.28
  -4  14  -1    8.24    1.28
   4 -14  -1    5.95    1.17
  -5 -14  -1    6.09    1.26
  -5  14   1    6.21    1.00
   5 -14   1    7.68    1.28
  -5 -14   1    5.48    1.28
   5 -14  -1    7.40    1.24
  -5  14  -1    5.06    0.94
   6 -14   1    5.38    1.33
  -6 -14  -1    3.92    1.23
  -6  14   1    3.27    0.87
  -6 -14   1    4.26    1.26
   6 -14  -1    4.73    1.14
  -6  14  -1    2.47    0.83
   0 -15  -1    6.37    1.44
   0 -15   1    5.60    1.36
  -1 -15  -1    2.62    1.19
   1 -15   1    3.93    1.30
  -1 -15   1    2.40    1.13
   1 -15  -1    4.00    1.34
   2 -15   1    4.64    1.32
  -2 -15  -1    4.36    1.25
   2 -15  -1    5.94    1.34
  -2 -15   1    3.40    1.25
  -3 -15  -1   15.09    2.14
   3 -15  -1   10.60    1.47
  -3 -15   1   13.12    2.05
  -4  15   1    0.92    0.86
   4 -15   1    0.71    1.06
  -4 -15  -1    1.74    1.14
  -4 -15   1    0.81    1.09
   4 -15  -1    0.87    1.10
  -4  15  -1    1.45    1.00
   0   0   2   47.16    1.74
   0   0  -2   47.94    1.76
   0   0   2   50.56    1.77
   0   0  -2   48.28    1.74
   1   0   2    0.00    0.02
  -1   0   2    0.05    0.04
  -1   0  -2    0.09    0.03
  -1   0   2    0.03    0.05
   1   0  -2    0.04    0.05
   1   0  -2    0.09    0.06
  -1   0  -2    0.06    0.05
   2   0  -2   15.19    0.70
  -2   0   2   15.51    0.69
   2   0  -2   14.73    0.69
  -2   0  -2   14.44    0.62
  -3   0   2   38.12    1.59
  -3   0   2   39.92    1.59
   3   0  -2   38.82    1.60
   4   0  -2  240.23    8.61
  -4   0   2  244.00    8.60
   4   0   2  236.51    8.48
  -4   0  -2  244.49    8.54
  -4   0   2  227.10    8.60
   5   0  -2   76.86    3.08
   5   0   2   76.33    2.96
  -5   0  -2   81.85    3.05
  -5   0   2   79.93    3.10
  -5   0   2   74.53    3.10
   6   0   2   85.01    3.34
   6   0  -2   84.49    3.45
  -6   0   2   85.27    3.50
  -6   0   2   90.65    3.49
  -6   0  -2   88.49    3.42
   7   0   2   20.25    1.10
   7   0  -2   19.02    1.20
  -7   0   2   19.72    1.25
  -7   0  -2   19.56    1.12
  -7   0   2   19.33    1.17
  -8   0   2  105.68    4.27
   8   0  -2  104.45    4.27
  -8   0  -2  103.61    4.19
  -8   0   2   99.47    4.28
   8   0   2  109.51    4.14
  -9   0   2    2.02    0.51
   9   0   2    2.33    0.58
   9   0  -2    2.15    0.71
  -9   0  -2    1.69    0.45
  -9   0   2    1.21    0.60
 -10   0  -2    6.34    0.90
  10   0   2    6.08    0.90
 -10   0   2    6.80    0.97
 -11   0   2   10.32    1.24
 -11   0  -2   10.98    1.18
  11   0   2   14.59    1.64
 -12   0  -2    0.10    0.64
 -12   0   2   -0.06    0.71
 -13   0   2    1.18    0.94
 -13   0  -2    0.55    0.86
   0  -1  -2  489.99   16.22
   0  -1   2  476.60   16.24
   0   1  -2  482.07   16.37
   0   1   2  457.20   16.29
   0   1   2  456.67   16.20
   0  -1   2  432.61   16.27
   0  -1  -2  437.42   16.25
   0  -1   2  465.26   16.36
   0   1  -2  455.60   16.37
  -1   1   2   27.39    0.99
   1  -1   2   28.06    0.99
  -1   1   2   23.83    1.00
   1  -1   2   27.67    1.04
   1   1  -2   24.51    1.03
   1  -1   2   25.58    0.99
   1   1  -2   26.30    1.05
  -1  -1  -2   26.28    0.95
   1  -1  -2   26.55    1.00
  -1   1  -2   25.55    0.97
  -1  -1   2   26.45    1.03
   1  -1  -2   25.33    1.01
  -1  -1   2   25.22    1.04
  -1   1  -2   26.49    1.03
   2   1  -2   71.95    2.62
  -2  -1  -2   65.82    2.49
  -2   1   2   71.06    2.57
   2  -1   2   68.11    2.55
   2  -1  -2   67.33    2.58
  -2  -1   2   73.48    2.63
  -2   1  -2   71.84    2.55
   2  -1  -2   68.29    2.59
   2   1   2   70.44    2.50
   3  -1   2   19.01    0.84
   3   1  -2   19.60    0.90
  -3  -1  -2   18.64    0.77
  -3   1   2   19.17    0.88
  -3   1   2   18.91    0.87
  -3  -1   2   18.21    0.90
   3   1   2   18.93    0.78
  -3   1  -2   17.28    0.89
   3  -1  -2   18.34    0.87
  -3  -1   2   18.75    0.89
  -4   1   2   56.58    2.29
   4   1  -2   59.85    2.31
   4  -1   2   55.20    2.23
  -4   1   2   56.81    2.28
  -4  -1   2   57.27    2.33
  -4   1  -2   56.00    2.23
  -4  -1   2   58.47    2.30
   4   1   2   56.53    2.17
  -5   1   2   18.05    0.96
  -5   1   2   18.21    0.99
   5   1  -2   18.31    0.98
   5  -1  -2   17.10    0.97
   5   1   2   16.65    0.86
  -5   1  -2   17.90    0.92
  -5  -1   2   17.87    1.02
   6  -1   2   16.64    0.94
  -6   1   2   17.70    1.02
  -6   1   2   17.81    1.06
  -6  -1  -2   18.91    1.00
   6   1  -2   18.72    1.06
   6   1   2   18.41    0.95
   6  -1  -2   16.06    1.03
  -6   1  -2   16.84    0.97
  -6  -1   2   18.17    1.11
   7   1  -2   21.05    1.28
  -7   1   2   21.01    1.29
  -7  -1  -2   20.50    1.19
   7  -1   2   21.51    1.18
  -7   1   2   21.58    1.25
  -7   1  -2   22.26    1.21
  -7  -1   2   21.69    1.34
  -7  -1   2   23.93    1.30
   7  -1  -2   22.20    1.30
   7   1   2   23.34    1.18
   8  -1   2    5.82    0.75
  -8  -1  -2    4.36    0.64
  -8   1   2    4.53    0.81
   8   1  -2    4.56    0.79
  -8   1   2    5.02    0.68
  -8  -1   2    4.98    0.78
  -8   1  -2    5.25    0.63
   8  -1  -2    4.81    0.73
  -8  -1   2    4.11    0.66
   8   1   2    5.54    0.71
  -9   1   2    4.29    0.77
   9   1  -2    4.20    0.77
  -9  -1  -2    4.23    0.71
  -9   1   2    4.11    0.74
   9  -1   2    3.54    0.65
   9  -1  -2    4.46    0.82
  -9  -1   2    4.64    0.72
  -9  -1   2    4.01    0.80
   9   1   2    4.41    0.70
  -9   1  -2    4.23    0.68
 -10  -1  -2    7.18    0.93
 -10   1   2    6.89    0.97
  10  -1   2    9.78    1.26
 -10   1  -2    8.11    0.94
 -10  -1   2    7.67    1.01
  10   1   2   10.29    1.23
 -11   1   2    6.67    1.10
 -11  -1  -2    6.54    1.06
  11  -1   2    6.48    1.34
 -11   1  -2    5.07    0.85
 -11  -1   2    4.78    0.83
 -12   1   2   13.35    1.53
 -12  -1  -2   10.35    1.36
 -12  -1   2   13.07    1.50
 -12   1  -2    9.11    1.40
 -13   1   2   14.55    1.87
 -13  -1  -2   14.39    1.68
 -13   1  -2   14.71    1.68
   0  -2  -2  305.75   10.73
   0   2  -2  327.89   10.78
   0   2   2  296.23   10.85
   0  -2  -2  284.93   10.74
   0   2  -2  300.75   10.72
   0  -2   2  305.14   10.77
   0   2  -2  297.84   10.83
   0  -2   2  299.37   10.84
   0  -2   2  330.94   10.73
   1  -2   2   77.09    2.93
   1  -2   2   78.86    2.92
  -1   2   2   79.54    2.93
  -1  -2  -2   77.91    2.89
  -1  -2  -2   81.97    2.90
   1   2  -2   77.78    2.95
   1  -2   2   83.14    2.91
   1   2  -2   82.88    2.99
  -1   2   2   84.47    2.85
  -1  -2   2   85.71    2.95
  -1   2  -2   76.53    2.90
   1  -2  -2   84.57    2.94
  -1  -2   2   70.13    2.97
  -1   2  -2   83.44    2.92
   1  -2  -2   81.18    2.86
  -2   2   2  112.26    3.88
   2   2  -2  112.15    4.00
  -2  -2  -2  104.59    3.87
   2  -2   2  112.70    3.93
   2   2  -2  110.51    3.99
  -2   2   2  115.09    3.96
   2  -2  -2  107.03    3.95
  -2   2  -2  101.32    3.93
  -2  -2   2  111.36    3.98
  -2   2  -2   98.72    3.92
   2  -2  -2  102.90    3.89
   2   2   2  107.97    3.87
  -2  -2   2  110.08    3.99
  -3   2   2   12.08    0.64
  -3   2   2   11.98    0.60
   3   2  -2   11.15    0.66
   3  -2   2   11.71    0.61
   3   2  -2   11.77    0.68
  -3  -2  -2   10.55    0.54
  -3   2  -2   12.97    0.61
  -3  -2   2   11.18    0.64
   3   2   2   11.77    0.56
   3  -2  -2   11.56    0.64
  -3  -2   2   12.23    0.67
   4  -2   2   74.12    2.90
   4   2  -2   74.47    2.95
  -4   2   2   75.32    2.90
  -4  -2  -2   71.70    2.91
  -4   2   2   76.94    2.95
  -4  -2   2   77.32    3.00
   4   2   2   74.50    2.82
   4  -2  -2   72.33    2.93
  -4  -2   2   77.47    2.96
  -4   2  -2   79.60    2.90
  -5   2   2  146.54    5.63
  -5  -2  -2  156.25    5.51
  -5   2   2  152.85    5.62
   5   2  -2  148.11    5.63
   5  -2   2  131.39    5.56
  -5  -2   2  153.10    5.71
  -5   2  -2  161.48    5.60
   5   2   2  152.28    5.51
  -5  -2   2  160.37    5.67
   5  -2  -2  146.97    5.63
  -6   2   2    3.78    0.49
   6   2  -2    5.63    0.64
  -6   2   2    4.32    0.57
  -6  -2   2    4.54    0.62
  -6   2  -2    4.75    0.50
  -6  -2   2    4.72    0.49
   6   2   2    4.94    0.49
  -7   2   2   36.86    1.83
   7   2  -2   38.86    1.86
  -7   2   2   38.36    1.83
  -7   2  -2   39.40    1.78
   7   2   2   37.53    1.70
   7  -2  -2   35.49    1.84
  -7  -2   2   36.15    1.89
  -8   2   2   42.66    2.04
   8  -2   2   42.89    1.99
   8   2  -2   39.47    2.03
  -8  -2  -2   40.91    1.99
  -8   2   2   42.30    2.07
   8  -2  -2   40.24    2.08
  -8   2  -2   44.01    2.00
  -8  -2   2   40.70    2.02
  -8  -2   2   38.67    2.11
   8   2   2   38.16    1.88
  -9   2   2    1.56    0.48
  -9  -2  -2    1.43    0.47
   9   2  -2    2.32    0.70
   9  -2   2    0.30    0.56
  -9   2   2    1.52    0.60
   9   2   2    1.24    0.54
  -9  -2   2    1.12    0.53
  -9   2  -2    1.45    0.47
   9  -2  -2    2.47    0.69
 -10  -2  -2    3.37    0.69
  10  -2   2    3.63    0.84
 -10   2   2    3.03    0.66
  10   2   2    3.92    0.80
 -10  -2   2    3.97    0.67
 -10   2  -2    3.11    0.59
 -11  -2  -2    3.84    0.76
 -11   2   2    3.78    0.77
 -11  -2   2    3.61    0.84
  11   2   2    2.95    0.95
 -11   2  -2    6.05    0.99
 -12   2   2    3.75    0.94
 -12  -2  -2    3.85    0.84
 -12   2  -2    2.31    0.77
 -12  -2   2    3.46    0.89
 -13   2   2    5.57    1.08
 -13  -2  -2    4.10    1.03
 -13  -2   2    4.73    1.11
 -13   2  -2    3.55    0.88
   0   3  -2    0.57    0.14
   0   3   2    0.39    0.13
   0  -3  -2    0.39    0.07
   0   3  -2    0.33    0.09
   0   3  -2    0.49    0.14
   0  -3   2    0.57    0.13
   0  -3   2    0.67    0.12
   0  -3  -2    0.40    0.09
   0  -3   2    0.52    0.15
  -1  -3  -2  211.07    7.87
   1   3  -2  223.19    7.95
  -1  -3  -2  221.76    7.87
   1  -3   2  227.93    7.88
   1  -3   2  216.82    7.92
  -1   3   2  221.54    7.75
  -1   3   2  224.93    7.89
   1  -3   2  225.81    7.85
   1  -3  -2  227.38    7.89
  -1  -3   2  233.79    7.97
   1  -3  -2  207.92    7.75
  -1   3  -2  209.49    7.82
  -1   3  -2  235.48    7.89
  -1  -3   2  221.44    7.88
  -2   3   2    6.60    0.33
   2   3  -2    7.65    0.51
   2   3  -2    7.51    0.47
  -2   3   2    6.04    0.41
   2  -3   2    7.39    0.44
  -2  -3  -2    7.94    0.43
   2   3   2    8.55    0.43
  -2   3  -2    6.44    0.39
  -2  -3   2    7.86    0.47
   2  -3  -2    6.82    0.44
  -2  -3   2    8.41    0.51
  -2   3  -2    7.30    0.41
  -3   3   2   16.77    0.71
   3  -3   2   14.74    0.76
   3   3  -2   15.56    0.83
  -3   3   2   15.63    0.78
   3   3  -2   15.41    0.84
  -3  -3   2   14.38    0.81
  -3  -3   2   15.91    0.82
   3   3   2   14.45    0.73
  -3   3  -2   16.14    0.76
   3  -3  -2   14.87    0.79
   4   3  -2   38.16    1.69
  -4  -3  -2   38.83    1.56
   4  -3   2   40.01    1.65
  -4   3   2   36.48    1.57
  -4   3   2   39.60    1.66
  -4   3  -2   40.46    1.62
  -4  -3   2   32.72    1.66
   4  -3  -2   38.53    1.67
  -4  -3   2   39.55    1.69
   4   3   2   37.05    1.57
  -5  -3  -2   28.20    1.25
  -5   3   2   27.71    1.30
   5   3  -2   26.59    1.37
   5  -3   2   28.22    1.35
  -5   3   2   29.24    1.36
   5  -3  -2   29.00    1.39
  -5   3  -2   27.52    1.30
   5   3   2   26.76    1.26
  -5  -3   2   29.13    1.37
  -5  -3   2   28.12    1.43
  -6   3   2   10.58    0.76
  -6  -3  -2   10.76    0.66
   6  -3   2   10.37    0.79
  -6   3   2   10.34    0.76
   6   3  -2    9.37    0.81
  -6   3  -2    8.80    0.67
   6  -3  -2    9.58    0.79
   6   3   2    9.18    0.69
  -6  -3   2    8.87    0.84
  -6  -3   2   10.08    0.75
   7  -3   2   48.93    2.28
  -7   3   2   49.52    2.30
  -7   3   2   50.37    2.29
   7   3  -2   51.57    2.36
  -7  -3   2   51.10    2.42
  -7   3  -2   52.69    2.27
   7   3   2   50.99    2.20
  -7  -3   2   54.34    2.33
   8   3  -2    5.87    0.92
  -8   3   2    5.10    0.83
  -8   3   2    5.94    0.74
   8   3   2    7.34    0.79
  -8   3  -2    5.68    0.66
   8  -3  -2    6.13    0.95
   9   3  -2    1.77    0.76
  -9   3   2    2.10    0.60
  -9   3   2    1.76    0.48
   9  -3   2    2.42    0.64
  -9  -3  -2    1.98    0.48
   9   3   2    1.81    0.55
   9  -3  -2    1.55    0.74
  -9   3  -2    1.63    0.46
 -10   3   2    7.54    0.98
 -10  -3  -2    6.88    0.97
  10  -3   2    8.37    1.32
 -10  -3   2    7.28    1.05
  10   3   2    7.05    1.17
 -10   3  -2    5.13    0.81
 -11  -3  -2    3.42    0.78
 -11   3   2    4.18    0.87
  11   3   2    4.41    1.00
 -11   3  -2    3.80    0.71
 -11  -3   2    5.31    0.94
 -12  -3  -2    6.60    1.09
 -12   3   2    4.86    0.95
 -12  -3   2    5.29    1.12
 -12   3  -2    4.76    0.89
 -13  -3  -2   -0.23    0.81
 -13   3  -2   -0.48    0.74
 -13  -3   2    0.17    0.90
   0   4   2   40.04    1.57
   0  -4   2   38.38    1.57
   0   4  -2   38.10    1.63
   0  -4  -2   39.48    1.59
   0  -4   2   37.71    1.50
   0  -4   2   41.49    1.65
   0   4  -2   41.48    1.59
   0  -4  -2   38.52    1.56
   0   4  -2   37.36    1.51
   1  -4   2   88.59    3.21
   1  -4   2   87.21    3.14
   1  -4   2   84.57    3.25
  -1  -4  -2   84.64    3.21
   1   4  -2   88.22    3.29
  -1   4   2   87.02    3.20
  -1  -4  -2   82.29    3.18
   1   4  -2   87.09    3.21
  -1   4  -2   81.11    3.11
  -1   4  -2   91.50    3.22
  -1  -4   2   83.70    3.17
   1  -4  -2   90.53    3.23
  -1  -4   2   86.54    3.29
  -1  -4   2   80.93    3.22
   2   4  -2   55.40    2.24
  -2   4   2   56.27    1.96
   2   4  -2   56.64    2.21
  -2  -4  -2   56.03    2.15
   2  -4   2   54.88    2.18
   2  -4   2   55.20    2.16
  -2  -4  -2   55.32    2.14
  -2   4   2   57.60    2.18
  -2   4  -2   47.16    2.11
   2   4   2   55.77    2.14
  -2  -4   2   56.37    2.17
   2  -4  -2   51.98    2.16
  -2   4  -2   52.61    2.13
  -2  -4   2   58.96    2.26
  -3  -4  -2   12.19    0.66
   3   4  -2   11.42    0.74
   3  -4   2   11.95    0.68
  -3   4   2   11.45    0.54
  -3  -4   2   11.29    0.70
  -3  -4   2   11.89    0.73
  -3   4  -2   11.42    0.63
   3  -4  -2   11.36    0.69
  -3   4  -2   11.15    0.60
   3   4   2   12.53    0.66
  -4  -4  -2    1.35    0.24
   4   4  -2    1.51    0.33
  -4   4   2    1.39    0.27
   4  -4   2    1.72    0.29
  -4   4   2    1.44    0.24
  -4  -4   2    1.83    0.33
  -4   4  -2    1.11    0.22
   4  -4  -2    1.04    0.26
   4   4   2    1.81    0.31
  -4  -4   2    1.39    0.29
   5  -4   2    4.55    0.53
  -5   4   2    4.33    0.44
  -5  -4  -2    3.84    0.41
   5   4  -2    4.70    0.58
  -5   4   2    4.37    0.46
   5   4   2    4.53    0.47
  -5   4  -2    4.34    0.42
  -5  -4   2    4.19    0.58
  -5  -4   2    4.10    0.47
   5  -4  -2    4.24    0.55
  -6   4   2    2.77    0.48
  -6  -4  -2    2.55    0.38
   6  -4   2    2.39    0.45
  -6   4   2    2.04    0.36
   6   4  -2    2.97    0.56
  -6  -4   2    2.45    0.49
  -6   4  -2    2.59    0.41
   6  -4  -2    2.38    0.41
   6   4   2    2.08    0.42
  -6  -4   2    2.43    0.43
   7  -4   2   18.68    1.24
  -7   4   2   18.07    1.14
  -7   4   2   18.73    1.15
  -7  -4  -2   19.65    1.07
   7   4  -2   18.70    1.26
   7   4   2   19.81    1.15
  -7  -4   2   19.03    1.33
  -7   4  -2   18.81    1.10
   7  -4  -2   18.17    1.27
  -7  -4   2   20.02    1.21
   8   4  -2   17.36    1.34
  -8   4   2   15.85    1.16
  -8   4   2   14.21    1.07
   8  -4   2   14.79    1.22
  -8  -4   2   17.14    1.16
  -8   4  -2   16.23    1.06
   8   4   2   17.50    1.16
   9   4  -2    4.30    0.85
  -9   4   2    4.80    0.75
  -9   4   2    4.41    0.69
   9   4   2    5.08    0.79
  -9   4  -2    5.77    0.71
 -10   4   2    3.65    0.85
 -10  -4  -2    3.60    0.72
 -10   4   2    3.99    0.74
  10   4   2    3.58    0.85
 -10   4  -2    4.56    0.76
 -11  -4  -2    0.34    0.64
 -11   4   2   -0.63    0.48
 -11   4  -2    0.53    0.47
 -11  -4   2    0.78    0.69
  11   4   2    0.98    1.07
 -12  -4  -2    0.17    0.72
 -12   4  -2    1.54    0.72
 -12  -4   2    2.17    0.90
 -13  -4  -2    1.94    1.05
 -13   4   2    1.06    0.87
 -13   4  -2    0.99    0.85
 -13  -4   2    0.73    1.04
   0  -5  -2   21.60    1.00
   0   5  -2   22.55    1.03
   0  -5   2   22.56    1.09
   0  -5   2   21.09    0.91
   0   5   2   22.40    1.01
   0  -5  -2   22.05    1.03
   0   5  -2   21.47    1.07
   0  -5   2   20.94    1.01
   1   5  -2  117.85    4.40
   1  -5   2  107.64    4.29
  -1  -5  -2  119.88    4.30
  -1  -5  -2  118.06    4.34
   1   5  -2  119.68    4.30
   1  -5   2  113.49    4.37
  -1   5   2  115.96    4.31
   1  -5   2  112.79    4.19
  -1   5  -2  117.89    4.32
   1  -5  -2  113.92    4.31
  -1  -5   2  120.28    4.35
  -1  -5   2  117.89    4.40
  -1  -5   2  115.74    4.25
   2  -5   2   41.69    1.75
   2  -5   2   43.14    1.79
  -2   5   2   44.13    1.75
  -2  -5  -2   42.27    1.73
  -2  -5  -2   44.46    1.77
   2   5  -2   40.26    1.82
   2   5  -2   43.17    1.78
  -2  -5   2   43.21    1.79
   2   5   2   41.42    1.74
  -2  -5   2   41.94    1.72
  -2  -5   2   39.89    1.82
   2  -5  -2   35.48    1.72
  -3  -5  -2   16.52    0.85
   3   5  -2   14.91    0.91
  -3   5   2   14.24    0.81
   3  -5   2   14.41    0.83
  -3   5   2   14.56    0.61
   3   5   2   16.55    0.85
  -3  -5   2   15.44    0.86
   3  -5  -2   15.27    0.85
  -3   5  -2   14.19    0.79
  -3  -5   2   16.50    0.92
  -3   5  -2   14.28    0.70
  -4   5   2    8.05    0.58
   4  -5   2    7.58    0.60
  -4   5   2    7.58    0.45
  -4  -5  -2    6.93    0.56
   4   5  -2    7.07    0.67
  -4   5  -2    8.38    0.56
  -4   5  -2    7.93    0.52
   4  -5  -2    7.49    0.63
  -4  -5   2    7.28    0.64
  -4  -5   2    6.35    0.60
   4   5   2    7.42    0.58
   5  -5   2   15.91    1.00
  -5   5   2   17.02    0.97
  -5  -5  -2   17.55    0.93
   5   5  -2   16.61    1.09
  -5   5   2   16.14    0.85
   5  -5  -2   16.22    1.04
  -5   5  -2   16.38    0.93
  -5   5  -2   16.70    0.90
  -5  -5   2   16.59    1.01
  -5  -5   2   16.51    1.05
   5   5   2   14.99    0.93
   6   5  -2   14.40    1.11
  -6   5   2   15.99    0.91
  -6   5   2   15.68    0.98
   6  -5   2   14.27    1.03
  -6  -5  -2   14.96    0.90
   6   5   2   14.28    0.94
   6  -5  -2   15.53    1.09
  -6  -5   2   14.99    0.99
  -6   5  -2   16.04    0.94
  -6  -5   2   14.65    1.08
  -7  -5  -2   10.21    0.74
  -7   5   2    8.48    0.78
   7  -5   2    8.40    0.95
  -7   5   2    9.15    0.78
   7   5  -2    7.81    0.96
  -7  -5   2    9.57    1.01
  -7   5  -2    8.52    0.73
   7   5   2    8.12    0.81
  -7  -5   2    8.81    0.78
   8   5  -2    3.00    0.75
   8  -5   2    3.07    0.69
  -8   5   2    3.43    0.60
  -8   5   2    3.33    0.60
  -8  -5  -2    3.63    0.61
   8   5   2    3.30    0.62
  -8   5  -2    3.02    0.54
  -8  -5   2    2.41    0.50
  -8  -5   2    2.09    0.66
  -9   5   2    1.10    0.61
  -9   5   2    1.17    0.47
   9   5   2    0.65    0.62
  -9   5  -2    0.51    0.37
  -9  -5   2    0.51    0.46
 -10   5   2    3.79    0.93
 -10   5   2    4.70    0.83
 -10   5  -2    3.74    0.66
  10   5   2    4.92    0.96
 -11   5   2    8.43    1.12
 -11  -5  -2    8.52    1.27
 -11   5  -2    6.64    1.04
 -12   5   2    0.49    0.75
 -12  -5  -2    1.86    0.87
 -12   5  -2    1.25    0.66
 -12  -5   2    2.83    1.04
   0  -6  -2   25.27    1.22
   0  -6   2   24.40    1.05
   0  -6   2   24.70    1.19
   0  -6   2   26.16    1.28
   0  -6  -2   25.83    1.19
   0   6  -2   26.22    1.28
   0   6   2   25.43    1.18
   0   6  -2   26.09    1.10
   0  -6  -2   24.88    0.98
   0   6  -2   25.69    1.20
   1  -6   2  120.44    4.75
  -1  -6  -2  129.39    4.80
   1   6  -2  127.84    4.72
  -1  -6  -2  127.17    4.64
  -1  -6  -2  127.61    4.75
   1  -6   2  123.07    4.82
   1  -6   2  129.01    4.61
   1   6  -2  129.76    4.87
  -1   6   2  127.21    4.75
   1  -6  -2  128.64    4.82
  -1  -6   2  124.30    4.66
  -1  -6   2  127.90    4.86
  -1  -6   2  130.15    4.79
  -1   6  -2  130.28    4.78
   1  -6  -2  131.05    4.77
   2   6  -2   16.72    1.00
  -2   6   2   17.26    0.89
   2  -6   2   17.38    0.96
   2   6  -2   17.89    0.93
   2  -6   2   17.11    0.92
  -2  -6  -2   16.62    0.93
  -2  -6  -2   17.20    0.92
   2   6   2   16.62    0.93
  -2  -6   2   17.21    1.00
  -2  -6   2   16.59    0.86
  -2   6  -2   16.99    0.89
   2  -6  -2   16.58    0.92
  -2  -6   2   15.90    0.92
   3   6  -2    1.81    0.44
   3  -6   2    2.56    0.39
  -3  -6  -2    1.83    0.33
   3  -6   2    2.59    0.42
  -3  -6  -2    1.84    0.34
  -3   6   2    2.02    0.32
   3   6   2    1.94    0.36
  -3   6  -2    2.31    0.32
  -3  -6   2    1.94    0.39
   3  -6  -2    2.97    0.45
  -3   6  -2    2.27    0.24
  -3  -6   2    2.15    0.38
   4   6  -2    6.26    0.72
  -4   6   2    6.08    0.54
  -4  -6  -2    6.20    0.58
  -4   6   2    6.73    0.38
   4  -6   2    7.74    0.65
  -4  -6   2    6.55    0.65
   4   6   2    6.13    0.62
   4  -6  -2    5.83    0.63
  -4  -6   2    6.74    0.64
  -4   6  -2    6.49    0.43
  -4   6  -2    6.90    0.54
  -5  -6  -2   12.93    0.87
  -5   6   2   14.35    0.74
   5  -6   2   14.18    0.98
  -5   6   2   14.33    0.89
   5   6  -2   13.67    1.03
   5   6   2   14.84    0.93
   5  -6  -2   13.24    0.97
  -5   6  -2   14.51    0.79
  -5  -6   2   13.38    0.95
  -5   6  -2   13.38    0.85
  -5  -6   2   14.36    1.02
   6  -6   2    4.71    0.68
  -6  -6  -2    5.18    0.58
  -6   6   2    5.23    0.54
  -6   6   2    4.96    0.57
   6   6  -2    5.18    0.81
  -6   6  -2    4.97    0.55
  -6   6  -2    4.58    0.53
  -6  -6   2    6.55    0.81
  -6  -6   2    5.62    0.66
   6   6   2    4.42    0.61
   6  -6  -2    5.65    0.81
  -7   6   2   16.57    1.04
   7   6  -2   19.02    1.39
  -7   6   2   15.55    1.09
  -7  -6  -2   16.19    1.05
   7  -6   2   16.75    1.26
   7   6   2   15.75    1.14
  -7   6  -2   17.22    1.09
  -7  -6   2   16.07    1.32
  -7  -6   2   16.18    1.15
   8   6  -2    5.97    1.02
  -8  -6  -2    5.77    0.72
  -8   6   2    7.38    0.79
  -8   6   2    5.84    0.86
   8   6   2    4.97    0.80
  -8   6  -2    6.14    0.71
  -8  -6   2    6.44    0.80
  -9   6   2    1.03    0.62
  -9   6   2    0.65    0.42
  -9  -6  -2    2.20    0.56
   9   6   2    0.91    0.67
  -9  -6   2    1.62    0.53
  -9   6  -2    1.06    0.40
 -10   6   2    2.06    0.81
 -10   6   2    1.83    0.53
  10   6   2    1.76    0.91
 -10  -6   2    2.46    0.72
 -10   6  -2    1.86    0.56
 -11   6   2    1.77    0.66
 -11   6  -2    2.28    0.69
 -12   6   2    5.81    0.98
 -12  -6  -2    5.70    1.10
 -12   6  -2    5.13    0.87
 -12  -6   2    5.77    1.17
   0   7  -2   49.20    2.16
   0  -7   2   48.54    2.06
   0   7  -2   49.02    1.93
   0   7   2   49.63    2.06
   0  -7   2   47.20    1.87
   0  -7  -2   45.17    2.08
   0   7  -2   50.35    2.09
   0  -7   2   48.16    2.15
   0  -7  -2   49.47    2.06
   0  -7  -2   47.74    1.77
  -1  -7  -2   34.76    1.56
  -1  -7  -2   32.96    1.58
  -1   7   2   34.06    1.55
   1  -7   2   34.46    1.57
   1  -7   2   34.87    1.64
   1  -7   2   33.59    1.38
  -1  -7  -2   33.58    1.39
   1   7  -2   36.57    1.52
   1   7  -2   35.76    1.68
  -1  -7   2   33.96    1.66
  -1  -7   2   33.83    1.58
   1  -7  -2   33.38    1.56
  -1   7  -2   33.55    1.56
  -1  -7   2   33.88    1.43
  -1   7  -2   34.20    1.41
   1  -7  -2   34.89    1.61
  -2  -7  -2   24.96    1.19
   2  -7   2   26.40    1.30
  -2  -7  -2   25.48    1.32
   2   7  -2   25.18    1.38
  -2   7   2   27.47    1.28
  -2  -7  -2   24.90    1.26
   2  -7   2   24.40    1.32
  -2  -7   2   24.52    1.31
   2  -7  -2   26.30    1.30
  -2  -7   2   26.69    1.21
  -2  -7   2   24.87    1.37
  -2   7  -2   27.38    1.27
  -3  -7  -2   33.61    1.53
   3  -7   2   29.29    1.52
  -3  -7  -2   30.72    1.52
  -3   7   2   30.50    1.46
   3   7  -2   31.52    1.63
  -3  -7  -2   32.25    1.49
   3  -7   2   29.33    1.50
  -3  -7   2   30.36    1.45
  -3  -7   2   30.96    1.55
  -3   7  -2   32.44    1.26
  -3  -7   2   31.97    1.60
   3  -7  -2   29.31    1.51
   3   7   2   31.63    1.53
  -3   7  -2   30.27    1.46
  -4  -7  -2    1.73    0.39
   4   7  -2    0.53    0.46
   4  -7   2    1.97    0.40
   4  -7   2    2.09    0.44
  -4   7   2    1.61    0.35
  -4  -7  -2    1.59    0.38
  -4  -7  -2    1.64    0.41
  -4  -7   2    1.80    0.37
  -4  -7   2    1.30    0.37
  -4   7  -2    2.07    0.35
  -4   7  -2    1.89    0.26
   4   7   2    1.41    0.40
   5  -7   2    5.59    0.72
  -5  -7  -2    5.12    0.77
  -5   7   2    6.11    0.40
  -5   7   2    6.52    0.59
   5   7  -2    4.82    0.84
  -5  -7  -2    6.17    0.69
  -5   7  -2    5.53    0.57
  -5  -7   2    6.54    0.75
   5   7   2    5.90    0.74
  -5   7  -2    5.22    0.44
   5  -7  -2    5.03    0.78
  -6  -7  -2   23.63    1.32
   6   7  -2   22.96    1.53
  -6   7   2   23.45    1.33
  -6   7   2   22.42    1.10
  -6  -7  -2   24.02    1.53
   6  -7   2   22.57    1.46
  -6  -7   2   25.08    1.44
   6   7   2   23.95    1.40
  -6  -7   2   24.76    1.52
  -6   7  -2   23.89    1.31
  -6   7  -2   23.93    1.18
  -7  -7  -2    1.48    0.41
  -7  -7  -2    2.38    0.69
   7   7  -2    1.59    0.67
  -7   7   2    2.18    0.41
  -7   7   2    1.56    0.39
   7  -7   2    2.56    0.89
  -7   7  -2    2.61    0.48
   7   7   2    1.78    0.64
  -7   7  -2    2.78    0.45
  -7  -7   2    1.61    0.62
  -7  -7   2    1.69    0.43
  -8   7   2    1.36    0.44
  -8  -7  -2    1.17    0.43
  -8   7   2    1.78    0.50
  -8   7  -2    2.69    0.51
  -8   7  -2    2.20    0.47
  -8  -7   2    1.76    0.51
   8   7   2    0.24    0.72
  -9  -7  -2    6.28    0.87
  -9   7   2    5.92    1.07
  -9   7   2    5.21    0.82
  -9  -7   2    6.53    0.95
  -9   7  -2    4.79    0.78
   9   7   2    4.08    0.99
  -9   7  -2    6.80    0.93
 -10   7   2   -0.25    0.52
 -10  -7  -2    0.67    0.59
 -10   7  -2    0.62    0.60
 -10   7  -2    0.25    0.44
 -10  -7   2    0.33    0.68
 -11   7   2    1.56    0.68
 -11   7  -2    1.93    0.80
 -12   7   2   15.58    1.63
 -12   7  -2   14.77    1.56
 -12   7  -2   18.57    1.91
   0  -8  -2   30.06    1.08
   0  -8   2   29.77    1.56
   0   8  -2   28.68    1.27
   0   8   2   28.28    1.41
   0  -8  -2   29.69    1.44
   0  -8  -2   29.61    1.47
   0  -8   2   28.37    1.21
   0  -8   2   26.80    1.40
  -1  -8  -2   11.71    0.83
  -1  -8  -2   11.70    0.80
  -1  -8  -2   11.45    0.60
  -1   8   2    9.97    0.73
   1  -8   2   10.00    0.81
   1   8  -2   10.25    0.91
   1  -8   2   10.70    0.59
  -1   8  -2   12.11    0.79
   1  -8  -2   11.67    0.81
  -1  -8   2   11.37    0.91
  -1   8  -2   11.49    0.60
  -1  -8   2   11.52    0.66
  -1  -8   2   12.05    0.84
   1  -8  -2   11.25    0.82
   2  -8   2   42.00    1.99
   2  -8   2   43.78    2.05
  -2  -8  -2   46.59    2.00
   2   8  -2   45.46    2.14
  -2   8   2   43.22    1.96
  -2  -8  -2   46.38    2.06
  -2  -8  -2   44.44    1.85
  -2   8  -2   42.87    1.97
   2  -8  -2   43.05    2.04
  -2  -8   2   42.30    1.85
   2  -8  -2   42.41    1.99
  -2  -8   2   46.91    2.06
  -2  -8   2   45.60    2.13
  -3  -8  -2   10.93    0.84
  -3  -8  -2    9.86    0.85
   3  -8   2    9.09    0.82
  -3   8   2   10.90    0.76
   3  -8   2   10.02    0.81
   3   8  -2    9.59    0.95
  -3  -8  -2    9.87    0.74
  -3   8  -2    9.82    0.52
  -3   8  -2   10.16    0.74
  -3  -8   2    9.83    0.88
  -3  -8   2    9.66    0.73
   3  -8  -2    9.66    0.83
  -3  -8   2   11.70    0.90
   3   8   2    9.76    0.87
   4   8  -2    4.54    0.74
   4  -8   2    3.34    0.58
  -4  -8  -2    3.34    0.55
  -4  -8  -2    4.94    0.72
   4  -8   2    4.30    0.71
  -4   8   2    3.70    0.48
  -4  -8  -2    4.11    0.68
  -4  -8   2    4.03    0.63
  -4   8  -2    4.29    0.36
   4   8   2    4.07    0.63
  -4  -8   2    3.99    0.63
  -4  -8   2    3.83    0.67
  -4   8  -2    3.39    0.49
   4  -8  -2    5.81    0.70
  -5  -8  -2   25.36    1.45
   5   8  -2   24.18    1.54
   5  -8   2   23.60    1.39
  -5   8   2   21.42    1.28
  -5  -8  -2   22.69    1.42
   5  -8   2   23.43    1.42
  -5  -8  -2   24.42    1.39
  -5  -8   2   23.13    1.41
  -5  -8   2   23.43    1.44
  -5   8  -2   21.60    1.26
   5   8   2   23.27    1.42
  -5   8  -2   23.00    1.04
  -6   8   2   23.06    1.35
   6  -8   2   22.05    1.75
   6   8  -2   18.67    1.57
  -6   8   2   22.71    1.01
  -6  -8  -2   25.31    1.62
  -6  -8  -2   23.50    1.38
  -6  -8   2   24.42    1.55
  -6   8  -2   22.98    1.33
  -6   8  -2   24.31    1.12
  -6  -8   2   22.69    1.45
   6   8   2   23.82    1.50
  -7   8   2    3.94    0.63
  -7  -8  -2    4.36    0.91
  -7   8   2    4.92    0.59
  -7  -8  -2    5.35    0.74
   7   8   2    4.62    0.83
  -7  -8   2    4.61    0.80
  -7   8  -2    3.84    0.66
  -7   8  -2    3.29    0.52
  -8   8   2    3.46    0.60
  -8  -8  -2    3.72    0.65
  -8   8   2    5.12    0.77
  -8  -8   2    3.43    0.74
  -8   8  -2    3.79    0.55
  -8   8  -2    4.18    0.71
   8   8   2    4.06    0.88
  -9   8   2   14.12    1.21
  -9  -8  -2   13.70    1.23
  -9  -8   2   13.87    1.29
  -9   8  -2   15.47    1.21
  -9   8  -2   14.74    1.18
 -10   8   2    0.56    0.57
 -10  -8  -2    0.30    0.67
 -10  -8   2    1.34    0.71
 -10   8  -2    0.63    0.63
 -10   8  -2    1.11    0.53
 -11   8   2    0.35    0.66
 -11   8  -2    1.12    0.68
 -11  -8   2    1.84    0.92
 -11   8  -2    1.78    0.86
   0   9   2   15.57    0.98
   0  -9  -2   14.00    1.01
   0  -9  -2   15.19    1.03
   0  -9   2   15.90    1.13
   0  -9   2   14.52    1.03
   0  -9   2   14.16    0.74
   1  -9   2    9.55    0.85
  -1   9   2    9.80    0.77
  -1  -9  -2   10.54    0.88
   1  -9   2   10.21    0.88
  -1  -9  -2    8.86    0.84
   1  -9   2   10.45    0.59
   1   9  -2    9.54    1.00
  -1  -9  -2    9.73    0.56
  -1   9  -2   11.34    0.61
  -1  -9   2   10.78    0.89
  -1  -9   2   10.76    0.96
   1  -9  -2   10.37    0.83
  -1   9  -2   11.30    0.82
  -1  -9   2   10.12    0.63
   1  -9  -2   11.11    0.90
   2  -9   2   17.91    1.13
  -2  -9  -2   16.58    0.89
  -2  -9  -2   17.75    1.18
  -2  -9  -2   16.65    1.08
  -2   9   2   17.47    1.05
   2  -9   2   16.71    1.12
   2   9  -2   17.39    1.25
  -2  -9   2   16.12    0.93
   2  -9  -2   16.81    1.12
  -2   9  -2   16.50    1.03
   2  -9  -2   15.14    1.07
  -2  -9   2   14.57    1.14
  -2  -9   2   14.56    1.08
   3  -9   2    2.97    0.57
   3   9  -2    3.01    0.66
   3  -9   2    3.24    0.57
  -3   9   2    2.93    0.47
  -3  -9  -2    3.00    0.46
  -3  -9  -2    2.73    0.54
  -3  -9  -2    3.69    0.60
   3  -9  -2    3.02    0.53
  -3   9  -2    2.69    0.46
  -3  -9   2    2.52    0.45
   3  -9  -2    2.76    0.51
  -3  -9   2    3.15    0.60
  -4  -9  -2    0.96    0.42
   4  -9   2    0.42    0.45
  -4  -9  -2    0.15    0.35
   4   9  -2    0.22    0.56
  -4  -9  -2    0.69    0.37
  -4   9   2    0.25    0.23
   4  -9   2    0.37    0.34
   4   9   2    0.59    0.48
  -4  -9   2    0.32    0.35
  -4  -9   2    0.13    0.41
  -4   9  -2    0.52    0.27
  -4   9  -2    0.56    0.16
  -5  -9  -2   14.30    1.17
  -5   9   2   14.22    0.99
  -5  -9  -2   14.79    1.11
   5   9  -2   12.39    1.36
  -5  -9  -2   14.44    1.22
   5  -9   2   13.31    1.09
  -5   9  -2   12.46    0.95
   5   9   2   13.73    1.23
  -5   9  -2   12.62    0.69
  -5  -9   2   13.26    1.14
  -5  -9   2   12.31    1.10
   6  -9   2   40.86    2.18
  -6  -9  -2   43.35    2.25
  -6  -9  -2   41.84    2.14
  -6   9   2   36.84    2.03
  -6   9  -2   41.50    2.04
  -6   9  -2   44.93    1.74
   6   9   2   44.03    2.26
  -6  -9   2   39.76    2.18
  -6  -9   2   45.55    2.27
  -7   9   2    0.10    0.23
  -7  -9  -2   -0.32    0.43
  -7   9   2    0.23    0.36
   7  -9   2    0.18    0.48
  -7  -9   2   -0.36    0.44
   7   9   2    0.27    0.74
  -7   9  -2    0.84    0.29
  -7   9  -2    0.78    0.43
  -8   9   2    4.32    0.76
  -8   9   2    3.71    0.62
  -8   9   2    4.81    0.60
  -8  -9  -2    4.91    0.81
  -8   9  -2    3.16    0.59
  -8   9  -2    3.81    0.60
  -8  -9   2    4.56    0.79
  -9  -9  -2   11.84    1.23
  -9   9   2   13.09    1.23
  -9   9   2   14.56    1.07
  -9  -9   2   14.34    1.37
  -9   9  -2   12.61    1.21
  -9   9  -2   11.26    0.96
 -10  -9  -2    0.78    0.72
 -10   9   2    0.92    0.61
 -10  -9   2    0.29    0.80
 -10   9  -2    0.54    0.63
 -11   9   2    4.60    0.91
 -11  -9  -2    6.53    1.13
 -11  -9   2    6.81    1.24
 -11   9  -2    8.07    1.34
   0 -10  -2   29.59    1.65
   0 -10   2   29.29    1.29
   0 -10   2   31.41    1.78
   0  10   2   31.52    1.63
   0 -10  -2   29.20    1.64
  -1 -10  -2   28.31    1.58
  -1 -10  -2   28.26    1.62
   1 -10   2   26.57    1.19
  -1  10   2   25.47    1.46
  -1 -10  -2   27.45    1.13
   1 -10   2   28.15    1.63
   1 -10  -2   27.43    1.55
  -1 -10   2   28.87    1.68
  -1 -10   2   27.32    1.25
  -1  10  -2   25.51    1.47
   1 -10  -2   26.29    1.54
   2  10  -2   13.54    1.31
  -2 -10  -2   13.10    1.11
  -2 -10  -2   14.24    0.82
   2 -10   2   14.30    1.09
  -2  10   2   15.56    1.01
  -2 -10  -2   14.87    1.20
  -2  10  -2   15.11    1.02
   2 -10  -2   13.61    1.08
   2 -10  -2   14.85    1.14
  -2  10  -2   12.52    0.73
  -2 -10   2   14.98    1.22
  -2 -10   2   15.66    0.90
  -3 -10  -2    7.30    0.94
  -3 -10  -2    7.77    0.92
   3 -10   2    7.46    0.86
  -3  10   2    6.76    0.71
   3  10  -2    4.30    1.24
  -3 -10  -2    7.89    0.71
  -3 -10   2    7.60    0.72
   3 -10  -2    6.81    0.81
  -3  10  -2    6.59    0.71
  -3  10  -2    5.84    0.44
  -3 -10   2    7.00    0.95
  -4  10   2    4.44    0.64
   4 -10   2    5.25    0.79
  -4 -10  -2    4.57    0.79
  -4 -10  -2    4.77    0.76
  -4 -10   2    5.45    0.87
  -4  10  -2    4.45    0.66
  -4 -10   2    4.49    0.77
  -4  10  -2    4.24    0.38
   4 -10  -2    4.29    0.72
   5 -10   2    8.13    0.98
  -5 -10  -2    9.74    1.08
  -5  10   2   11.64    0.95
  -5 -10  -2   10.62    1.09
   5  10   2    9.09    1.30
  -5 -10   2    9.77    1.05
  -5  10  -2   10.01    0.60
  -5  10  -2    8.24    0.86
  -5 -10   2    9.84    1.13
   6 -10   2   17.20    1.42
  -6 -10  -2   17.84    1.53
  -6  10   2   18.89    1.26
  -6 -10  -2   19.39    1.41
   6  10   2   21.32    2.02
  -6  10  -2   17.97    0.87
  -6  10  -2   18.72    1.27
  -6 -10   2   14.87    1.40
  -6 -10   2   16.60    1.42
  -7  10   2   16.47    1.28
   7 -10   2   18.07    1.47
  -7 -10  -2   15.10    1.33
  -7  10  -2   18.29    0.94
  -7  10  -2   19.45    1.32
  -7 -10   2   16.30    1.44
  -8 -10  -2    9.16    1.19
  -8  10   2    8.60    1.09
   8 -10   2    7.44    1.22
  -8  10  -2   11.18    0.79
  -8 -10   2    9.19    1.24
  -8  10  -2    9.92    1.07
  -9 -10  -2    0.80    0.69
  -9  10   2   -0.01    0.60
   9 -10   2    0.94    0.80
  -9  10  -2    0.56    0.59
  -9 -10   2    0.04    0.74
  10 -10   2    3.16    1.01
 -10 -10  -2    2.43    0.98
 -10  10   2    3.88    0.90
 -10 -10   2    3.33    1.03
 -10  10  -2    2.70    0.85
   0 -11   2    5.89    0.50
   0 -11   2    4.50    0.79
   0 -11  -2    4.67    0.78
  -1 -11  -2    7.20    1.01
   1 -11   2    6.43    1.02
  -1  11   2    4.88    0.77
  -1 -11  -2    6.10    0.39
  -1  11  -2    5.46    0.80
  -1 -11   2    4.75    0.56
  -1 -11   2    6.45    1.01
   1 -11  -2    5.05    0.80
  -2 -11  -2    1.26    0.32
  -2  11   2    1.20    0.44
   2 -11   2    1.78    0.52
  -2 -11  -2    1.86    0.60
  -2 -11   2    2.22    0.41
   2 -11  -2    1.26    0.44
  -2  11  -2    1.57    0.44
  -2 -11   2    1.13    0.58
  -3  11   2   27.73    1.62
  -3 -11  -2   28.79    1.78
   3 -11   2   29.86    1.76
  -3 -11  -2   27.54    1.42
  -3 -11   2   29.64    1.51
  -3  11  -2   27.89    1.61
  -3 -11   2   26.23    1.79
   3 -11  -2   27.44    1.71
  -4 -11  -2    3.09    0.61
  -4  11   2    2.09    0.47
   4 -11   2    2.46    0.64
  -4 -11  -2    3.41    0.77
  -4 -11   2    2.61    0.68
  -4 -11   2    3.61    0.61
  -4  11  -2    1.33    0.43
   4 -11  -2    2.15    0.59
  -5 -11  -2   11.64    1.26
  -5 -11  -2   11.20    1.26
   5 -11   2   12.75    1.20
  -5  11   2   12.32    1.06
  -5  11  -2   12.05    1.06
  -5 -11   2   10.91    1.29
   5 -11  -2   12.98    1.25
  -5 -11   2   12.85    1.25
  -6  11   2   11.37    1.08
   6 -11   2   10.21    1.21
  -6 -11  -2    7.20    1.36
  -6 -11  -2    9.37    1.24
   6 -11  -2   10.28    1.21
  -6  11  -2   10.06    1.04
  -6 -11   2    7.65    1.08
   7 -11   2   12.74    1.38
  -7  11   2   12.78    1.18
  -7 -11  -2    8.85    1.22
  -7  11  -2   12.07    1.18
  -7 -11   2    9.93    1.31
   8 -11   2   10.07    1.51
  -8  11   2    9.55    1.21
  -8 -11  -2    9.25    1.31
  -8  11  -2   10.32    1.24
  -8 -11   2    9.51    1.40
  -9  11   2   11.16    1.45
  -9 -11  -2    8.62    1.49
   9 -11   2   16.41    1.85
  -9  11  -2   13.42    1.45
  -9 -11   2   10.92    1.64
   0 -12   2   11.46    0.73
   0 -12   2   11.11    1.36
   0 -12  -2   11.73    1.21
   1 -12   2    4.30    0.86
  -1  12   2    4.85    0.83
  -1 -12  -2    4.33    0.85
   1 -12  -2    3.25    0.67
  -1 -12   2    3.40    0.86
  -1 -12   2    3.17    0.46
   2 -12   2   11.54    1.22
  -2 -12  -2    9.72    0.69
  -2 -12  -2    9.83    1.28
  -2  12   2   11.72    1.04
   2 -12  -2    7.92    1.06
  -2  12  -2    9.23    1.02
  -2 -12   2   10.59    1.33
  -2 -12   2    7.68    0.80
  -3 -12  -2    9.76    1.27
  -3 -12  -2    8.89    0.84
  -3  12   2    9.98    0.98
   3 -12   2    8.60    1.10
   3 -12  -2    8.68    1.13
  -3 -12   2    7.56    1.24
  -3 -12   2   10.00    0.97
  -4  12   2    0.27    0.46
  -4 -12  -2    0.34    0.52
   4 -12   2    0.58    0.56
  -4 -12  -2    0.25    0.64
   4 -12  -2    0.31    0.52
  -4 -12   2    0.62    0.63
  -4 -12   2    1.42    0.63
  -4  12  -2    0.26    0.44
  -5 -12  -2    3.73    0.92
  -5  12   2    3.82    0.70
   5 -12   2    4.53    0.90
  -5 -12  -2    4.65    0.86
  -5  12  -2    3.75    0.74
  -5 -12   2    3.17    0.85
  -5 -12   2    3.64    0.79
   5 -12  -2    4.97    0.94
  -6 -12  -2    1.39    0.81
   6 -12   2    2.33    0.83
  -6  12   2    2.35    0.61
  -6  12  -2    2.39    0.66
   6 -12  -2    2.89    0.75
  -7  12   2    0.26    0.59
   7 -12   2    1.10    0.79
  -7 -12  -2   -1.02    0.71
   7 -12  -2    0.33    0.79
  -7  12  -2    1.19    0.63
  -7 -12   2   -0.32    0.73
  -8 -12  -2    2.92    0.95
  -8  12   2    3.33    0.78
   8 -12   2    2.45    0.97
  -8  12  -2    2.67    0.79
   8 -12  -2    2.56    1.02
  -8 -12   2    2.97    0.97
   0 -13   2   10.35    1.46
   0 -13   2    7.93    0.81
   0 -13  -2   11.96    1.51
  -1 -13  -2    2.13    0.83
   1 -13   2    2.15    0.81
   1 -13  -2    0.87    0.61
  -1 -13   2    0.60    0.77
  -1 -13   2    0.86    0.49
  -2 -13  -2    0.13    0.75
  -2  13   2    1.04    0.59
   2 -13   2    2.20    0.85
  -2 -13   2    0.21    0.78
  -2  13  -2    1.60    0.63
   2 -13  -2    0.58    0.57
  -3 -13  -2    3.97    0.97
  -3  13   2    2.60    0.62
   3 -13   2    3.72    0.85
   3 -13  -2    3.62    0.77
  -3  13  -2    3.02    0.71
  -3 -13   2    3.91    0.99
   4 -13   2    3.71    0.89
  -4  13   2    1.12    0.56
  -4 -13  -2    2.36    0.90
  -4  13  -2    2.43    0.63
  -4 -13   2    2.86    0.90
   4 -13  -2    3.07    0.79
  -5 -13  -2    0.94    0.90
  -5  13   2    0.33    0.59
   5 -13   2    1.41    0.77
  -5  13  -2    0.21    0.55
  -5 -13   2    0.93    0.85
   5 -13  -2    0.57    0.75
  -6 -13  -2    1.65    0.96
   6 -13   2    2.02    0.86
  -6  13   2    1.43    0.69
  -6  13  -2    0.74    0.66
   6 -13  -2    1.36    0.83
  -6 -13   2   -0.38    0.94
   7 -13   2    3.99    1.06
  -7  13   2    4.32    0.83
  -7 -13  -2    2.42    0.98
   7 -13  -2    3.22    1.13
  -7 -13   2    2.42    1.01
  -7  13  -2    4.05    0.88
   0 -14  -2    1.61    0.94
   0 -14   2    1.87    0.93
  -1 -14  -2    2.52    1.03
   1 -14   2    1.51    0.98
   1 -14  -2    1.62    0.90
  -1 -14   2    0.97    0.91
   2 -14   2    4.54    1.13
  -2 -14  -2    2.80    1.01
  -2 -14   2    4.22    1.08
   2 -14  -2    2.94    0.80
  -3 -14  -2    2.02    1.04
   3 -14   2    4.52    1.11
  -3  14   2    2.98    0.76
   3 -14  -2    2.72    0.88
  -3 -14   2    1.46    1.01
  -3  14  -2    4.18    0.80
  -4  14   2    4.26    0.85
  -4 -14  -2    3.92    1.15
   4 -14   2    2.90    0.96
   4 -14  -2    4.55    1.01
  -4 -14   2    4.86    1.15
  -4  14  -2    5.18    0.89
   5 -14   2    2.98    1.01
  -5 -14  -2    3.11    1.12
  -5  14   2    2.20    0.75
  -5  14  -2    3.13    0.83
  -5 -14   2    3.20    1.18
   5 -14  -2    3.09    1.05
  -6  14   2   -1.06    0.69
  -6 -14  -2    2.59    1.18
   6 -14   2    1.03    1.04
   6 -14  -2    0.94    0.93
  -6  14  -2   -0.79    0.68
  -6 -14   2   -2.02    1.09
   0 -15   2    0.02    1.11
   0 -15  -2    1.63    1.21
   1 -15   2    2.14    1.24
  -1 -15  -2    1.66    1.18
  -1 -15   2    1.10    1.14
   1 -15  -2    4.21    1.29
  -2 -15  -2    3.68    1.24
   2 -15   2    5.16    1.50
   2 -15  -2    4.62    1.27
  -2 -15   2    2.77    1.25
  -3  15   2    2.95    0.90
  -3 -15  -2    2.24    1.21
   3 -15   2    3.61    1.35
   3 -15  -2    1.01    0.91
  -3 -15   2   -0.19    1.09
  -4  15   2    3.16    0.93
  -4 -15  -2    2.08    1.19
   4 -15  -2    2.79    1.12
  -4  15  -2    2.89    1.01
  -4 -15   2    1.83    1.27
   0   0  -3    0.08    0.05
   0   0   3   -0.01    0.05
   0   0   3    0.04    0.05
   0   0  -3    0.07    0.06
   1   0   3    0.29    0.05
  -1   0   3    0.22    0.09
  -1   0   3    0.30    0.08
   1   0  -3    0.27    0.10
  -1   0  -3    0.25    0.04
  -1   0  -3    0.16    0.08
   1   0   3    0.19    0.08
   1   0  -3    0.19    0.08
  -2   0   3  139.43    5.12
  -2   0   3  145.37    5.09
  -2   0  -3  136.81    4.99
   2   0  -3  142.70    5.11
  -3   0   3   11.44    0.64
  -3   0  -3   11.47    0.56
   3   0  -3   12.19    0.65
   3   0  -3   11.91    0.67
  -3   0   3   12.32    0.64
  -4   0   3   60.94    2.40
  -4   0  -3   58.92    2.31
  -4   0   3   61.95    2.41
   4   0  -3   59.70    2.41
   4   0   3   56.59    2.23
  -5   0  -3    9.33    0.60
   5   0   3    9.30    0.55
  -5   0   3    9.67    0.70
   5   0  -3   10.17    0.71
  -5   0   3    9.19    0.66
   6   0   3   30.65    1.38
  -6   0   3   31.83    1.54
  -6   0   3   30.25    1.55
   6   0  -3   31.10    1.55
  -6   0  -3   31.99    1.45
  -7   0   3    5.76    0.76
   7   0   3    4.59    0.56
  -7   0   3    5.87    0.63
   7   0  -3    6.38    0.77
  -7   0  -3    5.34    0.57
   8   0   3   38.22    1.81
  -8   0   3   37.89    1.94
  -8   0  -3   38.78    1.86
  -8   0   3   37.17    1.99
   8   0  -3   38.67    2.03
  -9   0   3   18.89    1.54
   9   0  -3   21.92    1.61
  -9   0  -3   22.47    1.35
  -9   0   3   21.60    1.42
   9   0   3   22.00    1.35
  10   0   3    1.12    0.61
 -10   0  -3    0.72    0.45
 -10   0   3    0.67    0.52
 -11   0  -3    0.47    0.52
 -11   0   3    0.89    0.61
 -12   0   3    2.31    0.79
 -12   0  -3    4.26    0.86
 -13   0  -3    1.48    0.97
 -13   0   3    1.37    0.94
   0   1   3   20.63    0.84
   0  -1  -3   21.33    0.78
   0   1  -3   20.19    0.85
   0   1   3   20.46    0.77
   0  -1   3   20.38    0.84
   0   1  -3   21.67    0.85
   0  -1   3   20.26    0.85
   0  -1  -3   20.81    0.83
   1  -1   3   16.72    0.69
   1   1  -3   17.81    0.76
   1  -1   3   16.95    0.75
  -1  -1  -3   18.45    0.64
   1  -1   3   17.00    0.66
   1   1  -3   15.08    0.79
  -1  -1  -3   18.63    0.76
  -1   1   3   16.70    0.70
  -1   1   3   17.69    0.71
  -1   1  -3   17.22    0.69
  -1  -1   3   18.07    0.75
   1  -1  -3   16.37    0.71
  -1   1  -3   15.90    0.65
  -1  -1   3   16.59    0.75
  -1   1  -3   15.63    0.73
   1  -1  -3   16.82    0.71
   2  -1   3   85.76    3.12
  -2   1   3   88.19    3.16
   2   1  -3   88.61    3.23
   2  -1   3   80.23    3.09
   2  -1  -3   83.86    3.18
   2  -1  -3   78.33    3.16
  -2   1  -3   87.21    3.22
  -2   1  -3   83.15    3.11
   2   1   3   90.88    3.03
  -2  -1   3   89.47    3.21
  -2  -1   3   94.21    3.25
  -3   1   3    0.05    0.11
   3   1  -3    0.32    0.14
   3  -1   3    0.10    0.09
   3   1  -3    0.01    0.12
  -3   1   3    0.08    0.11
   3  -1  -3    0.20    0.11
   3   1   3    0.20    0.07
  -3  -1   3    0.04    0.12
  -3  -1   3    0.10    0.11
  -4   1   3   15.71    0.83
   4   1  -3   16.21    0.88
  -4   1   3   15.36    0.84
  -4   1  -3   16.14    0.79
  -4  -1   3   16.05    0.88
   4  -1  -3   15.53    0.87
   4   1   3   16.62    0.71
  -4  -1   3   15.41    0.85
   5   1  -3    2.30    0.41
  -5  -1  -3    2.17    0.31
  -5   1   3    1.76    0.32
  -5   1   3    1.96    0.34
   5  -1  -3    2.07    0.39
   5   1   3    1.96    0.28
  -5   1  -3    2.23    0.31
  -5  -1   3    2.40    0.41
   6   1  -3    4.71    0.59
  -6   1   3    4.82    0.59
  -6  -1  -3    4.09    0.47
  -6   1   3    4.21    0.51
  -6   1  -3    5.37    0.48
   6   1   3    4.50    0.45
   6  -1  -3    4.43    0.59
  -6  -1   3    5.01    0.62
   7   1  -3   14.93    1.08
  -7   1   3   14.87    1.05
  -7   1   3   14.55    0.99
  -7  -1  -3   15.20    0.94
   7  -1   3   14.29    0.91
  -7   1  -3   14.21    0.92
  -7  -1   3   14.97    1.02
   7   1   3   15.65    0.88
   7  -1  -3   15.06    1.09
  -7  -1   3   14.70    1.09
  -8   1   3   25.80    1.57
   8   1  -3   26.38    1.60
   8  -1   3   26.47    1.43
  -8   1   3   26.32    1.52
  -8  -1  -3   27.78    1.46
   8   1   3   28.68    1.41
  -8   1  -3   27.80    1.46
  -8  -1   3   28.79    1.57
   8  -1  -3   25.38    1.61
  -8  -1   3   25.83    1.62
  -9   1   3    2.24    0.57
   9  -1   3    2.34    0.56
  -9  -1  -3    2.19    0.44
   9   1  -3    3.49    0.78
  -9   1   3    1.88    0.67
  -9  -1   3    2.51    0.58
  -9  -1   3    1.66    0.71
   9  -1  -3    2.63    0.81
   9   1   3    2.66    0.55
  -9   1  -3    2.92    0.55
  10  -1   3    2.40    0.73
 -10   1   3    1.22    0.56
 -10  -1  -3    1.37    0.49
 -10   1  -3    1.59    0.57
  10   1   3    2.47    0.65
 -10  -1   3    1.12    0.54
  11  -1   3    1.92    0.89
 -11  -1  -3    1.44    0.58
 -11   1   3    1.05    0.62
 -11  -1   3    1.13    0.65
 -11   1  -3    0.63    0.57
 -12   1   3    1.06    0.81
 -12  -1  -3    2.22    0.71
 -12   1  -3    1.78    0.74
 -12  -1   3    2.74    0.81
 -13  -1  -3    5.99    1.15
 -13   1   3    4.49    1.21
 -13  -1   3    5.74    1.21
 -13   1  -3    5.64    1.03
   0  -2  -3   74.73    2.71
   0   2   3   71.48    2.69
   0   2   3   79.62    2.73
   0  -2   3   74.45    2.78
   0  -2  -3   75.61    2.70
   0  -2   3   77.96    2.73
   0   2  -3   67.24    2.80
   0  -2   3   74.08    2.74
   0   2  -3   78.18    2.79
  -1  -2  -3   55.71    2.10
   1  -2   3   58.43    2.13
  -1  -2  -3   60.47    2.11
   1   2  -3   56.50    2.22
   1  -2   3   58.41    2.19
  -1   2   3   55.21    2.14
   1  -2   3   57.42    2.17
  -1   2   3   57.92    2.11
   1   2  -3   56.19    2.21
  -1   2  -3   55.37    2.12
   1  -2  -3   57.06    2.15
  -1  -2   3   63.12    2.20
  -1  -2   3   59.75    2.25
   1  -2  -3   58.99    2.12
  -1   2  -3   57.24    2.17
  -2  -2  -3   21.01    0.82
   2  -2   3   18.15    0.86
  -2   2   3   21.13    0.91
  -2   2   3   21.01    0.85
   2   2  -3   21.68    0.97
   2  -2   3   20.45    0.87
   2   2  -3   21.77    0.96
  -2   2  -3   19.89    0.91
  -2  -2   3   21.25    0.94
   2  -2  -3   20.73    0.92
  -2  -2   3   22.52    0.97
   2   2   3   22.72    0.81
  -2   2  -3   17.94    0.85
   2  -2  -3   19.72    0.87
   3  -2   3   39.35    1.57
  -3  -2  -3   36.52    1.48
   3   2  -3   38.00    1.65
   3   2  -3   39.69    1.68
  -3   2   3   42.17    1.64
  -3   2   3   40.39    1.57
  -3  -2   3   39.55    1.66
   3  -2  -3   38.63    1.63
  -3  -2   3   38.77    1.65
   3  -2  -3   38.62    1.61
   3   2   3   37.02    1.48
  -3   2  -3   42.33    1.57
  -4  -2  -3   73.75    2.83
   4   2  -3   78.83    3.03
  -4   2   3   79.57    3.01
  -4   2   3   81.08    2.96
   4  -2   3   74.07    2.93
  -4   2  -3   81.02    2.93
   4  -2  -3   75.03    2.99
  -4  -2   3   65.94    2.99
  -4  -2   3   80.76    3.04
   4   2   3   75.67    2.83
   5   2  -3    5.68    0.58
  -5   2   3    4.33    0.46
  -5   2   3    4.72    0.47
   5  -2   3    4.89    0.48
  -5   2  -3    4.88    0.43
  -5  -2   3    5.60    0.56
   5   2   3    5.14    0.40
  -5  -2   3    5.61    0.50
   6   2  -3    4.64    0.65
  -6   2   3    2.85    0.52
  -6   2   3    3.86    0.49
  -6   2  -3    4.16    0.46
   6  -2  -3    3.24    0.58
  -6  -2   3    4.24    0.59
  -6  -2   3    4.65    0.51
   6   2   3    4.33    0.45
  -7   2   3   15.65    1.04
   7   2  -3   16.56    1.15
  -7  -2  -3   16.57    0.98
  -7   2   3   15.37    1.08
   7  -2  -3   15.81    1.12
  -7   2  -3   16.69    0.99
   7   2   3   14.90    0.92
  -7  -2   3   16.27    1.16
   8   2  -3   41.56    2.11
   8  -2   3   38.91    1.92
  -8   2   3   41.71    2.05
  -8   2   3   37.14    2.02
  -8  -2  -3   43.17    1.99
  -8  -2   3   43.91    2.08
  -8  -2   3   41.53    2.15
   8  -2  -3   39.05    2.09
   8   2   3   40.05    1.87
  -8   2  -3   41.10    1.94
   9   2  -3    4.66    0.88
  -9   2   3    3.28    0.72
  -9  -2  -3    3.39    0.62
   9  -2   3    3.69    0.68
  -9   2   3    3.09    0.60
   9   2   3    3.23    0.61
  -9   2  -3    3.62    0.59
   9  -2  -3    2.81    0.87
  -9  -2   3    3.95    0.74
  10  -2   3    4.00    0.85
 -10   2   3    4.54    0.81
 -10  -2  -3    3.17    0.63
 -10  -2   3    2.69    0.63
  10   2   3    3.18    0.76
 -10   2  -3    4.74    0.81
  11  -2   3   16.59    1.79
 -11   2   3   17.99    1.53
 -11  -2  -3   17.53    1.41
 -11   2  -3   16.14    1.36
  11   2   3   17.58    1.60
 -11  -2   3   15.94    1.47
 -12  -2  -3    0.80    0.69
 -12   2   3    0.69    0.76
 -12  -2   3    1.55    0.82
 -12   2  -3   -0.33    0.58
 -13   2   3    9.27    1.59
 -13  -2  -3    8.31    1.23
 -13   2  -3    5.76    1.01
 -13  -2   3    9.03    1.44
   0  -3   3  267.44    9.37
   0  -3  -3  263.74    9.36
   0   3  -3  275.94    9.46
   0   3  -3  242.06    9.46
   0  -3   3  281.68    9.46
   0   3   3  251.03    9.42
   0  -3   3  284.88    9.40
   0  -3  -3  255.08    9.31
   1  -3   3   34.04    1.34
  -1   3   3   35.27    1.26
  -1  -3  -3   32.98    1.31
   1  -3   3   34.10    1.35
   1   3  -3   32.38    1.42
  -1   3   3   35.30    1.35
   1  -3   3   32.48    1.38
   1   3  -3   33.54    1.38
  -1  -3  -3   33.68    1.32
  -1   3  -3   32.68    1.38
  -1  -3   3   33.78    1.36
  -1  -3   3   33.89    1.43
  -1   3  -3   31.43    1.39
   1  -3  -3   33.93    1.26
  -1   3  -3   35.30    1.35
   1  -3  -3   34.25    1.36
  -2   3   3    9.75    0.53
   2   3  -3    9.16    0.56
   2   3  -3    8.98    0.60
  -2  -3  -3    9.37    0.48
   2  -3   3    9.18    0.51
  -2   3   3    9.14    0.43
   2  -3   3   10.31    0.54
  -2   3  -3    9.99    0.51
  -2  -3   3    9.42    0.59
  -2   3  -3   10.37    0.51
  -2  -3   3    9.07    0.55
   2  -3  -3    9.48    0.54
   2  -3  -3    9.21    0.46
   2   3   3   10.70    0.49
   3   3  -3  104.43    3.97
  -3   3   3  105.42    3.91
   3  -3   3  104.21    3.87
  -3   3   3  100.68    3.79
   3   3  -3  105.41    3.98
  -3  -3  -3  104.63    3.80
  -3  -3   3  105.03    3.95
  -3   3  -3  106.80    3.86
   3   3   3  104.89    3.80
   3  -3  -3  102.17    3.92
  -3  -3   3  107.28    3.97
  -3   3  -3   99.91    3.88
  -4  -3  -3   13.24    0.69
  -4   3   3   14.30    0.78
  -4   3   3   14.11    0.71
   4  -3   3   13.06    0.74
   4   3  -3   13.62    0.85
   4  -3  -3   13.40    0.80
  -4   3  -3   13.19    0.71
   4   3   3   12.35    0.66
  -4  -3   3   13.44    0.80
  -4  -3   3   12.26    0.80
  -5   3   3    1.92    0.36
  -5   3   3    1.55    0.30
   5  -3   3    1.35    0.29
   5   3  -3    1.74    0.38
  -5  -3  -3    1.71    0.27
   5  -3  -3    1.65    0.34
  -5  -3   3    1.89    0.33
   5   3   3    1.69    0.29
  -5   3  -3    1.88    0.30
  -5  -3   3    1.94    0.40
  -6   3   3   22.06    1.19
  -6  -3  -3   22.10    1.04
   6  -3   3   21.92    1.19
  -6   3   3   20.61    1.14
   6   3  -3   21.80    1.28
  -6  -3   3   21.92    1.21
   6   3   3   21.18    1.07
  -6  -3   3   20.31    1.25
   6  -3  -3   20.54    1.22
  -6   3  -3   22.35    1.13
  -7   3   3    3.30    0.57
   7   3  -3    2.70    0.56
   7  -3   3    3.28    0.53
  -7   3   3    3.21    0.53
   7   3   3    3.07    0.48
  -7   3  -3    2.80    0.46
  -7  -3   3    3.51    0.56
  -7  -3   3    3.84    0.63
  -8   3   3   28.10    1.54
   8   3  -3   25.91    1.65
  -8   3   3   25.40    1.52
  -8   3  -3   24.12    1.38
   8  -3  -3   24.47    1.62
   8   3   3   26.27    1.40
  -9   3   3    5.42    0.81
  -9   3   3    5.94    0.87
   9   3  -3    5.79    0.97
  -9  -3  -3    7.66    0.87
   9   3   3    6.20    0.91
  -9   3  -3    6.03    0.72
  10  -3   3    5.42    0.95
 -10   3   3    4.50    0.78
 -10  -3  -3    5.59    0.92
  10   3   3    4.25    0.82
 -10  -3   3    5.86    1.02
 -11  -3  -3    6.18    1.07
 -11   3   3    9.28    1.19
 -11  -3   3    8.69    1.30
  11   3   3    8.80    1.16
 -11   3  -3    5.99    0.97
 -12   3   3    5.13    1.01
 -12  -3  -3    5.54    0.97
 -12  -3   3    4.69    1.04
 -12   3  -3    4.94    0.85
 -13  -3  -3   12.64    1.75
 -13   3   3    7.15    1.25
 -13  -3   3   11.12    1.86
 -13   3  -3   10.20    1.41
   0  -4   3   13.64    0.65
   0  -4   3   14.09    0.70
   0   4  -3   14.23    0.67
   0   4   3   14.59    0.68
   0  -4  -3   13.78    0.59
   0  -4   3   14.16    0.77
   0   4  -3   14.07    0.76
   0  -4  -3   13.89    0.67
   1   4  -3   61.32    2.45
   1  -4   3   59.93    2.32
   1   4  -3   63.58    2.38
  -1   4   3   64.10    2.36
   1  -4   3   59.31    2.40
  -1  -4  -3   61.41    2.35
  -1  -4  -3   57.21    2.31
   1  -4   3   59.43    2.34
  -1  -4   3   60.47    2.38
  -1   4  -3   63.49    2.31
  -1   4  -3   58.97    2.40
  -1   4  -3   65.86    2.37
  -1  -4   3   63.84    2.46
   1  -4  -3   60.65    2.20
   1  -4  -3   60.47    2.36
  -1  -4   3   61.35    2.35
   2  -4   3   10.50    0.59
   2  -4   3   10.00    0.58
   2   4  -3   10.39    0.68
   2   4  -3   10.98    0.64
  -2   4   3   10.41    0.44
  -2  -4  -3   11.17    0.59
   2  -4   3   10.17    0.61
  -2  -4  -3   10.25    0.58
  -2   4   3   11.04    0.60
  -2  -4   3   10.14    0.61
   2  -4  -3   10.36    0.48
  -2   4  -3   11.24    0.58
   2  -4  -3   11.05    0.62
  -2  -4   3   10.82    0.68
  -2   4  -3   10.70    0.54
   3   4  -3   82.10    3.20
  -3  -4  -3   84.34    3.05
   3  -4   3   86.12    3.11
   3  -4   3   77.85    3.09
   3   4  -3   78.52    3.19
  -3   4   3   82.18    3.12
  -3   4   3   80.07    2.93
  -3  -4   3   80.38    3.18
  -3   4  -3   80.98    3.06
  -3   4  -3   78.38    3.04
  -3  -4   3   76.75    3.12
   3   4   3   78.74    3.02
   4   4  -3    7.55    0.68
  -4   4   3    8.15    0.49
  -4  -4  -3    7.33    0.50
  -4   4   3    8.17    0.58
   4  -4   3    8.02    0.59
  -4  -4   3    7.99    0.64
   4   4   3    7.51    0.54
  -4   4  -3    8.36    0.57
  -4  -4   3    7.85    0.62
  -4   4  -3    8.69    0.55
   4  -4  -3    7.96    0.62
  -5   4   3   34.05    1.60
   5   4  -3   32.37    1.67
   5  -4   3   34.82    1.61
  -5  -4  -3   35.92    1.50
  -5   4   3   34.04    1.50
  -5  -4   3   35.83    1.66
  -5  -4   3   36.90    1.72
   5  -4  -3   34.91    1.66
  -5   4  -3   33.96    1.55
   5   4   3   34.04    1.51
   6  -4   3   24.38    1.35
  -6  -4  -3   27.39    1.22
  -6   4   3   24.02    1.32
   6   4  -3   25.23    1.45
   6  -4  -3   23.11    1.38
  -6  -4   3   26.73    1.39
   6   4   3   25.52    1.24
  -6   4  -3   25.59    1.28
  -6  -4   3   26.04    1.45
   7  -4   3   31.55    1.68
  -7   4   3   31.32    1.58
  -7   4   3   31.10    1.64
   7   4  -3   31.07    1.77
  -7  -4  -3   32.21    1.49
  -7   4  -3   32.65    1.59
   7   4   3   31.86    1.55
  -7  -4   3   35.10    1.72
  -7  -4   3   32.09    1.78
   7  -4  -3   30.71    1.72
  -8   4   3   18.05    1.20
   8  -4   3   18.66    1.32
  -8   4   3   19.20    1.23
   8   4  -3   18.61    1.46
  -8  -4   3   17.56    1.24
  -8   4  -3   18.55    1.16
   8   4   3   16.96    1.16
  -9   4   3    9.56    0.97
  -9   4   3   10.60    1.14
   9   4   3   10.55    1.06
  -9   4  -3    9.57    0.89
 -10   4   3   -1.03    0.69
 -10   4   3   -0.66    0.43
 -10  -4  -3    0.04    0.47
  10   4   3   -0.09    0.68
 -10   4  -3    0.17    0.40
 -11  -4  -3    5.44    0.93
 -11   4   3    4.67    0.77
 -11   4  -3    4.58    0.78
 -11  -4   3    7.64    1.32
  11   4   3    5.54    1.11
 -12   4   3    3.30    0.83
 -12  -4  -3    4.53    0.96
 -12   4  -3    2.67    0.79
 -12  -4   3    5.09    1.15
 -13   4   3   12.22    1.60
 -13  -4  -3   15.31    1.82
 -13   4  -3    9.14    1.56
 -13  -4   3   11.26    1.59
   0   5   3    1.33    0.22
   0   5  -3    1.55    0.22
   0  -5   3    1.86    0.33
   0  -5   3    1.79    0.23
   0   5  -3    1.69    0.32
   0  -5  -3    1.53    0.26
   0  -5  -3    1.36    0.15
   1   5  -3   67.41    2.83
   1  -5   3   72.32    2.75
   1  -5   3   72.38    2.68
  -1  -5  -3   71.26    2.72
   1   5  -3   74.29    2.75
   1  -5   3   71.01    2.81
  -1   5   3   67.43    2.72
  -1  -5  -3   72.89    2.76
  -1  -5   3   70.29    2.77
  -1  -5   3   71.71    2.71
  -1  -5   3   73.66    2.87
   1  -5  -3   66.78    2.73
  -1   5  -3   73.58    2.76
  -1   5  -3   69.70    2.66
   2   5  -3   43.85    1.83
   2  -5   3   38.85    1.79
  -2  -5  -3   46.36    1.79
   2  -5   3   39.84    1.71
   2  -5   3   40.81    1.76
  -2  -5  -3   47.84    1.78
  -2   5   3   42.49    1.77
   2   5  -3   42.63    1.88
  -2  -5   3   44.83    1.78
  -2   5  -3   45.75    1.68
   2  -5  -3   37.52    1.76
  -2   5  -3   40.03    1.74
  -3   5   3  102.77    3.67
   3  -5   3  100.80    3.92
   3   5  -3  100.78    4.02
  -3  -5  -3  107.94    3.90
  -3  -5  -3  102.35    3.89
  -3   5   3  107.78    3.95
   3   5  -3  107.92    4.03
   3  -5   3  103.75    3.95
  -3  -5   3   99.67    3.93
  -3   5  -3  105.41    3.82
  -3  -5   3  107.76    4.04
   3   5   3   94.56    3.85
  -3   5  -3  101.96    3.89
   3  -5  -3   99.64    3.94
  -4   5   3   24.10    1.23
  -4  -5  -3   24.89    1.18
  -4   5   3   24.50    1.04
   4  -5   3   24.99    1.23
   4   5  -3   26.34    1.37
   4  -5  -3   24.63    1.28
  -4   5  -3   24.90    1.19
  -4  -5   3   26.52    1.31
   4   5   3   25.23    1.19
  -4   5  -3   24.91    1.15
  -4  -5   3   25.03    1.32
  -5  -5  -3    0.13    0.19
  -5   5   3    0.47    0.21
  -5   5   3    0.57    0.22
   5   5  -3    0.22    0.36
   5  -5   3    0.29    0.29
   5  -5  -3    0.51    0.31
  -5   5  -3    0.46    0.22
  -5  -5   3    0.33    0.25
  -5  -5   3    0.51    0.30
  -5   5  -3    0.29    0.18
   5   5   3    0.28    0.28
   6  -5   3   12.53    0.93
  -6   5   3   10.61    0.83
   6   5  -3   10.92    1.03
  -6  -5  -3   12.71    0.78
  -6   5   3   12.05    0.77
   6  -5  -3   11.71    1.02
  -6   5  -3   12.85    0.85
  -6   5  -3   12.77    0.81
  -6  -5   3   11.76    0.89
   6   5   3   11.47    0.82
  -6  -5   3   12.37    1.02
   7   5  -3    9.41    1.09
  -7  -5  -3    9.60    0.72
  -7   5   3    8.49    0.77
   7  -5   3    8.43    0.95
  -7   5   3    8.52    0.80
   7   5   3    8.93    0.83
  -7  -5   3    9.90    1.06
  -7   5  -3    9.31    0.73
   7  -5  -3    8.80    1.35
  -7  -5   3    9.07    0.84
  -8  -5  -3   42.11    1.93
  -8   5   3   41.96    2.02
   8  -5   3   41.00    2.19
  -8   5   3   42.41    2.09
   8   5  -3   40.78    2.28
  -8  -5   3   43.48    2.16
  -8   5  -3   42.83    2.02
   8   5   3   39.97    1.98
  -9   5   3   13.84    1.27
  -9   5   3   12.72    1.07
   9   5   3   12.03    1.15
  -9   5  -3   12.56    1.01
  -9  -5   3   13.54    1.18
 -10   5   3    3.52    0.67
 -10   5   3    3.23    0.87
 -10   5  -3    3.07    0.62
  10   5   3    2.85    0.82
 -11   5   3    6.66    1.06
 -11  -5  -3    5.28    0.94
 -11   5  -3    8.79    1.07
 -12   5   3    9.64    1.34
 -12  -5  -3    9.73    1.55
 -12   5  -3    8.79    1.29
 -12  -5   3   11.26    1.78
   0  -6  -3    2.09    0.18
   0  -6  -3    2.80    0.35
   0  -6   3    2.24    0.34
   0  -6   3    1.59    0.25
   0  -6  -3    2.05    0.32
   0   6   3    2.53    0.31
   0   6  -3    2.77    0.29
   1  -6   3   56.31    2.35
   1   6  -3   55.53    2.38
   1   6  -3   57.89    2.25
  -1   6   3   59.09    2.27
  -1  -6  -3   53.96    2.23
   1  -6   3   55.70    2.16
   1  -6   3   55.56    2.27
  -1  -6  -3   55.39    2.28
  -1   6  -3   55.10    2.27
  -1  -6   3   54.63    2.37
  -1  -6   3   56.06    2.30
  -1  -6   3   55.21    2.19
  -1   6  -3   56.18    2.16
   1  -6  -3   54.57    2.27
  -2  -6  -3   52.07    2.06
  -2  -6  -3   51.86    2.09
   2  -6   3   47.01    2.11
   2  -6   3   47.87    2.07
   2   6  -3   49.64    2.18
  -2   6   3   47.94    2.05
   2  -6   3   46.69    1.97
   2   6  -3   52.18    2.11
  -2  -6   3   51.88    2.05
  -2   6  -3   50.70    1.93
  -2   6  -3   47.97    2.05
  -2  -6   3   52.06    2.21
   2  -6  -3   46.58    2.07
  -2  -6   3   51.14    2.12
   3   6  -3    0.87    0.36
   3   6  -3    0.91    0.26
  -3   6   3    1.52    0.28
   3  -6   3    1.09    0.27
  -3  -6  -3    1.21    0.29
   3  -6   3    1.13    0.27
  -3  -6  -3    1.05    0.29
  -3   6  -3    1.61    0.24
   3   6   3    1.12    0.31
  -3   6  -3    0.82    0.19
  -3  -6   3    1.30    0.36
  -3  -6   3    1.13    0.29
  -4  -6  -3   10.76    0.73
  -4   6   3   10.26    0.48
  -4  -6  -3    9.74    0.75
  -4   6   3   10.80    0.71
   4   6  -3   10.05    0.89
   4  -6   3   10.28    0.74
   4  -6   3   11.40    0.78
  -4  -6   3   10.21    0.79
  -4   6  -3    9.73    0.59
  -4  -6   3   10.57    0.81
  -4   6  -3   10.26    0.68
   4  -6  -3   10.07    0.79
   4   6   3    9.54    0.72
  -5   6   3   22.85    1.22
  -5   6   3   20.22    0.97
   5   6  -3   20.98    1.34
   5  -6   3   22.40    1.26
  -5  -6  -3   21.47    1.15
  -5  -6   3   22.31    1.30
  -5  -6   3   21.39    1.27
   5  -6  -3   21.58    1.27
  -5   6  -3   21.56    1.15
   5   6   3   24.91    1.22
  -5   6  -3   22.04    1.09
  -6  -6  -3    9.79    0.74
  -6   6   3   10.59    0.70
   6   6  -3   10.47    1.07
  -6   6   3   10.98    0.81
   6  -6   3   10.50    0.93
  -6   6  -3   10.53    0.77
  -6  -6   3   11.10    0.98
  -6   6  -3   10.34    0.76
   6   6   3    9.99    0.84
  -6  -6   3    9.58    0.86
   6  -6  -3   10.32    0.98
  -7   6   3   25.35    1.29
  -7  -6  -3   26.57    1.34
   7   6  -3   25.16    1.71
  -7   6   3   25.16    1.42
   7  -6   3   26.56    1.57
   7   6   3   22.05    1.41
  -7   6  -3   25.30    1.36
  -7   6  -3   24.27    1.36
  -7  -6   3   24.01    1.49
  -7  -6   3   22.89    1.59
  -8  -6  -3   10.21    0.87
  -8   6   3   10.74    0.91
  -8   6   3   10.96    0.96
  -8   6  -3   10.42    0.88
  -8   6  -3   10.58    0.98
  -8  -6   3   11.13    1.00
   8   6   3    8.40    1.01
  -9   6   3   17.69    1.35
  -9   6   3   17.78    1.27
  -9  -6  -3   17.65    1.16
  -9  -6   3   16.52    1.34
   9   6   3   16.08    1.36
  -9   6  -3   17.06    1.31
  -9   6  -3   16.13    1.20
 -10   6   3    0.25    0.74
 -10   6   3    0.61    0.52
 -10  -6   3    0.49    0.61
 -10   6  -3    0.42    0.44
  10   6   3   -0.28    0.82
 -11   6   3   10.04    1.24
 -11   6  -3   14.01    1.28
 -12  -6  -3    2.61    0.96
 -12   6   3    1.13    0.77
 -12  -6   3    2.54    1.07
   0   7  -3   30.82    1.31
   0  -7  -3   30.12    1.40
   0  -7  -3   27.65    1.12
   0   7   3   29.88    1.39
   0  -7   3   31.38    1.52
   0  -7  -3   29.16    1.43
   0   7  -3   29.47    1.52
   0  -7   3   30.53    1.27
   0  -7   3   30.98    1.43
   0  -7  -3   28.09    1.13
   1  -7   3   40.02    1.65
  -1   7   3   41.04    1.78
   1  -7   3   40.38    1.80
  -1  -7  -3   40.42    1.82
   1  -7   3   40.08    1.87
   1   7  -3   41.21    1.76
  -1  -7  -3   41.08    1.64
   1   7  -3   42.06    1.93
  -1  -7  -3   40.27    1.76
  -1  -7   3   40.90    1.82
  -1   7  -3   40.62    1.65
   1  -7  -3   40.51    1.80
  -1  -7   3   41.68    1.70
   1  -7  -3   40.51    1.84
  -1   7  -3   40.00    1.79
  -1  -7   3   41.13    1.92
   2  -7   3   50.82    2.29
   2  -7   3   50.06    2.09
  -2   7   3   51.71    2.21
   2   7  -3   53.15    2.25
   2   7  -3   53.31    2.36
  -2  -7  -3   54.67    2.26
   2  -7   3   51.86    2.24
  -2  -7  -3   54.54    2.22
   2  -7  -3   51.24    2.25
  -2   7  -3   55.50    2.06
  -2  -7   3   51.61    2.35
  -2  -7   3   52.04    2.15
  -2  -7   3   54.11    2.29
  -2   7  -3   51.81    2.22
   3  -7   3    3.69    0.55
   3  -7   3    4.17    0.51
  -3  -7  -3    3.12    0.51
  -3  -7  -3    4.09    0.51
  -3   7   3    4.07    0.45
   3   7  -3    4.16    0.66
  -3   7  -3    4.20    0.44
  -3  -7   3    3.76    0.49
  -3   7  -3    3.51    0.34
  -3  -7   3    3.99    0.58
   3  -7  -3    5.08    0.61
  -3  -7   3    3.72    0.60
   4  -7   3    1.16    0.35
  -4  -7  -3    0.83    0.34
  -4  -7  -3    0.80    0.32
   4  -7   3    0.93    0.33
  -4   7   3    1.21    0.29
   4   7  -3    0.26    0.42
  -4   7  -3    0.89    0.19
  -4  -7   3    0.83    0.31
  -4   7  -3    0.92    0.23
   4   7   3    0.93    0.35
  -4  -7   3    0.97    0.39
   4  -7  -3    0.96    0.37
   5  -7   3    9.09    0.88
   5  -7   3    9.26    0.79
   5   7  -3    8.89    1.00
  -5   7   3   10.05    0.78
  -5  -7  -3    9.96    0.81
  -5  -7  -3    9.23    0.86
  -5   7   3    9.69    0.50
   5   7   3    9.21    0.83
  -5  -7   3   10.55    0.90
  -5  -7   3   11.66    0.94
  -5   7  -3    9.81    0.73
   5  -7  -3    8.74    0.91
  -5   7  -3    9.61    0.61
  -6  -7  -3   20.54    1.20
   6   7  -3   20.59    1.48
  -6   7   3   22.72    1.28
  -6   7   3   20.37    0.98
   6  -7   3   20.53    1.38
  -6  -7   3   20.39    1.33
  -6  -7   3   21.99    1.42
  -6   7  -3   20.91    1.10
  -6   7  -3   22.21    1.23
   6   7   3   20.66    1.28
   6  -7  -3   21.22    1.44
  -7   7   3    4.70    0.58
   7  -7   3    4.29    0.81
  -7  -7  -3    3.97    0.64
  -7   7   3    3.56    0.64
   7   7  -3    2.41    0.86
  -7  -7   3    4.27    0.71
  -7  -7   3    3.57    0.78
  -7   7  -3    4.49    0.63
  -7   7  -3    3.98    0.58
   7   7   3    4.10    0.71
  -8  -7  -3    5.57    0.74
  -8   7   3    5.82    0.82
  -8   7   3    5.71    0.78
  -8   7  -3    5.94    0.75
  -8  -7   3    5.25    0.84
  -8   7  -3    6.80    0.85
   8   7   3    8.04    1.06
  -9   7   3    4.96    0.77
  -9   7   3    5.45    0.87
  -9  -7  -3    6.49    0.87
  -9  -7   3    4.90    0.81
   9   7   3    3.06    0.98
  -9   7  -3    7.18    0.96
  -9   7  -3    4.95    0.77
 -10   7   3    3.23    0.73
 -10  -7   3    3.82    0.85
 -10   7  -3    2.78    0.63
 -10   7  -3    3.02    0.71
 -11   7   3    8.59    1.27
 -11   7  -3    7.62    1.13
 -11   7  -3    8.11    1.41
 -12   7   3    3.95    1.00
 -12   7  -3    3.42    0.87
 -12   7  -3    4.32    1.14
   0  -8   3   44.21    2.09
   0   8  -3   45.41    2.12
   0  -8   3   42.57    1.97
   0  -8  -3   43.21    2.01
   0  -8  -3   43.73    1.97
   0   8   3   45.07    1.97
   0  -8   3   44.08    1.79
   0   8  -3   45.81    1.86
  -1   8   3    6.96    0.59
  -1  -8  -3    6.42    0.63
   1   8  -3    7.51    0.82
   1  -8   3    6.46    0.48
   1  -8   3    6.41    0.65
   1  -8   3    7.30    0.72
   1   8  -3    6.50    0.54
  -1  -8  -3    6.25    0.46
  -1  -8  -3    7.07    0.63
  -1   8  -3    6.28    0.46
  -1   8  -3    6.46    0.59
   1  -8  -3    6.01    0.62
  -1  -8   3    5.84    0.63
  -1  -8   3    6.03    0.70
   1  -8  -3    6.64    0.66
  -1  -8   3    7.05    0.52
   2   8  -3   42.64    2.11
  -2  -8  -3   41.37    1.93
  -2   8   3   41.84    1.93
  -2  -8  -3   41.07    1.82
   2  -8   3   43.15    2.04
   2  -8   3   43.81    1.98
   2   8  -3   45.41    1.96
  -2  -8  -3   43.54    2.00
  -2   8  -3   44.76    1.96
   2  -8  -3   42.38    1.99
  -2   8  -3   42.94    1.73
  -2  -8   3   44.79    1.86
  -2  -8   3   44.19    2.10
  -2  -8   3   41.86    1.99
   3   8  -3   30.88    1.72
   3  -8   3   27.97    1.54
  -3  -8  -3   32.05    1.59
  -3  -8  -3   30.53    1.50
  -3  -8  -3   32.85    1.56
   3  -8   3   29.41    1.58
  -3   8   3   30.68    1.51
   3  -8  -3   29.46    1.58
  -3  -8   3   31.59    1.68
  -3   8  -3   30.87    1.52
  -3  -8   3   31.36    1.49
  -3   8  -3   31.52    1.30
  -3  -8   3   29.74    1.60
  -4  -8  -3    0.81    0.39
  -4  -8  -3    1.08    0.39
   4   8  -3    1.20    0.57
   4  -8   3    1.10    0.35
   4  -8   3    1.30    0.43
  -4   8   3    0.72    0.25
  -4  -8  -3    1.60    0.43
  -4  -8   3    1.36    0.44
  -4   8  -3    1.39    0.25
   4   8   3    1.05    0.42
  -4  -8   3    1.08    0.55
  -4   8  -3    0.80    0.25
   4  -8  -3    1.44    0.46
  -4  -8   3    1.21    0.38
   5  -8   3    0.45    0.37
   5   8  -3   -0.37    0.60
  -5  -8  -3    0.95    0.46
  -5  -8  -3    0.56    0.49
  -5  -8  -3    0.40    0.37
  -5   8   3    0.25    0.25
   5  -8   3    1.66    0.47
   5   8   3    1.11    0.49
  -5  -8   3    0.33    0.41
  -5   8  -3    0.69    0.30
  -5   8  -3    0.84    0.21
  -5  -8   3    0.89    0.46
   5  -8  -3    0.64    0.45
   6  -8   3    1.75    0.49
  -6   8   3    0.96    0.22
  -6  -8  -3    1.77    0.46
  -6  -8  -3    1.75    0.58
   6   8  -3    0.83    0.81
  -6   8   3    1.28    0.22
   6  -8   3    1.26    0.62
  -6  -8  -3    1.53    0.60
  -6   8   3    0.95    0.32
   6   8   3    1.37    0.57
  -6  -8   3    1.93    0.54
  -6  -8   3    1.91    0.59
  -6   8  -3    2.04    0.34
  -6   8  -3    1.20    0.34
  -7   8   3    0.82    0.36
  -7  -8  -3    1.64    0.46
  -7  -8  -3    1.38    0.74
  -7   8   3    1.54    0.33
  -7  -8   3    1.21    0.50
  -7   8  -3    1.52    0.33
  -7   8  -3    1.27    0.36
   7   8   3    1.83    0.67
  -8  -8  -3    4.15    0.66
  -8   8   3    4.52    0.76
  -8   8   3    3.90    0.68
  -8  -8   3    4.76    0.82
  -8   8  -3    4.17    0.57
   8   8   3    4.96    0.90
  -8   8  -3    5.73    0.77
  -9  -8  -3    1.14    0.56
  -9   8   3    1.54    0.53
  -9   8  -3    2.29    0.53
  -9   8  -3    0.62    0.51
   9   8   3    0.68    0.90
  -9  -8   3    2.27    0.64
 -10   8   3    0.36    0.58
 -10  -8  -3    0.74    0.66
 -10   8  -3    1.26    0.56
 -10  -8   3    1.91    0.76
 -10   8  -3    1.97    0.69
 -11   8   3    9.94    1.38
 -11   8  -3   11.24    1.31
 -11  -8   3   10.98    1.64
 -11   8  -3   11.27    1.51
   0  -9   3    4.73    0.76
   0   9   3    5.41    0.59
   0  -9  -3    4.40    0.65
   0  -9   3    4.25    0.44
   0  -9  -3    4.78    0.60
   0  -9   3    4.60    0.64
   0   9  -3    5.13    0.47
   1   9  -3   17.58    1.30
  -1   9   3   17.69    1.07
  -1  -9  -3   18.34    0.85
   1  -9   3   19.17    0.92
  -1  -9  -3   18.32    1.15
  -1  -9  -3   17.69    1.13
   1  -9   3   19.64    1.26
   1   9  -3   19.68    1.05
   1  -9   3   17.01    1.15
  -1  -9   3   19.28    1.27
   1  -9  -3   18.05    1.15
   1  -9  -3   17.76    1.15
  -1  -9   3   19.17    1.19
  -1   9  -3   18.97    0.92
  -1  -9   3   18.27    0.95
  -1   9  -3   18.76    1.12
   2   9  -3   19.77    1.36
  -2  -9  -3   16.74    1.13
   2  -9   3   18.07    1.20
   2  -9   3   17.79    1.16
  -2  -9  -3   17.37    0.95
  -2  -9  -3   18.25    1.20
  -2   9   3   18.92    1.09
  -2   9  -3   17.53    1.08
   2  -9  -3   18.91    1.17
  -2   9  -3   17.89    0.87
  -2  -9   3   15.37    1.21
  -2  -9   3   19.08    1.01
  -2  -9   3   15.10    1.13
   2  -9  -3   17.74    1.19
   3  -9   3   19.78    1.27
  -3   9   3   19.55    1.15
  -3  -9  -3   18.84    1.24
  -3  -9  -3   20.40    1.24
  -3  -9  -3   19.12    1.11
   3  -9   3   19.24    1.25
   3   9  -3   19.57    1.46
  -3   9  -3   19.79    0.91
  -3  -9   3   20.36    1.36
   3  -9  -3   17.01    1.25
  -3   9  -3   18.41    1.14
  -3  -9   3   17.99    1.09
  -4  -9  -3    3.62    0.63
   4   9  -3    3.03    0.77
   4  -9   3    3.94    0.65
  -4   9   3    3.92    0.54
   4  -9   3    4.72    0.70
  -4  -9  -3    3.79    0.61
  -4  -9  -3    3.45    0.58
  -4  -9   3    3.77    0.68
  -4   9  -3    2.69    0.36
  -4   9  -3    4.09    0.58
  -4  -9   3    3.12    0.60
   4  -9  -3    4.78    0.81
  -5  -9  -3    4.71    0.76
  -5  -9  -3    4.80    0.76
   5  -9   3    4.33    0.73
  -5   9   3    4.71    0.65
  -5  -9  -3    4.76    0.77
  -5  -9   3    4.48    0.69
  -5   9  -3    4.03    0.63
  -5   9  -3    4.94    0.47
  -5  -9   3    5.43    0.85
   5   9   3    4.22    0.74
  -6  -9  -3    5.82    0.88
  -6  -9  -3    6.64    1.16
   6  -9   3    5.43    0.87
  -6   9   3    6.22    0.76
   6   9   3    8.20    1.17
  -6  -9   3    6.94    1.04
  -6   9  -3    6.95    0.75
  -6  -9   3    6.54    0.93
  -6   9  -3    7.70    0.61
  -7  -9  -3    3.95    0.70
  -7   9   3    6.00    0.39
  -7   9   3    6.36    0.79
   7  -9   3    5.51    0.94
  -7   9  -3    5.48    0.78
   7   9   3    4.21    0.90
  -7  -9   3    3.43    0.68
  -7   9  -3    4.24    0.59
  -8   9   3    7.06    0.93
  -8  -9  -3    5.55    0.91
   8  -9   3    7.02    1.07
  -8   9   3    7.25    0.68
  -8   9  -3    8.04    0.96
   8   9   3    4.90    1.07
  -8  -9   3    5.05    0.84
  -8   9  -3    6.54    0.71
  -9   9   3    2.32    0.53
  -9   9   3    1.80    0.57
   9  -9   3    1.65    0.72
  -9  -9  -3    1.33    0.63
  -9  -9   3    0.94    0.64
  -9   9  -3    1.46    0.57
  -9   9  -3    1.08    0.45
 -10  -9  -3    0.97    0.73
 -10   9   3    0.14    0.63
 -10  -9   3   -0.06    0.85
 -10   9  -3   -0.47    0.53
 -10   9  -3   -0.52    0.63
 -11   9   3    0.21    0.73
 -11   9  -3   -0.22    0.75
 -11  -9   3    0.50    1.05
   0  10   3    0.72    0.34
   0 -10  -3   -0.27    0.41
   0 -10   3    0.20    0.44
   0 -10  -3    0.16    0.31
   0 -10   3    0.29    0.42
   0 -10   3   -0.25    0.23
   0  10  -3    0.12    0.26
   1 -10   3   21.54    1.42
  -1 -10  -3   18.53    0.87
  -1 -10  -3   20.16    1.31
   1 -10   3   19.45    1.00
  -1 -10  -3   20.83    1.34
   1 -10   3   18.70    1.32
  -1  10   3   21.64    1.24
   1 -10  -3   19.88    1.31
  -1 -10   3   19.84    1.04
  -1  10  -3   20.47    1.00
  -1  10  -3   22.13    1.29
  -1 -10   3   17.96    1.36
   1 -10  -3   20.86    1.33
  -2 -10  -3    1.20    0.30
  -2 -10  -3    1.11    0.47
  -2  10   3    0.98    0.35
   2 -10   3    0.33    0.40
   2 -10   3    0.89    0.46
  -2 -10  -3    1.13    0.48
  -2 -10   3    1.63    0.55
  -2  10  -3    1.39    0.41
   2 -10  -3    0.66    0.46
  -2 -10   3    2.00    0.38
   2 -10  -3    1.13    0.42
  -2  10  -3    0.80    0.22
   3 -10   3    1.86    0.49
  -3 -10  -3    1.73    0.55
  -3 -10  -3    1.34    0.51
  -3  10   3    2.12    0.44
  -3 -10  -3    1.76    0.42
  -3  10  -3    1.77    0.37
  -3 -10   3    1.90    0.46
  -3  10  -3    1.58    0.27
  -3 -10   3    2.03    0.65
   3 -10  -3    2.41    0.56
  -4 -10  -3    2.15    0.65
  -4 -10  -3    3.18    0.61
   4 -10   3    3.09    0.62
  -4  10   3    2.54    0.45
  -4 -10  -3    3.29    0.67
  -4 -10   3    2.69    0.68
  -4  10  -3    2.49    0.50
  -4  10  -3    2.87    0.36
  -4 -10   3    3.17    0.59
  -5 -10  -3    6.66    1.04
   5 -10   3    5.91    0.92
  -5 -10  -3    5.89    0.94
  -5  10   3    5.63    0.76
  -5  10  -3    6.70    0.75
  -5 -10   3    5.89    0.99
  -5 -10   3    4.47    0.82
  -5  10  -3    6.15    0.49
   6 -10   3    3.72    0.73
  -6 -10  -3    4.32    0.88
  -6  10   3    3.75    0.63
  -6 -10  -3    5.96    0.94
  -6 -10   3    3.78    0.81
  -6  10  -3    3.07    0.48
  -6  10  -3    5.07    0.76
   6  10   3    3.77    0.89
   7 -10   3    1.80    0.68
  -7 -10  -3    2.66    0.66
  -7  10   3    1.90    0.52
  -7  10  -3    3.41    0.58
  -7  10  -3    1.95    0.51
  -7 -10   3    1.71    0.67
  -8  10   3    0.18    0.56
  -8 -10  -3    0.15    0.56
   8 -10   3    0.88    0.67
  -8 -10   3    0.28    0.63
  -8  10  -3    0.47    0.52
  -9 -10  -3    2.11    0.77
   9 -10   3    2.54    0.88
  -9  10  -3    2.34    0.66
  -9 -10   3    1.38    0.80
 -10  10   3    4.54    0.91
 -10 -10  -3    3.36    1.00
  10 -10   3    6.24    1.25
 -10  10  -3    3.99    0.91
 -10 -10   3    4.28    1.11
   0 -11   3    0.58    0.54
   0 -11  -3    0.61    0.44
   0 -11   3    0.55    0.29
  -1 -11  -3    1.61    0.56
   1 -11   3    1.98    0.63
   1 -11   3    0.91    0.31
  -1  11   3    1.07    0.40
  -1 -11  -3    1.64    0.25
   1 -11  -3    1.16    0.50
  -1 -11   3    0.93    0.53
  -1 -11   3    0.50    0.31
  -2  11   3    6.13    0.78
  -2 -11  -3    6.72    0.59
   2 -11   3    7.92    1.00
  -2 -11  -3    7.54    1.08
  -2 -11   3    6.64    1.01
  -2 -11   3    8.14    0.73
  -2  11  -3    5.86    0.84
   2 -11  -3    5.97    0.84
  -2  11  -3    7.30    0.55
   3 -11   3    0.55    0.47
  -3  11   3    0.07    0.38
  -3 -11  -3    0.28    0.37
  -3 -11  -3    0.29    0.54
  -3  11  -3    0.66    0.23
  -3 -11   3    0.89    0.44
  -3  11  -3   -0.04    0.35
  -3 -11   3    0.20    0.56
   3 -11  -3    0.58    0.46
  -4 -11  -3    0.97    0.52
  -4 -11  -3    0.65    0.57
  -4  11   3    0.43    0.34
   4 -11   3    0.44    0.45
   4 -11  -3    1.06    0.52
  -4 -11   3    0.39    0.48
  -4 -11   3    1.29    0.67
  -4  11  -3    0.43    0.39
  -4  11  -3    0.19    0.23
  -5  11   3    6.22    0.87
   5 -11   3    6.17    1.04
  -5 -11  -3    6.08    1.10
  -5 -11  -3    5.32    0.89
  -5 -11   3    7.44    1.13
   5 -11  -3    6.44    1.01
  -5  11  -3    6.05    0.49
  -5 -11   3    6.84    1.07
  -5  11  -3    6.22    0.85
  -6 -11  -3   18.56    1.50
  -6 -11  -3   14.82    1.60
  -6  11   3   18.43    1.35
   6 -11   3   17.74    1.52
  -6  11  -3   18.83    1.35
  -6  11  -3   18.38    0.89
  -6 -11   3   15.15    1.53
   7 -11   3    2.61    0.79
  -7  11   3    2.15    0.56
  -7 -11  -3    0.27    0.65
  -7  11  -3    1.30    0.41
  -7 -11   3    1.44    0.77
  -7  11  -3    1.53    0.57
   8 -11   3    4.31    1.00
  -8  11   3    4.32    0.76
  -8 -11  -3    2.94    0.82
  -8  11  -3    3.67    0.77
  -8 -11   3    2.61    0.83
  -9 -11  -3   -0.76    0.79
  -9  11   3    0.31    0.68
   9 -11   3   -0.02    0.92
  -9  11  -3    0.45    0.69
  -9 -11   3   -0.13    0.87
   0 -12   3   10.95    0.78
   0 -12  -3    8.32    1.03
   0 -12   3    9.03    1.27
   1 -12   3    9.88    1.35
  -1 -12  -3    9.77    1.32
  -1  12   3    9.73    1.03
  -1 -12   3    8.45    1.23
   1 -12  -3    8.09    1.03
  -1 -12   3    9.40    0.78
  -2 -12  -3    2.84    0.79
   2 -12   3    3.95    0.87
  -2  12   3    4.53    0.80
  -2 -12  -3    2.49    0.37
   2 -12  -3    1.49    0.57
  -2  12  -3    3.16    0.65
  -2 -12   3    2.44    0.51
  -2 -12   3    2.60    0.82
  -3 -12  -3    0.98    0.67
  -3 -12  -3    0.18    0.41
  -3  12   3    0.14    0.41
   3 -12   3   -0.41    0.53
  -3  12  -3    1.15    0.50
  -3 -12   3    1.36    0.50
  -3 -12   3    0.00    0.64
   3 -12  -3    0.55    0.55
  -4  12   3    1.53    0.51
   4 -12   3    1.08    0.61
  -4 -12  -3    1.86    0.61
  -4 -12  -3    1.56    0.78
   4 -12  -3    1.97    0.69
  -4 -12   3    1.37    0.74
  -4  12  -3    1.38    0.56
  -4 -12   3    3.12    0.71
  -5 -12  -3    8.79    1.33
  -5 -12  -3   10.83    1.35
  -5  12   3   10.17    1.13
   5 -12   3    8.95    1.25
  -5  12  -3    8.90    1.03
  -5 -12   3    8.57    1.42
   5 -12  -3   10.24    1.31
  -6  12   3    1.64    0.55
   6 -12   3    1.52    0.74
  -6  12  -3    2.62    0.72
  -6 -12   3    1.71    0.84
   6 -12  -3    2.36    0.78
   7 -12   3   12.81    1.60
  -7 -12  -3    8.77    1.20
  -7  12   3   10.23    1.29
  -7  12  -3   10.64    1.30
   7 -12  -3   11.12    1.52
  -7 -12   3    9.24    1.48
  -8 -12  -3    1.57    0.86
   8 -12   3    3.03    0.96
  -8  12   3    1.65    0.75
  -8 -12   3    1.61    0.92
  -8  12  -3    1.81    0.77
   0 -13  -3   10.95    1.44
   0 -13   3    8.89    1.42
   1 -13   3    2.78    0.92
  -1 -13  -3    2.24    0.89
  -1 -13   3    2.10    0.87
   1 -13  -3    1.51    0.68
  -2 -13  -3    5.85    1.12
  -2  13   3    5.46    0.88
   2 -13   3    6.32    1.11
   2 -13  -3    4.67    0.84
  -2 -13   3    7.40    1.26
  -3 -13  -3    3.29    0.92
  -3  13   3    1.99    0.58
   3 -13  -3    3.64    0.82
  -3  13  -3    3.23    0.68
  -3 -13   3    2.70    0.89
   4 -13   3    4.16    0.96
  -4 -13  -3    4.88    1.04
  -4  13   3    3.90    0.71
  -4  13  -3    6.98    1.09
  -4 -13   3    5.57    1.14
   4 -13  -3    5.94    1.05
   5 -13   3   13.21    1.56
  -5 -13  -3   12.19    1.66
  -5  13   3   13.46    1.35
  -5  13  -3   11.66    1.34
  -5 -13   3   16.16    1.77
   5 -13  -3   12.53    1.49
   6 -13   3    2.33    0.98
  -6 -13  -3    1.89    0.93
  -6  13   3    2.09    0.72
  -6  13  -3    2.21    0.68
  -6 -13   3   -0.01    0.98
   6 -13  -3    1.92    0.92
  -7 -13  -3    6.10    1.17
  -7  13   3    9.55    1.38
   7 -13   3   10.05    1.71
  -7 -13   3    6.41    1.23
   7 -13  -3   10.10    1.73
  -7  13  -3    6.59    1.05
   0 -14   3    5.39    1.21
   0 -14  -3    7.59    1.35
  -1 -14  -3    2.68    1.06
   1 -14   3    2.42    1.05
  -1 -14   3    1.67    0.91
   1 -14  -3    3.54    0.89
  -2 -14  -3    2.06    1.01
   2 -14   3    3.74    1.14
  -2  14   3    3.79    0.81
   2 -14  -3    2.93    0.85
  -2 -14   3    1.84    1.10
   3 -14   3    6.74    1.35
  -3  14   3    8.48    1.34
  -3 -14  -3    5.80    1.23
  -3  14  -3    7.79    1.35
  -3 -14   3    5.04    1.21
   3 -14  -3    3.85    0.98
  -4 -14  -3    1.24    1.00
  -4  14   3   -0.05    0.61
  -4 -14   3    1.05    1.04
  -4  14  -3    1.41    0.85
   4 -14  -3    0.73    0.87
  -5 -14  -3   15.52    1.99
   5 -14   3   16.11    1.89
  -5  14   3   15.34    1.56
   5 -14  -3   21.30    1.93
  -5 -14   3   19.28    2.15
  -5  14  -3   22.98    1.81
  -6 -14  -3    1.33    1.13
  -6  14   3    0.38    0.75
   6 -14   3    1.20    1.02
   6 -14  -3    0.27    0.95
  -6  14  -3    0.36    0.84
  -6 -14   3   -1.98    1.03
   0 -15   3    7.27    1.46
   0 -15  -3   13.14    2.25
  -1 -15  -3    4.41    1.28
   1 -15   3    3.90    1.31
  -1 -15   3    3.77    1.32
   1 -15  -3    5.70    1.33
   2 -15   3    1.30    1.27
  -2 -15  -3    0.53    1.12
  -2 -15   3    0.21    1.17
   2 -15  -3    0.83    0.89
   3 -15   3    3.85    1.47
  -3  15   3    3.38    0.90
  -3 -15  -3    1.41    1.24
   3 -15  -3    2.05    1.07
  -3 -15   3    1.91    1.15
   0   0  -4  635.07   21.88
   0   0   4  624.51   22.13
   0   0   4  609.11   21.91
   1   0  -4   17.29    0.75
   1   0   4   16.61    0.64
   1   0  -4   17.53    0.75
  -1   0  -4   17.06    0.76
  -1   0  -4   16.91    0.64
  -1   0   4   14.51    0.74
  -1   0   4   16.54    0.73
   1   0   4   14.69    0.76
   2   0  -4   13.24    0.71
  -2   0  -4   13.88    0.57
  -2   0   4   13.91    0.68
  -2   0  -4   14.83    0.73
  -2   0   4   13.85    0.70
   2   0   4   13.30    0.53
   2   0  -4   15.75    0.71
  -3   0   4  169.76    6.08
  -3   0   4  171.77    6.08
   3   0  -4  175.12    6.12
   3   0  -4  164.41    6.11
  -3   0  -4  155.10    5.95
   4   0  -4    4.98    0.50
   4   0  -4    5.92    0.49
  -4   0   4    5.86    0.49
  -4   0   4    5.67    0.48
   4   0   4    5.42    0.34
  -4   0  -4    5.38    0.38
   5   0   4    8.06    0.49
   5   0  -4    7.43    0.67
  -5   0  -4    8.10    0.53
  -5   0   4    8.79    0.66
  -5   0   4    8.33    0.64
  -6   0   4    0.80    0.29
   6   0   4    0.84    0.23
  -6   0   4    0.65    0.28
  -6   0  -4    0.67    0.23
   6   0  -4    0.67    0.38
   7   0   4   32.23    1.47
  -7   0   4   32.62    1.67
  -7   0  -4   31.74    1.54
  -7   0   4   31.67    1.69
   7   0  -4   33.51    1.75
   8   0  -4    1.15    0.59
   8   0   4    0.99    0.38
  -8   0  -4    0.56    0.31
  -8   0   4    1.24    0.51
  -8   0   4    0.89    0.42
   9   0   4    1.81    0.51
  -9   0   4    1.21    0.48
  -9   0   4    2.01    0.65
  -9   0  -4    1.60    0.45
 -10   0   4    0.89    0.54
  10   0   4    1.82    0.63
 -10   0  -4    1.15    0.47
 -11   0   4   17.36    1.55
 -11   0  -4   17.76    1.43
  11   0   4   20.82    1.68
 -12   0  -4    1.03    0.74
 -12   0   4    0.24    0.71
 -13   0   4   14.69    1.89
 -13   0  -4   13.93    1.75
   0  -1   4   91.28    3.33
   0   1   4   95.25    3.35
   0  -1   4   89.12    3.35
   0   1  -4   91.32    3.33
   0  -1  -4   90.32    3.24
   0   1   4   90.82    3.23
  -1   1   4    8.34    0.42
   1   1  -4    9.49    0.49
   1  -1   4    8.46    0.49
   1  -1   4    8.22    0.42
   1  -1   4    9.46    0.38
  -1   1   4    9.15    0.45
  -1  -1  -4    7.84    0.35
  -1  -1  -4    8.75    0.48
  -1  -1  -4    7.76    0.33
   1   1  -4    8.74    0.49
  -1   1  -4    9.41    0.48
   1  -1  -4    8.84    0.43
  -1   1  -4    8.71    0.37
  -1   1  -4    9.04    0.42
  -1  -1   4    9.17    0.48
   2   1  -4   73.92    2.71
   2  -1   4   70.52    2.56
   2   1  -4   69.82    2.70
   2  -1   4   67.49    2.55
  -2   1   4   69.90    2.63
  -2   1   4   74.28    2.68
   2  -1  -4   67.12    2.68
  -2   1  -4   74.55    2.55
  -2  -1   4   71.27    2.68
   2  -1  -4   69.30    2.65
  -2   1  -4   71.07    2.70
  -2  -1   4   66.71    2.69
   3   1  -4   89.48    3.29
  -3   1   4   85.38    3.20
   3  -1   4   83.16    3.12
   3   1  -4   85.98    3.27
  -3   1   4   84.91    3.22
   3   1   4   86.36    3.01
  -3   1  -4   81.99    3.27
  -3  -1   4   86.34    3.28
   3  -1  -4   86.77    3.24
   3  -1  -4   78.87    3.24
  -3  -1   4   86.72    3.25
  -4   1   4   20.24    1.01
  -4  -1  -4   19.97    0.91
   4   1  -4   20.98    1.07
  -4   1   4   21.21    1.01
   4   1  -4   20.87    1.07
   4   1   4   19.92    0.82
  -4   1  -4   20.56    0.92
   4  -1  -4   19.23    1.04
  -4  -1   4   20.39    1.04
  -4  -1   4   16.56    0.99
   4  -1  -4   21.19    1.04
  -5   1   4    7.01    0.57
  -5   1   4    6.42    0.57
  -5  -1  -4    6.47    0.49
   5   1  -4    6.40    0.63
   5   1   4    6.77    0.42
   5  -1  -4    6.20    0.62
  -5   1  -4    6.92    0.50
  -5  -1   4    7.35    0.62
  -6   1   4   37.23    1.80
  -6   1   4   39.12    1.81
   6   1  -4   38.69    1.85
  -6  -1  -4   40.69    1.72
   6   1   4   37.86    1.59
  -6  -1   4   39.88    1.87
  -6   1  -4   38.97    1.70
   6  -1  -4   36.85    1.84
  -7   1   4   19.56    1.18
   7   1  -4   18.56    1.25
   7  -1   4   19.21    1.05
  -7   1   4   17.74    1.19
  -7  -1  -4   18.73    1.07
  -7   1  -4   20.62    1.10
  -7  -1   4   18.60    1.24
   7  -1  -4   17.89    1.24
  -7  -1   4   19.43    1.21
   7   1   4   19.36    0.99
  -8   1   4   93.24    3.74
   8  -1   4   91.61    3.52
   8   1  -4   83.20    3.70
  -8   1   4   86.03    3.69
  -8  -1  -4   87.84    3.57
   8   1   4   87.62    3.43
  -8  -1   4   82.96    3.72
  -8  -1   4   83.54    3.69
  -8   1  -4   89.86    3.58
   8  -1  -4   89.21    3.75
   9  -1   4    4.56    0.66
  -9   1   4    4.62    0.78
  -9   1   4    4.09    0.73
  -9  -1  -4    4.06    0.69
  -9  -1   4    3.99    0.72
  -9   1  -4    3.75    0.60
   9   1   4    5.85    0.80
 -10  -1  -4    6.73    0.91
  10  -1   4    9.81    1.24
 -10   1   4    6.82    1.02
 -10   1  -4    7.59    0.96
 -10  -1   4    6.29    1.01
 -11   1   4    3.59    0.73
  11  -1   4    3.74    0.95
 -11  -1  -4    2.09    0.64
 -11   1  -4    4.01    0.77
 -11  -1   4    3.56    0.83
  11   1   4    2.10    0.85
 -12   1   4   10.29    1.48
 -12  -1  -4   10.59    1.38
 -12   1  -4   13.20    1.38
 -12  -1   4   12.92    1.59
 -13  -1  -4    0.74    0.85
 -13   1   4   -0.53    1.01
 -13  -1   4    0.37    1.01
   0  -2  -4   37.02    1.47
   0  -2   4   37.03    1.46
   0   2  -4   38.01    1.53
   0   2   4   38.54    1.50
   0  -2  -4   39.62    1.44
   0   2   4   37.21    1.42
   0  -2   4   37.47    1.51
   0   2  -4   40.85    1.53
   1  -2   4  137.44    5.44
  -1   2   4  146.66    5.40
   1   2  -4  148.27    5.51
   1  -2   4  152.94    5.49
  -1  -2  -4  154.78    5.49
  -1  -2  -4  148.37    5.35
   1   2  -4  166.03    5.52
   1  -2   4  154.94    5.39
  -1   2   4  149.06    5.42
   1  -2  -4  148.20    5.41
  -1   2  -4  154.29    5.47
  -1  -2   4  163.32    5.53
  -1   2  -4  147.42    5.39
  -1   2  -4  153.30    5.45
   1  -2  -4  147.79    5.42
  -1  -2   4  155.76    5.49
  -2   2   4   14.09    0.64
   2  -2   4   15.37    0.65
   2   2  -4   14.41    0.74
  -2  -2  -4   13.79    0.56
   2   2  -4   13.07    0.74
   2  -2   4   13.55    0.65
  -2   2   4   14.20    0.68
  -2  -2   4   14.01    0.74
  -2   2  -4   14.53    0.71
  -2  -2   4   14.39    0.73
  -2   2  -4   13.91    0.62
   2  -2  -4   13.65    0.69
  -3  -2  -4  147.47    5.34
   3  -2   4  147.84    5.46
   3   2  -4  147.25    5.59
   3   2  -4  147.58    5.60
  -3   2   4  148.57    5.47
  -3   2   4  158.86    5.55
   3  -2  -4  146.73    5.53
   3  -2  -4  151.29    5.51
  -3   2  -4  154.54    5.58
  -3  -2   4  153.71    5.58
  -3  -2   4  159.14    5.62
  -3   2  -4  151.21    5.44
   3   2   4  153.77    5.34
   4   2  -4   20.74    1.07
  -4   2   4   20.63    1.02
   4  -2   4   19.52    0.94
  -4   2   4   19.19    0.95
   4   2  -4   18.97    1.05
   4  -2  -4   17.23    0.98
  -4  -2   4   21.08    1.05
   4   2   4   20.27    0.83
   4  -2  -4   19.87    0.99
  -4   2  -4   19.88    0.91
  -4  -2   4   19.35    1.04
  -5   2   4    4.80    0.49
   5  -2   4    5.12    0.48
   5   2  -4    5.51    0.61
  -5   2   4    4.56    0.50
  -5  -2   4    5.91    0.54
   5   2   4    5.63    0.40
  -5   2  -4    5.83    0.45
  -5  -2   4    5.56    0.57
  -6   2   4   12.80    0.85
  -6   2   4   13.08    0.86
   6   2  -4   13.49    0.97
  -6  -2   4   11.94    0.92
   6   2   4   11.20    0.68
  -6   2  -4   12.91    0.77
  -6  -2   4   11.67    0.85
   6  -2  -4   13.08    0.95
  -7   2   4   16.02    1.10
  -7  -2  -4   16.25    1.00
  -7   2   4   17.13    1.09
   7   2  -4   15.35    1.18
   7  -2  -4   16.68    1.20
  -7  -2   4   16.30    1.19
  -7   2  -4   17.12    0.99
   7   2   4   16.37    0.90
  -8  -2  -4    4.59    0.64
  -8   2   4    4.02    0.65
   8   2  -4    6.70    1.00
  -8   2   4    5.48    0.74
   8  -2   4    4.58    0.71
   8   2   4    4.92    0.63
  -8   2  -4    4.43    0.60
  -8  -2   4    4.91    0.74
  -8  -2   4    4.49    0.78
   8  -2  -4    5.95    0.88
  -9   2   4   19.39    1.51
   9  -2   4   19.53    1.32
  -9  -2  -4   19.02    1.27
  -9   2   4   19.57    1.37
  -9  -2   4   19.81    1.45
  -9   2  -4   20.82    1.27
   9   2   4   20.79    1.23
 -10  -2  -4    9.26    1.00
 -10   2   4    8.15    1.10
  10  -2   4    7.39    1.21
  10   2   4    8.56    1.04
 -10   2  -4    6.53    0.88
 -10  -2   4    7.78    1.06
 -11  -2  -4    5.84    1.04
 -11   2   4    8.24    1.30
  11  -2   4    8.04    1.21
 -11   2  -4    6.21    0.86
  11   2   4    6.18    1.00
 -11  -2   4    6.75    1.15
 -12   2   4    7.83    1.18
 -12  -2  -4    6.12    1.02
 -12   2  -4    4.46    0.83
 -12  -2   4    9.08    1.40
 -13  -2  -4   15.98    1.77
 -13   2   4   15.12    1.83
 -13   2  -4   11.67    1.53
 -13  -2   4   14.13    1.89
   0  -3  -4    8.76    0.44
   0   3   4    7.72    0.48
   0  -3   4    8.71    0.49
   0  -3  -4    9.03    0.45
   0  -3   4    9.17    0.48
   0   3  -4    9.31    0.50
   0  -3   4    9.15    0.55
   0   3  -4    8.95    0.55
  -1  -3  -4    3.59    0.29
  -1  -3  -4    3.29    0.25
   1   3  -4    3.62    0.30
   1  -3   4    2.91    0.30
  -1  -3  -4    3.65    0.24
   1  -3   4    2.62    0.28
   1   3  -4    3.56    0.37
   1  -3   4    2.49    0.24
  -1   3   4    2.83    0.22
  -1   3   4    2.79    0.24
  -1  -3   4    3.62    0.35
   1  -3  -4    3.30    0.23
  -1   3  -4    2.66    0.24
   1  -3  -4    3.22    0.27
  -1   3  -4    3.16    0.27
  -1  -3   4    3.65    0.31
  -1   3  -4    2.59    0.30
   2  -3   4   15.17    0.71
  -2   3   4   16.66    0.75
  -2  -3  -4   13.40    0.67
  -2   3   4   14.74    0.65
   2  -3   4   16.40    0.80
  -2  -3  -4   13.64    0.65
   2   3  -4   14.42    0.78
   2   3  -4   14.24    0.82
   2  -3   4   15.50    0.74
  -2   3  -4   17.09    0.76
   2  -3  -4   14.26    0.67
  -2   3  -4   15.81    0.70
  -2  -3   4   13.75    0.75
   2  -3  -4   14.86    0.75
   3  -3   4  127.69    4.76
   3   3  -4  139.54    4.93
  -3   3   4  128.38    4.70
   3  -3   4  128.02    4.76
  -3  -3  -4  124.11    4.66
  -3   3   4  129.47    4.81
  -3   3  -4  134.17    4.82
   3  -3  -4  132.97    4.75
  -3  -3   4  131.23    4.85
  -3  -3   4  127.27    4.88
   3  -3  -4  125.74    4.82
   3   3   4  129.32    4.65
  -3   3  -4  132.54    4.74
   4   3  -4   26.21    1.34
  -4   3   4   25.52    1.16
   4   3  -4   26.28    1.34
  -4  -3  -4   24.75    1.09
   4  -3   4   27.23    1.22
  -4   3   4   27.23    1.27
   4   3   4   25.89    1.10
  -4   3  -4   27.83    1.19
   4  -3  -4   27.03    1.29
  -4   3  -4   28.72    1.28
  -4  -3   4   25.56    1.30
  -4  -3   4   27.57    1.33
  -5  -3  -4    2.32    0.26
  -5   3   4    2.74    0.39
   5   3  -4    2.29    0.45
  -5   3   4    2.57    0.41
   5  -3   4    2.26    0.36
  -5  -3   4    1.90    0.41
  -5   3  -4    1.96    0.30
  -5  -3   4    2.65    0.43
   5  -3  -4    2.42    0.42
   5   3   4    1.81    0.28
  -6   3   4   11.67    0.83
  -6   3   4   12.34    0.80
   6   3  -4   10.63    0.92
   6  -3   4   11.24    0.81
  -6  -3   4   11.31    0.92
  -6  -3   4   10.69    0.82
  -6   3  -4   10.94    0.73
   6   3   4   10.23    0.68
   7  -3   4   13.18    0.99
  -7   3   4   14.97    1.03
  -7   3   4   15.44    1.05
   7   3  -4   13.24    1.14
   7   3   4   15.51    0.89
   7  -3  -4   13.94    1.16
  -7  -3   4   15.92    1.06
  -7  -3   4   15.64    1.17
  -7   3  -4   14.74    0.92
   8   3  -4    6.60    1.07
  -8   3   4    6.17    0.85
  -8   3   4    7.44    0.83
   8  -3  -4    7.01    1.07
   8   3   4    6.79    0.73
  -8   3  -4    7.45    0.69
  -9   3   4   16.20    1.24
  -9  -3  -4   14.97    1.16
  -9   3   4   15.88    1.35
  -9   3  -4   15.08    1.07
   9   3   4   14.75    1.14
  10  -3   4    0.18    0.70
 -10  -3  -4    0.00    0.46
 -10   3   4    0.24    0.46
 -10   3  -4   -0.30    0.36
  10   3   4    0.40    0.59
 -10  -3   4   -0.08    0.50
 -11   3   4    4.61    0.85
 -11  -3  -4    3.53    0.79
 -11  -3   4    4.89    0.94
 -12   3   4    3.81    0.87
 -12  -3  -4    4.16    0.87
 -12   3  -4    4.98    0.81
 -12  -3   4    4.34    1.09
 -13  -3  -4    3.13    1.01
 -13   3   4    0.64    0.86
 -13   3  -4    3.09    0.85
 -13  -3   4    2.13    1.07
   0   4  -4   41.25    1.60
   0  -4   4   38.93    1.67
   0  -4  -4   37.52    1.49
   0   4   4   38.47    1.55
   0  -4  -4   38.91    1.56
   0   4  -4   39.66    1.67
   0  -4   4   38.83    1.58
   0  -4   4   38.31    1.57
   1  -4   4   23.00    1.06
   1   4  -4   19.63    1.06
   1   4  -4   23.19    1.02
  -1  -4  -4   20.41    0.93
  -1   4   4   22.01    0.88
  -1   4   4   21.55    0.96
  -1  -4  -4   21.33    0.97
  -1  -4  -4   22.82    0.96
   1  -4   4   21.02    0.96
   1  -4   4   22.28    0.98
  -1   4  -4   22.32    0.97
  -1   4  -4   21.78    1.04
   1  -4  -4   20.61    0.97
  -1  -4   4   22.24    1.01
   1  -4  -4   20.25    0.86
  -1   4  -4   21.19    0.96
  -1  -4   4   21.88    0.99
  -1  -4   4   22.65    1.10
   2  -4   4    4.97    0.38
  -2   4   4    4.49    0.28
   2   4  -4    4.61    0.48
   2  -4   4    5.05    0.40
   2  -4   4    4.68    0.40
   2   4  -4    6.18    0.45
   2  -4  -4    4.80    0.30
  -2  -4   4    6.28    0.51
  -2   4  -4    4.68    0.36
   2  -4  -4    4.72    0.40
  -2  -4   4    5.34    0.42
  -2   4  -4    4.15    0.34
   3  -4   4    8.36    0.54
  -3  -4  -4    7.43    0.54
  -3   4   4    8.51    0.54
   3   4  -4    7.77    0.66
   3  -4   4    8.21    0.54
   3   4  -4    7.90    0.59
  -3   4   4    7.86    0.43
   3  -4  -4    6.75    0.47
  -3   4  -4    7.94    0.49
   3   4   4    7.77    0.47
  -3  -4   4    7.61    0.57
  -3   4  -4    8.37    0.51
   3  -4  -4    7.81    0.57
  -3  -4   4    7.05    0.59
   4  -4   4   15.30    0.85
   4   4  -4   15.44    0.95
  -4  -4  -4   14.74    0.75
  -4   4   4   15.49    0.75
   4   4  -4   15.53    0.99
  -4   4   4   16.18    0.87
   4  -4   4   15.56    0.83
  -4  -4   4   14.98    0.92
   4  -4  -4   14.30    0.90
  -4  -4   4   15.35    0.93
  -4   4  -4   16.43    0.82
   4   4   4   15.51    0.76
  -4   4  -4   15.20    0.84
  -5   4   4    0.89    0.26
   5  -4   4    1.67    0.34
  -5   4   4    1.32    0.28
   5   4  -4    1.41    0.44
  -5  -4  -4    1.45    0.25
   5   4   4    1.57    0.31
  -5   4  -4    1.59    0.27
   5  -4  -4    1.79    0.37
  -5  -4   4    2.09    0.42
  -5   4  -4    2.33    0.40
  -5  -4   4    2.05    0.39
  -6   4   4   15.29    0.89
   6  -4   4   14.51    0.98
   6   4  -4   13.72    1.08
  -6  -4  -4   13.76    0.77
  -6   4   4   14.13    0.93
  -6   4  -4   14.30    0.85
   6  -4  -4   14.20    1.04
  -6  -4   4   14.96    1.09
  -6  -4   4   14.58    0.99
  -6   4  -4   14.63    0.96
   6   4   4   12.90    0.82
  -7   4   4   10.74    0.84
   7   4  -4    9.46    1.09
  -7   4   4    9.50    0.80
   7  -4   4    9.35    0.91
   7   4   4    9.13    0.74
  -7  -4   4    9.37    0.84
   7  -4  -4    9.38    0.98
  -7  -4   4   10.96    1.04
  -7   4  -4   10.23    0.75
   8  -4   4    3.13    0.60
  -8   4   4    4.26    0.79
  -8   4   4    3.40    0.57
   8   4  -4    3.24    0.76
  -8  -4   4    3.27    0.58
   8   4   4    4.32    0.67
  -8   4  -4    3.13    0.55
  -9   4   4   29.41    1.75
  -9   4   4   27.94    1.67
   9   4   4   29.11    1.60
  -9   4  -4   29.17    1.60
 -10  -4  -4    1.27    0.59
 -10   4   4    0.99    0.85
  10   4   4    0.79    0.67
 -10   4  -4    0.21    0.46
 -11  -4  -4    2.01    0.69
 -11   4   4    0.78    0.61
 -11  -4   4    1.73    0.78
 -11   4  -4    0.23    0.55
 -12   4   4    7.15    1.13
 -12  -4  -4    7.94    1.19
 -12   4  -4    5.85    0.92
 -12  -4   4   10.94    1.73
 -13  -4  -4    1.57    1.25
 -13  -4   4    1.11    2.06
   0  -5   4    7.29    0.46
   0   5   4    7.41    0.47
   0   5  -4    7.36    0.59
   0  -5   4    7.39    0.50
   0   5  -4    7.48    0.47
   0  -5  -4    6.62    0.47
   0  -5  -4    6.88    0.37
   0  -5   4    7.75    0.60
   1   5  -4    8.51    0.64
   1  -5   4    8.39    0.54
  -1  -5  -4    8.13    0.50
   1   5  -4    8.38    0.55
   1  -5   4    9.13    0.53
   1  -5   4    8.65    0.63
  -1   5   4    8.18    0.51
  -1  -5  -4    8.06    0.53
  -1   5  -4    7.17    0.61
  -1  -5   4    8.75    0.54
  -1  -5   4    8.34    0.64
   1  -5  -4    8.37    0.54
  -1  -5   4    7.79    0.56
   1  -5  -4    7.97    0.38
  -1   5  -4    9.44    0.55
  -1   5  -4    8.42    0.49
   2  -5   4   26.90    1.29
  -2  -5  -4   25.23    1.19
  -2   5   4   27.18    1.05
   2  -5   4   27.77    1.24
   2   5  -4   27.86    1.37
   2  -5   4   26.93    1.24
  -2   5   4   29.28    1.25
  -2  -5  -4   26.40    1.21
   2   5  -4   28.23    1.30
  -2  -5   4   24.11    1.23
   2  -5  -4   26.28    1.06
  -2   5  -4   29.77    1.24
  -2   5  -4   28.78    1.19
   2  -5  -4   27.97    1.27
  -3   5   4    2.82    0.34
   3  -5   4    2.76    0.38
  -3   5   4    2.41    0.22
  -3  -5  -4    2.25    0.36
   3   5  -4    2.76    0.45
  -3  -5  -4    2.97    0.36
   3  -5   4    2.74    0.36
   3   5  -4    2.90    0.38
  -3  -5   4    2.83    0.45
   3  -5  -4    2.77    0.42
  -3   5  -4    2.38    0.29
  -3  -5   4    2.48    0.40
  -3   5  -4    2.76    0.31
  -4  -5  -4    8.12    0.56
   4  -5   4    8.09    0.59
  -4   5   4    8.40    0.61
  -4   5   4    7.38    0.45
   4   5  -4    7.42    0.68
   4  -5   4    8.11    0.61
   4   5  -4    8.04    0.77
  -4   5  -4    7.59    0.54
   4   5   4    7.86    0.56
  -4  -5   4    7.81    0.66
   4  -5  -4    7.61    0.65
  -4   5  -4    7.63    0.54
  -4  -5   4    6.99    0.66
  -5   5   4    1.67    0.27
   5  -5   4    1.50    0.35
   5   5  -4    1.76    0.47
  -5  -5  -4    1.92    0.32
  -5   5   4    1.98    0.37
   5  -5  -4    2.04    0.39
  -5   5  -4    2.40    0.40
  -5  -5   4    1.42    0.38
   5   5   4    2.19    0.35
  -5  -5   4    1.60    0.37
  -5   5  -4    1.82    0.31
   6  -5   4    8.89    0.82
   6   5  -4    7.16    0.94
  -6   5   4    9.01    0.75
  -6   5   4    7.69    0.64
  -6  -5  -4    7.96    0.61
   6   5   4    9.09    0.70
   6  -5  -4    9.76    0.89
  -6  -5   4    7.22    0.76
  -6   5  -4    9.67    0.76
  -6   5  -4    9.27    0.68
  -6  -5   4    9.11    0.91
   7  -5   4    9.40    0.95
  -7   5   4   10.42    0.83
  -7   5   4    9.21    0.78
   7   5  -4    9.85    1.11
  -7  -5  -4    8.31    0.66
  -7  -5   4    9.16    0.86
  -7   5  -4    9.41    0.83
  -7  -5   4    8.02    1.02
   7   5   4    6.51    0.76
  -7   5  -4    8.60    0.73
   7  -5  -4    9.50    1.10
  -8   5   4    8.55    0.86
   8  -5   4    9.69    1.14
  -8   5   4   10.26    0.98
  -8   5  -4    9.28    0.81
  -8  -5   4   10.30    1.00
  -8   5  -4    9.71    0.95
   8   5   4    9.33    0.91
  -9   5   4    1.56    0.49
  -9   5   4    1.55    0.60
   9   5   4    1.42    0.61
  -9   5  -4    1.75    0.46
  -9  -5   4    1.40    0.58
 -10   5   4    0.95    0.76
 -10   5   4    0.80    0.50
  10   5   4    0.38    0.69
 -10   5  -4    0.45    0.45
 -11  -5  -4    0.91    0.70
 -11   5   4    0.59    0.58
 -11   5  -4    0.21    0.52
 -12   5   4    1.23    0.74
 -12  -5  -4    1.12    0.83
 -12  -5   4    1.34    1.02
 -12   5  -4    0.94    0.68
   0   6  -4   52.62    2.21
   0  -6  -4   52.04    2.12
   0  -6   4   48.97    2.01
   0   6  -4   51.73    2.05
   0  -6  -4   50.09    2.06
   0  -6   4   52.08    2.21
   0   6   4   52.13    2.08
   0  -6   4   49.62    2.10
   0  -6  -4   47.40    1.88
  -1   6   4   94.97    3.55
   1  -6   4   87.76    3.54
   1  -6   4   92.20    3.66
   1  -6   4   94.48    3.50
  -1  -6  -4   97.17    3.58
   1   6  -4   93.44    3.57
   1   6  -4   93.83    3.70
  -1  -6  -4   90.93    3.51
   1  -6  -4   90.93    3.55
  -1  -6   4   94.14    3.60
  -1   6  -4   92.05    3.56
  -1  -6   4   93.04    3.51
  -1   6  -4   95.43    3.49
   1  -6  -4   86.92    3.28
  -1  -6   4   95.92    3.71
  -1   6  -4   90.31    3.64
   2   6  -4   37.22    1.65
  -2   6   4   35.06    1.58
   2  -6   4   36.73    1.67
  -2  -6  -4   36.91    1.60
  -2  -6  -4   36.23    1.56
   2  -6   4   36.02    1.56
   2   6  -4   36.06    1.75
   2  -6   4   37.49    1.61
   2  -6  -4   36.24    1.62
  -2  -6   4   35.47    1.64
  -2  -6   4   36.22    1.59
  -2  -6   4   33.44    1.70
  -2   6  -4   35.34    1.58
  -2   6  -4   36.57    1.50
  -3  -6  -4    3.91    0.46
  -3  -6  -4    3.31    0.44
  -3   6   4    4.07    0.21
   3  -6   4    3.42    0.47
  -3   6   4    3.45    0.40
   3   6  -4    3.79    0.49
   3  -6   4    3.51    0.45
   3   6  -4    3.08    0.52
   3  -6  -4    4.03    0.51
  -3   6  -4    3.74    0.36
  -3  -6   4    3.52    0.47
  -3  -6   4    3.28    0.50
  -3   6  -4    3.69    0.40
  -4  -6  -4    6.17    0.60
  -4  -6  -4    6.88    0.58
   4  -6   4    6.43    0.60
  -4   6   4    7.16    0.37
   4  -6   4    8.43    0.68
  -4   6   4    6.62    0.57
   4   6  -4    5.77    0.63
   4   6  -4    5.17    0.75
  -4  -6   4    5.83    0.65
  -4   6  -4    6.44    0.52
   4  -6  -4    6.19    0.67
  -4  -6   4    6.21    0.67
  -4   6  -4    6.94    0.50
   4   6   4    6.16    0.58
   5  -6   4    2.68    0.45
  -5  -6  -4    2.51    0.39
   5  -6   4    3.08    0.51
   5   6  -4    2.76    0.59
  -5   6   4    2.88    0.33
  -5   6   4    2.56    0.44
  -5  -6   4    2.62    0.49
  -5   6  -4    1.89    0.32
   5  -6  -4    2.27    0.46
  -5  -6   4    3.06    0.52
  -5   6  -4    2.13    0.38
   5   6   4    2.97    0.46
  -6   6   4    6.91    0.56
   6   6  -4    7.75    1.06
   6  -6   4    5.23    0.78
  -6  -6  -4    7.02    0.62
  -6   6   4    6.22    0.66
  -6  -6   4    7.71    0.93
  -6   6  -4    7.04    0.66
  -6  -6   4    6.58    0.75
   6  -6  -4    7.45    0.90
  -6   6  -4    7.17    0.63
   6   6   4    7.34    0.72
  -7   6   4    1.06    0.33
  -7  -6  -4    0.87    0.30
  -7   6   4    0.78    0.32
   7  -6   4    1.04    0.55
   7   6  -4    0.38    0.69
  -7  -6   4    0.60    0.40
   7  -6  -4    0.76    0.48
   7   6   4    0.31    0.41
  -7   6  -4    0.60    0.28
  -7   6  -4    1.10    0.39
  -7  -6   4    1.36    0.60
  -8  -6  -4    0.70    0.32
  -8   6   4    0.18    0.42
  -8   6   4    0.00    0.35
  -8   6  -4    0.20    0.40
  -8  -6   4    0.47    0.48
  -8   6  -4    0.11    0.32
   8   6   4   -0.40    0.52
  -9   6   4   -0.08    0.40
  -9   6   4    0.42    0.56
   9   6   4   -0.47    0.66
  -9   6  -4    0.36    0.39
  -9  -6   4    1.65    0.59
  -9   6  -4    0.39    0.49
 -10   6   4    0.02    0.54
 -10   6   4    1.30    0.78
 -10  -6   4    0.96    0.64
 -10   6  -4    1.07    0.61
 -10   6  -4    0.03    0.44
 -11   6   4    2.02    0.73
 -11   6  -4    3.56    0.87
 -11   6  -4    1.92    0.60
 -12   6   4    2.43    0.94
 -12  -6  -4    2.31    1.05
 -12  -6   4    3.50    1.11
 -12   6  -4    4.49    0.87
   0  -7  -4   -0.25    0.19
   0  -7   4   -0.01    0.20
   0  -7   4   -0.16    0.15
   0  -7  -4    0.08    0.08
   0  -7  -4   -0.10    0.20
   0   7   4   -0.09    0.15
   0  -7   4    0.23    0.29
   0   7  -4    0.06    0.35
   0   7  -4    0.00    0.16
   1   7  -4   94.18    3.56
   1  -7   4   93.17    3.58
  -1  -7  -4   90.52    3.58
   1  -7   4   91.84    3.46
   1   7  -4   93.95    3.72
  -1   7   4   91.86    3.55
   1  -7   4   86.11    3.65
  -1  -7  -4   89.00    3.53
  -1   7  -4   90.03    3.57
  -1  -7   4   91.96    3.48
  -1  -7   4   89.47    3.70
   1  -7  -4   91.91    3.57
  -1   7  -4   94.20    3.46
  -1  -7   4   87.42    3.57
  -2   7   4   10.17    0.69
   2  -7   4    9.72    0.74
  -2  -7  -4   11.27    0.78
   2   7  -4    9.96    0.90
   2   7  -4   10.22    0.73
   2  -7   4   10.44    0.77
  -2  -7  -4   10.17    0.73
   2  -7   4   10.56    0.67
  -2   7  -4   11.56    0.73
  -2  -7   4   11.70    0.82
  -2  -7   4   11.83    0.74
   2  -7  -4   10.68    0.79
  -2  -7   4   10.37    0.85
  -2   7  -4   11.21    0.62
  -3  -7  -4    3.42    0.52
   3  -7   4    3.72    0.55
  -3   7   4    4.11    0.45
   3  -7   4    3.73    0.52
   3   7  -4    3.43    0.66
  -3  -7  -4    4.15    0.52
   3   7  -4    3.20    0.51
  -3   7  -4    4.11    0.47
   3  -7  -4    5.20    0.58
  -3  -7   4    2.86    0.48
  -3  -7   4    3.45    0.59
  -3   7  -4    3.31    0.38
  -3  -7   4    4.04    0.51
   4  -7   4   41.20    1.92
  -4  -7  -4   40.84    1.85
  -4   7   4   43.46    1.89
   4   7  -4   35.84    2.01
   4  -7   4   40.75    1.91
  -4  -7  -4   41.31    1.86
   4  -7  -4   39.31    1.93
  -4   7  -4   42.75    1.85
  -4  -7   4   37.28    1.86
  -4  -7   4   40.68    2.01
  -4   7  -4   41.21    1.70
   5   7  -4    2.20    0.70
  -5  -7  -4    2.60    0.44
  -5   7   4    1.24    0.30
  -5   7   4    2.46    0.28
   5  -7   4    1.35    0.44
  -5  -7  -4    1.61    0.46
   5  -7   4    1.72    0.43
  -5   7  -4    2.30    0.38
  -5  -7   4    1.17    0.43
  -5  -7   4    0.96    0.39
  -5   7  -4    2.16    0.38
   5  -7  -4    1.93    0.52
   5   7   4    1.83    0.44
   6  -7   4   31.08    1.76
  -6   7   4   31.34    1.35
  -6   7   4   32.34    1.66
   6  -7   4   33.16    1.69
   6   7  -4   27.97    1.87
  -6  -7  -4   34.45    1.59
  -6  -7   4   32.05    1.77
  -6   7  -4   32.55    1.61
   6  -7  -4   30.11    1.83
   6   7   4   33.15    1.64
  -6   7  -4   32.91    1.51
  -6  -7   4   32.57    1.81
  -7   7   4    2.11    0.43
   7  -7   4    2.32    0.66
  -7  -7  -4    2.54    0.45
  -7   7   4    2.20    0.39
   7   7   4    3.40    0.63
  -7   7  -4    2.14    0.43
  -7  -7   4    2.40    0.58
  -7   7  -4    2.31    0.43
  -8  -7  -4    3.86    0.65
  -8   7   4    3.60    0.63
  -8   7   4    3.03    0.53
  -8   7  -4    3.15    0.53
   8   7   4    3.95    0.73
  -8   7  -4    3.62    0.60
  -8  -7   4    2.62    0.64
  -9  -7  -4    3.09    0.59
  -9   7   4    2.24    0.61
  -9   7   4    2.14    0.59
   9   7   4    2.51    0.85
  -9  -7   4    2.51    0.77
  -9   7  -4    2.16    0.52
  -9   7  -4    2.49    0.60
 -10   7   4    2.67    0.72
 -10  -7   4    4.19    0.94
 -10   7  -4    2.84    0.75
 -10   7  -4    2.27    0.57
 -11   7   4    0.32    0.74
 -11   7  -4   -0.03    0.63
 -11   7  -4    2.16    0.88
 -12  -7  -4    5.22    1.44
 -12  -7   4    4.12    1.48
   0  -8  -4    0.96    0.33
   0   8  -4    0.89    0.42
   0  -8  -4    1.35    0.20
   0  -8  -4    1.62    0.37
   0   8  -4    1.20    0.26
   0  -8   4    0.96    0.26
   0  -8   4    1.14    0.34
   0  -8   4    1.34    0.44
   0  -8  -4    1.01    0.15
  -1  -8  -4   35.16    1.65
   1   8  -4   33.55    1.80
   1  -8   4   36.76    1.55
  -1  -8  -4   33.69    1.67
   1  -8   4   36.02    1.69
   1   8  -4   34.17    1.61
  -1  -8  -4   35.37    1.45
   1  -8   4   35.77    1.80
  -1  -8  -4   33.16    1.46
  -1   8   4   37.40    1.67
  -1  -8   4   32.91    1.53
   1  -8  -4   37.37    1.73
  -1  -8   4   31.00    1.65
  -1   8  -4   37.75    1.70
   1  -8  -4   35.92    1.68
  -1   8  -4   37.52    1.54
  -1  -8   4   34.61    1.81
   2  -8   4   12.32    0.91
   2   8  -4   13.54    1.10
  -2  -8  -4   14.17    0.95
   2  -8   4   12.91    0.94
   2   8  -4   13.24    0.88
  -2   8   4   11.82    0.81
  -2  -8  -4   12.44    0.87
   2  -8   4   12.18    0.77
  -2   8  -4   13.15    0.86
  -2  -8   4   14.18    0.84
  -2  -8   4   14.17    1.06
  -2   8  -4   13.88    0.74
   2  -8  -4   13.47    0.94
  -3   8   4    4.12    0.48
  -3  -8  -4    3.80    0.61
   3  -8   4    3.99    0.58
   3  -8   4    5.02    0.67
  -3  -8  -4    5.09    0.66
   3   8  -4    5.13    0.79
   3   8  -4    4.14    0.60
   3  -8  -4    6.16    0.72
  -3  -8   4    4.18    0.59
  -3   8  -4    4.64    0.54
  -3   8  -4    4.51    0.40
  -3  -8   4    5.04    0.71
  -3  -8   4    3.99    0.61
   4  -8   4    5.87    0.69
  -4  -8  -4    6.29    0.74
   4  -8   4    4.57    0.77
   4   8  -4    5.50    0.96
  -4  -8  -4    5.86    0.71
  -4   8   4    5.46    0.60
  -4   8  -4    6.76    0.52
  -4  -8   4    6.14    0.72
  -4  -8   4    4.68    0.82
   4  -8  -4    5.93    0.82
  -4   8  -4    6.30    0.61
  -4  -8   4    5.89    0.81
   5  -8   4    2.55    0.51
  -5  -8  -4    2.69    0.52
   5   8  -4    0.81    0.67
   5  -8   4    2.61    0.53
  -5  -8  -4    3.32    0.59
  -5   8   4    1.94    0.40
   5  -8  -4    2.19    0.59
  -5  -8   4    1.98    0.52
  -5   8  -4    1.78    0.39
  -5  -8   4    3.46    0.62
   5   8   4    2.73    0.55
  -5   8  -4    3.38    0.45
   6  -8   4   14.75    1.11
  -6  -8  -4   12.47    1.19
  -6   8   4   15.13    0.67
   6  -8   4   15.77    1.37
  -6   8   4   14.67    1.04
  -6  -8  -4   13.09    1.01
  -6  -8   4   13.29    1.23
   6   8   4   14.36    1.16
  -6   8  -4   16.16    0.90
  -6   8  -4   16.52    1.02
  -6  -8   4   12.47    1.15
   7  -8   4   23.80    1.49
  -7   8   4   22.41    1.04
  -7  -8  -4   20.53    1.57
  -7  -8  -4   22.86    1.33
  -7   8   4   21.39    1.39
  -7  -8   4   19.39    1.49
  -7   8  -4   21.32    1.33
   7   8   4   23.43    1.50
  -7   8  -4   21.74    1.20
   8  -8   4    2.50    0.66
  -8  -8  -4    3.04    0.58
  -8   8   4    2.82    0.46
  -8   8   4    3.05    0.63
  -8   8  -4    2.27    0.46
  -8   8  -4    2.78    0.56
   8   8   4    3.03    0.82
  -8  -8   4    2.04    0.64
  -9  -8  -4    8.73    1.01
   9  -8   4    8.93    1.19
  -9   8   4    7.53    0.99
   9   8   4   10.39    1.73
  -9   8  -4    6.52    0.96
 -10  -8  -4    3.58    0.75
 -10   8   4    1.64    0.68
 -10  -8   4    2.90    0.88
 -10   8  -4    1.07    0.63
 -10   8  -4    2.60    0.65
 -11   8   4    0.61    0.72
 -11   8  -4    1.61    0.69
 -11   8  -4    0.33    0.77
 -11  -8   4    2.06    1.01
   0  -9  -4    1.65    0.42
   0   9  -4    1.74    0.32
   0  -9   4    2.24    0.41
   0  -9   4    1.70    0.53
   0  -9   4    1.75    0.45
   0  -9  -4    1.91    0.43
   0   9   4    2.05    0.42
   1  -9   4   11.98    1.04
  -1  -9  -4   12.52    0.92
  -1   9   4   11.03    0.81
  -1  -9  -4   10.95    0.64
   1   9  -4   12.24    0.81
  -1  -9  -4   11.74    0.88
   1  -9   4   11.42    0.95
   1   9  -4   12.89    1.59
   1  -9   4   12.53    0.76
  -1   9  -4   10.96    0.72
  -1  -9   4   12.75    1.00
  -1   9  -4   12.09    0.90
  -1  -9   4   11.66    0.75
  -1  -9   4   11.02    1.00
   1  -9  -4   11.72    0.95
   1  -9  -4   10.54    0.88
  -2   9   4   66.21    2.90
  -2  -9  -4   72.06    3.00
  -2  -9  -4   67.90    2.75
   2  -9   4   65.15    2.75
   2  -9   4   67.66    2.96
   2  -9   4   66.73    3.03
  -2  -9  -4   69.32    2.90
   2   9  -4   74.03    2.96
  -2  -9   4   74.70    3.02
  -2  -9   4   68.21    3.11
   2  -9  -4   66.44    2.99
  -2   9  -4   67.71    2.92
  -2   9  -4   69.60    2.71
   2  -9  -4   71.10    2.99
  -2  -9   4   70.11    2.82
   3  -9   4    0.65    0.37
  -3  -9  -4    0.57    0.39
  -3   9   4    0.18    0.26
  -3  -9  -4    0.75    0.40
  -3  -9  -4    0.61    0.36
   3  -9   4    0.46    0.36
  -3  -9   4    0.23    0.35
  -3   9  -4    0.52    0.20
  -3  -9   4    0.64    0.37
  -3  -9   4    0.46    0.46
  -3   9  -4    0.17    0.26
   3  -9  -4    0.67    0.48
  -4  -9  -4   14.99    1.15
  -4   9   4   16.31    1.06
  -4  -9  -4   15.89    1.16
  -4  -9  -4   17.27    1.16
   4  -9   4   15.02    1.20
   4  -9   4   16.21    1.17
  -4   9  -4   16.10    0.85
   4  -9  -4   15.53    1.26
  -4  -9   4   15.11    1.23
  -4   9  -4   17.11    1.06
  -4  -9   4   16.49    1.12
   5  -9   4    4.87    0.79
  -5  -9  -4    4.99    0.94
  -5   9   4    5.10    0.68
  -5  -9  -4    5.75    0.80
  -5  -9  -4    6.50    0.92
  -5  -9   4    4.72    0.87
  -5   9  -4    5.14    0.66
  -5  -9   4    6.22    0.91
  -5   9  -4    5.55    0.54
  -6  -9  -4   12.75    1.37
   6  -9   4   13.33    1.13
  -6   9   4   13.80    1.05
  -6  -9  -4   10.64    1.04
   6   9   4   12.67    1.25
  -6   9  -4   14.17    0.87
  -6   9  -4   13.12    1.02
  -6  -9   4   11.08    1.13
  -7   9   4    1.29    0.41
  -7  -9  -4    0.52    0.48
   7  -9   4    1.52    0.57
   7   9   4    1.47    0.73
  -7   9  -4    1.18    0.43
  -7  -9   4    1.13    0.53
  -7   9  -4    1.42    0.38
  -8  -9  -4    8.75    1.03
  -8   9   4    9.34    0.70
   8  -9   4   10.00    1.22
  -8   9   4    7.26    0.98
  -8   9  -4    7.86    0.97
  -8  -9   4    9.32    1.21
   8   9   4   11.41    1.51
  -8   9  -4    9.66    0.84
  -9  -9  -4    1.38    0.63
   9  -9   4    2.24    0.79
  -9   9   4    1.28    0.57
  -9  -9   4    0.06    0.64
  -9   9  -4    0.47    0.47
  -9   9  -4    0.86    0.58
  10  -9   4   15.94    1.68
 -10  -9  -4   15.66    1.50
 -10   9   4   13.43    1.40
 -10   9  -4   12.20    1.18
 -10   9  -4   12.70    1.37
 -10  -9   4   10.54    1.64
   0  10   4   11.69    0.93
   0 -10   4   10.85    1.06
   0 -10  -4    9.74    0.89
   0  10  -4    9.88    0.74
   0 -10   4    8.77    1.00
   0 -10   4   10.06    0.74
   0 -10  -4   10.37    0.99
  -1 -10  -4    7.54    0.93
   1 -10   4    7.72    0.94
  -1 -10  -4    7.48    0.49
   1  10  -4    7.65    0.74
   1 -10   4    9.33    1.03
   1 -10   4    8.54    0.67
  -1 -10  -4    6.72    0.79
  -1 -10  -4    6.59    0.53
  -1  10   4    9.33    0.79
   1 -10  -4    9.69    0.95
  -1  10  -4    8.17    0.63
  -1 -10   4    7.98    0.69
  -1 -10   4    6.95    1.22
   1 -10  -4    8.57    0.86
  -1 -10   4    7.28    0.94
  -2 -10  -4    0.73    0.46
   2 -10   4    0.63    0.45
  -2 -10  -4    0.37    0.45
  -2  10   4   -0.08    0.27
  -2 -10  -4    0.66    0.30
   2 -10   4    0.32    0.71
  -2  10  -4    0.53    0.33
   2 -10  -4    0.29    0.41
  -2  10  -4    0.36    0.25
  -2 -10   4    0.78    0.51
  -2 -10   4    0.67    0.32
   2 -10  -4    1.34    0.49
  -3 -10  -4    6.39    0.88
  -3 -10  -4    5.33    0.73
   3 -10   4    4.62    0.81
  -3 -10  -4    5.79    0.92
  -3  10   4    5.47    0.69
  -3 -10   4    7.50    0.81
  -3  10  -4    5.94    0.51
  -3 -10   4    5.82    0.90
   3 -10  -4    5.00    0.79
  -3  10  -4    4.75    0.67
  -4 -10  -4    1.32    0.57
  -4  10   4    0.70    0.36
  -4 -10  -4    1.36    0.51
  -4 -10  -4    1.61    0.57
   4 -10   4    0.67    0.43
  -4  10  -4    0.98    0.26
  -4 -10   4    1.00    0.49
  -4  10  -4    0.52    0.40
  -4 -10   4    1.08    0.52
  -5  10   4   36.84    1.95
   5 -10   4   34.81    2.05
  -5 -10  -4   41.20    2.06
  -5 -10  -4   39.06    2.11
  -5  10  -4   39.54    1.66
  -5 -10   4   38.37    2.05
  -5  10  -4   37.20    1.94
  -5 -10   4   39.85    2.21
  -6  10   4    1.81    0.44
  -6 -10  -4    1.38    0.75
  -6 -10  -4    1.83    0.60
   6 -10   4    1.49    0.58
  -6 -10   4    0.30    0.55
  -6  10  -4    0.94    0.34
  -6  10  -4    1.57    0.47
  -7  10   4   35.91    1.98
  -7 -10  -4   31.73    1.88
   7 -10   4   34.89    2.09
  -7 -10   4   32.81    2.09
  -7  10  -4   34.57    1.61
  -7  10  -4   34.98    1.92
   7  10   4   32.49    2.19
   8 -10   4    5.11    0.95
  -8  10   4    5.55    0.99
  -8 -10  -4    5.53    0.83
  -8  10  -4    6.79    1.02
  -8 -10   4    4.26    0.89
  -9 -10  -4    2.19    0.79
   9 -10   4    2.69    0.95
  -9  10   4    3.41    0.73
  -9  10  -4    3.98    0.78
  -9 -10   4    3.39    0.95
  -9  10  -4    3.78    0.64
 -10  10   4    0.71    0.70
 -10 -10  -4    0.47    0.81
  10 -10   4    0.53    1.00
 -10  10  -4    1.82    0.78
 -10 -10   4   -1.05    0.98
   0 -11   4   16.82    0.99
   0 -11  -4   16.60    1.26
   0 -11   4   14.50    1.33
   0  11  -4   17.60    1.06
  -1  11   4    1.27    0.43
  -1 -11  -4    1.68    0.52
   1 -11   4    0.95    0.34
   1 -11   4    1.04    0.58
   1 -11  -4    1.38    0.47
  -1  11  -4    1.34    0.31
  -1 -11   4    0.72    0.55
  -1 -11   4    0.54    0.34
   2 -11   4   29.53    1.87
  -2 -11  -4   29.20    1.77
  -2 -11  -4   28.14    1.29
  -2  11   4   26.75    1.56
  -2  11  -4   27.59    1.28
  -2 -11   4   26.22    1.42
   2 -11  -4   26.92    1.67
  -2  11  -4   24.61    1.56
  -2 -11   4   25.79    1.79
   3 -11   4   18.43    1.40
  -3 -11  -4   17.23    1.12
  -3  11   4   17.01    1.22
  -3 -11  -4   15.92    1.40
  -3  11  -4   18.30    0.96
  -3  11  -4   19.67    1.28
  -3 -11   4   18.54    1.50
   3 -11  -4   19.58    1.39
  -3 -11   4   20.26    1.27
  -4 -11  -4    4.10    0.79
   4 -11   4    3.68    0.74
  -4 -11  -4    4.32    0.71
  -4  11   4    3.60    0.59
  -4  11  -4    4.78    0.52
  -4  11  -4    3.47    0.58
  -4 -11   4    5.73    1.02
  -4 -11   4    3.80    0.78
   4 -11  -4    3.65    0.73
  -5 -11  -4   17.93    1.45
   5 -11   4   17.83    1.48
  -5 -11  -4   17.39    1.53
  -5  11   4   18.81    1.33
  -5 -11   4   18.99    1.61
  -5  11  -4   16.43    1.28
  -5  11  -4   18.65    0.95
   6 -11   4    0.42    0.59
  -6 -11  -4    0.13    0.75
  -6  11   4    0.85    0.53
  -6 -11  -4    0.45    0.63
  -6 -11   4   -0.78    0.56
  -6  11  -4    0.17    0.29
  -6  11  -4    0.61    0.46
   7 -11   4   20.18    1.66
  -7  11   4   20.73    1.46
  -7 -11  -4   17.27    1.46
  -7  11  -4   16.32    1.03
  -7  11  -4   19.14    1.45
  -7 -11   4   15.91    1.60
   8 -11   4    9.79    1.47
  -8 -11  -4    6.99    1.05
  -8  11   4    7.13    1.21
  -8  11  -4    7.30    1.20
  -8 -11   4    6.31    1.19
  -9  11   4    5.70    0.92
   9 -11   4    5.20    1.10
  -9 -11  -4    4.74    1.00
  -9  11  -4    3.68    0.82
  -9 -11   4    3.45    1.05
   0 -12  -4    1.59    0.61
   0 -12   4    2.61    0.48
   0 -12   4    2.85    0.84
   1 -12   4    4.46    0.73
  -1 -12  -4    7.68    1.28
  -1  12   4    8.18    1.00
   1 -12   4    6.17    1.03
  -1 -12   4    6.52    0.76
   1 -12  -4    5.82    0.91
  -1 -12   4    6.30    1.10
  -2 -12  -4    4.49    0.90
  -2 -12  -4    3.77    0.52
  -2  12   4    5.93    0.87
   2 -12   4    4.40    0.89
  -2 -12  -4    4.40    0.54
   2 -12  -4    3.69    0.74
  -2  12  -4    3.62    0.58
  -2 -12   4    2.86    0.80
  -2 -12   4    3.73    0.61
  -3 -12  -4   12.93    1.00
   3 -12   4   16.09    1.52
  -3  12   4   11.71    1.07
  -3 -12  -4    9.81    1.34
  -3  12  -4   12.05    0.77
   3 -12  -4   11.72    1.23
  -3 -12   4   12.30    1.37
  -3 -12   4   14.36    1.15
  -3  12  -4   12.65    1.22
  -4 -12  -4    1.18    0.71
  -4 -12  -4    1.64    0.60
   4 -12   4   -0.22    0.58
  -4  12   4    0.74    0.54
  -4 -12   4    1.65    0.66
  -4  12  -4    0.58    0.29
  -4  12  -4    0.87    0.45
  -4 -12   4    0.92    0.74
   4 -12  -4    1.00    0.67
   5 -12   4    5.16    0.91
  -5 -12  -4    5.63    0.98
  -5  12   4    6.50    0.97
  -5  12  -4    4.67    0.71
   5 -12  -4    7.78    1.22
  -5 -12   4    6.90    1.18
   6 -12   4    6.27    1.00
  -6 -12  -4    5.34    0.97
  -6  12   4    6.56    1.05
  -6  12  -4    5.25    0.86
  -6 -12   4    4.80    1.05
   6 -12  -4    4.15    0.95
   7 -12   4   16.22    1.72
  -7  12   4   19.03    1.55
  -7 -12  -4   12.60    1.53
  -7  12  -4   18.68    1.51
  -7 -12   4   14.46    1.73
  -8  12   4    1.69    0.79
   8 -12   4    0.53    0.92
  -8 -12  -4    0.84    0.85
  -8  12  -4    1.03    0.75
  -8 -12   4    0.26    0.97
   0 -13   4    1.01    0.76
   0 -13  -4    1.99    0.72
  -1 -13  -4    2.53    0.92
   1 -13   4    1.99    0.85
   1 -13  -4    1.50    0.65
  -1 -13   4    2.91    0.95
  -2  13   4    3.41    0.71
  -2 -13  -4    4.78    1.06
   2 -13   4    5.05    1.07
   2 -13  -4    3.30    0.84
  -2 -13   4    3.54    1.02
  -3 -13  -4    0.64    0.75
  -3  13   4   -0.03    0.50
  -3 -13  -4    0.83    0.43
   3 -13   4    2.03    0.97
  -3 -13   4    1.91    0.84
   3 -13  -4    0.41    0.65
  -3  13  -4    1.94    0.65
  -4 -13  -4   17.66    1.76
   4 -13   4   21.26    1.92
  -4  13   4   15.52    1.38
  -4 -13   4   15.40    1.77
   4 -13  -4   18.31    1.65
  -4  13  -4   17.13    1.54
  -5 -13  -4    1.74    0.90
  -5  13   4    1.10    0.58
   5 -13   4    1.12    0.76
  -5  13  -4    1.12    0.61
   5 -13  -4    1.92    0.87
  -5 -13   4    2.23    1.05
   6 -13   4    2.67    0.98
  -6 -13  -4    3.91    1.03
  -6  13   4    2.83    0.75
  -6 -13   4    0.22    0.91
   6 -13  -4    3.50    0.99
  -6  13  -4    2.08    0.75
  -7 -13  -4    0.22    0.93
  -7  13   4    2.18    0.78
   7 -13   4    2.87    1.06
  -7  13  -4    1.44    0.81
  -7 -13   4    1.95    1.05
   7 -13  -4    3.57    1.07
   0 -14   4    5.95    1.18
  -1 -14  -4    4.24    1.15
   1 -14   4    3.63    1.16
  -1 -14   4    2.27    1.04
   1 -14  -4    2.70    0.90
  -2  14   4    4.28    0.89
   2 -14   4    5.50    1.28
  -2 -14  -4    4.57    1.16
   2 -14  -4    3.26    0.90
  -2 -14   4    1.97    0.99
   3 -14   4    5.26    1.28
  -3  14   4    3.39    0.86
  -3 -14  -4    3.20    1.13
   3 -14  -4    3.12    0.90
  -3 -14   4    3.72    1.09
  -4  14   4    0.89    0.71
  -4 -14  -4    1.76    1.07
   4 -14   4    4.55    1.31
  -4  14  -4    3.24    0.87
  -4 -14   4    2.21    1.11
   4 -14  -4    2.23    0.92
  -5 -14  -4    0.89    1.07
  -5  14   4    1.01    0.66
  -5  14  -4    2.08    0.88
  -5 -14   4    3.05    1.24
   5 -14  -4    1.92    0.96
   0 -15   4   15.41    2.21
   0 -15  -4   22.65    2.47
  -1 -15  -4   16.25    2.32
   1 -15   4   10.81    1.59
  -1 -15   4   16.02    2.19
  -2 -15  -4    0.34    1.14
   2 -15   4    1.66    1.32
  -2 -15   4    0.08    1.07
   2 -15  -4    1.03    0.96
  -3  15   4    1.83    0.94
   3 -15   4    1.56    1.31
  -3 -15  -4    0.78    1.23
   3 -15  -4    0.60    0.95
  -3 -15   4    0.11    1.08
   0   0   5    0.38    0.13
   0   0  -5    0.39    0.12
   0   0  -5    0.34    0.10
   0   0   5    0.25    0.06
   0   0   5    0.24    0.10
   1   0  -5   67.12    2.51
  -1   0  -5   62.24    2.52
   1   0  -5   69.51    2.53
   1   0   5   64.71    2.39
  -1   0   5   67.29    2.52
  -1   0  -5   67.64    2.40
  -1   0   5   66.54    2.51
   1   0   5   64.43    2.56
  -2   0  -5    6.06    0.44
   2   0  -5    6.20    0.42
  -2   0   5    6.53    0.42
  -2   0   5    6.45    0.40
   2   0  -5    6.26    0.46
   2   0   5    5.90    0.26
  -2   0  -5    5.87    0.27
  -2   0   5    6.45    0.44
  -3   0  -5   13.13    0.76
  -3   0  -5   12.24    0.58
  -3   0   5   14.19    0.73
  -3   0   5   13.28    0.72
   3   0  -5   13.38    0.77
   4   0   5  130.90    4.72
  -4   0   5  133.61    4.98
   4   0  -5  138.31    5.04
  -4   0  -5  134.74    4.82
  -4   0   5  130.48    4.96
   4   0  -5  129.51    5.01
   5   0   5  121.44    4.49
   5   0  -5  117.92    4.80
  -5   0   5  127.12    4.78
  -5   0  -5  129.26    4.62
   5   0  -5  123.79    4.81
  -5   0   5  128.52    4.77
   6   0   5   24.88    1.12
  -6   0  -5   25.71    1.23
  -6   0   5   25.52    1.37
   6   0  -5   25.61    1.45
  -6   0   5   26.13    1.38
  -7   0  -5    9.54    0.72
   7   0   5    9.43    0.67
  -7   0   5    9.19    0.90
  -7   0   5    8.88    0.81
   7   0  -5   10.37    1.01
  -8   0   5    7.76    0.98
   8   0   5    6.24    0.68
  -8   0   5    6.41    0.82
  -8   0  -5    6.62    0.67
   8   0  -5    7.70    1.07
  -9   0   5    4.72    0.82
  -9   0  -5    5.48    0.72
   9   0   5    5.73    0.80
 -10   0  -5    5.24    0.87
 -10   0   5    6.12    1.04
  10   0   5    7.98    1.06
  11   0   5    5.81    1.09
 -11   0  -5    3.80    0.73
 -11   0   5    3.85    0.88
 -12   0  -5    7.98    1.33
 -12   0   5    8.72    1.51
 -13   0   5    2.47    1.03
 -13   0  -5    4.99    1.04
   0   1   5   38.64    1.59
   0   1  -5   40.16    1.57
   0  -1   5   40.92    1.60
   0  -1  -5   39.94    1.53
   0   1   5   40.97    1.45
   0  -1  -5   40.04    1.57
   0  -1   5   34.33    1.55
   0   1  -5   42.29    1.60
   1  -1   5   22.99    0.97
  -1   1   5   22.65    0.97
  -1  -1  -5   26.85    1.08
   1  -1   5   23.01    1.08
   1  -1   5   23.29    0.91
   1   1  -5   25.92    1.08
  -1  -1  -5   24.95    0.92
   1   1  -5   23.03    1.06
  -1   1   5   22.96    1.02
   1  -1  -5   23.65    1.04
  -1   1  -5   23.52    0.98
   1  -1  -5   23.43    1.03
  -1  -1   5   24.58    1.05
   1   1   5   24.58    1.10
  -1  -1   5   26.34    1.08
  -1   1  -5   25.14    1.06
  -2   1   5  126.97    4.56
  -2  -1  -5  134.73    4.66
   2   1  -5  122.92    4.62
   2   1  -5  116.77    4.61
   2  -1   5  126.07    4.44
   2  -1   5  123.62    4.46
  -2   1   5  129.32    4.56
  -2   1  -5  126.60    4.62
   2  -1  -5  119.64    4.60
  -2   1  -5  116.50    4.42
  -2  -1   5  124.67    4.63
  -2  -1   5  124.42    4.60
   2  -1  -5  131.83    4.59
  -3   1   5    3.13    0.31
  -3  -1  -5    3.01    0.23
   3  -1   5    3.33    0.26
   3  -1   5    3.07    0.24
   3   1  -5    3.61    0.41
  -3   1   5    3.48    0.33
   3   1  -5    3.05    0.33
  -3  -1   5    2.97    0.35
  -3   1  -5    3.40    0.25
  -3   1  -5    3.61    0.38
   3  -1  -5    2.82    0.31
   3  -1  -5    2.99    0.38
  -3  -1   5    3.18    0.35
  -4   1   5   25.00    1.21
  -4   1   5   25.97    1.24
   4   1  -5   27.17    1.32
  -4  -1  -5   27.71    1.12
   4   1  -5   26.54    1.30
   4  -1  -5   25.19    1.29
  -4   1  -5   26.29    1.12
  -4  -1   5   25.64    1.26
   4   1   5   27.10    0.99
   4  -1  -5   25.51    1.25
  -4  -1   5   27.20    1.30
  -4   1  -5   25.51    1.29
  -5   1   5    9.78    0.69
  -5  -1  -5    9.95    0.59
   5   1  -5    9.19    0.77
   5   1  -5    9.04    0.73
  -5   1   5   10.44    0.72
  -5   1  -5   10.45    0.60
   5  -1  -5   10.18    0.79
   5  -1  -5    8.87    0.68
   5   1   5    8.92    0.48
  -5  -1   5    8.31    0.70
   6   1  -5    7.19    0.78
  -6   1   5    7.70    0.71
  -6  -1  -5    6.65    0.56
  -6   1   5    6.85    0.66
   6  -1  -5    7.87    0.80
  -6  -1   5    7.63    0.74
  -6   1  -5    8.00    0.59
  -6  -1   5    8.10    0.71
   6   1   5    8.22    0.49
   7  -1   5    2.31    0.39
  -7   1   5    2.07    0.46
  -7   1   5    1.98    0.40
   7   1  -5    2.66    0.58
  -7  -1  -5    2.44    0.40
  -7  -1   5    2.67    0.56
  -7   1  -5    2.11    0.40
   7  -1  -5    2.28    0.54
  -7  -1   5    2.13    0.46
   8  -1   5   36.37    1.74
   8   1  -5   40.82    2.11
  -8   1   5   36.56    1.99
  -8   1   5   37.14    1.97
  -8  -1  -5   39.59    1.83
   8   1   5   39.60    1.69
  -8  -1   5   38.43    2.05
  -8   1  -5   37.94    1.82
  -8  -1   5   40.32    2.02
   8  -1  -5   34.95    2.06
  -9   1   5    1.57    0.51
  -9   1   5    1.59    0.65
  -9  -1  -5    1.83    0.45
   9  -1   5    2.05    0.55
  -9   1  -5    1.84    0.45
  -9  -1   5    1.84    0.59
   9   1   5    2.87    0.52
  10  -1   5    1.57    0.67
 -10   1   5    1.30    0.58
 -10  -1  -5    0.89    0.49
 -10   1  -5    0.95    0.47
 -10  -1   5    1.85    0.64
  10   1   5    0.69    0.59
 -11   1   5    3.55    0.76
 -11  -1  -5    2.53    0.63
  11  -1   5    3.93    0.99
 -11   1  -5    3.48    0.71
 -11  -1   5    2.32    0.72
 -12  -1  -5    0.72    0.68
 -12   1   5    0.64    0.75
 -12  -1   5    0.76    0.88
 -13   1   5    1.06    1.08
 -13  -1  -5    1.51    0.99
 -13  -1   5    2.10    1.08
   0  -2  -5    4.66    0.26
   0   2  -5    4.35    0.36
   0  -2   5    4.28    0.29
   0   2   5    4.49    0.25
   0  -2   5    4.22    0.34
   0   2   5    4.91    0.35
   0  -2   5    4.52    0.36
   0   2  -5    4.44    0.34
   0  -2  -5    4.85    0.31
   1  -2   5   35.30    1.33
  -1  -2  -5   33.87    1.29
   1   2  -5   32.71    1.47
   1   2  -5   36.90    1.48
  -1  -2  -5   35.25    1.44
  -1   2   5   31.10    1.35
   1  -2   5   33.69    1.46
  -1   2   5   34.97    1.39
   1  -2  -5   34.93    1.38
  -1  -2   5   36.63    1.48
   1  -2  -5   37.52    1.40
  -1   2  -5   36.00    1.44
  -1   2  -5   36.23    1.42
  -1  -2   5   34.21    1.44
  -1   2  -5   33.61    1.34
   2   2  -5   32.87    1.46
  -2  -2  -5   33.99    1.23
  -2  -2  -5   33.88    1.28
   2   2  -5   33.03    1.48
   2  -2   5   31.49    1.47
   2  -2   5   31.70    1.43
   2  -2   5   33.61    1.32
  -2   2   5   34.84    1.37
  -2  -2  -5   37.44    1.49
  -2   2   5   34.70    1.40
  -2   2  -5   32.05    1.30
   2  -2  -5   35.19    1.40
  -2  -2   5   34.64    1.45
  -2  -2   5   34.45    1.48
   2  -2  -5   32.63    1.40
  -2   2  -5   35.17    1.45
  -3   2   5   90.46    3.41
  -3   2   5   86.08    3.35
   3  -2   5   88.18    3.32
   3   2  -5   88.39    3.49
  -3  -2   5   87.37    3.44
  -3   2  -5   94.30    3.47
  -3   2  -5   94.52    3.30
   3  -2  -5   94.49    3.42
   3  -2  -5   84.64    3.40
  -3  -2   5   90.00    3.49
   4  -2   5    8.03    0.46
   4   2  -5    8.09    0.66
   4   2  -5    7.86    0.61
   4  -2   5    7.48    0.51
  -4   2   5    7.71    0.53
  -4   2   5    7.81    0.58
   4  -2  -5    8.22    0.57
  -4   2  -5    8.17    0.47
   4   2   5    6.93    0.36
  -4   2  -5    8.66    0.62
  -4  -2   5    7.44    0.60
  -4  -2   5    8.41    0.62
   5  -2   5   28.13    1.31
  -5   2   5   29.45    1.36
  -5   2   5   29.15    1.41
   5   2  -5   28.96    1.48
   5   2  -5   27.57    1.48
   5  -2  -5   27.71    1.47
  -5  -2   5   28.37    1.45
  -5   2  -5   28.97    1.28
  -5  -2   5   30.43    1.47
   5   2   5   28.25    1.15
  -6  -2  -5    1.23    0.28
  -6   2   5    0.92    0.27
  -6   2   5    1.23    0.35
   6   2  -5    1.50    0.47
  -6  -2   5    1.24    0.40
   6   2   5    1.62    0.27
   6  -2  -5    0.96    0.39
  -6   2  -5    1.01    0.25
  -6  -2   5    1.68    0.39
  -7   2   5   17.95    1.15
  -7   2   5   17.08    1.11
   7   2  -5   18.36    1.30
  -7  -2  -5   17.76    1.03
  -7   2  -5   16.15    0.98
   7  -2  -5   15.15    1.22
  -7  -2   5   18.42    1.23
   7   2   5   16.67    0.89
   8  -2   5    2.60    0.50
   8   2  -5    2.05    0.65
  -8   2   5    2.29    0.53
  -8  -2  -5    1.73    0.42
  -8   2   5    2.16    0.58
  -8   2  -5    1.84    0.40
  -8  -2   5    2.22    0.48
   8  -2  -5    2.21    0.68
  -8  -2   5    1.89    0.64
   8   2   5    2.42    0.41
   9  -2   5   16.78    1.23
  -9   2   5   17.65    1.45
  -9   2   5   17.03    1.31
  -9  -2  -5   17.68    1.21
  -9  -2   5   17.92    1.38
   9   2   5   18.11    1.12
  -9   2  -5   17.43    1.14
 -10   2   5    3.13    0.70
 -10  -2  -5    2.36    0.56
  10  -2   5    2.97    0.75
 -10   2  -5    2.37    0.51
  10   2   5    2.54    0.64
 -10  -2   5    2.14    0.61
 -11   2   5   18.94    1.65
 -11  -2  -5   18.81    1.46
  11  -2   5   20.46    1.91
 -11  -2   5   17.38    1.62
 -11   2  -5   16.18    1.32
 -12   2   5    0.53    0.86
 -12  -2  -5    0.25    0.71
 -12   2  -5   -0.23    0.57
 -12  -2   5    1.15    0.81
 -13  -2  -5    2.68    0.98
 -13   2   5    0.45    0.93
 -13  -2   5    3.21    1.12
 -13   2  -5    1.97    0.77
   0   3   5  101.95    4.24
   0  -3   5  118.10    4.24
   0   3  -5  115.50    4.33
   0  -3  -5  119.44    4.23
   0  -3   5  124.66    4.36
   0  -3  -5  121.76    4.21
   0   3   5  112.02    4.27
   0  -3   5  118.05    4.29
   0   3  -5  117.21    4.30
   1  -3   5   42.64    1.78
  -1   3   5   44.30    1.70
   1   3  -5   43.10    1.83
  -1   3   5   45.64    1.71
   1  -3   5   40.10    1.68
   1  -3   5   42.69    1.77
  -1  -3  -5   45.09    1.75
  -1  -3  -5   44.20    1.65
   1   3  -5   45.57    1.80
   1  -3  -5   45.03    1.78
  -1  -3   5   45.84    1.84
  -1   3  -5   41.56    1.76
   1  -3  -5   41.87    1.71
  -1   3  -5   42.89    1.69
  -1   3  -5   44.01    1.76
  -1  -3   5   42.86    1.76
   2   3  -5   62.04    2.50
  -2  -3  -5   60.23    2.47
  -2   3   5   62.46    2.34
  -2   3   5   65.54    2.42
  -2  -3  -5   60.56    2.31
  -2  -3  -5   61.85    2.30
   2  -3   5   65.29    2.37
   2   3  -5   60.87    2.52
   2  -3   5   62.92    2.48
   2  -3   5   63.73    2.42
  -2   3  -5   64.86    2.36
  -2  -3   5   64.08    2.47
  -2   3  -5   61.98    2.43
   2  -3  -5   62.54    2.37
   2  -3  -5   59.61    2.42
  -2  -3   5   59.03    2.50
   3   3  -5    1.82    0.32
   3  -3   5    2.27    0.27
  -3  -3  -5    1.56    0.19
   3  -3   5    1.55    0.25
  -3   3   5    1.85    0.26
  -3   3   5    1.58    0.27
   3   3  -5    1.35    0.32
  -3  -3   5    1.39    0.26
   3  -3  -5    1.81    0.31
  -3   3  -5    1.75    0.27
  -3  -3   5    1.73    0.32
   3  -3  -5    1.64    0.24
  -3   3  -5    1.95    0.22
   4  -3   5   40.34    1.78
   4  -3   5   41.29    1.76
  -4   3   5   43.15    1.77
   4   3  -5   43.65    1.97
  -4   3   5   44.02    1.87
   4   3  -5   44.43    1.97
  -4  -3  -5   40.74    1.63
   4  -3  -5   44.38    1.84
  -4   3  -5   44.08    1.89
  -4  -3   5   45.90    1.98
   4   3   5   43.72    1.64
   4  -3  -5   42.73    1.88
  -4   3  -5   43.19    1.76
  -4  -3   5   45.23    1.93
  -5   3   5    0.68    0.23
   5   3  -5    0.82    0.39
   5   3  -5    0.41    0.23
   5  -3   5    0.51    0.23
  -5   3   5    0.61    0.26
   5  -3  -5    0.25    0.26
  -5   3  -5    0.64    0.23
  -5  -3   5    0.52    0.24
  -5   3  -5    0.63    0.18
  -5  -3   5    0.43    0.26
   5   3   5    0.43    0.18
  -6   3   5   47.23    2.12
  -6   3   5   46.31    2.02
   6  -3   5   46.70    2.04
   6   3  -5   45.92    2.21
  -6   3  -5   45.67    2.14
  -6  -3   5   46.01    2.16
   6   3   5   45.37    1.85
  -6   3  -5   46.32    1.98
  -6  -3   5   47.77    2.20
   7   3  -5    8.47    1.00
  -7   3   5    8.84    0.83
  -7   3   5    8.51    0.81
  -7   3  -5    9.23    0.70
  -7  -3   5    8.69    0.81
  -7  -3   5    9.33    0.97
   7  -3  -5    8.30    1.01
   7   3   5    9.28    0.65
  -8   3   5   34.63    1.78
  -8   3   5   34.50    1.82
  -8  -3  -5   36.31    1.71
   8   3  -5   29.62    1.94
   8   3   5   30.70    1.53
  -8   3  -5   32.72    1.63
  -9   3   5    6.71    1.10
  -9  -3  -5    7.40    0.85
  -9   3   5    5.71    0.90
  -9   3  -5    6.92    0.74
   9   3   5    6.79    0.84
  10  -3   5    9.92    1.33
 -10   3   5   11.45    1.19
 -10  -3  -5   11.03    1.10
 -10   3  -5   11.44    0.99
  10   3   5   11.10    1.14
 -10  -3   5   12.34    1.37
 -11  -3  -5    0.33    0.56
 -11   3   5    0.86    0.68
  11  -3   5    0.25    1.26
 -11  -3   5    0.49    0.75
 -11   3  -5    0.07    0.47
 -12   3   5    4.35    0.89
 -12  -3  -5    8.34    1.33
 -12   3  -5    5.22    0.89
 -12  -3   5    5.01    1.04
 -13   3   5    8.45    1.25
 -13   3  -5   10.06    1.55
   0   4  -5   19.54    0.93
   0  -4  -5   19.49    0.85
   0   4  -5   19.77    1.00
   0  -4   5   18.98    0.90
   0  -4  -5   18.56    0.87
   0   4   5   20.02    0.87
   0  -4   5   18.67    0.91
   0  -4   5   20.33    1.01
  -1  -4  -5   90.02    3.34
  -1  -4  -5   95.95    3.40
   1  -4   5   91.94    3.44
   1   4  -5   93.87    3.47
  -1   4   5   87.56    3.33
   1  -4   5   84.85    3.36
  -1   4   5   89.23    3.37
  -1  -4  -5   95.28    3.37
   1   4  -5   86.58    3.51
   1  -4   5   89.42    3.47
  -1  -4   5   92.87    3.43
   1  -4  -5   90.40    3.39
  -1   4  -5   95.11    3.42
  -1   4  -5   89.25    3.47
  -1   4  -5   91.10    3.39
  -1  -4   5   96.87    3.55
  -1  -4   5   93.44    3.44
   1  -4  -5   78.73    3.35
   2   4  -5   22.48    1.17
   2  -4   5   23.69    1.09
  -2   4   5   21.74    1.03
   2  -4   5   22.63    1.02
   2  -4   5   22.06    1.09
  -2   4   5   21.52    0.93
  -2  -4  -5   21.60    0.96
   2   4  -5   22.29    1.11
  -2  -4   5   23.16    1.09
  -2   4  -5   22.37    1.00
  -2  -4   5   21.97    1.15
   2  -4  -5   21.27    1.05
  -2   4  -5   23.34    1.04
   3  -4   5  117.55    4.42
   3   4  -5  123.33    4.59
  -3  -4  -5  119.50    4.34
  -3  -4  -5  102.92    4.36
   3   4  -5  121.80    4.56
  -3   4   5  116.23    4.28
  -3   4   5  122.71    4.45
   3  -4   5  114.46    4.38
  -3  -4   5  119.89    4.49
  -3  -4   5  120.12    4.56
   3  -4  -5  116.99    4.46
   3  -4  -5  121.87    4.35
  -3   4  -5  114.83    4.35
  -3   4  -5  121.72    4.43
  -4   4   5   13.95    0.72
   4  -4   5   13.83    0.81
   4   4  -5   13.60    0.90
  -4   4   5   14.56    0.84
   4   4  -5   15.28    0.99
   4  -4   5   14.54    0.79
  -4   4  -5   14.20    0.75
   4  -4  -5   14.51    0.89
  -4   4  -5   13.93    0.81
   4   4   5   14.01    0.69
  -4  -4   5   14.54    0.92
  -4  -4   5   14.16    0.90
  -5   4   5   12.30    0.73
  -5  -4  -5   13.08    0.65
   5  -4   5   12.08    0.75
  -5   4   5   12.15    0.81
   5   4  -5   12.58    0.93
   5   4  -5   11.73    0.97
   5  -4   5   12.06    0.81
  -5  -4   5   12.00    0.90
  -5   4  -5   12.84    0.83
  -5  -4   5   12.18    0.89
   5  -4  -5   12.64    0.90
   5   4   5   12.12    0.67
  -5   4  -5   12.64    0.73
  -6   4   5    8.61    0.69
  -6  -4  -5    8.59    0.54
   6   4  -5    8.00    0.93
   6  -4   5    9.82    0.80
  -6   4   5    8.16    0.72
   6  -4  -5    7.14    0.82
   6   4   5    9.53    0.61
  -6  -4   5    8.52    0.88
  -6   4  -5    9.32    0.76
  -6  -4   5    8.36    0.77
  -6   4  -5    8.09    0.63
  -7   4   5   11.77    0.93
   7  -4   5   12.46    1.01
   7   4  -5   11.62    1.21
  -7   4   5   11.54    0.91
  -7   4  -5   13.41    1.00
  -7  -4   5   13.45    1.02
   7   4   5   11.25    0.79
  -7   4  -5   13.19    0.84
  -8   4   5   19.97    1.31
  -8   4   5   19.32    1.31
  -8  -4   5   20.71    1.38
  -8   4  -5   20.61    1.20
  -8   4  -5   21.26    1.37
  -9   4   5   36.25    2.03
  -9   4   5   36.88    2.04
  -9  -4  -5   39.70    1.97
  -9   4  -5   38.05    1.90
   9   4   5   37.17    1.81
 -10  -4  -5    4.63    0.74
 -10   4   5    4.09    0.72
 -10   4  -5    5.63    0.77
  10   4   5    4.81    0.80
 -11   4   5    4.29    0.87
 -11  -4  -5    4.03    0.85
 -11  -4   5    5.35    1.06
 -11   4  -5    4.14    0.69
 -12  -4  -5    3.05    0.91
 -12   4   5    2.49    0.93
 -12  -4   5    3.80    1.11
   0  -5  -5   13.57    0.71
   0  -5   5   12.85    0.73
   0   5   5   14.06    0.71
   0   5  -5   13.51    0.73
   0  -5   5   12.48    0.71
   0  -5   5   13.23    0.83
   0   5  -5   13.68    0.84
  -1  -5  -5   11.53    0.67
   1  -5   5   13.75    0.73
   1   5  -5   12.97    0.74
   1   5  -5   11.49    0.83
  -1  -5  -5   11.63    0.65
  -1   5   5   12.78    0.67
   1  -5   5   13.09    0.71
   1  -5   5   13.42    0.81
  -1  -5  -5   11.57    0.66
  -1  -5   5   12.22    0.71
   1  -5  -5   13.61    0.73
   1  -5  -5   12.34    0.57
  -1   5  -5   12.75    0.69
  -1   5  -5   13.09    0.80
  -1  -5   5   11.49    0.73
  -1  -5   5   13.63    0.85
  -1   5  -5   13.66    0.72
  -2  -5  -5   33.79    1.48
  -2  -5  -5   35.51    1.50
   2   5  -5   33.74    1.69
  -2   5   5   39.30    1.57
   2   5  -5   36.23    1.63
  -2   5   5   37.45    1.40
   2  -5   5   35.63    1.62
   2  -5   5   36.95    1.60
  -2  -5   5   33.81    1.67
   2  -5  -5   36.53    1.58
   2  -5  -5   33.59    1.40
  -2  -5   5   37.40    1.60
  -2   5  -5   36.57    1.53
  -2   5  -5   36.63    1.54
   3   5  -5   34.21    1.64
   3  -5   5   33.35    1.54
  -3  -5  -5   35.33    1.48
   3  -5   5   35.11    1.53
  -3  -5  -5   35.60    1.47
  -3   5   5   33.10    1.34
  -3   5   5   33.31    1.53
   3   5  -5   33.60    1.68
  -3  -5   5   35.35    1.59
   3  -5  -5   33.95    1.57
  -3   5  -5   34.41    1.49
  -3  -5   5   34.92    1.68
  -3   5  -5   33.78    1.48
  -4  -5  -5   75.24    2.94
   4   5  -5   78.12    3.17
   4  -5   5   72.08    2.99
   4   5  -5   73.98    3.17
   4  -5   5   74.71    2.99
  -4   5   5   72.19    3.01
  -4  -5  -5   76.84    2.88
  -4   5   5   75.11    2.81
   4  -5  -5   73.38    3.06
  -4  -5   5   76.29    3.08
  -4   5  -5   76.70    2.95
  -4  -5   5   75.48    3.14
  -4   5  -5   74.92    2.96
  -5   5   5    1.72    0.27
   5  -5   5    1.78    0.34
   5   5  -5    1.71    0.51
  -5   5   5    0.96    0.25
  -5  -5  -5    1.33    0.25
   5   5  -5    1.39    0.37
   5  -5   5    1.52    0.38
  -5   5  -5    1.70    0.31
  -5   5  -5    1.94    0.36
   5  -5  -5    1.52    0.41
  -5  -5   5    1.57    0.37
  -5  -5   5    1.83    0.46
   5   5   5    1.65    0.30
  -6   5   5   23.70    1.34
  -6  -5  -5   24.90    1.15
   6  -5   5   24.28    1.29
   6  -5   5   23.62    1.37
  -6   5   5   22.22    1.18
   6   5  -5   25.12    1.58
   6  -5  -5   24.38    1.45
  -6  -5   5   25.19    1.44
  -6   5  -5   24.72    1.26
  -6  -5   5   25.20    1.48
  -6   5  -5   25.45    1.34
   6   5   5   25.90    1.20
   7  -5   5   13.47    1.08
   7   5  -5   13.59    1.35
  -7  -5  -5   13.66    0.81
  -7   5   5   13.29    0.92
  -7   5   5   13.04    0.97
  -7   5  -5   12.89    0.88
   7   5   5   13.54    0.88
  -7  -5   5   12.99    1.21
   7  -5  -5   11.25    1.17
  -7   5  -5   13.68    1.03
  -7  -5   5   13.83    1.06
  -8   5   5   17.72    1.20
   8  -5   5   16.91    1.37
  -8   5   5   16.71    1.16
  -8   5  -5   16.28    1.07
  -8  -5   5   15.45    1.24
  -8   5  -5   16.75    1.20
  -9   5   5    7.36    1.08
  -9   5   5    8.62    0.95
  -9  -5   5    7.50    1.08
  -9   5  -5    8.98    0.87
  -9   5  -5   10.82    1.05
   9   5   5    6.76    0.86
 -10  -5  -5    2.81    0.67
 -10   5   5    1.62    0.80
 -10   5   5    2.62    0.66
 -10   5  -5    1.85    0.50
 -10   5  -5    2.38    0.73
  10   5   5    1.73    1.23
 -11   5   5    4.11    0.78
 -11  -5  -5    3.65    0.85
 -11   5  -5    5.24    1.00
 -11   5  -5    5.58    0.98
 -12   5   5   18.88    1.73
 -12  -5  -5   18.35    1.83
 -12   5  -5   21.02    2.06
 -12  -5   5   20.15    2.17
 -12   5  -5   18.90    1.58
   0  -6   5   26.83    1.35
   0  -6  -5   22.76    1.12
   0   6   5   25.19    1.17
   0  -6  -5   26.64    1.20
   0   6  -5   25.17    1.19
   0  -6   5   23.99    1.16
   0  -6   5   26.01    1.23
   0   6  -5   25.57    1.34
   1   6  -5   44.03    1.98
   1  -6   5   42.20    1.92
   1  -6   5   43.10    1.82
  -1   6   5   44.15    1.80
  -1  -6  -5   41.50    1.77
  -1  -6  -5   43.60    1.72
   1   6  -5   42.43    1.84
  -1  -6  -5   41.80    1.80
   1  -6   5   42.37    1.79
  -1   6  -5   43.22    1.82
  -1  -6   5   39.80    1.77
  -1   6  -5   43.76    1.78
  -1  -6   5   42.61    1.86
  -1  -6   5   41.51    1.95
   1  -6  -5   42.92    1.82
  -1   6  -5   42.50    1.93
   1  -6  -5   40.93    1.59
   2  -6   5    8.03    0.60
  -2  -6  -5    7.55    0.55
   2   6  -5    6.88    0.79
   2  -6   5    8.43    0.67
  -2  -6  -5    7.88    0.56
   2  -6   5    6.14    0.56
  -2   6   5    8.41    0.57
   2   6  -5    7.83    0.62
  -2   6  -5    7.39    0.52
   2  -6  -5    7.13    0.40
   2  -6  -5    8.87    0.64
  -2  -6   5    7.82    0.71
  -2  -6   5    7.79    0.60
  -2   6  -5    8.33    0.57
  -2  -6   5    7.49    0.64
  -3  -6  -5   14.55    0.83
  -3   6   5   14.66    0.62
  -3   6   5   14.63    0.85
   3  -6   5   13.49    0.86
   3   6  -5   13.30    0.92
   3  -6   5   14.67    0.90
  -3  -6  -5   16.01    0.85
   3   6  -5   13.28    1.04
  -3  -6   5   14.11    0.99
  -3  -6   5   13.38    0.88
  -3   6  -5   14.76    0.82
   3  -6  -5   13.41    0.90
  -3   6  -5   13.76    0.77
  -4   6   5    4.27    0.33
  -4  -6  -5    3.62    0.48
  -4  -6  -5    4.42    0.48
   4  -6   5    5.83    0.62
  -4   6   5    5.17    0.50
   4   6  -5    3.77    0.61
   4  -6   5    4.86    0.53
   4   6  -5    4.39    0.60
  -4   6  -5    4.94    0.45
  -4  -6   5    3.91    0.56
  -4   6  -5    5.14    0.46
  -4  -6   5    4.27    0.60
   4  -6  -5    3.92    0.58
  -5  -6  -5   24.15    1.20
  -5   6   5   25.54    1.33
   5  -6   5   25.23    1.36
   5   6  -5   25.15    1.56
  -5   6   5   25.66    1.09
  -5  -6  -5   23.44    1.28
   5  -6   5   25.91    1.33
   5   6   5   24.30    1.21
  -5  -6   5   24.00    1.43
  -5  -6   5   24.40    1.42
  -5   6  -5   26.02    1.25
   5  -6  -5   22.81    1.41
  -5   6  -5   25.82    1.27
  -6   6   5    3.27    0.44
   6   6  -5    3.64    0.77
   6  -6   5    2.90    0.54
  -6   6   5    2.18    0.41
   6  -6   5    4.59    0.59
  -6  -6  -5    3.14    0.46
  -6  -6   5    3.22    0.58
  -6  -6   5    4.12    0.68
  -6   6  -5    2.64    0.46
   6   6   5    2.61    0.45
   6  -6  -5    3.71    0.71
  -6   6  -5    2.81    0.43
   7  -6   5   17.15    1.16
  -7   6   5   18.53    1.21
  -7   6   5   17.06    1.02
   7  -6   5   18.14    1.33
  -7  -6  -5   18.78    1.01
  -7  -6   5   18.43    1.28
  -7   6  -5   18.52    1.16
  -7   6  -5   16.95    1.08
   7   6   5   18.33    1.09
  -8   6   5    4.13    0.77
  -8   6   5    3.64    0.59
  -8  -6  -5    3.91    0.61
  -8  -6   5    4.23    0.74
   8   6   5    4.77    0.68
  -8   6  -5    3.78    0.61
  -8   6  -5    4.94    0.80
  -9   6   5   20.99    1.46
  -9   6   5   21.63    1.50
  -9   6  -5   23.87    1.59
   9   6   5   22.71    1.46
  -9   6  -5   22.43    1.38
  -9  -6   5   24.23    1.66
 -10   6   5    0.25    1.02
 -10   6   5    1.07    0.58
 -10  -6   5    1.53    0.73
 -10   6  -5    1.64    0.73
 -10   6  -5    1.07    0.52
 -11  -6  -5    1.69    0.78
 -11   6   5    1.51    0.79
 -11   6  -5    1.11    0.62
 -11   6  -5    1.31    0.86
 -12   6   5    0.59    0.86
 -12  -6  -5    1.60    0.95
 -12  -6   5    2.60    1.08
 -12   6  -5    2.06    1.06
 -12   6  -5    0.50    0.72
   0   7  -5    6.42    0.75
   0  -7  -5    5.67    0.35
   0   7   5    5.89    0.50
   0  -7   5    5.86    0.58
   0  -7   5    5.86    0.69
   0   7  -5    6.71    0.52
   0  -7  -5    7.20    0.59
   0  -7   5    6.14    0.52
   0  -7  -5    6.14    0.56
   1  -7   5    5.32    0.57
   1  -7   5    4.80    0.48
  -1   7   5    5.28    0.48
   1  -7   5    5.01    0.64
  -1  -7  -5    4.72    0.48
  -1  -7  -5    4.17    0.48
   1   7  -5    4.02    0.67
  -1  -7  -5    4.37    0.38
   1   7  -5    4.11    0.46
  -1  -7   5    3.93    0.46
  -1  -7   5    4.83    0.62
   1  -7  -5    5.36    0.55
  -1   7  -5    4.36    0.42
   1  -7  -5    4.61    0.26
  -1   7  -5    6.14    0.55
  -1   7  -5    5.72    0.69
  -1  -7   5    4.23    0.56
   2  -7   5   59.64    2.49
  -2  -7  -5   59.26    2.47
   2  -7   5   60.77    2.59
  -2   7   5   62.31    2.48
   2  -7   5   59.08    2.45
  -2  -7  -5   60.37    2.43
   2   7  -5   59.14    2.65
   2   7  -5   60.37    2.54
  -2   7  -5   59.17    2.38
  -2  -7   5   55.52    2.62
  -2  -7   5   60.66    2.46
  -2  -7   5   60.49    2.55
  -2   7  -5   57.07    2.46
   2  -7  -5   58.51    2.50
  -3   7   5   17.43    0.99
   3  -7   5   18.38    1.05
   3   7  -5   15.67    1.22
  -3  -7  -5   17.13    1.00
   3  -7   5   16.68    1.05
   3   7  -5   17.99    1.08
  -3  -7  -5   16.39    0.96
  -3   7  -5   17.40    0.97
  -3  -7   5   16.00    1.09
  -3   7  -5   17.93    0.91
   3  -7  -5   16.41    1.05
  -3  -7   5   15.93    1.01
  -3  -7   5   16.65    1.14
   4  -7   5   15.91    1.04
  -4  -7  -5   18.72    1.04
  -4  -7  -5   16.58    0.99
   4   7  -5   15.62    1.12
   4   7  -5   15.68    1.23
   4  -7   5   16.93    1.10
  -4   7   5   15.50    0.98
  -4   7   5   16.16    0.68
  -4   7  -5   18.08    0.92
  -4   7  -5   16.91    0.97
  -4  -7   5   15.90    1.16
  -4  -7   5   17.12    1.09
   4  -7  -5   16.37    1.12
  -5  -7  -5   12.31    0.94
  -5  -7  -5   13.97    0.90
   5   7  -5   11.68    1.24
  -5   7   5   12.52    0.89
   5  -7   5   11.47    0.98
  -5   7   5   11.72    0.60
   5  -7   5   12.10    0.92
  -5  -7   5   14.39    1.05
  -5  -7   5   13.37    1.03
   5  -7  -5   13.54    1.11
  -5   7  -5   12.51    0.84
  -5   7  -5   12.55    0.78
   6  -7   5   45.39    2.22
  -6  -7  -5   39.94    2.07
   6  -7   5   46.39    2.14
  -6   7   5   43.41    1.78
  -6  -7  -5   44.12    1.98
  -6   7   5   47.18    2.15
   6   7   5   44.17    2.00
  -6  -7   5   43.01    2.24
  -6   7  -5   46.16    2.06
  -6   7  -5   47.46    2.00
   6  -7  -5   41.78    2.25
  -6  -7   5   43.42    2.24
  -7   7   5   17.46    1.02
   7  -7   5   21.07    1.31
  -7   7   5   21.10    1.30
  -7  -7  -5   19.28    1.13
   7  -7   5   18.41    1.44
  -7   7  -5   19.23    1.15
  -7  -7   5   18.78    1.39
  -7   7  -5   20.07    1.20
   7   7   5   19.44    1.25
  -8   7   5    5.75    0.79
   8  -7   5    5.41    0.85
  -8   7   5    5.35    0.76
  -8  -7  -5    4.38    0.67
  -8   7  -5    4.24    0.70
  -8   7  -5    3.77    0.60
   8   7   5    5.06    0.75
  -8  -7   5    3.41    0.72
  -9  -7  -5    1.85    0.49
  -9   7   5    1.37    0.55
   9  -7   5    1.09    0.61
  -9   7   5    1.41    0.59
  -9   7  -5    0.75    0.45
  -9  -7   5    2.18    0.75
   9   7   5    1.89    0.74
  -9   7  -5    0.64    0.53
 -10   7   5   12.24    1.25
 -10   7  -5   11.86    1.15
 -10   7  -5   13.87    1.40
 -10  -7   5   12.74    1.54
 -11   7   5    1.67    0.78
 -11   7  -5    1.64    0.64
 -11   7  -5    1.87    0.89
   0   8  -5    1.64    0.32
   0  -8  -5    2.33    0.43
   0   8  -5    1.77    0.51
   0  -8   5    2.19    0.41
   0  -8   5    1.57    0.46
   0  -8  -5    2.74    0.46
   0  -8   5    1.59    0.37
   0  -8  -5    1.65    0.21
  -1  -8  -5    4.27    0.54
   1  -8   5    4.41    0.69
   1  -8   5    4.45    0.61
   1  -8   5    4.63    0.52
   1   8  -5    3.64    0.50
   1   8  -5    4.84    0.83
  -1   8   5    3.45    0.49
  -1  -8  -5    4.35    0.59
  -1  -8  -5    4.10    0.38
   1  -8  -5    4.88    0.57
  -1   8  -5    4.68    0.46
  -1  -8   5    4.61    0.52
   1  -8  -5    4.75    0.62
  -1  -8   5    4.54    0.69
  -1  -8   5    5.00    0.65
   2  -8   5    8.26    0.80
   2   8  -5    7.94    0.95
   2  -8   5    6.27    0.68
  -2  -8  -5    7.94    0.70
   2   8  -5    7.58    0.69
   2  -8   5    6.95    0.64
  -2   8   5    6.25    0.61
  -2  -8   5    7.75    0.76
  -2  -8   5    7.57    0.80
  -2   8  -5    7.64    0.55
  -2  -8   5    7.68    0.67
  -2   8  -5    7.10    0.64
   2  -8  -5    6.26    0.73
  -3  -8  -5   22.75    1.31
   3  -8   5   23.57    1.37
  -3  -8  -5   23.22    1.29
  -3   8   5   25.53    1.30
   3   8  -5   23.38    1.38
   3  -8   5   23.73    1.35
  -3  -8   5   25.08    1.33
  -3   8  -5   24.97    1.16
   3  -8  -5   26.09    1.41
  -3   8  -5   25.57    1.30
  -3  -8   5   21.38    1.42
  -3  -8   5   24.30    1.47
   4   8  -5    1.83    0.45
  -4  -8  -5    2.22    0.46
  -4   8   5    2.23    0.43
   4  -8   5    1.42    0.41
   4  -8   5    2.31    0.51
  -4  -8  -5    1.78    0.45
  -4  -8   5    1.81    0.47
  -4   8  -5    1.85    0.33
  -4   8  -5    1.88    0.35
   4  -8  -5    2.17    0.57
  -4  -8   5    1.69    0.49
  -4  -8   5    1.16    0.49
   5  -8   5    6.84    0.87
  -5  -8  -5    6.27    0.83
   5  -8   5    5.15    0.72
  -5   8   5    5.29    0.64
  -5  -8  -5    4.89    0.69
  -5   8  -5    5.19    0.61
  -5  -8   5    5.42    0.81
   5  -8  -5    6.38    0.92
  -5   8  -5    5.88    0.58
  -5  -8   5    5.23    0.87
   6  -8   5   21.06    1.58
   6  -8   5   21.21    1.36
  -6  -8  -5   20.07    1.20
  -6   8   5   19.46    0.87
  -6  -8  -5   18.88    1.39
  -6   8   5   21.75    1.30
  -6   8  -5   20.31    1.22
  -6   8  -5   21.34    1.13
  -6  -8   5   20.63    1.43
   7  -8   5   19.77    1.39
  -7   8   5   20.50    1.35
  -7  -8  -5   20.73    1.24
  -7   8   5   20.96    1.01
   7   8   5   18.40    1.38
  -7   8  -5   21.38    1.19
  -7   8  -5   21.86    1.30
  -7  -8   5   20.46    1.48
   8  -8   5    5.70    1.02
  -8   8   5    5.63    0.89
  -8  -8  -5    6.14    0.81
  -8   8   5    5.76    0.70
  -8  -8   5    6.27    1.05
   8   8   5    8.35    1.21
  -8   8  -5    5.61    0.82
  -8   8  -5    5.55    0.73
  -9   8   5    5.87    0.88
   9  -8   5    7.72    1.17
  -9  -8  -5    7.10    0.95
  -9  -8   5    6.91    1.20
  -9   8  -5    5.88    0.91
  -9   8  -5    4.90    0.82
 -10   8   5   -0.56    0.61
  10  -8   5    1.67    0.79
 -10  -8   5    1.61    0.81
 -10   8  -5   -0.89    0.55
 -11   8   5    3.26    0.86
  11  -8   5    4.15    1.07
 -11   8  -5    1.63    0.76
 -11  -8   5    3.24    1.12
   0  -9  -5    0.57    0.32
   0  -9   5    0.70    0.29
   0  -9   5    0.78    0.42
   0   9  -5    0.48    0.56
   0  -9   5    0.64    0.39
   0   9   5    0.89    0.33
   0  -9  -5    0.69    0.38
   0   9  -5    0.70    0.27
   1  -9   5   15.28    1.09
   1   9  -5   16.31    1.29
  -1  -9  -5   14.55    0.80
   1  -9   5   15.42    1.20
   1  -9   5   15.01    0.91
   1   9  -5   15.98    0.99
  -1  -9  -5   14.45    0.72
  -1  -9  -5   14.67    1.00
  -1  -9  -5   14.15    1.03
  -1   9   5   13.91    0.94
  -1  -9   5   15.22    0.92
   1  -9  -5   14.48    1.06
  -1  -9   5   14.03    1.15
  -1  -9   5   15.40    1.10
  -1   9  -5   14.89    0.88
   1  -9  -5   13.40    1.00
   2  -9   5    8.63    0.88
   2  -9   5    8.28    0.94
   2   9  -5    7.78    0.76
  -2  -9  -5    8.31    0.86
  -2  -9  -5    5.81    0.79
  -2   9   5    9.08    0.74
   2  -9   5    7.99    0.70
  -2  -9  -5    7.29    0.61
   2  -9  -5    8.69    0.90
  -2  -9   5    7.15    0.90
  -2  -9   5    9.60    0.75
  -2   9  -5    7.57    0.75
  -2   9  -5    8.15    0.62
  -2  -9   5    6.48    0.87
   3  -9   5    3.82    0.66
  -3  -9  -5    4.30    0.71
   3  -9   5    4.06    0.64
   3   9  -5    3.15    0.57
  -3   9   5    3.49    0.53
  -3  -9  -5    3.92    0.60
  -3  -9   5    2.49    0.60
  -3   9  -5    3.14    0.56
   3  -9  -5    5.36    0.82
  -3  -9   5    2.71    0.64
  -3  -9   5    4.62    0.69
  -3   9  -5    3.58    0.44
   4  -9   5    0.81    0.49
  -4  -9  -5    0.64    0.45
  -4  -9  -5    0.54    0.43
  -4   9   5    0.27    0.27
   4  -9   5    0.85    0.40
  -4  -9   5    1.01    0.47
  -4   9  -5    0.30    0.23
   4  -9  -5    0.93    0.51
  -4   9  -5    0.34    0.31
  -4  -9   5    0.37    0.45
  -5  -9  -5    5.71    0.93
   5  -9   5    4.29    0.73
  -5  -9  -5    4.29    0.66
  -5   9   5    4.11    0.64
  -5   9  -5    4.73    0.58
  -5  -9   5    3.07    0.66
  -5  -9   5    5.26    0.91
  -5   9  -5    2.94    0.51
  -6   9   5    4.07    0.70
  -6  -9  -5    3.12    0.62
   6  -9   5    4.28    0.74
  -6  -9  -5    2.99    0.68
  -6   9  -5    4.21    0.61
  -6   9  -5    4.43    0.68
  -6  -9   5    2.80    0.69
  -7  -9  -5    6.38    0.85
  -7   9   5    6.84    0.86
   7  -9   5    6.73    1.02
  -7  -9   5    5.82    1.02
  -7   9  -5    8.75    0.76
  -7   9  -5    7.07    0.86
   8  -9   5    2.66    0.71
  -8   9   5    3.48    0.69
  -8  -9  -5    2.60    0.62
  -8  -9   5    2.98    0.84
  -8   9  -5    3.08    0.52
  -8   9  -5    3.59    0.67
   9  -9   5    0.29    0.76
  -9  -9  -5    0.68    0.64
  -9   9   5    1.43    0.59
  -9  -9   5    0.50    0.76
  -9   9  -5    1.46    0.58
  -9   9  -5    0.93    0.52
  10  -9   5    0.04    0.89
 -10   9   5   -0.43    0.65
 -10  -9  -5    0.47    0.70
 -10   9  -5    0.79    0.68
 -10  -9   5   -0.01    0.87
 -10   9  -5   -0.09    0.60
   0  10  -5    2.77    0.52
   0 -10   5    2.37    0.60
   0 -10  -5    2.71    0.55
   0  10   5    4.16    0.65
   0 -10  -5    3.10    0.61
   0 -10   5    3.19    0.58
  -1 -10  -5    2.25    0.53
   1 -10   5    2.52    0.43
  -1 -10  -5    1.75    0.49
   1 -10   5    1.92    0.79
   1 -10   5    3.17    0.72
   1  10  -5    2.04    0.41
  -1 -10  -5    2.00    0.36
  -1  10   5    2.19    0.43
  -1  10  -5    2.14    0.37
  -1 -10   5    1.74    0.59
   1 -10  -5    2.83    0.58
   1 -10  -5    2.57    0.55
  -1 -10   5    1.88    0.41
   2 -10   5   16.07    1.05
   2  10  -5   17.71    1.15
   2 -10   5   18.34    1.40
  -2 -10  -5   15.38    0.96
  -2 -10  -5   17.39    1.24
  -2  10   5   15.32    1.08
  -2 -10  -5   17.53    1.27
  -2 -10  -5   17.07    0.91
  -2 -10   5   14.75    1.04
   2 -10  -5   16.65    1.30
   2 -10  -5   15.67    1.17
  -2  10  -5   17.13    1.16
  -2  10  -5   16.76    0.94
  -2 -10   5   15.23    1.32
  -3  10   5    2.44    0.45
  -3 -10  -5    2.09    0.51
  -3 -10  -5    2.33    0.61
  -3 -10  -5    1.46    0.55
   3 -10   5    2.41    0.59
  -3 -10   5    3.43    0.59
  -3  10  -5    2.99    0.46
  -3  10  -5    4.14    0.63
  -3 -10   5    2.14    0.63
  -4 -10  -5    2.10    0.58
   4 -10   5    1.34    0.50
  -4  10   5    1.91    0.42
  -4 -10  -5    0.86    0.56
  -4 -10  -5    1.94    0.58
  -4 -10   5    2.34    0.60
  -4  10  -5    1.70    0.44
  -4 -10   5    1.76    0.63
  -4  10  -5    1.69    0.32
  -5 -10  -5    4.39    0.81
  -5 -10  -5    3.77    0.71
  -5  10   5    4.30    0.71
   5 -10   5    4.34    0.77
  -5  10  -5    3.26    0.55
  -5  10  -5    2.86    0.52
  -5 -10   5    3.61    0.82
  -6 -10  -5   11.07    1.52
   6 -10   5    9.52    1.17
  -6  10   5   12.21    1.06
  -6 -10  -5   14.24    1.19
  -6 -10   5   10.71    1.22
  -6  10  -5   10.20    0.83
  -6  10  -5   11.24    1.05
  -7 -10  -5    1.00    0.57
  -7  10   5    0.89    0.51
   7 -10   5    0.97    0.66
  -7 -10   5    0.80    0.62
  -7  10  -5    1.72    0.47
  -7  10  -5    0.57    0.46
   8 -10   5    2.66    0.78
  -8  10   5    1.62    0.64
  -8 -10  -5    2.21    0.66
  -8  10  -5    1.35    0.58
  -8 -10   5    1.77    0.73
   9 -10   5    3.96    0.98
  -9  10   5    4.12    0.89
  -9 -10  -5    5.21    0.90
  -9 -10   5    4.09    0.97
  -9  10  -5    4.77    0.91
  10 -10   5    2.27    1.09
 -10  10   5    1.73    0.83
 -10  10  -5    1.59    0.80
 -10 -10   5    1.04    1.09
   0  11  -5    1.23    0.37
   0 -11   5    1.60    0.41
   0 -11  -5    1.26    0.47
   0 -11   5    0.90    0.67
   1 -11   5    2.08    0.48
   1  11  -5    3.08    0.56
  -1  11   5    2.96    0.58
  -1 -11  -5    4.89    0.83
   1 -11   5    2.94    0.80
  -1 -11   5    1.94    0.70
  -1 -11   5    2.99    0.51
   1 -11  -5    3.31    0.66
  -1  11  -5    3.17    0.57
  -2 -11  -5   15.10    0.82
  -2 -11  -5   14.86    1.36
   2 -11   5   14.31    1.39
  -2 -11  -5   13.38    0.87
  -2  11   5   12.24    1.05
  -2 -11   5   13.47    1.05
  -2 -11   5   13.68    1.33
   2 -11  -5   11.83    1.14
  -2  11  -5   13.96    0.90
   3 -11   5    1.98    0.72
  -3 -11  -5    0.73    0.46
  -3  11   5    0.32    0.36
  -3 -11  -5    0.79    0.57
  -3 -11   5    0.45    0.61
  -3  11  -5    0.06    0.42
  -3 -11   5    1.91    0.52
   3 -11  -5    0.78    0.48
  -3  11  -5    0.53    0.32
   4 -11   5    0.48    0.52
  -4 -11  -5    1.27    0.57
  -4  11   5    0.96    0.43
  -4 -11  -5    1.13    0.64
   4 -11  -5    1.30    0.55
  -4  11  -5    0.73    0.41
  -4  11  -5    1.47    0.34
  -4 -11   5    1.86    0.77
  -4 -11   5    2.01    0.63
   5 -11   5    0.62    0.55
  -5 -11  -5    0.23    0.73
  -5  11   5    0.88    0.48
  -5 -11  -5    0.26    0.58
  -5 -11   5    0.68    0.72
  -5  11  -5    0.53    0.32
  -5  11  -5    0.55    0.45
   6 -11   5    5.05    0.88
  -6  11   5    5.32    0.94
  -6 -11  -5    2.71    0.97
  -6 -11  -5    7.52    1.16
  -6  11  -5    5.51    0.96
  -6 -11   5    5.70    1.01
  -6  11  -5    4.58    0.64
  -7  11   5    0.79    0.54
  -7 -11  -5    0.62    0.64
   7 -11   5    1.08    0.70
  -7  11  -5    0.03    0.55
  -7 -11   5    0.91    0.73
   8 -11   5    3.64    1.00
  -8 -11  -5    2.65    0.80
  -8  11   5    2.60    0.74
  -8  11  -5    2.29    0.72
  -8 -11   5    2.97    0.96
  -9 -11  -5    4.55    0.99
  -9  11   5    4.00    0.88
   9 -11   5    5.97    1.23
  -9 -11   5    3.58    1.08
  -9  11  -5    4.24    0.91
   0 -12   5   19.27    1.23
   0 -12   5   16.54    1.57
   0 -12  -5   19.50    1.45
   0  12  -5   18.19    1.19
  -1  12   5    6.58    0.94
   1 -12   5    4.36    0.95
   1 -12   5    4.73    0.66
  -1 -12  -5    7.10    1.19
  -1  12  -5    5.16    0.70
  -1 -12   5    3.86    0.91
  -1 -12   5    3.44    0.60
   1 -12  -5    4.01    0.72
   2 -12   5    6.69    1.16
  -2 -12  -5    4.03    0.46
  -2 -12  -5    4.50    0.56
  -2 -12  -5    5.79    0.99
  -2 -12   5    4.25    0.91
   2 -12  -5    5.32    0.86
  -2 -12   5    4.64    0.69
  -2  12  -5    5.07    0.68
  -3 -12  -5    6.78    0.88
  -3 -12  -5    6.96    1.03
  -3  12   5    6.38    0.87
   3 -12   5    9.40    1.48
  -3 -12  -5    7.63    0.78
  -3 -12   5    6.22    0.84
  -3 -12   5    7.14    1.23
  -3  12  -5    8.37    1.06
  -3  12  -5    7.19    0.70
   3 -12  -5    6.61    1.06
  -4  12   5    1.38    0.55
   4 -12   5    2.87    0.87
  -4 -12  -5    1.72    0.75
   4 -12  -5    2.14    0.67
  -4  12  -5    2.48    0.57
  -4  12  -5    1.70    0.39
  -5 -12  -5    7.44    1.27
  -5  12   5    8.41    1.07
   5 -12   5    7.23    1.09
  -5  12  -5    6.25    1.01
  -5  12  -5    8.25    0.74
  -5 -12   5    8.42    1.47
   5 -12  -5    7.16    1.25
   6 -12   5    1.18    0.73
  -6  12   5   -0.16    0.53
  -6 -12  -5    0.92    0.77
  -6 -12   5   -1.32    0.75
  -6  12  -5    0.33    0.59
  -7 -12  -5    0.32    0.79
  -7  12   5    2.33    0.74
   7 -12   5    3.37    0.92
  -7 -12   5    0.26    0.87
  -7  12  -5    1.07    0.67
  -8 -12  -5    0.90    0.89
   8 -12   5    2.11    0.99
  -8  12   5    1.17    0.77
  -8  12  -5    0.84    0.74
  -8 -12   5    0.35    1.01
   0 -13  -5   14.90    1.46
   0 -13   5   14.19    1.65
   1 -13   5    6.53    1.13
  -1 -13  -5    9.62    1.58
   1 -13  -5    5.72    0.97
  -1 -13   5    4.39    1.05
  -2 -13  -5   12.65    1.60
  -2  13   5   10.01    1.26
   2 -13   5   11.55    1.75
  -2  13  -5    7.93    0.85
   2 -13  -5    7.78    1.24
  -2 -13   5    8.30    1.30
  -3 -13  -5    1.56    0.47
  -3  13   5    0.67    0.54
   3 -13   5    2.44    1.02
  -3 -13  -5    1.03    0.78
  -3 -13   5    1.86    0.86
   3 -13  -5    1.77    0.71
   4 -13   5    3.64    1.18
  -4  13   5    1.76    0.61
  -4 -13  -5    1.62    0.90
  -4 -13  -5    1.78    0.60
  -4  13  -5    1.57    0.69
  -4 -13   5   -0.10    0.83
   4 -13  -5    1.46    0.80
  -5 -13  -5    0.94    0.88
  -5  13   5    2.33    0.76
   5 -13  -5    0.65    0.85
  -5 -13   5    2.43    1.04
  -6 -13  -5    1.87    0.99
   6 -13   5    0.24    0.83
  -6  13   5    1.98    0.69
  -6  13  -5    0.22    0.69
  -6 -13   5   -0.17    0.96
   6 -13  -5    2.63    0.99
  -7  13   5    3.49    0.86
  -7  13  -5    2.59    0.85
   0 -14   5    8.27    1.39
  -1 -14  -5    8.97    1.42
   1 -14   5    6.66    1.27
   1 -14  -5    8.07    1.22
  -1 -14   5    8.71    1.43
  -2 -14  -5    3.55    1.17
   2 -14   5    5.53    1.29
  -2 -14   5    3.33    1.08
   2 -14  -5    4.80    1.05
   3 -14   5    6.96    1.42
  -3  14   5    9.43    1.39
  -3 -14  -5    6.55    1.26
   3 -14  -5    5.06    1.14
  -3 -14   5    4.56    1.14
   4 -14   5    3.68    1.27
  -4 -14  -5    0.34    1.02
  -4  14  -5    2.96    0.95
  -4 -14   5   -0.02    1.08
   4 -14  -5    2.23    0.93
  -5  14   5    1.98    0.76
  -5 -14  -5    3.51    1.22
   5 -14   5    6.63    1.46
   5 -14  -5    4.74    1.16
  -5 -14   5    4.88    1.32
  -5  14  -5    3.52    1.02
   0 -15   5   24.78    2.56
   0 -15  -5   33.73    2.82
   1 -15   5   -0.42    1.13
  -1 -15  -5    0.64    1.23
  -1 -15   5   -0.22    1.20
  -2 -15  -5    8.34    1.60
   2 -15   5    8.92    1.62
  -2 -15   5    6.48    1.39
   2 -15  -5    7.53    1.30
   0   0   6    0.72    0.16
   0   0   6    0.67    0.18
   0   0  -6    0.58    0.16
   0   0   6    0.89    0.11
   0   0  -6    1.26    0.19
  -1   0  -6    8.35    0.51
   1   0   6    7.28    0.40
   1   0  -6    8.47    0.51
   1   0  -6    9.04    0.51
  -1   0   6    9.11    0.51
  -1   0   6    8.26    0.49
   1   0   6    8.49    0.55
  -1   0   6    7.58    0.42
  -1   0  -6    7.67    0.41
  -2   0   6    3.34    0.33
   2   0  -6    2.94    0.31
   2   0   6    2.93    0.18
   2   0  -6    3.07    0.37
  -2   0   6    2.97    0.30
  -2   0  -6    2.85    0.32
  -3   0  -6   21.74    0.87
   3   0  -6   23.95    1.11
   3   0  -6   18.38    1.07
  -3   0   6   20.15    1.04
  -3   0   6   23.62    1.07
  -3   0  -6   24.03    1.14
   4   0  -6    4.53    0.47
  -4   0  -6    5.35    0.54
  -4   0   6    5.42    0.50
   4   0  -6    5.38    0.59
  -4   0   6    5.20    0.50
   5   0  -6   32.59    1.64
   5   0   6   31.94    1.25
  -5   0  -6   33.80    1.39
   5   0  -6   31.96    1.59
  -5   0   6   32.28    1.55
  -5   0   6   31.80    1.54
  -6   0   6    2.91    0.48
  -6   0  -6    2.67    0.40
  -6   0   6    1.81    0.40
   6   0  -6    2.30    0.50
   6   0   6    3.09    0.34
   7   0   6   15.02    0.80
   7   0  -6   15.63    1.22
  -7   0   6   14.59    1.09
  -7   0  -6   15.69    0.92
  -7   0   6   15.13    1.07
  -8   0  -6    4.06    0.60
  -8   0   6    3.63    0.63
   8   0   6    4.23    0.56
  -8   0   6    3.64    0.72
  -9   0   6    0.92    0.54
   9   0   6    1.84    0.47
  -9   0  -6    1.29    0.44
  10   0   6   12.39    1.07
 -10   0   6   10.15    1.21
 -10   0  -6    8.92    1.02
 -11   0  -6   21.20    1.57
 -11   0   6   25.82    1.89
 -12   0  -6    5.84    0.94
 -12   0   6    6.25    1.13
 -13   0   6    0.26    1.12
 -13   0  -6   -0.53    0.83
   0  -1  -6  162.13    5.84
   0   1   6  154.53    5.92
   0  -1   6  160.06    5.93
   0  -1   6  166.60    5.89
   0   1   6  162.21    5.73
   0  -1  -6  169.88    5.91
   0   1  -6  165.67    5.93
   0   1  -6  163.94    5.89
   1  -1   6  205.25    7.30
   1  -1   6  194.94    7.13
   1   1  -6  197.74    7.24
   1   1  -6  199.36    7.26
  -1  -1  -6  202.95    7.25
  -1   1   6  196.69    7.12
   1  -1   6  206.03    7.04
  -1   1   6  201.71    7.21
  -1  -1  -6  193.44    7.07
   1  -1  -6  196.61    7.21
  -1   1  -6  206.28    7.15
  -1  -1   6  205.81    7.25
   1   1   6  202.78    7.29
   1  -1  -6  203.15    7.22
  -1  -1   6  191.62    7.23
  -1   1  -6  208.94    7.25
   2  -1   6   39.05    1.45
  -2   1   6   38.40    1.57
  -2   1   6   36.57    1.58
   2   1  -6   39.58    1.67
   2  -1   6   39.18    1.72
  -2  -1  -6   39.56    1.67
   2  -1   6   37.67    1.49
   2   1  -6   37.93    1.65
  -2  -1   6   41.47    1.69
   2  -1  -6   39.03    1.62
  -2  -1   6   39.48    1.64
  -2   1  -6   41.48    1.67
  -2   1  -6   37.34    1.43
   2  -1  -6   39.20    1.66
  -2   1  -6   39.57    1.49
  -3  -1  -6    6.30    0.35
   3   1  -6    6.62    0.58
  -3   1   6    7.03    0.49
  -3  -1  -6    6.87    0.54
   3   1  -6    6.56    0.51
  -3   1   6    7.55    0.51
   3  -1   6    6.74    0.37
   3  -1   6    6.92    0.39
  -3  -1   6    6.99    0.53
   3  -1  -6    7.55    0.52
  -3   1  -6    6.80    0.36
  -3  -1   6    6.59    0.52
   3  -1  -6    6.33    0.57
  -3   1  -6    7.99    0.56
  -4   1   6   56.24    2.26
  -4   1   6   55.24    2.27
   4  -1   6   50.87    2.03
   4   1  -6   55.78    2.35
   4   1  -6   52.32    2.32
  -4  -1   6   54.49    2.29
  -4   1  -6   56.86    2.35
  -4  -1   6   52.82    2.32
  -4   1  -6   57.44    2.10
   4  -1  -6   55.82    2.30
   4  -1  -6   54.90    2.35
  -5   1   6    0.27    0.21
   5   1  -6    0.47    0.24
   5  -1   6    0.27    0.17
   5   1  -6    0.27    0.30
  -5  -1  -6    0.26    0.16
  -5   1   6    0.17    0.23
   5  -1  -6   -0.11    0.30
  -5   1  -6    0.00    0.13
  -5   1  -6    0.19    0.24
   5  -1  -6    0.23    0.23
  -5  -1   6    0.21    0.23
   6   1  -6   20.57    1.25
  -6   1   6   19.75    1.15
  -6  -1  -6   20.50    1.01
   6  -1   6   19.12    0.93
  -6   1   6   18.65    1.15
   6   1  -6   21.32    1.27
  -6  -1   6   19.81    1.20
   6   1   6   19.39    0.84
  -6   1  -6   18.74    0.98
   6  -1  -6   18.37    1.24
  -6  -1   6   19.36    1.16
  -7  -1  -6   11.80    0.78
   7   1  -6   11.96    1.11
  -7   1   6   10.89    0.94
   7  -1   6   11.17    0.72
  -7   1   6   11.71    0.94
   7  -1  -6   11.77    1.10
   7   1   6   10.31    0.64
  -7   1  -6   12.07    0.77
  -7  -1   6    9.95    0.98
  -7  -1   6   10.32    0.95
  -8   1   6   15.63    1.18
   8  -1   6   15.24    0.94
  -8  -1  -6   14.88    0.99
  -8   1   6   15.97    1.25
  -8  -1   6   14.43    1.16
  -8  -1   6   13.86    1.27
  -8   1  -6   15.65    0.99
   8   1   6   13.71    0.86
  -9   1   6   -0.01    0.45
  -9  -1  -6   -0.16    0.34
   9  -1   6    0.84    0.51
  -9  -1   6   -0.52    0.45
  -9   1  -6    0.21    0.35
   9   1   6    0.25    0.39
 -10  -1  -6   14.29    1.15
  10  -1   6   14.30    1.26
 -10   1   6   16.08    1.38
 -10  -1   6   14.18    1.37
  10   1   6   12.93    1.09
 -10   1  -6   13.12    1.09
 -11  -1  -6    0.43    0.57
 -11   1   6    0.08    0.64
 -11  -1   6    0.10    0.67
 -11   1  -6   -1.00    0.48
 -12   1   6    3.69    1.06
 -12  -1  -6    3.62    0.89
 -12   1  -6    2.97    0.76
 -12  -1   6    4.58    1.01
 -13   1   6   22.60    2.39
 -13  -1  -6   22.46    2.04
 -13   1  -6   20.55    1.80
 -13  -1   6   22.34    2.30
   0  -2  -6    4.38    0.33
   0   2   6    3.88    0.24
   0  -2   6    4.11    0.29
   0  -2   6    4.54    0.38
   0  -2   6    4.33    0.37
   0   2  -6    4.11    0.35
   0   2   6    4.04    0.36
   0  -2  -6    4.22    0.26
   0   2  -6    4.76    0.39
  -1  -2  -6   43.98    1.64
   1  -2   6   46.29    1.88
   1  -2   6   45.91    1.69
   1   2  -6   47.55    1.88
   1   2  -6   44.55    1.86
  -1  -2  -6   45.82    1.82
  -1   2   6   44.06    1.79
   1  -2   6   46.75    1.80
  -1  -2   6   43.64    1.83
  -1   2  -6   43.76    1.78
   1  -2  -6   45.04    1.79
  -1  -2   6   45.00    1.85
  -1   2  -6   44.40    1.83
   1  -2  -6   43.66    1.74
  -2  -2  -6   56.28    1.98
  -2  -2  -6   57.98    2.23
   2   2  -6   53.91    2.24
   2  -2   6   55.39    2.04
  -2   2   6   51.05    2.11
   2   2  -6   55.44    2.24
  -2   2   6   56.59    2.13
   2  -2  -6   52.57    2.13
   2  -2  -6   57.19    2.16
  -2   2  -6   50.54    2.02
  -2   2  -6   53.42    2.09
  -2  -2   6   52.54    2.19
  -2  -2   6   55.24    2.24
  -2   2  -6   56.75    2.21
   3  -2   6   33.91    1.36
  -3  -2  -6   33.39    1.54
   3   2  -6   31.50    1.54
  -3   2   6   34.19    1.46
  -3   2   6   33.48    1.43
   3   2  -6   32.87    1.53
   3  -2  -6   34.79    1.47
  -3  -2   6   33.80    1.52
   3  -2  -6   33.22    1.53
  -3   2  -6   33.87    1.40
  -3   2  -6   33.86    1.51
  -3  -2   6   33.07    1.54
   4   2  -6   21.12    1.19
   4   2  -6   21.86    1.22
   4  -2   6   22.63    1.03
  -4   2   6   18.92    1.05
  -4   2   6   22.28    1.13
   4  -2   6   23.04    0.98
  -4  -2   6   22.71    1.18
  -4  -2   6   22.92    1.22
  -4   2  -6   24.81    1.20
   4  -2  -6   23.52    1.15
  -4   2  -6   23.10    0.99
   4  -2  -6   22.90    1.22
   5   2  -6   69.07    2.95
  -5   2   6   68.04    2.79
  -5   2   6   70.84    2.87
   5  -2   6   67.34    2.64
   5   2  -6   69.31    2.97
   5  -2   6   67.84    2.72
   5  -2  -6   67.81    2.94
   5  -2  -6   69.30    2.88
  -5   2  -6   72.96    2.93
  -5   2  -6   72.86    2.71
  -5  -2   6   67.84    2.89
  -5  -2   6   72.70    2.97
   6   2  -6    5.45    0.78
  -6  -2  -6    3.74    0.45
  -6   2   6    4.33    0.58
  -6   2   6    4.16    0.57
   6   2  -6    3.83    0.59
  -6   2  -6    3.36    0.41
   6   2   6    3.20    0.32
  -6   2  -6    3.88    0.59
   6  -2  -6    4.05    0.70
  -6  -2   6    3.51    0.61
  -6  -2   6    3.93    0.56
  -7   2   6   23.44    1.37
  -7   2   6   21.89    1.33
   7   2  -6   23.32    1.51
  -7  -2  -6   22.39    1.20
  -7  -2   6   22.75    1.43
   7   2   6   22.43    1.03
  -7   2  -6   24.40    1.19
  -8  -2  -6    9.40    0.81
   8  -2   6    9.25    0.81
  -8   2   6    9.10    0.99
  -8   2   6    9.17    0.95
  -8  -2   6    8.12    0.94
   8   2   6    8.58    0.68
  -8   2  -6    8.90    0.72
  -8  -2   6    6.88    1.31
  -9   2   6   13.42    1.36
   9  -2   6   15.93    1.16
  -9   2   6   15.14    1.26
  -9  -2  -6   15.60    1.09
  -9   2  -6   15.06    1.04
   9   2   6   14.84    0.97
  -9  -2   6   14.69    1.34
 -10   2   6    7.72    1.17
 -10  -2  -6    8.61    1.00
  10  -2   6    8.87    1.16
 -10  -2   6    7.31    1.20
  10   2   6    8.12    0.94
 -10   2  -6    6.75    0.82
 -11   2   6    3.74    0.88
 -11  -2  -6    2.28    0.68
 -11  -2   6    2.66    0.74
 -11   2  -6    2.81    0.62
 -12  -2  -6    3.10    0.83
 -12   2   6    2.03    0.91
 -12  -2   6    1.40    0.92
 -12   2  -6    2.94    0.70
   0  -3  -6   14.43    0.64
   0   3  -6   13.11    0.77
   0   3  -6   13.60    0.73
   0  -3   6   13.81    0.67
   0  -3   6   13.80    0.75
   0   3   6   13.73    0.72
   0   3   6   12.44    0.65
   0  -3  -6   14.50    0.68
   0  -3   6   15.10    0.79
  -1   3   6    6.55    0.42
   1  -3   6    5.48    0.36
   1  -3   6    5.88    0.47
   1   3  -6    5.54    0.44
   1  -3   6    6.52    0.48
  -1  -3  -6    5.84    0.41
  -1   3   6    5.53    0.36
   1   3  -6    5.22    0.51
  -1  -3  -6    5.76    0.33
  -1   3  -6    5.99    0.46
  -1   3  -6    6.30    0.46
  -1  -3   6    5.29    0.45
  -1  -3   6    5.70    0.49
   1  -3  -6    6.01    0.39
   1  -3  -6    5.70    0.39
  -2  -3  -6   12.37    0.58
  -2   3   6   13.80    0.70
   2   3  -6   13.42    0.79
  -2   3   6   13.15    0.67
   2  -3   6   13.37    0.73
   2  -3   6   12.69    0.79
   2  -3   6   13.69    0.66
  -2  -3  -6   12.44    0.59
  -2  -3  -6   12.13    0.75
   2   3  -6   13.38    0.84
  -2  -3   6   13.67    0.77
   2  -3  -6   14.33    0.69
   2  -3  -6   13.20    0.71
  -2   3  -6   14.20    0.72
  -2   3  -6   14.42    0.65
  -2  -3   6   14.32    0.81
  -2   3  -6   13.92    0.74
  -3  -3  -6   17.38    0.77
   3  -3   6   17.31    0.85
  -3   3   6   17.00    0.82
  -3   3   6   16.63    0.87
  -3  -3  -6   15.84    0.67
   3   3  -6   17.57    0.97
   3  -3   6   17.54    0.82
   3   3  -6   16.85    1.01
  -3  -3  -6   17.31    0.96
  -3  -3   6   17.25    0.96
   3  -3  -6   16.55    0.85
  -3   3  -6   17.26    0.90
   3  -3  -6   16.00    0.89
  -3   3  -6   16.52    0.77
  -3  -3   6   17.65    0.99
   4   3  -6    9.89    0.74
   4  -3   6    9.75    0.61
  -4   3   6    9.53    0.65
  -4   3   6   10.03    0.62
   4   3  -6    8.45    0.76
  -4  -3  -6    8.10    0.41
   4  -3   6   10.03    0.58
  -4  -3   6    9.84    0.74
  -4   3  -6   10.40    0.56
   4  -3  -6    9.42    0.71
  -4  -3   6    8.29    0.69
  -4   3  -6    9.85    0.68
   4  -3  -6    9.53    0.64
   5   3  -6    3.72    0.66
  -5   3   6    3.55    0.45
   5   3  -6    3.53    0.53
   5  -3   6    2.71    0.39
   5  -3   6    2.88    0.35
  -5   3   6    3.66    0.48
  -5  -3   6    2.95    0.48
  -5  -3   6    2.97    0.53
  -5   3  -6    2.86    0.47
   5   3   6    2.79    0.24
  -5   3  -6    2.65    0.34
   5  -3  -6    3.63    0.45
  -6   3   6    8.93    0.73
   6  -3   6    8.61    0.60
   6   3  -6    6.61    0.92
   6   3  -6    8.82    0.83
   6  -3   6    7.97    0.71
  -6   3   6    8.44    0.75
  -6  -3   6    8.61    0.79
  -6  -3   6    8.02    0.83
  -6   3  -6   10.13    0.80
   6   3   6    8.09    0.49
  -6   3  -6    8.81    0.61
   6  -3  -6    8.32    0.93
   7   3  -6    8.68    1.10
  -7   3   6   10.92    0.90
  -7   3   6   10.58    0.94
  -7   3  -6   11.32    0.96
  -7  -3   6   10.65    0.94
   7   3   6    9.52    0.63
  -7   3  -6   11.95    0.77
  -8  -3  -6    0.24    0.33
  -8   3   6    0.53    0.38
  -8   3   6   -0.20    0.42
  -8   3  -6   -0.22    0.27
   8   3   6    0.17    0.32
  -8   3  -6    0.45    0.41
  -9   3   6    1.17    0.63
   9  -3   6    1.11    0.59
  -9   3   6    1.41    0.49
  -9  -3  -6    0.86    0.44
  -9   3  -6    1.07    0.41
   9   3   6    1.27    0.43
  -9  -3   6    1.54    0.55
 -10   3   6    6.75    1.03
  10  -3   6    5.57    0.90
 -10  -3  -6    5.46    0.92
  10   3   6    6.51    0.93
 -10  -3   6    4.03    0.83
 -10   3  -6    5.61    0.82
 -11  -3  -6    1.59    0.66
 -11   3   6    3.65    0.84
 -11   3  -6    1.34    0.59
 -11  -3   6    3.21    0.97
 -12   3   6    7.85    1.18
 -12  -3  -6    8.64    1.42
 -12   3  -6    6.82    0.98
 -12  -3   6    8.52    1.34
   0   4   6    2.10    0.23
   0  -4  -6    2.62    0.27
   0  -4   6    2.34    0.38
   0  -4   6    2.31    0.32
   0  -4   6    2.50    0.30
   0   4  -6    3.28    0.42
   0   4  -6    2.07    0.29
   0  -4  -6    2.35    0.24
  -1  -4  -6   16.53    0.82
   1   4  -6   17.63    0.90
   1  -4   6   17.76    0.93
   1   4  -6   16.41    0.96
  -1  -4  -6   15.69    0.76
  -1   4   6   16.50    0.81
   1  -4   6   18.24    0.91
  -1   4   6   17.66    0.81
   1  -4   6   17.29    0.82
  -1   4  -6   17.88    0.88
  -1  -4   6   15.62    0.87
   1  -4  -6   15.93    0.82
  -1   4  -6   17.76    0.93
   1  -4  -6   16.62    0.77
  -1  -4   6   15.76    0.85
  -1  -4   6   16.90    0.95
  -2  -4  -6   16.66    0.95
  -2   4   6   19.82    0.87
   2  -4   6   19.22    1.03
   2   4  -6   19.57    1.09
   2  -4   6   19.69    0.91
  -2  -4  -6   18.34    0.84
   2   4  -6   19.47    1.03
  -2  -4  -6   18.72    0.98
   2  -4   6   18.75    0.98
  -2   4   6   19.46    0.92
  -2   4  -6   19.82    0.96
  -2  -4   6   18.12    1.04
   2  -4  -6   20.16    0.88
  -2   4  -6   19.61    0.90
  -2  -4   6   19.35    1.00
   2  -4  -6   18.06    0.95
  -3   4   6    0.77    0.20
   3   4  -6    0.69    0.23
  -3  -4  -6    0.63    0.17
  -3  -4  -6    0.47    0.16
   3   4  -6    0.62    0.32
  -3   4   6    0.51    0.17
   3  -4   6    0.46    0.19
   3  -4   6    0.64    0.20
   3  -4  -6    0.82    0.25
   3  -4  -6    0.58    0.17
  -3   4  -6    0.59    0.15
  -3  -4   6    0.71    0.27
  -3   4  -6    0.64    0.18
  -3  -4   6    0.79    0.29
  -4   4   6   14.60    0.77
  -4  -4  -6   14.05    0.66
   4   4  -6   13.89    0.95
   4   4  -6   13.93    1.03
   4  -4   6   14.30    0.81
  -4   4   6   14.13    0.85
   4  -4  -6   14.71    0.81
  -4  -4   6   13.88    0.92
  -4   4  -6   14.28    0.84
  -4  -4   6   15.03    0.96
   4  -4  -6   14.97    0.93
  -4   4  -6   14.87    0.76
  -5  -4  -6   22.15    1.00
   5  -4   6   24.75    1.16
   5   4  -6   21.09    1.38
  -5   4   6   23.48    1.23
   5  -4   6   24.73    1.22
   5   4  -6   24.55    1.39
  -5   4   6   19.48    1.10
   5  -4  -6   22.85    1.31
  -5   4  -6   24.62    1.14
  -5  -4   6   25.18    1.37
  -5  -4   6   24.20    1.34
  -5   4  -6   25.12    1.26
   6   4  -6    7.17    0.97
   6  -4   6    7.48    0.76
  -6   4   6    6.99    0.68
  -6   4   6    7.78    0.67
   6  -4   6    8.41    0.62
  -6   4  -6    7.68    0.74
   6   4   6    7.15    0.51
   6  -4  -6    7.26    0.84
  -6   4  -6    7.70    0.59
  -6  -4   6    7.21    0.85
  -6  -4   6    8.02    0.78
   7  -4   6    6.22    0.83
   7   4  -6    4.41    0.92
  -7   4   6    6.64    0.74
  -7   4   6    5.56    0.68
  -7   4  -6    6.66    0.79
  -7   4  -6    5.03    0.56
   7   4   6    5.98    0.54
  -7  -4   6    6.50    0.77
  -8   4   6    4.44    0.73
  -8   4   6    6.33    0.88
   8   4   6    4.35    0.65
  -8   4  -6    6.32    0.86
  -8  -4   6    4.70    0.85
  -8   4  -6    7.09    0.66
  -9  -4  -6   11.20    1.05
  -9   4   6    9.59    1.03
  -9   4   6   12.25    1.24
  -9   4  -6   13.06    0.96
  -9   4  -6   13.32    1.24
  10  -4   6    2.88    0.89
 -10   4   6    1.59    0.63
 -10  -4  -6    2.51    0.61
 -10   4  -6    2.65    0.76
 -10  -4   6    2.07    0.73
 -10   4  -6    2.33    0.54
 -11   4   6   -0.57    0.59
 -11  -4  -6    0.79    0.67
 -11   4  -6    1.19    0.78
 -11   4  -6   -0.33    0.49
 -11  -4   6    0.00    0.82
 -12   4   6    0.18    0.79
 -12  -4  -6    0.83    0.80
 -12   4  -6    3.56    1.04
 -12   4  -6    1.75    0.72
 -12  -4   6    3.11    1.14
   0   5  -6    7.57    0.53
   0  -5  -6    7.31    0.49
   0  -5  -6    7.61    0.44
   0   5   6    6.86    0.46
   0   5  -6    6.87    0.64
   0  -5   6    6.87    0.53
   0  -5   6    7.56    0.64
   0  -5   6    6.23    0.50
  -1  -5  -6   18.15    0.86
   1  -5   6   17.24    0.89
   1   5  -6   17.91    0.96
   1  -5   6   17.45    1.00
  -1  -5  -6   18.33    0.88
  -1   5   6   17.91    0.86
   1   5  -6   16.35    1.05
   1  -5   6   17.94    0.95
  -1  -5  -6   16.99    0.84
  -1  -5   6   18.87    0.95
   1  -5  -6   18.67    0.92
  -1   5  -6   17.45    0.91
  -1  -5   6   18.66    1.05
   1  -5  -6   17.66    0.79
  -1  -5   6   16.40    0.92
  -1   5  -6   18.16    1.00
  -2   5   6    1.75    0.25
   2  -5   6    1.17    0.24
  -2  -5  -6    1.67    0.29
   2   5  -6    1.54    0.32
   2  -5   6    1.42    0.31
   2  -5   6    1.15    0.30
  -2   5   6    1.22    0.24
  -2  -5  -6    1.87    0.28
   2   5  -6    1.41    0.40
  -2  -5  -6    1.90    0.28
  -2  -5   6    2.25    0.39
   2  -5  -6    1.22    0.29
  -2   5  -6    1.06    0.21
  -2  -5   6    1.74    0.37
  -2   5  -6    2.09    0.32
   2  -5  -6    1.58    0.22
   3  -5   6    6.23    0.55
   3   5  -6    5.87    0.72
   3   5  -6    6.78    0.61
  -3  -5  -6    6.41    0.49
   3  -5   6    6.83    0.55
  -3   5   6    6.21    0.50
  -3  -5  -6    6.16    0.48
  -3   5   6    6.89    0.43
  -3  -5   6    5.54    0.61
  -3   5  -6    6.85    0.52
  -3   5  -6    6.79    0.49
   3  -5  -6    6.48    0.45
   3  -5  -6    6.26    0.59
  -3  -5   6    6.95    0.62
   4   5  -6    7.89    0.72
   4  -5   6    8.56    0.64
  -4   5   6    7.38    0.50
  -4   5   6    8.41    0.63
  -4  -5  -6    8.84    0.53
  -4  -5  -6    6.99    0.59
   4   5  -6    8.28    0.89
   4  -5   6    7.85    0.61
  -4  -5   6    7.74    0.72
  -4  -5   6    7.65    0.71
   4  -5  -6    8.22    0.56
  -4   5  -6    8.34    0.60
  -4   5  -6    7.23    0.54
   4  -5  -6    8.60    0.73
   5  -5   6    7.11    0.71
  -5   5   6    7.76    0.55
   5  -5   6    7.82    0.63
  -5   5   6    7.38    0.63
  -5  -5  -6    7.23    0.49
   5   5  -6    8.25    0.80
   5   5  -6    6.96    0.96
  -5  -5   6    6.54    0.73
  -5  -5   6    6.73    0.75
  -5   5  -6    6.95    0.57
  -5   5  -6    6.75    0.59
   5  -5  -6    7.50    0.79
  -6   5   6   17.70    0.98
  -6   5   6   17.12    1.10
   6  -5   6   18.40    1.16
   6  -5   6   18.55    1.05
  -6  -5  -6   17.12    0.87
  -6   5  -6   18.36    1.00
  -6  -5   6   17.58    1.23
   6   5   6   16.83    0.89
  -6  -5   6   16.89    1.18
   6  -5  -6   17.11    1.25
  -6   5  -6   17.78    1.08
  -7   5   6    3.17    0.50
   7  -5   6    2.64    0.56
   7  -5   6    4.15    0.58
  -7   5   6    3.82    0.61
  -7  -5   6    1.24    0.85
  -7   5  -6    4.05    0.68
   7  -5  -6    2.55    0.67
  -7  -5   6    2.47    0.56
  -7   5  -6    3.49    0.51
   7   5   6    2.77    0.42
  -8   5   6    5.24    0.81
  -8   5   6    5.51    0.73
   8  -5   6    4.96    0.73
   8  -5   6    5.41    0.81
  -8   5  -6    4.67    0.83
  -8  -5   6    4.04    0.74
   8   5   6    3.64    0.66
  -8   5  -6    4.36    0.60
  -9   5   6    3.40    0.61
  -9   5   6    3.48    0.71
  -9  -5   6    3.53    0.73
   9   5   6    3.83    0.64
  -9   5  -6    3.07    0.53
  -9   5  -6    5.32    0.96
 -10  -5  -6    2.84    0.66
 -10   5   6    3.64    0.75
 -10   5  -6    2.89    0.59
 -10   5  -6    3.32    0.84
 -11  -5  -6    1.89    0.76
 -11   5   6    1.65    0.70
 -11   5  -6    0.43    0.58
 -11   5  -6    1.07    0.79
 -11  -5   6    2.25    0.90
 -12  -5  -6    2.98    0.96
 -12   5   6    3.34    0.88
 -12   5  -6    3.34    0.84
 -12   5  -6    4.21    1.16
 -12  -5   6    3.94    1.27
   0  -6   6    4.61    0.48
   0  -6  -6    4.85    0.45
   0   6  -6    4.85    0.46
   0   6  -6    5.09    0.64
   0  -6  -6    5.01    0.34
   0  -6   6    4.48    0.47
   0   6   6    4.39    0.41
   0  -6   6    5.79    0.63
  -1  -6  -6    0.30    0.18
   1   6  -6    0.45    0.20
   1  -6   6    0.36    0.21
  -1  -6  -6    0.00    0.17
   1  -6   6    0.34    0.21
  -1  -6  -6   -0.03    0.12
  -1   6   6    0.36    0.15
   1  -6   6    0.44    0.29
   1   6  -6    0.44    0.38
  -1  -6   6   -0.02    0.25
  -1   6  -6    0.20    0.30
   1  -6  -6    0.13    0.20
  -1  -6   6    0.06    0.21
  -1   6  -6    0.12    0.14
  -1  -6   6    0.15    0.23
   2  -6   6    3.64    0.55
   2   6  -6    1.88    0.46
   2   6  -6    2.00    0.36
  -2  -6  -6    2.35    0.37
  -2  -6  -6    2.48    0.38
  -2  -6  -6    2.79    0.37
  -2   6   6    2.99    0.37
   2  -6   6    2.56    0.41
   2  -6   6    2.64    0.42
  -2  -6   6    3.11    0.53
  -2   6  -6    2.47    0.35
   2  -6  -6    3.88    0.47
   2  -6  -6    2.34    0.28
  -2  -6   6    3.04    0.49
  -2  -6   6    3.45    0.45
  -3   6   6   10.96    0.55
   3  -6   6   10.25    0.77
   3   6  -6    9.18    0.94
  -3  -6  -6   10.21    0.67
  -3  -6  -6   11.16    0.71
  -3   6   6   10.47    0.70
   3   6  -6   10.06    0.78
   3  -6   6    9.92    0.75
  -3   6  -6   10.06    0.68
  -3  -6   6   11.01    0.80
  -3  -6   6   11.32    0.89
   3  -6  -6    9.72    0.79
  -3   6  -6   11.31    0.70
  -4  -6  -6    1.13    0.30
  -4   6   6    0.63    0.24
   4  -6   6    1.43    0.34
   4   6  -6    0.94    0.48
  -4  -6  -6    1.06    0.29
   4  -6   6    1.43    0.34
  -4   6   6    0.61    0.18
   4   6  -6    1.26    0.31
  -4   6  -6    0.91    0.24
  -4  -6   6    0.99    0.38
   4  -6  -6    1.53    0.44
  -4   6  -6    0.90    0.24
  -4  -6   6    1.35    0.39
  -5   6   6   17.11    1.03
  -5  -6  -6   15.40    0.98
   5  -6   6   16.08    1.06
   5   6  -6   15.25    1.16
  -5   6   6   16.66    0.81
  -5  -6  -6   15.75    0.87
   5  -6   6   16.28    1.03
  -5   6  -6   16.50    0.93
  -5   6  -6   16.44    0.96
  -5  -6   6   16.68    1.15
  -5  -6   6   14.32    1.09
   5  -6  -6   17.31    1.17
  -6  -6  -6   37.99    1.59
   6  -6   6   37.13    1.78
  -6   6   6   35.94    1.57
  -6   6   6   35.21    1.81
   6  -6   6   35.45    1.83
  -6  -6   6   37.93    1.96
  -6  -6   6   34.65    1.93
  -6   6  -6   36.46    1.71
   6  -6  -6   36.75    1.98
  -6   6  -6   35.44    1.72
   7  -6   6    4.53    0.64
  -7   6   6    3.56    0.61
  -7  -6  -6    3.74    0.49
   7  -6   6    4.73    0.76
  -7   6   6    3.10    0.53
  -7   6  -6    3.70    0.56
   7   6   6    5.11    0.66
  -7   6  -6    4.01    0.57
  -7  -6   6    3.38    0.66
   8  -6   6   22.16    1.78
   8  -6   6   22.52    1.36
  -8   6   6   21.40    1.29
  -8   6   6   21.17    1.37
   8   6   6   20.34    1.24
  -8   6  -6   19.71    1.36
  -8   6  -6   21.68    1.29
  -8  -6   6   19.48    1.52
  -9   6   6   14.15    1.28
  -9   6   6   15.39    1.32
   9  -6   6   16.54    1.28
  -9   6  -6   16.55    1.16
  -9   6  -6   17.54    1.37
   9   6   6   17.73    1.23
  -9  -6   6   17.10    1.49
  10  -6   6    0.83    0.62
 -10   6   6    0.10    0.60
 -10  -6   6    1.65    0.75
 -10   6  -6    0.30    0.46
 -10   6  -6    1.10    0.66
 -11  -6  -6   12.13    1.54
 -11   6   6    8.42    1.32
  11  -6   6   11.25    1.45
 -11   6  -6    9.71    1.18
 -11   6  -6    9.15    1.55
 -12   6  -6   -0.70    0.98
   0  -7   6   23.58    1.16
   0  -7  -6   23.27    1.20
   0  -7   6   23.30    1.20
   0   7  -6   21.89    1.34
   0  -7   6   22.17    1.32
   0   7   6   22.70    1.13
   0  -7  -6   22.55    1.16
   0  -7  -6   23.59    0.97
   0   7  -6   21.86    1.15
  -1  -7  -6    4.11    0.48
   1  -7   6    3.95    0.63
   1   7  -6    2.80    0.56
  -1  -7  -6    3.55    0.33
   1   7  -6    3.12    0.46
   1  -7   6    3.77    0.48
  -1  -7  -6    3.60    0.47
   1  -7   6    3.93    0.54
  -1   7   6    3.71    0.42
   1  -7  -6    4.49    0.54
   1  -7  -6    3.18    0.27
  -1   7  -6    3.02    0.40
  -1  -7   6    3.00    0.46
  -1  -7   6    3.22    0.55
  -1   7  -6    2.66    0.50
  -1  -7   6    3.64    0.63
  -2  -7  -6   22.30    1.14
   2   7  -6   22.80    1.25
   2  -7   6   24.01    1.33
   2  -7   6   23.23    1.22
  -2   7   6   22.91    1.16
  -2  -7  -6   23.14    1.16
   2   7  -6   23.40    1.40
   2  -7   6   23.40    1.21
  -2  -7  -6   22.09    1.12
   2  -7  -6   23.26    1.23
  -2   7  -6   21.41    1.11
  -2  -7   6   23.18    1.20
   2  -7  -6   20.93    0.92
  -2   7  -6   22.75    1.18
  -2  -7   6   22.16    1.27
  -2  -7   6   21.02    1.33
   3   7  -6   17.75    1.12
   3   7  -6   15.29    1.27
  -3  -7  -6   18.46    1.01
  -3   7   6   17.04    1.00
   3  -7   6   16.84    1.05
  -3  -7  -6   18.57    1.01
   3  -7   6   18.34    1.11
  -3  -7   6   15.78    1.12
   3  -7  -6   16.84    1.11
  -3   7  -6   17.76    0.97
  -3  -7   6   18.67    1.10
  -3   7  -6   17.09    0.98
  -3  -7   6   17.83    1.21
  -4   7   6   10.73    0.80
   4   7  -6   11.04    0.94
  -4  -7  -6   12.99    0.86
  -4   7   6   11.98    0.57
   4  -7   6   11.49    0.94
   4  -7   6   11.24    0.87
  -4  -7  -6   11.62    0.81
   4  -7  -6   11.82    0.99
  -4   7  -6   10.96    0.78
  -4  -7   6   10.71    0.93
  -4   7  -6   12.36    0.79
  -4  -7   6   11.01    0.96
   5   7  -6   11.04    1.00
  -5  -7  -6   11.96    0.92
   5  -7   6   10.22    0.97
  -5  -7  -6   11.94    0.81
  -5   7   6   12.26    0.87
   5  -7   6   12.00    0.91
  -5   7   6   10.41    0.59
  -5   7  -6   11.87    0.79
   5  -7  -6   12.46    1.12
  -5   7  -6   12.08    0.82
  -5  -7   6    9.63    0.96
  -5  -7   6   12.68    1.06
   6  -7   6    2.35    0.49
  -6  -7  -6    2.97    0.44
  -6   7   6    2.09    0.42
   6  -7   6    2.38    0.59
  -6  -7  -6    3.66    0.60
  -6   7  -6    3.23    0.53
  -6   7  -6    2.05    0.38
   6  -7  -6    1.71    0.73
  -6  -7   6    3.41    0.67
  -6  -7   6    1.95    0.64
  -7  -7  -6   12.27    0.83
   7  -7   6   11.93    1.25
   7  -7   6   11.15    1.01
  -7  -7  -6   10.73    1.14
  -7   7   6   10.48    0.96
  -7   7   6   12.70    0.83
  -7   7  -6   10.91    0.89
  -7   7  -6   10.94    0.86
   7   7   6   12.61    0.98
  -7  -7   6   11.28    1.10
  -8   7   6    1.00    0.45
   8  -7   6    0.45    0.49
  -8   7   6    1.51    0.50
  -8  -7  -6    1.78    0.42
   8   7   6    0.97    0.55
  -8  -7   6    0.95    0.53
  -8   7  -6    0.70    0.39
  -8   7  -6    0.71    0.40
   9  -7   6    1.93    0.67
  -9   7   6    1.90    0.59
  -9   7  -6    0.97    0.52
  -9  -7   6    1.17    0.65
  -9   7  -6    1.57    0.52
 -10   7   6   10.87    1.26
  10  -7   6   14.07    1.40
 -10  -7   6   10.93    1.57
 -10   7  -6   11.48    1.17
 -10   7  -6    8.73    1.23
  11  -7   6    3.22    0.96
 -11   7   6    2.04    0.83
 -11   7  -6   -0.13    0.82
 -11   7  -6    1.96    0.73
   0  -8   6    0.90    0.29
   0   8  -6    1.13    0.30
   0  -8  -6    1.59    0.37
   0  -8  -6    1.08    0.33
   0  -8   6    1.13    0.40
   0   8  -6    1.44    0.49
   0  -8   6    1.09    0.35
   1  -8   6    9.34    0.91
   1  -8   6    9.48    0.80
  -1  -8  -6   11.33    0.81
   1  -8   6    9.31    0.76
   1   8  -6    9.58    1.04
  -1   8   6    8.85    0.71
  -1  -8  -6   10.79    0.78
  -1  -8  -6   10.28    0.58
   1   8  -6    9.93    0.78
  -1  -8   6   11.56    0.89
  -1  -8   6   11.03    0.98
   1  -8  -6   11.66    0.86
   1  -8  -6    9.76    0.46
  -1   8  -6   10.71    0.72
  -1  -8   6   11.67    0.80
  -2  -8  -6   17.77    1.09
   2  -8   6   18.36    1.10
  -2  -8  -6   17.24    1.07
   2  -8   6   18.72    1.25
   2   8  -6   17.74    1.12
  -2  -8  -6   17.79    0.98
   2  -8   6   18.35    1.14
  -2   8   6   20.28    1.09
   2   8  -6   19.25    1.41
  -2  -8   6   19.48    1.10
  -2   8  -6   20.06    1.12
  -2  -8   6   18.00    1.26
   2  -8  -6   19.93    1.20
  -2   8  -6   20.03    1.03
  -2  -8   6   17.17    1.19
   3  -8   6   16.93    1.15
   3   8  -6   16.43    1.08
  -3  -8  -6   16.22    1.01
   3  -8   6   14.92    1.05
  -3   8   6   15.17    0.96
  -3  -8  -6   16.06    1.03
  -3  -8   6   14.40    1.19
   3  -8  -6   13.82    1.10
  -3   8  -6   14.97    0.97
  -3  -8   6   14.79    1.17
  -3  -8   6   16.04    1.08
  -3   8  -6   15.99    0.90
  -4   8   6    1.97    0.42
   4  -8   6    2.15    0.50
   4  -8   6    2.75    0.48
  -4  -8  -6    2.88    0.53
  -4  -8  -6    3.49    0.61
   4   8  -6    2.70    0.52
  -4  -8   6    3.08    0.65
  -4   8  -6    3.04    0.48
  -4  -8   6    3.08    0.66
  -4  -8   6    3.01    0.61
  -4   8  -6    1.78    0.38
   4  -8  -6    2.43    0.62
  -5  -8  -6    8.78    0.91
   5  -8   6    9.30    0.88
   5  -8   6    9.43    0.96
  -5   8   6    9.68    0.82
  -5  -8  -6    7.94    0.78
  -5   8  -6    8.62    0.74
   5  -8  -6    9.94    1.12
  -5   8  -6    9.21    0.78
  -5  -8   6    7.69    0.92
  -5  -8   6    7.77    0.98
  -6   8   6    9.04    0.55
   6  -8   6    9.98    0.96
  -6  -8  -6    9.24    0.79
  -6  -8  -6   10.76    1.10
   6  -8   6   10.35    1.40
  -6   8   6   10.61    0.89
  -6  -8   6   10.20    1.06
  -6   8  -6   10.88    0.81
  -6   8  -6    9.49    0.82
  -7  -8  -6    3.48    0.60
   7  -8   6    3.49    0.66
  -7   8   6    2.51    0.38
  -7   8   6    2.28    0.52
  -7  -8  -6    2.19    0.71
  -7   8  -6    3.48    0.57
  -7   8  -6    3.61    0.64
  -7  -8   6    3.09    0.69
   8  -8   6    2.67    0.68
  -8  -8  -6    3.57    0.58
  -8   8   6    2.34    0.56
  -8  -8   6    2.32    0.70
  -8   8  -6    3.20    0.55
  -8   8  -6    2.72    0.55
  -9  -8  -6    7.19    0.95
  -9   8   6    7.53    1.09
   9  -8   6    7.92    1.19
  -9   8  -6    8.19    1.02
  -9  -8   6    8.80    1.34
  -9   8  -6    7.80    0.96
  10  -8   6    1.47    0.86
 -10   8   6    2.19    0.82
 -10  -8   6    2.49    0.95
 -10   8  -6    2.88    0.71
 -10   8  -6    1.06    0.59
  11  -8   6    2.55    1.07
 -11   8   6    3.13    0.92
 -11   8  -6    2.84    0.83
 -11   8  -6    1.22    0.73
 -11  -8   6    4.06    1.19
   0  -9  -6    2.45    0.23
   0   9  -6    2.40    0.68
   0  -9   6    1.56    0.46
   0  -9   6    2.16    0.45
   0   9  -6    1.92    0.39
   0  -9   6    1.94    0.57
   0  -9  -6    2.06    0.46
   0   9   6    1.88    0.40
   0  -9  -6    1.99    0.46
  -1   9   6   43.66    1.99
  -1  -9  -6   44.00    1.71
   1  -9   6   40.95    2.15
  -1  -9  -6   43.04    2.01
   1   9  -6   44.09    2.01
   1   9  -6   40.51    2.24
   1  -9   6   43.33    1.95
   1  -9   6   42.41    2.06
  -1  -9  -6   42.83    2.02
   1  -9  -6   43.93    2.07
  -1  -9   6   42.28    2.20
  -1   9  -6   43.37    1.92
  -1  -9   6   41.16    1.92
   1  -9  -6   41.61    2.04
  -1  -9   6   43.21    2.10
   2  -9   6   76.57    3.45
  -2   9   6   84.21    3.30
   2   9  -6   78.53    3.34
   2  -9   6   79.47    3.23
  -2  -9  -6   81.04    3.10
  -2  -9  -6   82.21    3.32
  -2  -9  -6   77.40    3.25
   2  -9   6   81.39    3.35
  -2  -9   6   76.60    3.36
  -2  -9   6   74.44    3.47
  -2  -9   6   72.45    3.19
  -2   9  -6   79.78    3.16
  -2   9  -6   80.91    3.32
   2  -9  -6   82.95    3.38
  -3  -9  -6    1.52    0.47
   3   9  -6    1.14    0.42
  -3   9   6    0.99    0.30
   3  -9   6    1.16    0.47
   3  -9   6    2.54    0.60
  -3  -9  -6    0.58    0.43
   3  -9  -6    1.79    0.52
  -3   9  -6    1.08    0.29
  -3  -9   6    1.29    0.55
  -3  -9   6    0.90    0.41
   4   9  -6    4.17    0.73
   4  -9   6    4.37    0.67
  -4   9   6    4.44    0.61
  -4  -9  -6    4.71    0.75
  -4  -9  -6    5.23    0.83
   4  -9   6    4.35    0.72
  -4  -9   6    6.58    0.92
  -4   9  -6    3.91    0.61
  -4  -9   6    4.04    0.73
   4  -9  -6    2.45    0.67
  -4   9  -6    3.73    0.53
  -5  -9  -6    8.10    0.89
  -5   9   6    9.00    0.86
   5  -9   6    9.97    0.98
  -5  -9  -6    7.24    0.97
  -5  -9   6    7.23    1.02
  -5   9  -6   10.02    0.79
  -5   9  -6    9.28    0.85
  -6   9   6   23.76    1.45
   6  -9   6   22.03    1.50
  -6  -9  -6   23.57    1.60
  -6  -9  -6   22.62    1.37
  -6   9  -6   24.01    1.40
  -6  -9   6   20.88    1.60
  -6   9  -6   24.75    1.32
   7  -9   6   10.49    1.16
  -7   9   6   10.48    1.00
  -7  -9  -6    9.96    0.96
  -7  -9   6    8.69    1.18
  -7   9  -6   10.84    0.93
  -7   9  -6    9.76    0.98
  -8  -9  -6    7.66    0.92
   8  -9   6    9.01    1.21
  -8   9   6    7.57    0.99
  -8  -9   6    7.41    1.20
  -8   9  -6    7.14    1.00
  -8   9  -6    6.82    0.87
  -9  -9  -6    9.48    1.07
  -9   9   6    8.06    1.14
   9  -9   6    9.21    1.39
  -9   9  -6    7.34    1.09
  -9  -9   6    8.26    1.35
  -9   9  -6    8.86    1.04
  10  -9   6   12.66    1.67
 -10   9   6   10.83    1.43
 -10  -9   6   12.64    1.73
 -10   9  -6   13.77    1.42
 -10   9  -6   13.70    1.33
   0 -10  -6    4.94    0.73
   0  10   6    7.04    0.78
   0 -10  -6    5.26    0.87
   0 -10   6    4.06    0.76
   0  10  -6    5.44    0.67
   0 -10   6    6.02    0.72
   1 -10   6   17.96    1.43
  -1 -10  -6   20.61    1.28
   1 -10   6   19.79    1.17
   1  10  -6   20.59    1.23
  -1  10   6   18.87    1.20
  -1 -10  -6   18.57    0.95
  -1 -10  -6   19.95    0.86
  -1 -10  -6   20.39    1.33
   1 -10  -6   20.85    1.40
  -1 -10   6   18.97    1.46
  -1 -10   6   18.26    1.15
   1 -10  -6   17.92    1.26
  -1  10  -6   18.77    1.12
  -2  10   6    7.40    0.76
  -2 -10  -6    7.29    0.74
  -2 -10  -6    6.92    0.59
  -2 -10  -6    7.39    0.96
   2  10  -6    8.03    0.84
   2 -10   6    8.50    1.12
  -2 -10  -6    8.83    1.03
   2 -10   6    6.64    0.81
   2 -10  -6    6.62    1.03
  -2 -10   6    7.21    0.99
  -2 -10   6    6.24    0.82
   2 -10  -6    7.73    0.87
  -2  10  -6    7.77    0.69
  -3 -10  -6   21.83    1.45
   3 -10   6   21.46    1.62
  -3  10   6   21.02    1.32
   3  10  -6   22.39    1.47
  -3 -10  -6   22.68    1.46
  -3 -10  -6   24.53    1.27
  -3 -10   6   22.88    1.60
  -3  10  -6   21.94    1.18
  -3  10  -6   22.65    1.38
  -3 -10   6   23.99    1.41
  -4 -10  -6    5.02    0.79
  -4  10   6    5.51    0.74
  -4 -10  -6    6.61    0.92
   4 -10   6    8.10    1.05
  -4 -10   6    7.05    1.03
  -4  10  -6    6.12    0.64
  -4 -10   6    6.81    1.09
  -4  10  -6    5.28    0.74
  -5 -10  -6   10.32    1.07
   5 -10   6   10.06    1.09
  -5  10   6   10.18    0.95
  -5  10  -6    9.16    0.76
  -5  10  -6   10.49    0.99
  -5 -10   6    9.43    1.20
   6 -10   6    2.79    0.66
  -6  10   6    3.08    0.61
  -6 -10  -6    3.46    0.71
  -6 -10   6    2.13    0.72
  -6  10  -6    2.26    0.47
  -6  10  -6    2.63    0.57
  -7  10   6   -0.07    0.50
  -7 -10  -6   -0.77    0.50
   7 -10   6    1.32    0.69
  -7  10  -6    1.19    0.47
  -7  10  -6    0.22    0.47
  -7 -10   6   -0.67    0.65
   8 -10   6    0.89    0.72
  -8  10   6    0.18    0.57
  -8 -10  -6   -0.04    0.62
  -8  10  -6    1.03    0.58
  -8  10  -6    0.76    0.55
  -8 -10   6    0.94    0.76
   9 -10   6    3.90    1.08
  -9  10   6    4.16    0.90
  -9 -10  -6    3.66    1.01
  -9  10  -6    3.66    0.78
  -9 -10   6    3.71    1.04
   0 -11   6   22.49    1.30
   0 -11  -6   20.39    1.44
   0 -11   6   20.14    1.62
   0  11  -6   22.01    1.30
  -1 -11  -6    9.65    0.56
   1 -11   6    8.93    1.23
  -1 -11  -6    9.34    1.02
   1 -11   6   10.18    0.97
  -1  11   6   11.37    1.03
   1  11  -6   11.88    0.98
  -1 -11  -6    9.45    0.51
  -1 -11   6   11.58    0.96
   1 -11  -6    9.05    1.02
  -1  11  -6   10.93    0.87
  -1 -11   6    9.02    1.26
  -2 -11  -6    8.37    1.12
   2  11  -6    8.93    0.98
  -2 -11  -6    6.80    0.73
  -2  11   6    7.70    0.83
  -2 -11  -6    6.02    0.54
   2 -11   6    9.55    1.29
  -2 -11   6    7.10    0.93
  -2  11  -6    7.59    0.73
   2 -11  -6    5.95    0.92
  -2 -11   6    6.88    1.08
   3 -11   6    3.88    0.89
  -3  11   6    3.57    0.64
  -3 -11  -6    4.00    0.69
  -3 -11  -6    3.28    0.62
  -3 -11  -6    3.82    0.78
  -3  11  -6    3.50    0.60
  -3 -11   6    2.26    0.62
   3 -11  -6    3.61    0.73
  -3  11  -6    5.49    0.85
  -3 -11   6    2.51    0.72
  -4 -11  -6    1.59    0.66
   4 -11   6    3.17    0.87
  -4  11   6    1.59    0.47
  -4 -11  -6    1.93    0.68
  -4 -11   6    2.41    0.80
  -4  11  -6    1.73    0.38
  -4  11  -6    1.93    0.52
  -5  11   6    1.17    0.50
   5 -11   6    1.76    0.67
  -5 -11  -6    1.63    0.86
  -5 -11  -6    1.90    0.66
  -5 -11   6    0.25    0.72
  -5  11  -6    1.30    0.49
  -5  11  -6    1.92    0.41
  -6 -11  -6   24.79    1.65
  -6  11   6   20.92    1.56
   6 -11   6   22.36    1.72
  -6 -11   6   21.43    1.78
  -6  11  -6   20.71    1.52
  -6  11  -6   22.12    1.26
  -7  11   6    8.14    1.08
   7 -11   6    8.17    1.33
  -7 -11  -6    6.05    0.93
  -7 -11   6    5.04    1.04
  -7  11  -6    6.34    1.08
  -7  11  -6    5.64    0.69
  -8 -11  -6    3.62    0.82
   8 -11   6    3.57    1.00
  -8  11   6    3.76    0.80
  -8 -11   6    4.13    1.10
  -8  11  -6    4.36    0.83
   0  12  -6   10.05    0.97
   0 -12   6   10.14    1.35
   0 -12   6   12.56    1.13
   0 -12  -6    9.68    1.12
  -1  12   6    3.26    0.66
   1 -12   6    2.46    0.64
   1 -12   6    3.23    0.90
  -1 -12  -6    4.04    0.85
   1  12  -6    3.25    0.65
  -1  12  -6    2.26    0.50
  -1 -12   6    2.70    0.66
   1 -12  -6    2.42    0.66
  -1 -12   6    1.92    0.77
  -2 -12  -6    6.32    0.51
   2 -12   6    9.01    1.47
  -2 -12  -6    5.95    1.04
  -2 -12  -6    7.85    1.33
  -2  12  -6    6.29    0.77
  -2 -12   6    7.67    1.22
  -2 -12   6    5.04    0.78
   2 -12  -6    7.16    1.08
  -3 -12  -6   19.27    1.64
  -3  12   6   22.16    1.44
  -3 -12  -6   21.01    1.17
   3 -12   6   22.86    1.90
  -3 -12   6   19.59    1.74
   3 -12  -6   21.64    1.64
  -3 -12   6   16.37    1.45
  -3  12  -6   20.62    1.22
  -4  12   6    2.29    0.63
  -4 -12  -6    2.95    0.61
  -4 -12  -6    3.07    0.82
   4 -12   6    4.59    1.08
  -4 -12   6    3.17    0.96
   4 -12  -6    3.44    0.83
  -4  12  -6    1.99    0.67
  -4  12  -6    2.69    0.48
  -5 -12  -6    0.49    0.75
   5 -12   6    3.31    0.95
  -5  12   6    1.83    0.58
  -5  12  -6    1.47    0.45
  -5  12  -6    2.55    0.63
   5 -12  -6    2.03    0.82
   6 -12   6    1.70    0.83
  -6 -12  -6    2.74    0.92
  -6  12   6    2.74    0.69
  -6 -12   6    1.75    0.96
  -6  12  -6    3.33    0.74
   7 -12   6    1.55    0.88
  -7  12   6    1.19    0.68
  -7 -12  -6    0.57    0.80
  -7  12  -6    0.63    0.69
  -7 -12   6    1.00    0.90
   0  13  -6   27.83    1.63
   0 -13  -6   25.12    1.86
   0 -13   6   29.99    2.20
   1 -13   6    8.37    1.27
  -1 -13   6    9.17    1.59
   1 -13  -6   10.56    1.31
  -1  13  -6   10.86    1.06
   2 -13   6    2.73    1.02
  -2  13   6    2.27    0.68
  -2 -13  -6    1.08    0.87
  -2 -13   6    2.12    0.93
   2 -13  -6    1.77    0.74
  -2  13  -6    2.04    0.52
  -3 -13  -6    3.23    0.95
   3 -13   6    4.77    1.23
  -3  13   6    1.44    0.63
   3 -13  -6    2.83    0.85
  -3 -13   6    1.98    0.84
  -4 -13  -6   11.70    1.63
  -4  13   6    9.22    1.16
   4 -13   6   15.86    2.11
  -4 -13   6   11.56    1.71
   4 -13  -6    8.06    1.41
  -4  13  -6   14.03    1.52
  -5  13   6    6.99    1.25
  -5 -13  -6    8.16    1.18
  -5 -13  -6    5.03    1.13
   5 -13  -6    7.43    1.20
  -5 -13   6    5.91    1.30
  -5  13  -6    8.78    1.41
   6 -13   6    5.44    1.32
  -6 -13  -6    2.80    1.07
  -6  13   6    2.69    0.77
  -6  13  -6    4.10    0.85
   6 -13  -6    1.65    0.97
  -6 -13   6    1.23    1.02
   0 -14   6    6.62    1.41
  -1 -14  -6    3.53    1.19
   1 -14   6    1.53    1.05
   1 -14  -6    1.45    0.80
  -1 -14   6    0.33    1.03
  -2 -14  -6    0.96    1.07
   2 -14   6   -0.42    1.06
   2 -14  -6    0.23    0.82
  -2 -14   6    0.67    0.97
  -3 -14  -6    7.33    1.34
   3 -14   6    6.98    1.42
   3 -14  -6    4.46    1.09
  -3 -14   6    4.56    1.13
  -4 -14  -6    0.37    1.06
   4 -14   6    4.10    1.38
   4 -14  -6    2.79    1.03
  -4 -14   6    1.98    1.16
   0 -15  -6    9.07    1.62
   1 -15   6    6.64    1.51
  -1 -15  -6    9.18    1.68
   0   0  -7    0.25    0.15
   0   0   7    0.07    0.11
   0   0   7    0.05    0.06
   0   0   7    0.23    0.14
   0   0  -7    0.10    0.13
   1   0   7   95.46    3.71
   1   0  -7   97.32    3.63
  -1   0   7   93.18    3.51
   1   0   7   89.88    3.49
  -1   0  -7  101.25    3.52
   1   0  -7   98.69    3.66
  -1   0   7   93.77    3.64
  -1   0  -7  102.78    3.67
   2   0  -7   27.91    1.30
   2   0  -7   27.97    1.29
  -2   0  -7   28.38    1.30
  -2   0   7   27.36    1.26
  -2   0   7   28.66    1.21
  -2   0  -7   28.47    1.07
  -3   0   7   18.51    0.97
   3   0  -7   18.67    1.04
  -3   0  -7   18.62    1.01
  -3   0  -7   18.15    0.72
  -3   0   7   19.61    0.95
   3   0  -7   18.18    0.99
  -4   0   7    0.30    0.22
   4   0  -7    0.38    0.28
   4   0  -7    0.37    0.19
  -4   0   7    0.35    0.19
  -4   0  -7    0.16    0.10
  -4   0  -7    0.29    0.22
  -5   0   7   24.25    1.28
  -5   0  -7   24.77    1.35
  -5   0  -7   25.69    1.09
   5   0  -7   24.05    1.37
   5   0  -7   22.53    1.31
  -5   0   7   25.27    1.30
   6   0   7   16.42    0.73
   6   0  -7   17.96    1.25
  -6   0   7   17.88    1.11
   6   0   7   18.32    0.75
  -6   0  -7   17.53    0.91
   6   0  -7   16.96    1.14
  -6   0   7   17.25    1.11
  -7   0   7    0.66    0.40
  -7   0   7    0.68    0.34
   7   0   7    0.62    0.21
  -7   0  -7    0.42    0.28
  -8   0   7    2.21    0.63
   8   0   7    3.52    0.49
  -8   0   7    2.05    0.53
  -8   0  -7    2.82    0.47
  -9   0  -7    2.62    0.50
  -9   0   7    1.79    0.58
 -10   0   7    0.06    0.55
  10   0   7   -0.45    0.50
 -10   0  -7    0.36    0.45
 -11   0  -7    2.30    0.68
 -11   0   7    2.03    0.86
 -12   0   7    4.34    1.05
 -12   0  -7    2.45    0.76
   0  -1   7   26.26    1.22
   0  -1  -7   25.43    1.11
   0  -1   7   26.92    1.16
   0   1  -7   27.48    1.21
   0  -1  -7   26.50    1.18
   0   1   7   26.76    0.99
   0   1   7   26.33    1.22
   0   1  -7   25.81    1.16
   1  -1   7   36.64    1.37
   1   1  -7   38.88    1.61
  -1   1   7   38.35    1.59
  -1  -1  -7   38.62    1.45
  -1  -1  -7   39.07    1.60
  -1   1   7   37.58    1.46
   1   1  -7   37.81    1.62
   1  -1   7   36.82    1.65
  -1   1  -7   36.74    1.51
   1   1   7   36.41    1.65
   1  -1  -7   37.34    1.58
  -1  -1   7   39.53    1.61
   1  -1  -7   37.81    1.57
  -1  -1   7   36.99    1.60
  -1   1  -7   36.43    1.59
   2  -1   7   51.57    1.87
   2   1  -7   53.85    2.16
   2   1  -7   51.66    2.15
   2  -1   7   48.11    2.18
  -2   1   7   52.78    2.03
  -2   1   7   51.11    2.08
   2  -1   7   49.86    1.94
  -2  -1  -7   53.52    2.15
  -2  -1   7   54.83    2.17
  -2  -1   7   49.14    2.10
   2  -1  -7   51.09    2.12
   2  -1  -7   52.30    2.11
  -2   1  -7   51.86    2.13
  -2   1  -7   52.78    1.95
   3  -1   7   27.31    1.13
  -3  -1  -7   29.81    1.40
  -3   1   7   29.03    1.30
   3   1  -7   27.92    1.38
   3   1  -7   29.37    1.41
  -3   1   7   30.36    1.32
  -3  -1  -7   27.34    1.07
   3  -1  -7   30.17    1.36
  -3  -1   7   29.79    1.40
  -3  -1   7   29.94    1.36
  -3   1  -7   30.38    1.39
   3  -1  -7   28.43    1.39
  -3   1  -7   25.93    1.10
   4   1  -7    3.63    0.46
  -4   1   7    4.71    0.49
  -4   1   7    3.49    0.42
   4   1  -7    4.13    0.59
  -4  -1  -7    3.83    0.29
   4  -1   7    3.22    0.28
  -4  -1  -7    4.20    0.51
  -4  -1   7    4.10    0.48
  -4   1  -7    3.79    0.49
   4  -1  -7    4.42    0.58
   4  -1  -7    4.18    0.45
  -4  -1   7    3.63    0.49
  -5  -1  -7   19.21    1.18
  -5  -1  -7   20.97    0.94
  -5   1   7   19.61    1.09
   5   1  -7   19.76    1.23
   5   1  -7   20.32    1.19
   5  -1   7   18.62    0.84
  -5   1   7   19.87    1.12
  -5   1  -7   20.10    0.92
   5  -1  -7   19.88    1.13
  -5   1  -7   18.76    1.15
  -5  -1   7   21.14    1.14
   5  -1  -7   19.32    1.20
  -5  -1   7   19.79    1.14
   6   1  -7   10.34    0.98
   6   1  -7   10.04    0.86
  -6   1   7   10.13    0.81
   6  -1   7    9.24    0.55
  -6   1   7    8.48    0.79
  -6  -1  -7    8.37    0.61
   6  -1  -7   10.37    0.84
  -6   1  -7    9.50    0.85
  -6  -1   7    8.36    0.81
   6  -1  -7    8.61    0.96
  -6   1  -7    9.49    0.60
  -6  -1   7    7.67    0.83
  -7  -1  -7    9.38    0.70
   7  -1   7    9.13    0.63
  -7   1   7    9.49    0.91
  -7   1   7    9.33    0.88
  -7  -1   7    8.20    0.93
  -7   1  -7    8.87    0.93
  -7  -1   7    8.89    0.88
  -7   1  -7    8.13    0.65
   7   1   7    9.36    0.51
  -8   1   7    3.63    0.61
   8  -1   7    5.27    0.63
  -8   1   7    4.64    0.74
  -8  -1  -7    5.77    0.63
  -8  -1   7    4.10    0.66
   8   1   7    4.68    0.50
  -8   1  -7    3.14    0.55
  -9   1   7   -0.21    0.44
   9  -1   7    0.58    0.41
  -9  -1  -7    0.21    0.34
  -9  -1   7    0.04    0.44
  -9   1  -7   -0.49    0.30
   9   1   7    0.38    0.36
 -10  -1  -7    0.63    0.46
 -10   1   7    0.16    0.54
  10  -1   7    0.42    0.55
 -10  -1   7   -0.31    0.53
  10   1   7   -0.28    0.48
 -11   1   7    0.09    0.73
 -11  -1  -7    0.03    0.59
 -11  -1   7    0.37    0.70
 -12   1   7    5.00    1.14
 -12  -1  -7    3.89    0.92
 -12  -1   7    4.80    1.10
 -12   1  -7    3.92    0.80
   0   2   7    9.58    0.45
   0  -2   7   10.30    0.51
   0  -2   7   10.41    0.61
   0  -2   7    9.72    0.64
   0   2  -7   10.20    0.62
   0   2  -7   10.72    0.63
   0  -2  -7   10.24    0.47
   0  -2  -7   10.36    0.59
   0   2   7    9.98    0.64
   0  -2  -7    9.69    0.55
   1   2  -7    5.81    0.46
   1  -2   7    6.33    0.51
  -1  -2  -7    5.88    0.44
   1   2  -7    6.71    0.53
   1  -2   7    6.48    0.44
  -1  -2  -7    5.86    0.28
   1  -2   7    6.09    0.33
  -1  -2  -7    6.09    0.36
  -1   2   7    5.95    0.46
  -1   2  -7    5.44    0.44
   1  -2  -7    5.73    0.42
  -1  -2   7    5.88    0.48
  -1   2  -7    5.98    0.47
  -1  -2   7    5.98    0.48
   1   2   7    6.37    0.53
   1  -2  -7    5.52    0.38
   1  -2  -7    5.54    0.45
  -2   2   7    0.75    0.17
   2   2  -7    1.49    0.28
   2  -2   7    1.31    0.29
   2  -2   7    1.04    0.20
  -2   2   7    1.23    0.24
   2   2  -7    1.09    0.28
  -2  -2  -7    1.02    0.11
  -2  -2  -7    0.77    0.11
  -2  -2  -7    0.67    0.21
  -2   2  -7    1.35    0.22
  -2   2  -7    1.30    0.25
   2  -2  -7    1.11    0.27
  -2  -2   7    1.09    0.27
  -2   2  -7    1.24    0.17
   2  -2  -7    1.33    0.25
  -3   2   7    5.78    0.47
   3   2  -7    6.64    0.57
  -3  -2  -7    6.20    0.34
   3  -2   7    6.98    0.42
  -3   2   7    6.43    0.49
  -3  -2  -7    6.80    0.58
   3   2  -7    6.54    0.63
   3  -2  -7    6.39    0.61
  -3   2  -7    6.04    0.50
  -3  -2   7    6.56    0.56
   3  -2  -7    6.58    0.51
  -3  -2   7    7.28    0.58
   4  -2   7   28.45    1.29
   4   2  -7   30.12    1.56
  -4  -2  -7   30.22    1.53
  -4   2   7   32.22    1.42
   4  -2   7   30.74    1.30
   4   2  -7   31.44    1.55
  -4   2   7   30.60    1.44
  -4   2  -7   30.66    1.50
  -4  -2   7   32.42    1.56
  -4   2  -7   31.29    1.26
   4  -2  -7   32.23    1.47
  -4  -2   7   30.32    1.49
   4  -2  -7   30.03    1.53
   5   2  -7    6.54    0.75
  -5  -2  -7    5.54    0.43
   5   2  -7    5.52    0.61
  -5   2   7    5.18    0.55
  -5   2   7    5.28    0.57
   5  -2   7    5.04    0.39
   5  -2  -7    4.55    0.71
   5  -2  -7    5.92    0.57
  -5  -2   7    5.16    0.63
  -5   2  -7    4.60    0.58
  -5   2  -7    4.45    0.39
  -5  -2   7    5.30    0.62
   6  -2   7   13.15    0.70
  -6  -2  -7   12.95    0.77
   6   2  -7   14.53    1.13
  -6   2   7   12.78    0.93
  -6   2   7   12.95    0.94
   6   2  -7   13.63    1.03
  -6  -2   7   13.93    0.99
  -6   2  -7   12.22    0.98
  -6   2  -7   12.65    0.74
   6  -2  -7   13.17    1.12
   6  -2  -7   12.89    0.95
  -6  -2   7   13.24    1.01
  -7   2   7    6.93    0.82
  -7   2   7    6.36    0.78
  -7  -2  -7    7.67    0.65
   7  -2   7    6.46    0.53
   7   2   7    6.01    0.40
  -7  -2   7    7.05    0.91
  -7   2  -7    7.81    0.83
  -7   2  -7    5.97    0.57
   8  -2   7    4.93    0.72
  -8  -2  -7    5.82    0.66
  -8   2   7    5.17    0.81
  -8   2   7    6.70    0.97
  -8   2  -7    5.34    0.86
   8   2   7    5.26    0.50
  -8  -2   7    7.24    0.96
  -8   2  -7    5.60    0.64
  -9  -2  -7    0.38    0.37
  -9   2   7    0.11    0.49
   9  -2   7    0.24    0.50
   9   2   7    0.40    0.35
  -9  -2   7    0.38    0.51
  -9   2  -7    0.38    0.34
  -9   2  -7    0.50    0.56
 -10  -2  -7    8.67    1.01
  10  -2   7    9.64    1.20
 -10   2   7    8.58    1.25
 -10   2  -7    9.18    0.92
 -10  -2   7    9.01    1.24
 -11   2   7    8.90    1.29
 -11  -2  -7    8.92    1.15
 -11  -2   7    9.84    1.48
 -11   2  -7    9.07    1.07
 -12   2   7    7.09    1.30
 -12  -2  -7    5.64    0.96
 -12   2  -7    4.54    0.87
 -12  -2   7    3.99    1.11
   0   3  -7  112.49    4.18
   0   3   7  109.08    4.15
   0  -3  -7  109.27    4.00
   0  -3   7  113.87    4.18
   0  -3  -7  113.92    4.09
   0   3  -7  113.39    4.18
   0  -3   7  111.52    4.04
   0  -3   7  108.30    4.17
   0   3   7  100.83    3.98
   1   3  -7   12.04    0.83
  -1  -3  -7   14.45    0.63
   1  -3   7   14.51    0.84
  -1   3   7   14.48    0.77
   1  -3   7   15.44    0.81
   1   3  -7   15.07    0.83
   1  -3   7   14.30    0.68
  -1   3   7   15.24    0.69
  -1  -3  -7   14.93    0.77
  -1  -3   7   13.50    0.80
  -1   3  -7   14.61    0.80
   1  -3  -7   14.39    0.73
   1  -3  -7   13.50    0.70
  -1   3  -7   14.24    0.79
  -1  -3   7   13.96    0.82
   2  -3   7   12.89    0.66
   2  -3   7   12.69    0.84
  -2   3   7   13.98    0.71
  -2   3   7   13.13    0.71
   2   3  -7   13.03    0.80
  -2  -3  -7   12.46    0.58
   2   3  -7   13.85    0.88
  -2  -3  -7   13.71    0.59
   2  -3   7   13.80    0.76
  -2  -3  -7   13.44    0.78
  -2   3  -7   13.64    0.65
  -2  -3   7   13.81    0.80
   2  -3  -7   14.60    0.73
   2  -3  -7   13.60    0.74
  -2  -3   7   13.66    0.83
  -2   3  -7   14.38    0.78
  -2   3  -7   13.22    0.74
  -3  -3  -7    8.86    0.66
   3  -3   7    7.97    0.51
   3   3  -7    8.14    0.65
   3   3  -7    8.63    0.76
  -3   3   7    8.36    0.55
  -3   3   7    8.76    0.57
  -3  -3  -7    8.71    0.45
   3  -3   7    8.47    0.57
  -3   3  -7    8.41    0.47
  -3  -3   7    9.56    0.69
   3  -3  -7    6.70    0.59
  -3  -3   7    8.26    0.66
  -3   3  -7    8.07    0.60
   3  -3  -7    8.48    0.57
   4  -3   7   26.41    1.19
   4   3  -7   25.46    1.44
  -4   3   7   26.55    1.29
  -4  -3  -7   26.99    1.41
   4  -3   7   26.06    1.20
   4   3  -7   26.02    1.39
  -4   3   7   26.59    1.24
   4  -3  -7   26.62    1.29
  -4  -3   7   25.48    1.35
  -4   3  -7   26.73    1.14
  -4  -3   7   26.95    1.39
  -4   3  -7   26.28    1.32
   5  -3   7   15.68    0.85
   5   3  -7   13.51    1.05
  -5   3   7   14.11    0.85
   5   3  -7   13.84    0.98
   5  -3   7   14.47    0.77
  -5   3   7   15.18    0.93
   5  -3  -7   15.09    0.93
  -5  -3   7   13.93    0.99
  -5   3  -7   14.10    0.75
   5  -3  -7   13.38    1.07
  -5  -3   7   12.88    0.97
  -5   3  -7   13.45    0.92
   6  -3   7   14.71    0.94
   6   3  -7   16.12    1.26
   6   3  -7   16.47    1.16
  -6   3   7   15.82    1.03
   6  -3   7   15.82    0.85
  -6   3   7   15.98    0.99
  -6   3  -7   15.54    1.07
  -6  -3   7   15.18    1.09
   6  -3  -7   15.71    1.23
  -6   3  -7   15.44    0.85
  -6  -3   7   16.53    1.15
  -7   3   7   19.08    1.26
  -7  -3  -7   19.33    1.09
   7  -3   7   19.84    1.03
  -7   3   7   19.55    1.24
  -7   3  -7   20.50    1.33
  -7   3  -7   19.81    1.06
   7   3   7   19.59    0.83
  -7  -3   7   20.06    1.33
   8  -3   7    1.28    0.35
  -8  -3  -7    0.62    0.36
  -8   3   7    1.10    0.41
  -8   3   7    1.08    0.51
   8   3   7    0.78    0.27
  -8   3  -7    0.84    0.47
  -8   3  -7    0.64    0.29
   9  -3   7    5.34    0.94
  -9  -3  -7    3.91    0.62
  -9   3   7    3.95    0.76
  -9   3   7    4.38    0.74
  -9   3  -7    5.44    0.69
  -9  -3   7    4.09    0.75
   9   3   7    3.76    0.51
  10  -3   7   10.35    1.31
 -10  -3  -7    9.94    1.04
 -10   3   7   10.90    1.23
 -10  -3   7    8.90    1.31
 -10   3  -7   10.72    0.97
 -10   3  -7   11.48    1.38
 -11   3   7    1.12    0.76
 -11  -3  -7    1.01    0.62
 -11   3  -7    1.16    0.85
 -11   3  -7    1.55    0.58
 -12  -3  -7    3.62    0.92
 -12  -3   7    4.12    1.09
 -12   3  -7    6.07    1.27
 -12   3  -7    4.98    0.86
   0   4  -7  103.51    3.97
   0  -4   7  102.52    3.85
   0   4   7  104.29    3.79
   0  -4   7  104.13    4.00
   0   4  -7  100.49    3.99
   0  -4   7  103.92    3.96
   0  -4  -7  107.91    3.85
   0  -4  -7  101.71    3.81
   1   4  -7   28.40    1.42
  -1   4   7   29.06    1.28
   1   4  -7   28.80    1.36
  -1  -4  -7   27.98    1.27
  -1  -4  -7   29.02    1.18
  -1   4   7   30.21    1.23
   1  -4   7   27.54    1.23
   1  -4   7   29.02    1.38
   1  -4   7   28.46    1.36
  -1  -4   7   28.82    1.34
  -1  -4   7   28.34    1.29
  -1   4  -7   29.10    1.33
  -1   4  -7   28.75    1.36
   1  -4  -7   29.71    1.24
   1  -4  -7   27.46    1.25
  -1  -4   7   28.98    1.41
   2  -4   7   40.76    1.73
  -2  -4  -7   43.09    1.84
  -2  -4  -7   36.68    1.67
  -2   4   7   44.56    1.78
  -2   4   7   43.65    1.75
  -2  -4  -7   41.83    1.66
   2   4  -7   42.17    1.90
   2  -4   7   43.93    1.93
   2   4  -7   41.98    1.96
   2  -4   7   43.62    1.85
  -2  -4   7   43.38    1.87
  -2   4  -7   43.13    1.83
   2  -4  -7   45.52    1.76
  -2   4  -7   44.42    1.84
   2  -4  -7   42.65    1.80
  -2  -4   7   42.39    1.93
  -2   4  -7   44.05    1.74
  -3  -4  -7   13.63    0.87
  -3   4   7   13.99    0.80
  -3  -4  -7   15.05    0.70
   3  -4   7   14.13    0.84
   3   4  -7   14.77    0.92
   3  -4   7   14.70    0.78
  -3  -4  -7   13.54    0.65
  -3   4   7   13.08    0.73
   3   4  -7   15.13    1.03
  -3  -4   7   13.57    0.91
  -3   4  -7   13.54    0.81
   3  -4  -7   15.33    0.79
  -3  -4   7   14.11    0.88
  -3   4  -7   13.88    0.73
   3  -4  -7   13.58    0.85
   4  -4   7   15.05    0.86
   4  -4   7   15.29    0.85
  -4   4   7   13.59    0.79
   4   4  -7   16.33    1.03
  -4  -4  -7   15.19    0.65
  -4  -4  -7   14.74    0.78
   4   4  -7   15.67    1.11
  -4   4   7   14.92    0.89
  -4  -4   7   15.41    0.99
  -4   4  -7   14.18    0.77
  -4   4  -7   15.36    0.91
   4  -4  -7   15.76    0.88
   4  -4  -7   15.29    0.96
  -4  -4   7   16.73    1.03
   5  -4   7   21.16    1.14
   5   4  -7   21.76    1.42
  -5   4   7   21.64    1.18
   5   4  -7   21.12    1.30
   5  -4   7   19.67    1.06
  -5   4   7   22.49    1.11
  -5   4  -7   21.51    1.21
  -5  -4   7   22.76    1.31
   5  -4  -7   22.03    1.17
  -5  -4   7   23.29    1.32
   5  -4  -7   20.27    1.27
  -5   4  -7   21.48    1.05
   6  -4   7   31.08    1.43
   6   4  -7   28.51    1.72
  -6   4   7   30.65    1.48
  -6   4   7   30.20    1.57
   6  -4   7   31.54    1.53
  -6  -4   7   30.19    1.69
  -6   4  -7   30.08    1.41
  -6   4  -7   29.75    1.57
   7  -4   7   21.94    1.17
  -7   4   7   21.14    1.27
  -7   4   7   21.91    1.33
   7  -4   7   22.11    1.35
   7   4   7   19.98    0.94
  -7  -4   7   22.55    1.44
  -7   4  -7   23.79    1.40
  -7   4  -7   24.10    1.21
   8  -4   7    1.93    0.42
  -8   4   7    1.64    0.52
  -8   4   7    0.31    0.40
  -8  -4  -7    1.62    0.42
  -8   4  -7    0.93    0.50
  -8   4  -7    1.24    0.35
   8   4   7    0.87    0.31
  -8  -4   7    0.80    0.48
  -9  -4  -7   23.56    1.41
  -9   4   7   20.68    1.56
   9  -4   7   24.28    1.34
  -9   4   7   20.58    1.50
   9   4   7   22.29    1.14
  -9   4  -7   23.23    1.67
  -9   4  -7   23.11    1.34
 -10  -4  -7    8.17    1.06
 -10   4   7    8.41    1.13
 -10   4  -7    9.46    1.34
 -10  -4   7   11.40    1.41
 -10   4  -7    9.50    0.97
 -11   4   7    1.44    0.73
 -11  -4  -7    3.57    0.77
 -11  -4   7    2.31    0.94
 -11   4  -7    3.15    0.68
 -11   4  -7    2.58    0.90
 -12  -4  -7   12.85    1.60
 -12   4   7    8.47    1.29
 -12  -4   7    9.89    1.55
 -12   4  -7   12.94    1.83
 -12   4  -7   11.61    1.35
   0  -5   7    1.54    0.27
   0  -5   7    2.21    0.40
   0   5  -7    1.98    0.42
   0  -5   7    1.54    0.29
   0  -5  -7    2.58    0.35
   0   5   7    1.71    0.26
   0   5  -7    1.80    0.31
   0  -5  -7    1.85    0.27
   1   5  -7   16.48    1.09
   1  -5   7   19.55    1.07
  -1   5   7   18.47    0.89
   1  -5   7   19.36    1.04
  -1  -5  -7   17.71    0.87
   1   5  -7   17.64    1.00
  -1  -5  -7   19.41    0.92
  -1  -5   7   20.01    1.00
  -1   5  -7   17.75    0.97
  -1  -5   7   19.04    1.09
   1  -5  -7   17.96    0.85
  -1   5  -7   18.92    1.07
   1  -5  -7   17.39    0.93
  -1  -5   7   17.72    0.99
  -2  -5  -7   12.30    0.66
  -2  -5  -7   13.07    0.77
   2   5  -7   12.32    0.96
   2  -5   7   12.50    0.73
  -2   5   7   12.92    0.69
  -2  -5  -7   13.12    0.68
   2   5  -7   12.60    0.84
   2  -5   7   11.98    0.84
   2  -5   7   12.98    0.83
  -2   5   7   13.25    0.73
   2  -5  -7   12.08    0.66
  -2  -5   7   11.93    0.81
  -2   5  -7   12.62    0.72
  -2  -5   7   12.65    0.81
  -2   5  -7   12.72    0.78
  -2  -5   7   11.99    0.89
   2  -5  -7   11.60    0.76
  -3  -5  -7    2.77    0.34
  -3   5   7    2.60    0.36
  -3   5   7    2.14    0.34
  -3  -5  -7    2.84    0.36
  -3  -5  -7    3.01    0.44
   3   5  -7    2.46    0.45
   3  -5   7    3.48    0.44
   3   5  -7    2.65    0.55
   3  -5   7    3.23    0.51
  -3   5  -7    3.19    0.43
  -3  -5   7    3.05    0.50
  -3  -5   7    2.80    0.50
  -3   5  -7    2.55    0.34
   3  -5  -7    2.86    0.34
   3  -5  -7    2.34    0.39
   4   5  -7   23.06    1.38
   4   5  -7   23.43    1.49
   4  -5   7   23.35    1.22
  -4   5   7   24.69    1.24
   4  -5   7   25.25    1.22
  -4   5   7   24.07    1.10
  -4  -5  -7   22.75    1.12
  -4  -5   7   23.93    1.34
  -4  -5   7   23.54    1.37
  -4   5  -7   25.19    1.16
   4  -5  -7   23.59    1.31
  -4   5  -7   25.25    1.24
   4  -5  -7   24.97    1.17
   5  -5   7   18.18    1.07
  -5   5   7   16.96    0.93
  -5  -5  -7   18.89    0.99
  -5   5   7   17.03    1.05
   5  -5   7   18.44    1.03
   5   5  -7   17.36    1.20
   5   5  -7   17.61    1.37
  -5  -5   7   17.49    1.19
  -5  -5   7   18.90    1.21
  -5   5  -7   18.42    0.95
   5  -5  -7   17.90    1.18
  -5   5  -7   18.42    1.06
  -6   5   7    1.33    0.36
   6  -5   7    1.22    0.40
   6  -5   7    1.32    0.35
   6   5  -7    1.91    0.51
  -6  -5  -7    2.04    0.40
  -6  -5   7    1.31    0.47
  -6  -5   7    1.22    0.42
  -6   5  -7    1.14    0.28
   6  -5  -7    1.66    0.54
  -6   5  -7    1.06    0.33
   7  -5   7   26.34    1.39
  -7   5   7   26.91    1.41
   7  -5   7   26.12    1.52
  -7   5   7   26.79    1.51
  -7   5  -7   25.38    1.49
  -7   5  -7   27.21    1.36
  -7  -5   7   24.59    1.62
   8  -5   7    4.24    0.63
   8  -5   7    4.93    0.79
  -8   5   7    4.32    0.67
  -8   5   7    4.99    0.76
  -8   5  -7    4.98    0.64
  -8  -5   7    5.89    0.95
  -8   5  -7    4.70    0.86
   8   5   7    4.46    0.59
  -9   5   7    6.51    0.92
  -9   5   7    6.58    1.13
  -9  -5  -7    6.59    0.89
   9  -5   7    5.97    0.88
  -9  -5   7    6.01    1.04
   9   5   7    6.16    0.74
  -9   5  -7    7.13    1.06
  -9   5  -7    4.75    0.69
  10  -5   7   21.74    1.47
 -10  -5  -7   20.57    1.52
 -10   5   7   22.33    1.58
 -10   5  -7   19.68    1.69
 -10   5  -7   20.07    1.36
 -11  -5  -7    3.42    0.84
  11  -5   7    5.65    0.91
 -11   5   7    5.29    0.91
 -11   5  -7    4.19    0.76
 -11  -5   7    4.34    1.10
 -11   5  -7    5.03    1.09
 -12   5   7    5.39    1.05
 -12  -5  -7    3.54    0.94
 -12   5  -7    4.38    0.88
 -12  -5   7    1.23    1.13
 -12   5  -7    4.98    1.28
   0  -6  -7   -0.07    0.19
   0   6  -7    0.36    0.33
   0  -6   7   -0.03    0.26
   0   6  -7   -0.04    0.18
   0  -6   7    0.26    0.23
   0  -6  -7    0.12    0.14
   0  -6   7    0.05    0.21
   0   6   7    0.15    0.15
   1  -6   7   24.85    1.24
  -1  -6  -7   22.90    1.13
  -1  -6  -7   22.39    1.07
   1   6  -7   23.01    1.34
   1   6  -7   23.21    1.23
  -1  -6  -7   20.73    1.09
   1  -6   7   23.93    1.17
  -1   6   7   25.45    1.14
   1  -6   7   22.46    1.29
  -1   6  -7   24.77    1.33
  -1  -6   7   21.99    1.18
  -1  -6   7   23.44    1.32
  -1  -6   7   23.14    1.21
   1  -6  -7   23.78    1.02
  -1   6  -7   22.07    1.16
   1  -6  -7   24.53    1.18
  -2   6   7   16.04    0.87
  -2  -6  -7   15.25    0.88
   2  -6   7   16.38    0.91
  -2   6   7   15.82    0.80
  -2  -6  -7   14.66    0.82
   2   6  -7   16.57    1.00
   2   6  -7   13.90    1.10
   2  -6   7   16.63    1.03
  -2  -6  -7   14.90    0.83
   2  -6   7   15.02    0.97
  -2  -6   7   14.07    0.95
  -2  -6   7   16.57    1.10
   2  -6  -7   16.13    0.77
  -2   6  -7   15.51    0.89
  -2  -6   7   16.33    0.96
   2  -6  -7   15.80    0.95
  -2   6  -7   16.26    0.89
   3  -6   7    2.01    0.38
  -3  -6  -7    1.91    0.31
  -3  -6  -7    1.60    0.33
   3  -6   7    1.95    0.43
  -3  -6  -7    2.41    0.41
   3   6  -7    1.23    0.33
  -3   6   7    1.53    0.27
   3   6  -7    1.73    0.58
  -3  -6   7    2.16    0.43
   3  -6  -7    1.79    0.29
  -3   6  -7    1.50    0.29
   3  -6  -7    2.11    0.40
  -3  -6   7    1.60    0.43
  -3   6  -7    1.73    0.33
   4   6  -7   24.36    1.57
  -4  -6  -7   24.60    1.24
   4  -6   7   25.78    1.37
   4  -6   7   27.06    1.35
  -4   6   7   25.18    1.13
  -4  -6  -7   26.09    1.20
   4   6  -7   23.66    1.44
  -4   6   7   26.35    1.33
  -4   6  -7   27.54    1.31
  -4   6  -7   26.05    1.26
  -4  -6   7   25.91    1.50
  -4  -6   7   26.49    1.44
   4  -6  -7   25.38    1.44
   4  -6  -7   27.52    1.22
  -5   6   7   18.80    0.96
  -5  -6  -7   21.66    1.13
   5  -6   7   19.19    1.19
   5   6  -7   19.56    1.33
  -5   6   7   19.91    1.17
   5  -6   7   19.17    1.13
  -5  -6  -7   19.19    0.95
   5  -6  -7   19.14    1.33
  -5   6  -7   19.15    1.06
  -5  -6   7   19.41    1.30
  -5  -6   7   19.59    1.30
  -5   6  -7   21.43    1.14
   6  -6   7    8.89    0.95
  -6  -6  -7    8.29    0.58
  -6   6   7    8.55    0.80
  -6  -6  -7    7.58    0.81
   6  -6   7    9.08    0.78
  -6   6   7   10.17    0.69
   6   6  -7    8.03    0.98
  -6   6  -7    9.64    0.70
  -6  -6   7    5.95    1.05
   6  -6  -7    6.39    1.03
  -6  -6   7    8.02    0.91
  -6   6  -7    9.33    0.77
   7  -6   7    2.47    0.67
   7  -6   7    3.01    0.51
  -7   6   7    3.71    0.64
  -7  -6  -7    1.98    0.35
  -7   6   7    2.47    0.51
  -7   6  -7    2.00    0.42
  -7  -6   7    1.08    0.50
  -7   6  -7    1.34    0.39
  -8   6   7    0.57    0.46
   8  -6   7    0.67    0.45
  -8   6   7    0.82    0.45
   8  -6   7   -0.15    0.64
  -8  -6   7    0.65    0.58
  -8   6  -7   -0.06    0.37
  -8   6  -7    0.10    0.32
  -9   6   7   10.30    1.19
  -9   6   7    8.67    1.06
   9  -6   7    8.07    1.02
  -9   6  -7   10.35    0.96
  -9   6  -7    7.22    1.04
  -9  -6   7    8.75    1.28
 -10  -6  -7    9.26    1.21
  10  -6   7   10.20    1.25
 -10   6   7    7.06    1.21
 -10  -6   7   11.47    1.43
 -10   6  -7    8.71    1.03
 -10   6  -7    7.84    1.31
 -11   6   7    5.99    1.05
  11  -6   7    7.80    1.13
 -11  -6  -7    9.72    1.43
 -11   6  -7    8.92    1.24
 -11   6  -7    8.45    1.17
   0  -7   7    9.29    0.74
   0   7   7   10.06    0.67
   0  -7  -7   10.01    0.55
   0  -7  -7    9.16    0.71
   0  -7   7   10.10    0.88
   0   7  -7    9.59    0.72
   0  -7   7   10.06    0.76
   0   7  -7    9.55    0.94
   1  -7   7   66.57    2.75
   1   7  -7   67.64    2.79
   1  -7   7   64.57    2.86
  -1   7   7   66.25    2.67
  -1  -7  -7   66.29    2.66
  -1  -7  -7   67.67    2.57
   1   7  -7   66.30    2.92
  -1  -7  -7   67.15    2.70
   1  -7   7   64.26    2.71
  -1   7  -7   63.20    2.85
   1  -7  -7   63.93    2.70
  -1  -7   7   63.67    2.70
  -1  -7   7   63.42    2.88
   1  -7  -7   70.78    2.50
  -1  -7   7   64.51    2.74
  -1   7  -7   65.91    2.71
  -2  -7  -7   19.50    0.99
   2  -7   7   17.07    1.04
   2   7  -7   18.14    1.10
  -2  -7  -7   19.53    1.00
   2   7  -7   19.71    1.34
  -2   7   7   16.09    0.97
   2  -7   7   17.40    1.16
  -2  -7  -7   19.53    1.00
   2  -7   7   16.70    1.08
  -2  -7   7   19.34    1.24
   2  -7  -7   16.38    1.06
  -2   7  -7   17.68    1.02
  -2  -7   7   16.15    1.04
  -2  -7   7   19.40    1.16
  -2   7  -7   18.01    1.00
   3  -7   7    7.78    0.75
   3   7  -7    6.06    1.01
  -3  -7  -7    9.29    0.72
  -3  -7  -7    9.62    0.70
  -3   7   7    7.92    0.67
   3  -7   7    9.98    0.90
  -3  -7  -7   10.58    0.76
   3   7  -7    9.33    0.81
  -3  -7   7   10.16    0.83
  -3   7  -7    7.41    0.64
   3  -7  -7    8.83    0.84
  -3  -7   7    9.21    0.90
  -3  -7   7    9.24    0.89
  -3   7  -7    8.39    0.67
   4   7  -7    9.69    0.90
   4  -7   7   10.94    0.91
  -4   7   7   10.44    0.78
  -4  -7  -7    9.58    0.75
  -4  -7  -7    9.15    0.72
   4  -7   7   11.49    0.91
  -4   7   7   10.88    0.58
  -4  -7   7   11.49    0.97
  -4   7  -7    8.99    0.72
  -4  -7   7    9.31    0.93
  -4   7  -7    9.77    0.75
   4  -7  -7    9.72    0.96
  -5   7   7   10.48    0.64
  -5   7   7   10.43    0.83
   5  -7   7   10.49    0.98
  -5  -7  -7   11.08    0.90
   5  -7   7   10.52    0.91
   5   7  -7   11.84    1.10
  -5  -7  -7   12.53    0.79
   5  -7  -7   10.06    1.10
  -5  -7   7   10.66    1.06
  -5   7  -7   11.69    0.81
  -5   7  -7   13.43    0.86
  -5  -7   7   11.25    1.01
  -6  -7  -7   13.82    0.83
  -6   7   7   13.95    1.01
  -6  -7  -7   14.33    1.11
  -6   7   7   12.95    0.79
   6  -7   7   13.32    1.19
   6  -7   7   13.99    1.04
  -6  -7   7   13.92    1.19
  -6   7  -7   14.47    0.95
  -6   7  -7   14.60    0.95
  -7  -7  -7   14.44    1.23
  -7  -7  -7   14.04    0.87
  -7   7   7   14.24    1.13
  -7   7   7   15.10    0.92
   7  -7   7   11.85    1.34
   7  -7   7   14.69    1.13
  -7   7  -7   13.70    1.02
  -7   7  -7   14.13    0.98
  -7  -7   7   14.61    1.27
  -8  -7  -7    4.89    0.63
   8  -7   7    6.11    0.92
  -8  -7  -7    3.19    0.82
  -8   7   7    3.67    0.65
  -8   7   7    5.91    0.88
  -8   7  -7    5.06    0.76
  -8   7  -7    3.44    0.59
  -8  -7   7    5.06    0.89
   9  -7   7   13.54    1.29
  -9   7   7   13.35    1.26
  -9  -7   7   12.58    1.42
  -9   7  -7   12.80    1.13
  -9   7  -7   13.46    1.15
 -10   7   7   22.54    1.74
  10  -7   7   22.14    1.72
 -10  -7   7   20.91    1.91
 -10   7  -7   23.66    1.58
 -10   7  -7   21.09    1.61
  11  -7   7    0.18    0.90
 -11  -7  -7    0.92    0.87
 -11   7   7   -0.66    0.79
 -11   7  -7   -1.12    0.73
 -11   7  -7   -0.53    0.67
   0   8  -7    0.37    0.50
   0   8  -7    0.28    0.25
   0  -8  -7    0.63    0.17
   0  -8  -7    0.56    0.27
   0  -8   7    0.10    0.33
   0  -8   7    0.17    0.31
   0  -8  -7    0.67    0.34
   0   8   7    0.51    0.25
   0  -8   7    0.61    0.41
   1  -8   7   15.72    1.01
   1   8  -7   14.55    1.25
  -1  -8  -7   14.69    0.94
   1  -8   7   13.36    1.10
  -1  -8  -7   14.70    0.94
  -1   8   7   13.89    0.89
   1   8  -7   14.09    0.97
   1  -8   7   13.92    0.98
  -1  -8  -7   14.90    0.75
   1  -8  -7   13.19    0.67
  -1   8  -7   14.92    1.18
  -1  -8   7   13.51    0.94
   1  -8  -7   14.19    1.00
  -1  -8   7   12.43    1.07
  -1   8  -7   14.12    0.89
  -1  -8   7   13.24    1.01
  -2  -8  -7    0.40    0.23
  -2  -8  -7    0.57    0.29
   2  -8   7    0.73    0.48
  -2   8   7    0.48    0.23
   2  -8   7    0.16    0.35
   2   8  -7    0.68    0.64
  -2  -8  -7    0.80    0.34
   2   8  -7    0.41    0.31
   2  -8   7    0.39    0.34
  -2  -8   7    0.54    0.35
   2  -8  -7    0.61    0.15
  -2  -8   7    0.85    0.44
   2  -8  -7    1.53    0.40
  -2   8  -7    0.48    0.26
  -2  -8   7    1.20    0.45
   3  -8   7    2.68    0.58
  -3  -8  -7    2.43    0.46
   3  -8   7    2.29    0.48
   3   8  -7    1.87    0.67
   3   8  -7    2.10    0.48
  -3  -8  -7    1.51    0.39
  -3  -8  -7    1.87    0.40
  -3   8   7    1.98    0.39
  -3  -8   7    2.33    0.63
  -3  -8   7    3.04    0.52
  -3  -8   7    1.33    0.51
   3  -8  -7    2.19    0.55
  -3   8  -7    1.66    0.35
  -4  -8  -7   16.04    1.07
  -4   8   7   17.52    1.07
   4  -8   7   15.33    1.21
   4   8  -7   16.80    1.23
   4  -8   7   19.01    1.27
  -4  -8  -7   17.04    1.06
  -4   8  -7   16.71    1.01
  -4   8  -7   16.25    1.03
   4  -8  -7   17.58    1.27
  -4  -8   7   12.43    1.32
  -4  -8   7   14.70    1.24
  -4  -8   7   18.02    1.25
  -5   8   7   10.03    0.56
  -5  -8  -7   11.06    0.85
   5  -8   7   12.66    1.06
   5   8  -7   11.42    1.12
  -5  -8  -7   11.00    0.94
   5  -8   7    9.21    0.94
  -5   8   7   10.29    0.89
  -5   8  -7   11.66    0.88
  -5   8  -7    9.79    0.82
  -5  -8   7    9.41    1.03
   6  -8   7    5.12    0.81
  -6  -8  -7    3.87    0.53
  -6   8   7    4.39    0.48
   6  -8   7    3.83    0.82
  -6   8   7    3.98    0.68
  -6  -8  -7    4.32    0.69
  -6   8  -7    5.52    0.70
  -6  -8   7    2.90    0.64
  -6   8  -7    5.12    0.68
  -7  -8  -7    3.02    0.70
  -7  -8  -7    1.15    0.41
  -7   8   7    1.31    0.44
   7  -8   7    1.54    0.56
  -7   8   7    1.59    0.35
  -7   8  -7    1.17    0.41
  -7  -8   7    1.32    0.67
  -7   8  -7    1.27    0.44
   8  -8   7    3.48    0.72
  -8  -8  -7    3.40    0.54
  -8   8   7    2.80    0.65
  -8  -8   7    1.76    0.67
  -8   8  -7    2.47    0.54
  -8   8  -7    4.49    0.79
  -9   8   7    0.49    0.58
   9  -8   7    2.03    0.75
  -9   8  -7    1.69    0.59
  -9  -8   7    1.89    0.79
  -9   8  -7    1.48    0.54
 -10   8   7    5.52    0.95
  10  -8   7    7.32    1.12
 -10   8  -7    5.37    0.87
 -10   8  -7    7.39    1.17
 -10  -8   7    7.69    1.33
   0   9  -7    0.32    0.62
   0  -9   7    1.49    0.56
   0   9   7    1.52    0.38
   0  -9  -7    1.00    0.37
   0  -9  -7    1.44    0.44
   0  -9   7    1.68    0.42
   0   9  -7    0.90    0.35
   0  -9   7    1.39    0.51
  -1  -9  -7   18.00    1.16
   1   9  -7   18.77    1.15
  -1  -9  -7   17.96    1.12
   1   9  -7   17.43    1.47
   1  -9   7   15.11    1.26
  -1   9   7   17.52    1.08
  -1  -9  -7   18.02    0.86
   1  -9   7   19.04    1.16
   1  -9   7   17.04    1.21
   1  -9  -7   17.58    1.23
  -1  -9   7   16.13    1.30
  -1  -9   7   17.44    1.26
   1  -9  -7   17.36    1.15
  -1   9  -7   18.34    1.06
  -1  -9   7   16.48    1.09
  -2   9   7    1.23    0.32
  -2  -9  -7    1.47    0.47
   2  -9   7    1.77    0.53
   2  -9   7    1.64    0.49
   2  -9   7    1.78    0.60
   2   9  -7    1.79    0.46
  -2  -9  -7    1.27    0.30
   2  -9  -7    1.89    0.55
  -2   9  -7    1.77    0.37
  -2  -9   7    0.84    0.48
  -2  -9   7    1.52    0.46
  -2  -9   7    1.91    0.63
   3   9  -7    1.11    0.42
   3  -9   7    1.08    0.55
  -3   9   7    1.66    0.39
  -3  -9  -7    1.49    0.47
  -3  -9  -7    1.26    0.38
  -3  -9  -7    1.91    0.49
   3  -9   7    1.35    0.53
   3  -9  -7    1.43    0.56
  -3  -9   7    1.85    0.62
  -3  -9   7    2.22    0.51
  -3   9  -7    1.33    0.40
  -3   9  -7    1.20    0.31
  -4  -9  -7    0.23    0.37
  -4  -9  -7   -0.19    0.44
  -4  -9  -7    0.78    0.43
   4  -9   7    1.28    0.57
   4   9  -7    1.08    0.51
   4  -9   7    0.09    0.51
  -4   9   7    0.54    0.31
  -4   9  -7   -0.29    0.28
  -4  -9   7    0.91    0.54
  -4   9  -7    0.01    0.27
  -4  -9   7   -0.48    0.50
  -5  -9  -7    0.06    0.53
  -5  -9  -7    0.64    0.44
  -5   9   7    0.41    0.39
   5  -9   7    0.43    0.49
  -5   9  -7    0.15    0.34
  -5   9  -7    0.53    0.37
  -5  -9   7    0.61    0.54
  -6  -9  -7    0.85    0.60
  -6   9   7    0.63    0.40
  -6  -9  -7   -0.25    0.41
   6  -9   7    1.49    0.54
  -6   9  -7    1.14    0.44
  -6   9  -7    0.63    0.39
  -6  -9   7    0.69    0.51
  -7   9   7    0.99    0.46
  -7  -9  -7    0.07    0.44
   7  -9   7    0.68    0.60
  -7   9  -7    0.06    0.45
  -7   9  -7    0.43    0.45
  -7  -9   7   -0.55    0.59
   8  -9   7    2.97    0.76
  -8   9   7    1.62    0.56
  -8  -9  -7    2.71    0.59
  -8  -9   7    3.29    0.82
  -8   9  -7    2.67    0.62
  -8   9  -7    3.18    0.60
   9  -9   7    4.08    0.92
  -9   9   7    4.45    0.80
  -9   9  -7    2.70    0.69
  -9  -9   7    3.95    0.98
  -9   9  -7    3.63    0.76
 -10   9   7    2.12    0.87
  10  -9   7    3.50    1.04
 -10   9  -7    4.35    0.83
 -10   9  -7    3.45    0.84
 -10  -9   7    4.13    1.18
   0 -10   7    8.16    0.88
   0 -10  -7    6.19    0.82
   0 -10  -7    8.46    1.01
   0  10  -7    6.76    0.76
   0  10   7    8.14    0.86
   0 -10   7    7.00    1.04
   1 -10   7   22.06    1.63
  -1  10   7   26.35    1.43
   1 -10   7   27.20    1.47
  -1 -10  -7   25.71    1.09
  -1 -10  -7   25.79    1.52
  -1 -10  -7   25.37    1.48
   1  10  -7   26.65    1.47
   1 -10  -7   23.12    1.48
   1 -10  -7   23.74    1.59
  -1 -10   7   20.85    1.63
  -1 -10   7   26.38    1.44
  -1  10  -7   24.84    1.38
  -2 -10  -7    3.08    0.43
  -2  10   7    2.84    0.53
   2 -10   7    2.64    0.58
   2  10  -7    4.09    0.75
   2 -10   7    3.70    0.76
  -2 -10  -7    3.18    0.63
   2 -10  -7    3.70    0.73
  -2  10  -7    3.96    0.58
  -2 -10   7    2.59    0.66
  -2 -10   7    3.75    0.62
   2 -10  -7    2.39    0.57
  -3 -10  -7    6.89    0.71
   3 -10   7    7.89    1.18
  -3 -10  -7    7.63    0.98
  -3  10   7    8.07    0.83
   3  10  -7    5.98    0.91
  -3 -10  -7    8.45    1.00
  -3 -10   7    6.95    1.07
  -3  10  -7    8.27    0.89
  -3  10  -7    6.07    0.69
  -3 -10   7    5.50    0.79
  -4 -10  -7    0.55    0.51
  -4  10   7    0.16    0.37
  -4 -10  -7   -0.18    0.56
   4  10  -7    0.56    0.54
  -4 -10  -7    0.56    0.43
   4 -10   7    1.61    0.67
  -4  10  -7   -0.01    0.31
  -4  10  -7    1.19    0.42
  -4 -10   7    1.16    0.63
  -5  10   7    0.30    0.37
  -5 -10  -7    0.03    0.52
   5 -10   7    1.59    0.69
  -5  10  -7   -0.28    0.32
  -5  10  -7    0.01    0.38
  -5 -10   7   -1.01    0.56
   6 -10   7    2.42    0.74
  -6 -10  -7    0.69    0.55
  -6  10   7    2.38    0.55
  -6 -10   7    1.21    0.68
  -6  10  -7    1.52    0.46
  -6  10  -7    1.70    0.51
  -7  10   7   -0.57    0.48
  -7 -10  -7    0.00    0.52
   7 -10   7    0.10    0.65
  -7 -10   7   -0.68    0.69
  -7  10  -7    1.13    0.51
  -7  10  -7   -0.26    0.48
  -8  10   7   -0.41    0.57
  -8 -10  -7    0.64    0.60
   8 -10   7    1.06    0.81
  -8  10  -7    0.25    0.57
  -8 -10   7    0.18    0.81
  -8  10  -7    0.19    0.59
  -9  10   7    2.43    0.79
   9 -10   7    3.52    1.03
  -9  10  -7    4.39    0.83
  -9  10  -7    3.37    0.83
  -9 -10   7    3.13    1.02
   0 -11  -7    0.38    0.45
   0 -11   7   -0.04    0.62
   0  11  -7    0.58    0.38
   0 -11   7    1.04    0.51
   1  11  -7    6.18    0.85
   1 -11   7    4.96    0.93
  -1 -11  -7    5.96    0.53
   1 -11   7    6.69    1.07
  -1  11   7    5.69    0.87
  -1 -11  -7    5.51    0.87
  -1 -11   7    6.34    1.04
   1 -11  -7    6.35    0.92
  -1  11  -7    5.63    0.75
  -1 -11   7    5.35    0.91
  -2 -11  -7   21.22    1.53
   2 -11   7   19.69    1.38
   2  11  -7   19.86    1.37
   2 -11   7   22.11    1.71
  -2 -11  -7   16.79    1.13
  -2 -11  -7   17.24    0.93
  -2  11   7   16.89    1.24
  -2 -11   7   18.50    1.56
  -2  11  -7   19.00    1.18
  -2 -11   7   15.59    1.32
   2 -11  -7   15.83    1.37
  -3 -11  -7    4.11    0.82
  -3  11   7    3.02    0.57
  -3 -11  -7    3.59    0.54
   3 -11   7    5.72    1.04
   3  11  -7    3.61    0.71
  -3 -11  -7    4.28    0.73
   3 -11  -7    3.71    0.78
  -3  11  -7    4.28    0.67
  -3 -11   7    3.75    0.89
  -4  11   7    5.30    0.85
  -4 -11  -7    3.65    0.80
   4 -11   7    5.65    1.04
  -4 -11  -7    4.13    0.69
  -4 -11  -7    4.45    0.84
  -4  11  -7    4.22    0.69
  -4  11  -7    3.97    0.74
  -4 -11   7    4.51    0.93
  -5 -11  -7    0.05    0.55
  -5  11   7    0.34    0.47
  -5 -11  -7    0.28    0.64
  -5 -11  -7    0.29    0.85
   5 -11   7    2.79    0.90
  -5 -11   7   -0.24    0.66
  -5  11  -7    0.92    0.49
  -5  11  -7    0.59    0.40
  -6 -11  -7    1.34    0.69
   6 -11   7    3.49    0.92
  -6  11   7    1.71    0.62
  -6 -11   7    0.13    0.70
  -7  11   7    0.83    0.64
   7 -11   7    0.42    0.78
  -7 -11  -7   -0.99    0.62
  -7 -11   7    0.10    0.72
  -7  11  -7    0.40    0.61
  -8  11   7    1.55    0.75
   8 -11   7    0.84    0.94
  -8 -11   7   -0.62    0.84
  -8  11  -7    0.32    0.70
   0  12  -7    0.83    0.48
   0 -12   7    0.93    0.78
   0 -12  -7    1.08    0.59
   1 -12   7    3.50    0.92
   1 -12   7    2.80    0.73
  -1  12   7    3.64    0.71
   1  12  -7    3.52    0.68
  -1 -12   7    2.90    0.82
  -1 -12   7    4.78    0.77
   1 -12  -7    2.84    0.69
  -1  12  -7    4.59    0.78
  -2 -12  -7    7.25    0.55
  -2 -12  -7    8.11    1.39
   2  12  -7    6.69    1.10
   2 -12   7    6.03    1.07
  -2 -12   7    6.07    1.08
   2 -12  -7    5.91    0.91
  -2  12  -7    7.70    0.85
  -2 -12   7    4.79    0.80
  -3 -12  -7   15.57    1.57
   3 -12   7   18.61    1.80
  -3  12   7   14.38    1.25
  -3 -12  -7   13.66    0.93
  -3  12  -7   15.32    1.12
  -3 -12   7   13.73    1.58
   3 -12  -7   16.05    1.48
  -4 -12  -7    2.95    0.63
  -4  12   7    2.52    0.59
   4 -12   7    5.28    1.13
  -4 -12  -7    2.96    0.89
   4 -12  -7    3.15    0.84
  -4  12  -7    4.77    0.80
  -4 -12   7    4.57    1.06
   5 -12   7    3.94    1.15
  -5  12   7    2.68    0.67
  -5 -12  -7    3.33    0.72
  -5 -12  -7    2.16    0.85
  -5  12  -7    2.62    0.76
  -5  12  -7    2.56    0.54
  -5 -12   7    0.70    0.88
  -6 -12  -7    8.29    1.38
  -6  12   7    7.21    1.17
  -6  12  -7    5.88    0.92
  -6 -12   7    6.59    1.25
  -7 -12  -7   -1.09    1.14
  -7  12   7    0.65    0.80
  -7 -12   7    0.54    0.92
  -7  12  -7    0.79    0.72
   0 -13   7    0.69    0.98
   0 -13  -7   -0.09    0.66
   0  13  -7    0.28    0.58
   1 -13   7    5.53    1.16
   1  13  -7    4.33    0.79
  -1 -13   7    3.89    0.98
   1 -13  -7    4.39    0.86
  -1  13  -7    4.04    0.68
  -2  13   7    1.94    0.71
   2 -13   7    2.63    1.09
  -2 -13  -7    3.79    1.05
   2 -13  -7    2.30    0.82
  -2  13  -7    3.06    0.61
  -2 -13   7    2.04    0.84
  -3  13   7    1.24    0.63
   3 -13   7    3.26    1.12
  -3 -13  -7    1.18    0.89
   3 -13  -7    0.83    0.77
  -3  13  -7    2.02    0.86
  -3 -13   7    0.57    0.86
  -4 -13  -7    3.96    1.06
   4 -13   7    5.14    1.32
   4 -13  -7    3.46    1.01
  -4 -13   7    4.51    1.27
  -5 -13  -7    3.32    1.08
  -5  13   7    3.12    0.78
   5 -13   7    5.11    1.39
   5 -13  -7    4.59    1.14
  -5  13  -7    2.98    0.84
  -5 -13   7    0.74    0.97
  -6  13   7    4.39    0.91
   6 -13   7    8.36    1.69
  -6 -13  -7    4.37    1.13
  -6 -13   7    1.61    1.13
  -6  13  -7    4.83    1.02
   6 -13  -7    1.95    1.06
   0 -14   7    6.81    1.43
   1 -14   7    6.08    1.42
  -1 -14  -7    5.79    1.33
   1 -14  -7    4.04    0.98
  -1 -14   7    4.57    1.24
   2 -14   7    9.62    1.55
  -2 -14  -7   10.41    1.51
   2 -14  -7    8.32    1.22
  -2 -14   7    6.65    1.29
  -3 -14  -7    4.74    1.26
   3 -14   7    6.17    1.49
  -3  14   7    6.91    1.11
  -3 -14   7    2.55    1.19
   3 -14  -7    4.26    1.07
  -4  14   7    0.47    0.76
  -4 -14  -7    0.03    1.12
   4 -14   7    3.25    1.37
   4 -14  -7    1.28    0.99
  -4 -14   7    2.23    1.27
   0   0  -8  121.58    4.41
   0   0   8  122.22    4.46
   0   0   8  110.68    4.15
   0   0  -8  114.44    4.31
   1   0  -8    4.08    0.41
   1   0  -8    2.89    0.35
  -1   0  -8    3.45    0.37
  -1   0   8    3.59    0.40
  -1   0  -8    3.27    0.31
   1   0   8    3.21    0.44
  -1   0   8    2.76    0.27
  -2   0   8    0.63    0.22
  -2   0   8    0.40    0.17
  -2   0  -8    0.72    0.13
   2   0  -8    0.76    0.25
   2   0  -8    0.85    0.24
  -2   0  -8    0.51    0.18
  -3   0   8    3.38    0.42
  -3   0  -8    2.61    0.40
   3   0  -8    3.40    0.52
  -3   0   8    2.82    0.37
   3   0  -8    3.47    0.41
   4   0  -8   31.18    1.58
  -4   0  -8   28.43    1.18
  -4   0   8   32.41    1.47
   4   0  -8   29.33    1.51
  -4   0   8   32.38    1.50
  -4   0  -8   30.97    1.54
  -5   0  -8    0.93    0.36
   5   0  -8    1.13    0.32
  -5   0   8    0.75    0.33
  -5   0   8    1.22    0.38
  -5   0  -8    0.95    0.18
   5   0  -8    0.95    0.43
  -6   0   8    3.17    0.57
  -6   0  -8    2.23    0.36
   6   0  -8    3.25    0.60
  -6   0   8    3.33    0.59
  -6   0  -8    3.82    0.65
   6   0  -8    4.33    0.75
  -7   0   8    0.76    0.45
  -7   0   8   -0.24    0.34
  -7   0  -8    0.56    0.39
  -7   0  -8   -0.04    0.22
   8   0   8    9.65    0.57
  -8   0  -8    8.31    0.72
  -8   0  -8    9.86    1.07
  -8   0   8    9.39    1.03
   8   0   8    9.20    0.54
  -9   0  -8    2.13    0.50
   9   0   8    2.93    0.40
  -9   0   8    2.31    0.65
 -10   0   8   27.22    1.86
 -10   0  -8   23.94    1.48
 -11   0  -8    8.07    1.06
 -11   0   8   11.12    1.57
 -12   0   8    5.74    1.13
 -12   0  -8    2.55    0.76
   0  -1   8    3.21    0.33
   0   1   8    4.62    0.46
   0  -1   8    3.24    0.25
   0  -1  -8    4.02    0.40
   0   1  -8    3.66    0.38
   0  -1   8    4.04    0.43
   0   1   8    3.63    0.21
   0   1  -8    4.14    0.40
   0  -1  -8    3.97    0.36
  -1  -1  -8    5.30    0.44
  -1  -1  -8    4.91    0.35
  -1   1   8    5.57    0.49
   1   1  -8    5.07    0.47
   1  -1   8    5.71    0.38
  -1   1   8    5.15    0.33
   1   1  -8    5.51    0.45
   1  -1   8    5.33    0.53
  -1   1  -8    5.20    0.41
   1   1   8    4.23    0.49
   1  -1  -8    5.21    0.46
   1  -1  -8    5.24    0.43
  -1  -1   8    4.53    0.47
  -1  -1   8    4.81    0.43
  -1   1  -8    5.50    0.47
   2   1  -8   11.68    0.80
  -2   1   8   12.32    0.73
   2  -1   8   12.64    0.86
   2  -1   8   12.40    0.60
  -2  -1  -8   12.07    0.74
  -2   1   8   12.91    0.67
   2   1  -8   12.59    0.77
  -2  -1   8   12.01    0.76
  -2  -1   8   12.48    0.77
  -2   1  -8   12.88    0.62
  -2   1  -8   13.24    0.77
   2  -1  -8   12.30    0.74
  -3   1   8   14.38    0.79
   3   1  -8   13.98    0.87
  -3  -1  -8   13.54    0.86
   3  -1   8   14.37    0.63
   3   1  -8   15.27    0.95
  -3   1   8   13.65    0.81
  -3  -1   8   14.59    0.86
   3  -1  -8   13.50    0.83
   3  -1  -8   14.71    0.92
  -3  -1   8   14.70    0.88
  -3   1  -8   13.76    0.85
  -3   1  -8   13.78    0.58
  -4   1   8   19.02    1.02
   4   1  -8   19.07    1.17
   4  -1   8   17.63    0.76
  -4   1   8   19.43    1.05
  -4  -1  -8   18.20    0.77
  -4  -1  -8   18.45    1.10
   4   1  -8   19.61    1.11
  -4  -1   8   19.64    1.09
  -4  -1   8   20.23    1.12
  -4   1  -8   19.69    1.09
   4  -1  -8   19.20    1.18
  -4   1  -8   17.07    0.79
   4  -1  -8   18.81    1.07
   5   1  -8  126.87    5.09
  -5   1   8  130.72    4.96
   5  -1   8  125.10    4.60
  -5   1   8  132.41    4.95
  -5  -1  -8  123.82    5.05
   5   1  -8  124.85    5.06
  -5  -1  -8  127.94    4.68
   5  -1  -8  133.06    5.06
   5  -1  -8  125.40    5.06
  -5   1  -8  135.69    4.70
  -5   1  -8  132.31    5.06
  -5  -1   8  129.69    4.98
  -5  -1   8  128.05    5.00
  -6  -1  -8   14.72    1.08
   6  -1   8   12.62    0.64
   6   1  -8   14.46    1.21
  -6  -1  -8   14.83    0.77
   6   1  -8   13.17    1.03
  -6   1   8   13.10    0.97
  -6   1   8   12.71    0.99
  -6   1  -8   13.11    1.03
  -6  -1   8   13.45    1.00
   6  -1  -8   14.58    1.21
  -6  -1   8   13.58    1.05
   6  -1  -8   14.14    1.03
  -6   1  -8   13.00    0.73
  -7   1   8   40.51    2.02
   7   1  -8   39.65    2.11
  -7  -1  -8   39.78    1.73
  -7   1   8   37.87    1.99
   7  -1   8   37.57    1.57
  -7   1  -8   41.07    2.08
  -7   1  -8   39.24    1.72
   7  -1  -8   43.02    3.08
  -7  -1   8   37.20    2.03
  -7  -1   8   40.30    2.02
   8  -1   8    7.16    0.53
  -8   1   8    6.00    1.01
  -8  -1  -8    7.62    0.72
   8  -1   8    8.10    0.63
  -8   1  -8    7.79    0.65
  -8  -1   8    6.39    0.94
  -8   1  -8    8.02    0.99
   9  -1   8   12.26    0.76
   9  -1   8   12.79    0.87
  -9   1   8   12.10    1.23
  -9  -1  -8   12.89    0.99
  -9  -1   8   11.60    1.23
   9   1   8   11.78    0.67
  -9   1  -8   11.15    0.90
  -9   1  -8   12.17    1.30
 -10   1   8    1.86    0.71
 -10  -1  -8    1.45    0.57
 -10  -1   8    1.52    0.71
 -10   1  -8    2.20    0.50
 -10   1  -8    1.75    0.75
 -11   1   8    4.33    0.99
 -11  -1  -8    3.88    0.74
 -11   1  -8    5.12    0.91
 -11   1  -8    4.72    1.14
 -11  -1   8    4.63    1.05
 -12  -1  -8   -0.09    0.72
 -12   1   8    0.55    0.96
 -12   1  -8    1.48    1.04
 -12   1  -8    1.98    0.70
 -12  -1   8    0.32    1.01
   0   2   8   33.90    1.37
   0  -2  -8   37.97    1.59
   0   2  -8   37.61    1.64
   0  -2   8   38.40    1.45
   0   2  -8   35.85    1.60
   0  -2  -8   35.94    1.52
   0  -2   8   38.18    1.67
   0  -2   8   39.22    1.60
   0   2   8   35.71    1.64
   1  -2   8   47.97    2.02
  -1  -2  -8   46.37    1.76
   1  -2   8   46.41    1.85
   1   2  -8   43.46    1.95
  -1   2   8   47.49    1.93
   1   2  -8   46.21    1.96
   1  -2   8   43.39    1.71
  -1  -2  -8   47.41    1.92
   1  -2  -8   47.76    1.90
  -1  -2   8   46.10    1.94
  -1   2  -8   45.39    1.94
  -1  -2   8   41.76    1.92
  -1   2  -8   45.42    1.87
   1  -2  -8   45.80    1.90
   1   2   8   44.11    1.99
  -2   2   8   23.68    1.06
   2  -2   8   24.68    0.97
   2   2  -8   23.66    1.24
  -2   2   8   22.68    1.12
   2   2  -8   24.35    1.22
  -2  -2  -8   23.07    1.16
   2  -2   8   25.29    1.08
   2  -2   8   22.09    1.23
  -2  -2   8   25.02    1.22
  -2  -2   8   23.11    1.19
   2  -2  -8   24.26    1.15
  -2   2  -8   23.40    1.05
   2  -2  -8   22.91    1.19
  -2   2  -8   25.03    1.19
   3   2  -8    7.21    0.63
  -3  -2  -8    7.18    0.60
  -3   2   8    6.81    0.56
   3  -2   8    7.33    0.43
  -3   2   8    7.08    0.53
   3   2  -8    7.98    0.72
   3  -2   8    7.67    0.49
   3  -2  -8    8.08    0.58
  -3   2  -8    6.61    0.40
  -3  -2   8    8.03    0.64
  -3  -2   8    7.32    0.63
  -3   2  -8    7.35    0.59
   3  -2  -8    7.49    0.68
   4   2  -8   16.07    1.03
   4   2  -8   15.53    1.11
  -4  -2  -8   15.72    0.73
  -4   2   8   17.08    0.96
  -4   2   8   17.90    0.96
  -4  -2  -8   15.24    1.03
   4  -2   8   16.78    0.81
  -4  -2   8   17.80    1.04
  -4   2  -8   17.45    0.75
   4  -2  -8   16.84    1.09
  -4  -2   8   17.18    1.05
  -4   2  -8   16.71    0.99
   4  -2  -8   17.09    0.99
   5  -2   8    1.39    0.24
  -5  -2  -8    0.89    0.34
  -5   2   8    1.49    0.35
  -5   2   8    1.15    0.33
   5   2  -8    0.67    0.49
  -5  -2  -8    0.98    0.21
   5   2  -8    1.18    0.37
  -5   2  -8    0.66    0.30
  -5  -2   8    1.99    0.47
   5  -2  -8    1.47    0.34
  -5   2  -8    1.02    0.19
  -5  -2   8    0.84    0.32
   5  -2  -8    0.97    0.49
   6   2  -8   38.11    2.05
   6   2  -8   42.53    2.15
   6  -2   8   41.68    1.66
  -6  -2  -8   41.82    1.72
  -6   2   8   41.69    1.98
  -6   2   8   39.53    1.92
  -6  -2  -8   41.16    2.09
   6  -2  -8   42.40    2.03
  -6   2  -8   41.05    2.03
  -6   2  -8   42.04    1.72
   6  -2  -8   38.48    2.10
  -6  -2   8   40.41    2.03
  -7  -2  -8    9.39    0.70
  -7   2   8   10.06    0.94
   7   2  -8    9.69    1.01
   7  -2   8    9.24    0.60
  -7   2   8    9.96    0.95
  -7   2  -8    9.26    0.97
  -7  -2   8    8.42    1.02
  -7   2  -8    9.63    0.66
   7  -2  -8    9.19    1.17
  -7  -2   8    9.51    0.94
  -8  -2  -8   12.25    0.89
  -8   2   8   12.32    1.13
   8  -2   8   11.95    0.74
   8  -2   8   11.37    0.83
  -8   2   8   12.85    1.19
  -8   2  -8   12.84    0.85
  -8   2  -8   12.08    1.15
  -8  -2   8   11.18    1.16
  -9   2   8    2.05    0.64
   9  -2   8    2.82    0.55
   9  -2   8    2.53    0.43
  -9  -2  -8    2.51    0.50
  -9   2  -8    1.90    0.40
  -9  -2   8    2.96    0.70
  -9   2  -8    2.08    0.62
  10  -2   8    4.16    0.69
 -10  -2  -8    2.79    0.60
 -10   2   8    3.93    0.81
 -10   2  -8    3.13    0.57
 -10  -2   8    2.80    0.81
 -10   2  -8    3.64    0.91
 -11   2   8    4.34    1.00
 -11  -2  -8    4.41    0.81
 -11   2  -8    3.24    0.67
 -11  -2   8    3.89    0.99
 -11   2  -8    4.36    1.01
 -12  -2  -8    2.14    0.89
 -12   2   8    2.67    1.04
 -12   2  -8    4.69    1.17
 -12  -2   8    2.62    1.10
 -12   2  -8    2.36    0.72
   0  -3   8   37.93    1.65
   0  -3  -8   36.77    1.46
   0   3  -8   37.64    1.66
   0   3   8   31.69    1.41
   0   3   8   37.54    1.66
   0  -3   8   38.37    1.68
   0  -3  -8   38.74    1.59
   0  -3   8   37.67    1.50
   0   3  -8   37.82    1.66
  -1   3   8   10.15    0.53
   1  -3   8   10.31    0.54
   1   3  -8   11.66    0.77
  -1   3   8    8.72    0.64
   1   3  -8    9.82    0.68
  -1  -3  -8   10.29    0.48
   1  -3   8   10.44    0.66
  -1  -3  -8   10.42    0.63
   1  -3   8   10.71    0.74
  -1   3  -8    9.96    0.68
   1  -3  -8    9.66    0.60
   1  -3  -8   10.16    0.57
  -1  -3   8    9.46    0.68
  -1  -3   8   10.26    0.70
  -1   3  -8    9.86    0.68
   2   3  -8    3.87    0.44
  -2  -3  -8    3.93    0.28
   2   3  -8    3.99    0.57
  -2  -3  -8    3.59    0.27
  -2   3   8    4.10    0.35
   2  -3   8    4.18    0.43
   2  -3   8    4.03    0.34
  -2   3   8    3.03    0.40
  -2  -3  -8    3.64    0.40
  -2  -3  -8    3.89    0.25
   2  -3   8    3.99    0.53
  -2   3  -8    3.94    0.43
   2  -3  -8    3.60    0.38
   2  -3  -8    4.57    0.44
  -2  -3   8    3.54    0.46
  -2   3  -8    4.70    0.46
  -2  -3   8    4.11    0.48
  -3  -3  -8    1.45    0.30
  -3  -3  -8    1.32    0.19
  -3   3   8    1.44    0.29
   3  -3   8    2.15    0.36
  -3   3   8    1.14    0.24
   3   3  -8    1.55    0.38
   3  -3   8    1.63    0.25
   3   3  -8    1.45    0.41
  -3  -3   8    2.08    0.39
  -3   3  -8    1.41    0.24
  -3  -3   8    1.61    0.35
   3  -3  -8    1.46    0.40
  -3   3  -8    1.24    0.28
   3  -3  -8    1.72    0.31
  -4   3   8    3.42    0.44
  -4  -3  -8    2.66    0.31
   4   3  -8    3.23    0.56
  -4   3   8    2.65    0.42
   4   3  -8    3.42    0.50
  -4  -3  -8    2.85    0.52
   4  -3   8    3.33    0.41
   4  -3   8    3.71    0.43
  -4  -3   8    4.40    0.58
  -4  -3   8    2.78    0.49
   4  -3  -8    3.08    0.53
  -4   3  -8    3.38    0.31
   4  -3  -8    3.04    0.43
  -4   3  -8    2.87    0.42
   5   3  -8   23.30    1.48
   5   3  -8   22.86    1.41
   5  -3   8   23.71    1.17
   5  -3   8   26.05    1.17
  -5   3   8   24.17    1.26
  -5  -3  -8   23.05    1.40
  -5   3   8   23.80    1.29
  -5   3  -8   25.85    1.12
  -5  -3   8   26.17    1.43
  -5  -3   8   24.01    1.42
   5  -3  -8   25.32    1.32
  -5   3  -8   23.86    1.32
   5  -3  -8   24.81    1.50
  -6   3   8    2.06    0.42
   6   3  -8    1.77    0.50
  -6  -3  -8    2.13    0.35
   6   3  -8    3.67    0.75
   6  -3   8    2.74    0.40
  -6   3   8    2.17    0.44
  -6  -3   8    2.04    0.48
  -6   3  -8    2.45    0.36
   6  -3  -8    2.05    0.58
  -6   3  -8    1.66    0.42
   6  -3  -8    1.59    0.39
  -7  -3  -8    3.27    0.52
  -7   3   8    2.58    0.53
   7  -3   8    3.47    0.47
  -7   3   8    3.73    0.59
   7   3  -8    4.47    0.79
  -7   3  -8    3.29    0.45
  -7   3  -8    3.06    0.61
  -7  -3   8    4.11    0.72
  -8   3   8    4.44    0.74
  -8   3   8    5.19    0.94
  -8  -3  -8    4.74    0.64
   8  -3   8    4.00    0.57
  -8   3  -8    3.39    0.56
  -8   3  -8    4.70    0.87
   9  -3   8    3.35    0.51
  -9   3   8    3.01    0.67
  -9  -3  -8    2.24    0.51
   9  -3   8    3.54    0.69
  -9   3  -8    2.72    0.48
  -9   3  -8    3.73    0.77
  -9  -3   8    2.56    0.75
  10  -3   8    5.38    0.83
 -10   3   8    6.28    1.11
 -10  -3  -8    4.58    0.74
 -10   3  -8    7.05    1.27
 -10  -3   8    6.41    1.06
 -10   3  -8    5.82    0.81
  11  -3   8   19.92    1.43
 -11   3   8   16.84    1.67
 -11  -3  -8   16.71    1.47
 -11   3  -8   18.03    1.90
 -11  -3   8   15.02    1.80
 -11   3  -8   19.93    1.36
 -12  -3  -8   -0.40    0.77
 -12   3   8   -1.13    0.83
 -12  -3   8    0.69    1.07
 -12   3  -8    0.04    1.00
 -12   3  -8    1.38    0.72
   0  -4   8    0.71    0.28
   0  -4   8    0.49    0.19
   0   4   8    0.54    0.14
   0   4  -8    0.18    0.31
   0  -4  -8    0.54    0.17
   0   4  -8    0.19    0.16
   0  -4   8    0.36    0.23
   0  -4  -8    0.52    0.19
   1   4  -8    6.91    0.58
  -1   4   8    7.35    0.45
   1  -4   8    7.72    0.50
   1   4  -8    7.05    0.69
   1  -4   8    7.52    0.65
  -1  -4  -8    6.97    0.43
  -1   4   8    7.01    0.56
  -1  -4  -8    7.58    0.53
   1  -4   8    8.11    0.64
   1  -4  -8    7.01    0.49
  -1  -4   8    6.51    0.53
  -1   4  -8    7.65    0.63
   1  -4  -8    7.25    0.51
  -1   4  -8    7.58    0.58
  -1  -4   8    6.67    0.59
  -1  -4   8    6.57    0.61
   2   4  -8    9.98    0.72
   2   4  -8   10.14    0.84
  -2  -4  -8    8.07    0.51
   2  -4   8    9.82    0.79
  -2   4   8   10.20    0.64
   2  -4   8   10.32    0.70
  -2  -4  -8   10.12    0.66
  -2  -4  -8    9.73    0.50
   2  -4   8    9.39    0.58
  -2   4   8   10.26    0.59
  -2  -4   8    8.33    0.69
  -2  -4   8    9.39    0.73
   2  -4  -8    9.79    0.60
  -2   4  -8    9.40    0.68
   2  -4  -8    9.83    0.65
  -2   4  -8    7.36    0.66
  -3   4   8    2.58    0.38
   3   4  -8    2.59    0.56
   3  -4   8    2.81    0.42
   3  -4   8    3.35    0.39
  -3  -4  -8    2.32    0.41
   3   4  -8    2.37    0.44
  -3  -4  -8    2.24    0.27
  -3   4   8    2.76    0.37
  -3  -4  -8    2.41    0.25
  -3  -4   8    2.81    0.48
  -3   4  -8    3.06    0.41
  -3   4  -8    2.25    0.30
  -3  -4   8    3.40    0.50
   3  -4  -8    2.17    0.36
   3  -4  -8    2.88    0.48
  -4   4   8    4.23    0.48
  -4  -4  -8    3.93    0.38
   4   4  -8    3.20    0.60
   4   4  -8    4.39    0.57
   4  -4   8    4.31    0.49
  -4   4   8    3.93    0.49
   4  -4   8    4.12    0.52
  -4  -4  -8    3.88    0.56
   4  -4  -8    3.46    0.60
  -4   4  -8    4.68    0.40
  -4  -4   8    5.55    0.66
   4  -4  -8    4.18    0.47
  -4  -4   8    3.53    0.58
  -4   4  -8    4.98    0.52
  -5   4   8    4.38    0.54
   5  -4   8    3.98    0.55
   5   4  -8    3.75    0.64
   5   4  -8    5.30    0.82
  -5  -4  -8    3.66    0.45
  -5   4   8    4.20    0.54
  -5  -4  -8    3.95    0.66
  -5   4  -8    3.94    0.50
  -5   4  -8    4.13    0.41
  -5  -4   8    4.67    0.75
   5  -4  -8    4.06    0.55
  -5  -4   8    3.96    0.60
  -6   4   8   44.27    1.98
  -6   4   8   44.45    2.07
   6   4  -8   44.41    2.28
   6  -4   8   45.01    1.91
   6  -4   8   44.07    1.98
  -6   4  -8   45.01    1.89
  -6  -4   8   43.89    2.22
   6  -4  -8   39.78    2.26
  -6   4  -8   44.19    2.09
   7  -4   8    1.35    0.34
  -7   4   8    0.95    0.39
  -7   4   8    1.54    0.49
   7  -4   8    1.52    0.46
  -7  -4   8    1.26    0.50
  -7   4  -8    1.26    0.30
  -7   4  -8    1.35    0.47
  -8   4   8    0.59    0.45
  -8  -4  -8    1.28    0.40
   8  -4   8    1.64    0.40
  -8   4   8    1.45    0.53
  -8  -4   8    1.20    0.49
  -8   4  -8    1.24    0.36
  -8   4  -8    1.24    0.50
   9  -4   8    1.83    0.51
  -9   4   8    1.65    0.68
  -9  -4  -8    1.17    0.50
  -9   4   8    1.53    0.60
  -9   4  -8    2.15    0.66
  -9   4  -8    1.48    0.44
 -10  -4  -8    3.12    0.65
 -10   4   8    1.84    0.69
  10  -4   8    3.04    0.63
 -10  -4   8    2.78    0.88
 -10   4  -8    2.29    0.52
 -10   4  -8    3.00    0.88
  11  -4   8   -0.24    0.63
 -11  -4  -8    0.92    0.69
 -11   4  -8   -0.01    0.54
 -11  -4   8    1.01    0.90
 -11   4  -8    0.27    0.89
 -12   4   8    0.05    0.91
 -12  -4  -8    1.58    0.93
 -12   4  -8    1.89    1.14
 -12  -4   8    0.66    1.16
 -12   4  -8    0.85    0.69
   0  -5  -8    4.49    0.41
   0  -5   8    3.89    0.53
   0   5  -8    4.19    0.62
   0   5   8    4.05    0.36
   0   5  -8    4.30    0.47
   0  -5  -8    5.48    0.44
   0  -5   8    4.56    0.58
   0  -5   8    4.20    0.45
   1  -5   8    2.99    0.52
  -1  -5  -8    3.77    0.38
   1   5  -8    3.36    0.45
   1   5  -8    2.50    0.52
  -1  -5  -8    3.37    0.36
  -1   5   8    3.74    0.35
   1  -5   8    4.62    0.56
   1  -5   8    4.17    0.44
  -1   5   8    3.86    0.45
  -1   5  -8    3.63    0.57
  -1  -5   8    3.33    0.46
   1  -5  -8    3.35    0.34
   1  -5  -8    3.60    0.45
  -1  -5   8    3.42    0.48
  -1   5  -8    3.76    0.43
  -1  -5   8    3.88    0.57
  -2  -5  -8    7.56    0.50
   2  -5   8    7.78    0.68
   2  -5   8    8.28    0.57
  -2  -5  -8    7.54    0.49
  -2   5   8    6.77    0.55
   2  -5   8    6.58    0.69
   2   5  -8    6.57    0.81
   2   5  -8    7.59    0.65
  -2   5   8    7.06    0.53
  -2  -5  -8    7.35    0.58
  -2  -5   8    7.24    0.65
  -2  -5   8    7.32    0.68
  -2  -5   8    7.17    0.68
   2  -5  -8    7.26    0.62
  -2   5  -8    7.60    0.69
  -2   5  -8    8.03    0.63
   2  -5  -8    7.52    0.51
   3  -5   8    1.63    0.38
  -3  -5  -8    1.16    0.24
   3   5  -8    1.44    0.38
   3  -5   8    1.24    0.28
  -3   5   8    1.27    0.28
  -3   5   8    1.48    0.27
  -3  -5  -8    1.17    0.33
   3   5  -8    1.61    0.50
  -3  -5   8    1.67    0.40
   3  -5  -8    1.66    0.36
  -3   5  -8    1.55    0.36
  -3  -5   8    0.93    0.35
   3  -5  -8    1.43    0.27
  -3   5  -8    1.97    0.32
   4   5  -8   14.85    1.27
   4   5  -8   14.64    1.05
  -4  -5  -8   15.15    0.81
  -4  -5  -8   17.53    1.06
   4  -5   8   14.42    0.91
  -4  -5  -8   14.76    0.70
  -4   5   8   16.13    0.94
   4  -5   8   16.21    1.00
  -4   5   8   13.53    0.82
  -4   5  -8   16.16    0.96
   4  -5  -8   15.88    0.91
  -4   5  -8   15.50    0.84
  -4  -5   8   17.29    1.10
  -4  -5   8   16.07    1.11
   4  -5  -8   16.90    1.06
  -5  -5  -8    1.53    0.32
  -5   5   8    1.21    0.33
   5  -5   8    1.74    0.39
  -5   5   8    2.16    0.42
   5   5  -8    1.73    0.68
  -5  -5  -8    1.40    0.24
  -5  -5  -8    1.21    0.42
   5   5  -8    1.60    0.46
  -5  -5   8    1.42    0.47
  -5   5  -8    1.46    0.28
  -5  -5   8    0.97    0.41
  -5   5  -8    1.47    0.35
   5  -5  -8    2.05    0.53
   5  -5  -8    1.47    0.35
  -6  -5  -8    2.54    0.45
   6  -5   8    3.28    0.54
  -6   5   8    2.28    0.45
   6  -5   8    3.48    0.54
   6   5  -8    2.74    0.61
  -6   5  -8    3.40    0.44
   6  -5  -8    1.85    0.59
  -6  -5   8    2.06    0.51
  -6   5  -8    2.52    0.46
  -7   5   8    6.50    0.79
   7  -5   8    6.59    0.93
  -7   5   8    8.61    0.85
   7  -5   8    8.64    0.76
  -7  -5   8    5.25    0.91
  -7   5  -8    7.55    0.67
  -7   5  -8    6.01    0.76
  -8   5   8    1.68    0.56
  -8   5   8    0.84    0.44
   8  -5   8    0.79    0.62
   8  -5   8    1.39    0.44
  -8   5  -8    0.53    0.48
  -8  -5   8    1.09    0.60
  -8   5  -8    0.85    0.36
   9  -5   8    6.83    0.88
  -9  -5  -8    4.28    0.72
  -9   5   8    5.80    0.92
  -9   5   8    5.13    0.85
  -9  -5   8    6.83    1.15
  -9   5  -8    4.45    0.81
  -9   5  -8    4.73    0.75
 -10  -5  -8    3.34    0.72
 -10   5   8    5.98    1.05
  10  -5   8    5.93    1.01
 -10   5  -8    4.43    0.67
 -10   5  -8    7.44    1.34
 -11   5   8    2.38    0.78
  11  -5   8    2.40    0.83
 -11  -5  -8    2.88    0.84
 -11   5  -8    3.64    0.97
 -11   5  -8    1.98    0.64
 -11  -5   8    3.44    1.12
   0   6   8   18.74    0.93
   0   6  -8   17.46    1.16
   0  -6   8   17.10    1.06
   0  -6  -8   18.57    0.90
   0  -6  -8   18.39    0.96
   0  -6   8   18.74    1.16
   0   6  -8   17.68    1.05
   0  -6   8   18.04    1.01
  -1  -6  -8    5.66    0.51
  -1   6   8    5.55    0.47
   1  -6   8    5.39    0.56
  -1  -6  -8    6.27    0.48
   1   6  -8    5.50    0.57
   1   6  -8    6.70    0.79
   1  -6   8    5.74    0.68
   1  -6   8    5.88    0.66
  -1  -6  -8    6.22    0.52
  -1   6  -8    5.14    0.71
  -1   6  -8    4.95    0.52
  -1  -6   8    5.18    0.61
  -1  -6   8    5.26    0.68
   1  -6  -8    5.32    0.42
  -1  -6   8    6.80    0.63
   1  -6  -8    5.27    0.57
   2  -6   8   23.71    1.35
  -2  -6  -8   25.90    1.16
  -2   6   8   25.23    1.17
   2   6  -8   24.43    1.35
  -2  -6  -8   24.90    1.22
  -2  -6  -8   23.61    1.13
   2   6  -8   22.36    1.47
  -2   6   8   26.50    1.21
   2  -6   8   24.66    1.23
   2  -6   8   23.98    1.35
  -2  -6   8   22.48    1.29
  -2  -6   8   24.68    1.43
   2  -6  -8   24.74    1.28
  -2   6  -8   24.23    1.25
  -2  -6   8   23.22    1.30
   2  -6  -8   26.15    1.13
  -3  -6  -8    1.23    0.28
  -3   6   8    1.07    0.26
   3  -6   8    1.08    0.39
  -3  -6  -8    1.43    0.30
   3   6  -8    1.33    0.38
  -3  -6  -8    0.88    0.28
  -3   6   8    1.19    0.28
   3   6  -8    0.76    0.49
   3  -6   8    1.41    0.34
  -3  -6   8    1.89    0.42
  -3  -6   8    1.07    0.41
  -3   6  -8    2.20    0.39
   3  -6  -8    0.83    0.22
   3  -6  -8    1.48    0.40
  -3   6  -8    1.19    0.32
  -4  -6  -8    8.33    0.65
   4   6  -8    8.20    0.86
   4  -6   8    9.43    0.75
  -4   6   8    8.21    0.61
  -4  -6  -8    7.74    0.57
  -4   6   8    8.01    0.67
  -4  -6  -8    7.51    0.75
   4  -6   8    8.92    0.83
   4   6  -8    8.04    1.08
  -4   6  -8    8.08    0.64
   4  -6  -8    9.15    0.88
  -4  -6   8    8.17    0.85
  -4  -6   8   10.03    0.90
  -4   6  -8    8.02    0.72
   4  -6  -8    9.19    0.65
  -5   6   8    5.00    0.55
  -5  -6  -8    8.25    0.67
   5  -6   8    6.53    0.80
   5   6  -8    6.82    0.84
  -5  -6  -8    6.52    0.47
  -5   6   8    5.77    0.65
   5  -6   8    7.73    0.77
  -5   6  -8    6.23    0.59
   5  -6  -8    7.69    0.95
  -5  -6   8    6.98    0.93
  -5  -6   8    6.48    0.81
  -5   6  -8    5.71    0.63
  -6   6   8    0.44    0.32
  -6  -6  -8    0.92    0.30
   6   6  -8    1.23    0.47
  -6  -6  -8    0.87    0.41
  -6   6   8    0.68    0.34
   6  -6   8    1.00    0.49
   6  -6   8    0.89    0.36
  -6   6  -8    0.72    0.28
   6  -6  -8    1.18    0.62
  -6  -6   8    0.28    0.38
  -6   6  -8    0.87    0.37
  -7  -6  -8   -0.51    0.45
  -7   6   8   -0.13    0.38
   7  -6   8    0.23    0.36
  -7   6   8    1.00    0.41
   7  -6   8   -0.30    0.55
  -7  -6   8   -0.23    0.43
  -7   6  -8   -0.20    0.32
  -7   6  -8    0.26    0.28
  -8   6   8    0.81    0.54
  -8   6   8    0.41    0.45
   8  -6   8   -0.92    0.66
   8  -6   8    0.23    0.43
  -8   6  -8    0.40    0.36
  -8  -6   8   -0.39    0.56
  -8   6  -8    0.72    0.41
  -9   6   8    4.41    0.76
   9  -6   8    5.67    0.96
  -9  -6   8    3.81    0.93
  -9   6  -8    4.58    0.67
  -9   6  -8    4.05    0.74
 -10   6   8    1.11    0.68
 -10  -6  -8    2.29    0.74
  10  -6   8    3.22    0.77
 -10   6  -8    1.59    0.55
 -10   6  -8    1.03    0.66
 -11  -6  -8    0.26    0.80
 -11   6   8    0.37    0.77
  11  -6   8    1.76    0.92
 -11   6  -8    1.19    0.68
 -11   6  -8   -0.59    0.77
   0   7   8    0.65    0.23
   0  -7  -8    0.46    0.27
   0  -7   8    0.29    0.29
   0  -7   8   -0.18    0.29
   0   7  -8    0.05    0.47
   0  -7  -8    0.57    0.19
   0   7  -8    0.13    0.22
   0  -7   8    0.13    0.35
   1   7  -8   57.19    2.52
   1  -7   8   56.09    2.59
   1   7  -8   56.98    2.68
  -1  -7  -8   57.85    2.30
  -1  -7  -8   58.99    2.41
   1  -7   8   57.05    2.51
  -1  -7  -8   54.74    2.34
  -1   7   8   58.09    2.38
   1  -7   8   58.23    2.43
   1  -7  -8   60.78    2.25
  -1  -7   8   55.62    2.62
  -1   7  -8   58.57    2.47
  -1   7  -8   57.37    2.61
  -1  -7   8   53.44    2.44
  -1  -7   8   57.17    2.46
   1  -7  -8   59.31    2.44
   2  -7   8    3.14    0.55
  -2  -7  -8    3.84    0.48
  -2  -7  -8    3.52    0.51
  -2   7   8    3.66    0.46
   2   7  -8    5.38    0.90
   2  -7   8    3.03    0.58
  -2  -7  -8    3.66    0.44
   2   7  -8    2.64    0.47
   2  -7   8    3.26    0.50
  -2  -7   8    4.30    0.69
  -2  -7   8    4.12    0.74
  -2   7  -8    3.26    0.47
  -2  -7   8    3.25    0.51
   2  -7  -8    3.24    0.53
   2  -7  -8    3.96    0.37
   3  -7   8    5.29    0.72
   3   7  -8    7.11    0.77
  -3  -7  -8    7.38    0.66
   3  -7   8    6.72    0.84
  -3   7   8    6.03    0.53
  -3   7   8    6.28    0.61
  -3  -7  -8    6.68    0.63
  -3  -7  -8    7.53    0.68
   3   7  -8    4.80    0.86
   3  -7  -8    6.95    0.77
  -3  -7   8    7.28    0.79
  -3   7  -8    6.74    0.63
  -3  -7   8    7.02    0.85
   3  -7  -8    6.80    0.49
  -3  -7   8    5.43    0.79
  -3   7  -8    5.63    0.63
   4  -7   8    6.66    0.87
  -4  -7  -8    6.11    0.71
  -4   7   8    6.30    0.52
   4  -7   8    6.61    0.80
  -4  -7  -8    4.91    0.58
   4   7  -8    5.71    0.76
  -4   7   8    5.54    0.60
  -4  -7  -8    6.00    0.63
  -4  -7   8    4.82    0.73
  -4   7  -8    5.94    0.68
  -4   7  -8    5.04    0.56
   4  -7  -8    4.80    0.70
  -4  -7   8    5.49    0.86
   5  -7   8    2.30    0.55
  -5   7   8    1.77    0.41
  -5  -7  -8    1.43    0.47
   5   7  -8    1.57    0.52
  -5  -7  -8    1.37    0.35
  -5  -7  -8    1.68    0.41
  -5   7  -8    2.69    0.47
  -5  -7   8    1.41    0.51
  -5   7  -8    2.12    0.40
   5  -7  -8    1.58    0.62
   6  -7   8    4.78    0.75
  -6  -7  -8    4.01    0.47
   6  -7   8    4.52    0.71
  -6   7   8    3.27    0.55
  -6  -7  -8    5.41    0.82
  -6   7   8    3.17    0.44
   6   7  -8    3.96    0.76
  -6  -7   8    3.74    0.70
  -6   7  -8    4.37    0.64
  -6   7  -8    3.90    0.60
  -7  -7  -8    3.49    0.71
  -7  -7  -8    5.14    0.52
  -7   7   8    3.58    0.52
   7  -7   8    4.08    0.83
   7  -7   8    4.81    0.83
  -7   7   8    3.31    0.58
  -7   7  -8    3.98    0.68
  -7   7  -8    5.49    0.74
  -7  -7   8    3.85    0.76
  -8   7   8    7.71    0.98
   8  -7   8    7.63    1.01
  -8  -7  -8    6.79    1.21
  -8   7  -8    7.95    0.83
  -8   7  -8    5.78    0.88
  -8  -7   8    4.88    0.89
   9  -7   8    3.18    0.71
  -9   7   8    2.55    0.69
  -9   7  -8    2.78    0.62
  -9  -7   8    5.40    1.01
  -9   7  -8    2.01    0.61
  10  -7   8    1.47    0.82
 -10   7   8    1.00    0.76
 -10   7  -8    1.02    0.62
 -10  -7   8    1.09    0.90
 -10   7  -8    0.59    0.60
   0  -8   8    1.21    0.46
   0  -8   8    0.87    0.38
   0   8   8    1.06    0.30
   0   8  -8    1.49    0.58
   0  -8   8    1.22    0.42
   0  -8  -8    1.30    0.39
   0   8  -8    1.04    0.30
   0  -8  -8    1.38    0.37
   0  -8  -8    0.60    0.20
  -1   8   8   19.58    1.11
  -1  -8  -8   19.73    1.15
   1  -8   8   20.31    1.25
  -1  -8  -8   20.96    0.99
   1   8  -8   19.00    1.48
   1  -8   8   19.23    1.20
   1  -8   8   20.25    1.38
  -1  -8  -8   20.06    1.15
   1   8  -8   18.84    1.22
  -1  -8   8   19.48    1.21
  -1  -8   8   19.50    1.24
   1  -8  -8   20.63    1.23
   1  -8  -8   21.18    0.92
  -1   8  -8   20.58    1.16
  -1  -8   8   19.12    1.33
  -1   8  -8   20.10    1.44
   2   8  -8   43.27    2.37
  -2  -8  -8   45.69    1.99
  -2   8   8   44.77    2.00
   2   8  -8   44.92    2.15
   2  -8   8   43.77    2.06
   2  -8   8   44.09    2.14
  -2  -8  -8   43.21    1.98
   2  -8   8   43.69    2.20
  -2  -8  -8   45.06    1.91
  -2  -8   8   43.76    2.26
   2  -8  -8   42.21    2.07
  -2  -8   8   43.94    2.09
  -2  -8   8   45.52    2.16
  -2   8  -8   44.28    2.01
  -3  -8  -8    5.91    0.66
   3  -8   8    5.74    0.81
   3   8  -8    5.96    0.76
   3  -8   8    5.17    0.89
  -3   8   8    5.95    0.63
  -3  -8  -8    6.46    0.71
  -3  -8  -8    5.33    0.71
  -3   8  -8    6.26    0.67
  -3  -8   8    7.80    0.95
  -3   8  -8    5.61    0.62
  -3  -8   8    6.11    0.82
   3  -8  -8    5.34    0.89
  -3  -8   8    5.74    0.90
  -4  -8  -8   16.02    1.05
   4   8  -8   15.50    1.21
   4  -8   8   14.64    1.23
  -4  -8  -8   16.11    1.00
   4  -8   8   16.39    1.28
  -4  -8  -8   15.94    1.10
  -4   8   8   14.99    1.02
  -4   8  -8   14.79    0.98
  -4   8  -8   13.90    0.99
  -4  -8   8   13.99    1.22
  -4  -8   8   13.92    1.23
   4  -8  -8   15.36    1.28
   5   8  -8    2.94    0.64
  -5   8   8    2.73    0.44
  -5  -8  -8    2.70    0.46
  -5  -8  -8    2.73    0.56
   5  -8   8    2.34    0.60
  -5  -8  -8    2.57    0.58
  -5   8   8    2.88    0.52
  -5  -8   8    1.95    0.59
  -5   8  -8    2.98    0.51
  -5   8  -8    2.27    0.45
  -6  -8  -8    2.29    0.58
   6  -8   8    2.78    0.56
  -6   8   8    1.45    0.43
   6  -8   8    1.06    0.74
  -6  -8  -8    1.80    0.40
  -6   8  -8    1.95    0.43
  -6  -8   8    1.46    0.63
  -6   8  -8    3.09    0.53
  -7   8   8    0.24    0.42
   7  -8   8    0.69    0.53
  -7  -8  -8    1.46    0.64
  -7  -8  -8    0.19    0.35
  -7   8  -8    0.84    0.43
  -7  -8   8    0.64    0.61
  -7   8  -8    1.02    0.44
  -8  -8  -8    0.78    0.41
  -8   8   8    1.45    0.56
   8  -8   8    1.79    0.67
  -8  -8   8    0.75    0.66
  -8   8  -8    0.79    0.51
  -8   8  -8    0.74    0.53
   9  -8   8    5.13    0.91
  -9   8   8    4.23    0.80
  -9   8  -8    6.06    1.05
  -9  -8   8    2.67    0.90
  -9   8  -8    6.62    1.04
  10  -8   8    9.56    1.55
 -10   8   8    7.49    1.29
 -10   8  -8    8.10    1.25
 -10  -8   8   11.10    1.58
 -10   8  -8    9.70    1.29
   0  -9  -8    2.13    0.51
   0  -9   8    1.34    0.53
   0  -9   8    1.87    0.58
   0   9  -8    2.42    0.45
   0   9   8    2.39    0.43
   0  -9  -8    1.64    0.26
   0  -9  -8    1.27    0.42
   0  -9   8    2.62    0.54
  -1  -9  -8   50.63    2.26
  -1  -9  -8   50.66    1.99
  -1  -9  -8   48.28    2.25
   1   9  -8   48.46    2.32
   1  -9   8   49.54    2.49
   1  -9   8   50.54    2.32
  -1   9   8   48.33    2.22
   1  -9   8   46.47    2.30
  -1  -9   8   51.13    2.52
  -1  -9   8   49.22    2.28
  -1  -9   8   46.63    2.34
   1  -9  -8   51.44    2.34
   1  -9  -8   45.69    1.90
   1  -9  -8   52.88    2.34
  -1   9  -8   51.14    2.26
   2  -9   8   16.99    1.29
   2  -9   8   17.52    1.27
  -2  -9  -8   17.95    1.18
   2   9  -8   17.01    1.22
  -2  -9  -8   19.86    1.20
  -2  -9  -8   19.09    0.98
   2  -9   8   16.18    1.33
  -2   9   8   17.77    1.11
   2  -9  -8   19.06    1.31
  -2   9  -8   18.10    1.11
  -2  -9   8   16.76    1.37
  -2  -9   8   17.92    1.24
  -3  -9  -8   11.23    0.98
  -3  -9  -8   10.60    0.96
   3   9  -8    9.85    1.03
  -3   9   8   10.65    0.86
  -3  -9  -8   10.06    0.83
   3  -9   8   11.44    1.21
   3  -9   8   11.21    1.11
   3  -9  -8   11.30    1.20
  -3   9  -8   13.59    1.02
  -3   9  -8   11.91    0.86
  -3  -9   8    8.43    1.04
  -3  -9   8   10.71    1.20
   4  -9   8    0.13    0.58
  -4  -9  -8    0.02    0.39
  -4   9   8    0.17    0.34
  -4  -9  -8    0.37    0.43
   4  -9   8    0.50    0.59
  -4  -9  -8   -0.39    0.47
   4   9  -8    0.20    0.45
  -4  -9   8   -0.58    0.45
  -4   9  -8    0.74    0.37
  -4   9  -8   -0.06    0.32
  -5  -9  -8   27.06    1.46
   5  -9   8   29.29    1.84
  -5  -9  -8   27.35    1.63
  -5   9   8   23.54    1.49
  -5  -9  -8   26.75    1.56
   5   9  -8   26.76    1.81
  -5   9  -8   24.09    1.41
  -5  -9   8   24.65    1.75
  -5   9  -8   24.22    1.47
  -6  -9  -8    3.39    0.76
  -6  -9  -8    3.08    0.54
  -6   9   8    3.56    0.61
  -6   9  -8    3.25    0.59
  -6   9  -8    5.34    0.85
  -6  -9   8    4.52    0.85
  -7  -9  -8    9.97    0.90
  -7   9   8   13.33    1.16
   7  -9   8   10.01    1.25
  -7  -9   8    9.33    1.30
  -7   9  -8   11.78    1.07
  -7   9  -8   10.76    1.11
   8  -9   8    3.97    0.87
  -8   9   8    2.45    0.70
  -8   9  -8    2.82    0.66
  -8   9  -8    3.32    0.73
  -8  -9   8    2.71    0.87
  -9   9   8    7.14    1.21
   9  -9   8    5.17    1.02
  -9  -9   8    3.02    0.99
  -9   9  -8    4.74    0.82
  -9   9  -8    4.42    0.80
   0 -10   8    2.43    0.75
   0  10  -8    2.11    0.50
   0 -10  -8    2.81    0.65
   0 -10   8    3.27    0.60
   0 -10  -8    2.28    0.56
   1 -10   8    0.56    0.60
   1 -10   8    0.84    0.50
   1  10  -8    1.00    0.44
  -1 -10  -8    1.08    0.26
  -1  10   8    1.91    0.46
  -1 -10  -8    1.67    0.47
  -1 -10  -8    0.09    0.50
  -1  10  -8    1.09    0.40
   1 -10  -8    1.28    0.61
  -1 -10   8    0.82    0.58
  -1 -10   8    1.08    0.48
   1 -10  -8    0.99    0.49
  -2 -10  -8   20.96    1.37
   2 -10   8   16.84    1.35
  -2 -10  -8   18.76    0.99
   2  10  -8   19.16    1.34
  -2  10   8   17.58    1.16
  -2 -10  -8   20.01    1.33
   2 -10  -8   16.19    1.29
  -2  10  -8   19.18    1.18
  -2 -10   8   15.46    1.27
  -2 -10   8   18.70    1.50
  -3 -10  -8    3.02    0.67
   3 -10   8    3.20    0.80
  -3 -10  -8    2.03    0.44
  -3 -10  -8    3.35    0.67
  -3  10   8    2.90    0.55
   3  10  -8    2.96    0.64
  -3 -10   8    2.77    0.80
  -3  10  -8    2.53    0.47
  -4 -10  -8   18.14    1.40
  -4  10   8   18.62    1.28
   4  10  -8   17.06    1.49
   4 -10   8   20.73    1.67
  -4 -10  -8   18.55    1.33
  -4 -10  -8   19.43    1.28
  -4  10  -8   18.42    1.33
  -4  10  -8   18.82    1.16
  -4 -10   8   16.38    1.50
  -5 -10  -8   11.55    1.15
   5 -10   8   15.39    1.61
  -5 -10  -8   11.17    1.11
  -5  10   8   13.02    1.07
  -5 -10  -8    7.59    1.38
  -5  10  -8   10.39    0.93
  -5 -10   8   11.07    1.28
  -5  10  -8   11.48    1.06
  -6 -10  -8    1.59    0.61
  -6 -10  -8    3.57    0.78
  -6  10   8    3.66    0.66
  -6  10  -8    2.54    0.57
  -6  10  -8    3.13    0.61
  -6 -10   8    3.95    0.90
  -7 -10  -8    0.63    0.57
  -7  10   8    1.50    0.63
   7 -10   8    3.16    0.90
  -7  10  -8    1.20    0.57
  -7 -10   8    0.23    0.75
   8 -10   8    9.75    1.55
  -8  10   8    9.64    1.28
  -8  10  -8   11.18    1.34
  -8  10  -8   10.03    1.25
  -8 -10   8    9.46    1.52
  -9  10   8   -1.10    0.75
   9 -10   8    1.00    1.00
  -9 -10   8    1.08    0.96
  -9  10  -8    0.92    0.75
  -9  10  -8    0.01    0.80
   0 -11  -8    3.99    0.73
   0  11  -8    4.01    0.65
   0 -11   8    3.34    0.90
   0 -11   8    6.41    1.09
   1 -11   8    8.04    1.32
   1 -11   8    6.88    1.09
  -1 -11  -8    6.66    0.69
  -1  11   8    7.96    0.98
  -1 -11  -8    6.51    0.52
  -1 -11  -8    6.43    0.96
   1  11  -8    8.31    0.99
  -1  11  -8    7.58    0.90
  -1 -11   8    6.10    0.89
  -1 -11   8    8.00    1.19
   1 -11  -8    7.56    1.00
   2 -11   8    0.96    0.74
   2  11  -8    1.25    0.52
   2 -11   8    0.17    0.64
  -2 -11  -8    1.61    0.65
  -2  11  -8    1.70    0.44
  -2 -11   8    1.41    0.75
   2 -11  -8    1.51    0.58
   3 -11   8    3.58    0.94
  -3 -11  -8    3.24    0.78
   3  11  -8    3.30    0.72
  -3 -11  -8    2.65    0.44
  -3  11   8    2.41    0.56
  -3 -11   8    2.58    0.80
   3 -11  -8    4.84    0.85
  -3  11  -8    4.00    0.73
   4 -11   8    3.66    0.96
  -4 -11  -8    3.21    0.78
  -4  11   8    2.46    0.57
  -4 -11  -8    3.41    0.62
   4  11  -8    3.80    0.77
  -4 -11   8    1.24    0.81
  -4  11  -8    3.27    0.56
  -4  11  -8    4.37    0.73
   5 -11   8    9.87    1.69
  -5 -11  -8    6.11    0.93
  -5  11   8    5.84    0.98
  -5 -11  -8    5.85    0.89
  -5 -11   8    5.44    1.07
  -5  11  -8    5.31    0.83
  -5  11  -8    6.76    1.12
  -6  11   8    0.75    0.56
  -6 -11  -8    0.93    0.69
   6 -11   8    2.34    1.08
  -6 -11   8   -0.84    0.72
  -6  11  -8   -0.64    0.53
  -7  11   8    4.72    0.77
  -7  11  -8    5.71    0.86
  -7  11  -8    3.31    0.72
  -7 -11   8    2.79    0.92
  -8  11   8    3.61    0.82
  -8 -11   8    1.60    1.10
  -8  11  -8    2.59    0.84
   0 -12  -8    9.23    1.15
   0 -12   8    8.12    1.44
   0  12  -8    8.71    1.07
   1  12  -8   10.72    1.15
   1 -12   8   10.40    1.58
  -1  12   8   14.28    1.33
  -1 -12  -8   13.35    1.37
   1 -12   8    8.81    1.41
   1 -12  -8   10.38    1.25
  -1 -12   8    9.51    1.48
  -1  12  -8   11.25    1.11
  -2 -12  -8    4.87    0.58
   2  12  -8    4.37    0.81
  -2 -12  -8    5.84    1.03
   2 -12   8    4.64    1.02
  -2  12  -8    4.92    0.71
  -2 -12   8    3.80    0.92
   2 -12  -8    3.89    0.88
   3  12  -8    0.18    0.67
  -3 -12  -8   -0.28    0.34
   3 -12   8    1.02    0.90
  -3 -12  -8    0.06    0.77
  -3  12   8    0.08    0.47
   3 -12  -8   -0.15    0.65
  -3 -12   8    1.35    0.87
  -3  12  -8    0.14    0.49
  -4  12   8    9.22    1.15
   4 -12   8   13.69    1.91
  -4 -12  -8   10.94    1.45
  -4  12  -8   11.11    1.05
  -4 -12   8    8.91    1.36
   4 -12  -8   10.11    1.41
  -5 -12  -8    0.69    0.87
   5 -12   8    2.02    1.15
  -5  12   8    1.70    0.65
  -5 -12  -8    0.51    0.67
  -5  12  -8    1.36    0.56
  -5  12  -8    2.61    0.74
  -5 -12   8    0.02    0.82
  -6 -12  -8    5.76    1.06
  -6 -12  -8    5.86    1.08
  -6  12   8    5.96    0.97
   6 -12   8    6.76    1.44
  -6  12  -8    9.82    1.40
  -6 -12   8    2.69    1.14
  -7  12  -8    1.92    0.81
   0 -13  -8    0.23    0.72
   0  13  -8    1.10    0.63
   0 -13   8   -0.29    0.91
   1  13  -8   12.44    1.42
   1 -13   8   10.80    1.76
  -1  13  -8   11.81    1.28
  -1 -13   8   12.05    1.72
   1 -13  -8   12.26    1.46
   2 -13   8    2.89    1.02
  -2 -13  -8    2.41    1.08
   2  13  -8    1.83    0.81
  -2  13   8    1.85    0.76
  -2  13  -8    1.45    0.63
  -2 -13   8    1.69    1.00
   2 -13  -8    2.19    0.81
  -3 -13  -8    0.67    0.89
   3 -13   8   -0.17    1.01
  -3  13   8    1.39    0.67
  -3 -13   8    1.11    1.02
  -3  13  -8    0.23    0.97
   3 -13  -8    0.78    0.80
  -4  13   8    8.61    1.24
   4 -13   8   13.97    2.15
  -4 -13  -8   10.38    1.70
   4 -13  -8    9.55    1.40
  -4 -13   8   10.16    1.49
   5 -13   8    5.08    1.44
  -5 -13  -8    2.24    1.08
  -5  13   8    2.59    0.79
   5 -13  -8    4.90    1.09
  -5 -13   8    2.02    1.15
   0 -14   8   -0.34    1.03
  -1 -14  -8    3.74    1.27
   1 -14   8    3.18    1.32
   1 -14  -8    2.18    0.96
  -1 -14   8    2.55    1.04
  -2 -14  -8    1.10    1.10
   2 -14   8    1.94    1.26
   2 -14  -8    0.18    0.90
  -2 -14   8    1.23    1.09
  -3  14   8    7.60    1.19
  -3 -14  -8    5.35    1.33
   3 -14   8    4.47    1.33
  -3 -14   8    5.16    1.50
   3 -14  -8    4.72    1.18
   0   0   9    0.24    0.22
   0   0  -9   -0.08    0.14
   0   0  -9    0.16    0.18
   0   0   9    0.18    0.08
  -1   0  -9   39.57    1.59
   1   0  -9   40.53    1.70
  -1   0  -9   38.73    1.73
   1   0   9   39.62    1.83
   1   0  -9   39.11    1.74
  -1   0   9   37.99    1.74
  -2   0  -9    3.72    0.43
   2   0   9    4.00    0.58
  -2   0   9    3.76    0.37
   2   0  -9    3.96    0.44
   2   0  -9    4.55    0.54
  -2   0  -9    3.88    0.30
  -2   0   9    3.60    0.48
  -3   0   9    0.97    0.25
  -3   0  -9    1.17    0.28
  -3   0   9    1.28    0.34
   3   0  -9    1.62    0.33
   3   0  -9    1.97    0.40
   4   0  -9    2.81    0.54
  -4   0   9    2.06    0.38
  -4   0   9    2.71    0.50
   4   0  -9    1.94    0.40
  -4   0  -9    1.90    0.39
  -5   0   9    0.40    0.33
   5   0  -9    0.32    0.45
   5   0  -9    0.31    0.27
  -5   0   9    0.05    0.27
  -5   0  -9    0.26    0.29
  -6   0  -9   28.66    1.25
   6   0  -9   30.09    1.66
  -6   0   9   29.99    1.59
  -6   0  -9   30.40    1.69
  -6   0   9   28.52    1.60
   6   0  -9   28.27    1.74
  -7   0   9   11.25    1.01
  -7   0  -9   11.52    1.09
  -7   0   9   10.58    1.10
   7   0  -9   11.32    1.05
  -7   0  -9   12.03    0.71
  -8   0  -9    0.85    0.52
  -8   0   9    0.57    0.46
  -9   0  -9    0.90    0.60
  -9   0  -9   -0.19    0.35
  -9   0   9    0.42    0.58
 -10   0  -9    1.07    0.68
 -10   0   9    0.57    0.67
 -10   0  -9   -0.27    0.41
 -11   0  -9    8.12    1.05
 -11   0   9    9.81    1.38
 -11   0  -9   13.15    1.73
 -12   0   9    2.26    1.12
 -12   0  -9    1.99    0.72
 -12   0  -9    2.64    1.15
   0   1   9    3.73    0.46
   0  -1   9    2.15    0.32
   0  -1  -9    3.10    0.36
   0   1  -9    2.46    0.36
   0  -1  -9    3.01    0.38
   0  -1   9    2.65    0.43
   0   1  -9    2.62    0.40
   0  -1   9    3.03    0.23
   1  -1   9   17.83    1.10
   1   1  -9   20.31    1.05
  -1  -1  -9   19.08    0.86
  -1   1   9   16.68    0.89
   1   1  -9   19.76    1.04
  -1   1   9   20.07    1.06
   1  -1   9   18.87    0.90
  -1  -1  -9   19.80    1.02
  -1  -1   9   21.72    1.03
   1  -1  -9   19.88    1.02
   1   1   9   19.44    1.11
   1  -1  -9   19.76    1.01
  -1   1  -9   19.58    1.04
  -1   1  -9   18.58    0.93
  -1  -1   9   20.34    1.07
   2   1  -9   18.21    1.01
  -2   1   9   17.07    0.97
   2  -1   9   17.47    1.09
  -2  -1  -9   17.55    0.97
   2   1  -9   17.49    1.03
  -2   1   9   18.16    0.87
  -2  -1  -9   16.59    0.72
  -2  -1   9   18.80    1.01
  -2  -1   9   17.72    1.00
   2  -1  -9   18.11    1.01
   2  -1  -9   18.39    0.99
  -2   1  -9   18.28    0.82
  -2   1  -9   17.93    0.99
   3  -1   9    4.05    0.31
  -3  -1  -9    4.26    0.46
  -3   1   9    3.96    0.51
   3   1  -9    5.61    0.63
   3   1  -9    4.25    0.49
  -3   1   9    4.62    0.44
  -3  -1   9    3.44    0.49
  -3   1  -9    3.36    0.46
  -3  -1   9    4.50    0.51
   3  -1  -9    4.10    0.47
   3  -1  -9    4.72    0.63
   4   1  -9    4.37    0.55
  -4  -1  -9    3.11    0.52
  -4   1   9    5.46    0.58
   4   1  -9    5.34    0.71
  -4   1   9    3.68    0.50
  -4   1  -9    3.65    0.27
  -4   1  -9    4.32    0.51
  -4  -1   9    4.38    0.54
   4  -1  -9    4.30    0.52
  -4  -1   9    4.73    0.58
   4  -1  -9    5.22    0.75
  -5   1   9   59.35    2.49
   5   1  -9   59.14    2.63
   5   1  -9   58.38    2.60
  -5  -1  -9   56.30    2.56
  -5  -1  -9   50.45    2.13
  -5   1   9   56.24    2.45
  -5   1  -9   57.03    2.14
  -5  -1   9   56.78    2.51
   5  -1  -9   56.29    2.62
   5  -1  -9   57.81    2.55
  -5  -1   9   56.03    2.48
  -5   1  -9   57.21    2.55
  -6  -1  -9   11.30    1.00
   6   1  -9   11.35    0.98
   6   1  -9   14.05    1.23
  -6  -1  -9   10.28    0.64
  -6   1   9   11.99    0.96
  -6   1   9   13.58    1.06
  -6  -1   9   12.41    0.98
   6  -1  -9   11.91    1.19
  -6   1  -9   12.52    0.67
  -6  -1   9   10.43    1.01
   6  -1  -9   12.50    0.99
  -6   1  -9   12.29    1.01
  -7   1   9    3.86    0.63
  -7  -1  -9    6.14    0.54
   7   1  -9    5.95    0.88
  -7   1   9    4.86    0.90
  -7  -1  -9    6.07    0.85
  -7  -1   9    4.92    0.76
   7  -1  -9    5.09    0.78
  -7   1  -9    3.99    0.46
  -7   1  -9    5.39    0.85
  -8   1   9   14.39    1.25
  -8  -1  -9   14.56    1.34
   8  -1   9   15.32    0.72
  -8  -1  -9   16.54    0.96
  -8   1  -9   13.78    1.30
  -8  -1   9   14.81    1.26
  -8   1  -9   15.48    0.92
  -9  -1  -9    2.53    0.72
  -9   1   9    2.06    0.66
  -9  -1  -9    2.72    0.51
   9  -1   9    3.47    0.53
  -9   1  -9    2.22    0.73
  -9  -1   9    2.08    0.69
  -9   1  -9    1.95    0.45
 -10   1   9    5.71    1.02
 -10  -1  -9    5.43    0.72
 -10  -1  -9    5.05    1.04
 -10   1  -9    5.55    1.04
 -10  -1   9    4.70    0.92
 -10   1  -9    5.02    0.69
 -11  -1  -9   -0.31    0.58
 -11   1   9    1.92    0.90
 -11  -1  -9    0.98    0.97
 -11  -1   9    2.49    0.97
 -11   1  -9    2.59    0.98
 -11   1  -9    0.59    0.58
 -12   1   9    5.15    1.30
 -12  -1  -9    1.84    0.77
 -12  -1  -9    3.79    1.20
 -12   1  -9    6.11    1.40
 -12  -1   9    3.09    1.20
 -12   1  -9    3.01    0.83
   0   2  -9   13.18    0.81
   0   2   9   12.15    0.54
   0   2   9   12.88    0.83
   0  -2   9   13.14    0.85
   0  -2  -9   14.27    0.79
   0  -2   9   13.19    0.75
   0  -2  -9   12.52    0.72
   0   2  -9   12.23    0.79
   0  -2   9   13.36    0.62
  -1  -2  -9    4.50    0.35
   1   2  -9    3.62    0.44
   1  -2   9    4.97    0.55
  -1   2   9    4.28    0.38
   1   2  -9    4.21    0.54
  -1  -2  -9    4.60    0.45
   1  -2   9    4.07    0.28
  -1   2   9    5.02    0.52
   1  -2   9    4.38    0.41
   1   2   9    4.17    0.55
  -1  -2   9    3.96    0.49
   1  -2  -9    4.52    0.49
  -1   2  -9    4.84    0.50
  -1   2  -9    3.04    0.45
  -1  -2   9    4.04    0.44
   1  -2  -9    4.54    0.42
   2   2  -9    2.09    0.36
   2  -2   9    1.99    0.28
   2   2  -9    1.94    0.41
  -2   2   9    1.91    0.28
  -2  -2  -9    2.06    0.19
  -2   2   9    2.36    0.40
   2  -2   9    1.44    0.37
   2  -2   9    1.92    0.22
  -2  -2  -9    2.19    0.37
  -2  -2   9    1.53    0.31
  -2  -2   9    1.53    0.34
   2  -2  -9    1.87    0.39
   2  -2  -9    1.72    0.32
  -2   2  -9    2.27    0.38
  -2   2  -9    1.91    0.34
   3  -2   9   12.08    0.64
   3  -2   9   11.53    0.56
  -3   2   9   11.69    0.71
   3   2  -9   12.11    0.90
  -3  -2  -9   11.71    0.79
   3   2  -9   12.81    0.86
  -3   2   9   10.89    0.76
  -3   2  -9   12.39    0.81
  -3  -2   9   12.30    0.85
  -3  -2   9   10.95    0.82
   3  -2  -9   12.52    0.79
   3  -2  -9   11.65    0.89
   4   2  -9   27.55    1.59
  -4   2   9   29.69    1.40
  -4  -2  -9   27.88    1.09
   4   2  -9   29.09    1.53
  -4   2   9   28.36    1.40
  -4  -2  -9   31.93    1.55
   4  -2  -9   27.85    1.44
  -4   2  -9   27.20    1.20
  -4  -2   9   29.75    1.55
  -4   2  -9   27.84    1.46
   4  -2  -9   28.21    1.55
  -4  -2   9   29.65    1.51
  -5   2   9   11.20    0.85
  -5  -2  -9   10.81    0.93
   5   2  -9    9.61    0.86
   5   2  -9   10.49    1.05
  -5   2   9   10.91    0.85
  -5  -2   9   11.14    0.90
   5  -2  -9   11.31    1.03
  -5   2  -9   10.53    0.84
  -5   2  -9   10.12    0.57
   5  -2  -9   10.79    0.84
  -5  -2   9   12.06    0.95
  -6   2   9    7.40    0.80
  -6  -2  -9    9.12    0.88
  -6   2   9    9.93    0.88
   6   2  -9    9.39    0.89
   6   2  -9    5.93    0.93
  -6  -2  -9    8.60    0.55
   6  -2   9    8.07    0.79
  -6   2  -9    7.55    0.52
  -6  -2   9    7.81    0.95
   6  -2  -9    7.49    0.80
   6  -2  -9    8.06    1.10
  -6   2  -9    6.33    0.75
   7  -2   9   10.45    0.63
  -7   2   9    7.91    0.99
  -7  -2  -9    8.44    0.98
   7  -2   9    7.89    0.61
  -7   2   9    9.27    0.90
  -7  -2  -9    8.31    0.65
   7   2  -9    6.67    0.95
  -7  -2   9    8.98    0.97
  -7   2  -9    8.62    0.62
  -7   2  -9    8.74    0.96
   8  -2   9   10.06    0.66
  -8  -2  -9    9.89    1.20
  -8  -2  -9   11.14    0.82
  -8   2   9   10.55    1.11
   8  -2   9    9.82    0.75
  -8  -2   9   10.03    1.14
  -8   2  -9    9.74    0.73
  -8   2  -9    9.29    1.09
   9  -2   9    2.59    0.53
   9  -2   9    1.67    0.38
  -9   2   9    0.80    0.64
  -9  -2  -9    2.29    0.49
  -9  -2  -9    1.50    0.68
  -9  -2   9    1.23    0.66
  -9   2  -9    1.82    0.42
  -9   2  -9    1.90    0.67
 -10  -2  -9    3.19    0.65
  10  -2   9    3.43    0.50
 -10   2   9    3.01    0.87
 -10  -2   9    3.31    0.93
 -10   2  -9    3.90    0.92
 -10   2  -9    2.58    0.54
 -11   2   9    4.78    1.08
 -11  -2  -9    3.69    0.83
 -11   2  -9    5.45    1.20
 -11  -2   9    4.72    1.05
 -11   2  -9    4.32    0.71
 -12   2   9    2.78    1.02
 -12  -2  -9    3.23    0.88
 -12   2  -9    1.53    1.22
 -12  -2   9    2.04    1.09
 -12   2  -9    1.29    0.70
   0   3  -9    3.64    0.44
   0   3   9    4.32    0.29
   0  -3   9    4.31    0.35
   0  -3  -9    3.79    0.43
   0  -3  -9    4.14    0.32
   0   3   9    4.04    0.51
   0   3  -9    3.55    0.53
   0  -3   9    4.02    0.54
   0  -3   9    3.72    0.45
   0  -3  -9    4.80    0.46
  -1   3   9   18.71    1.01
   1   3  -9   18.25    1.08
  -1  -3  -9   18.07    0.75
  -1  -3  -9   17.86    0.86
   1   3  -9   18.73    1.04
  -1  -3  -9   19.71    0.98
   1  -3   9   18.97    1.08
   1  -3   9   17.92    0.97
  -1   3   9   18.17    0.82
   1  -3   9   17.45    0.82
  -1  -3   9   18.39    1.05
  -1   3  -9   18.02    1.01
   1  -3  -9   17.53    0.99
  -1  -3   9   18.16    0.91
  -1  -3   9   18.74    1.03
   1  -3  -9   19.54    0.96
  -1   3  -9   19.28    1.01
   1  -3  -9   17.16    0.86
  -2  -3  -9    9.68    0.48
  -2   3   9   10.18    0.59
  -2  -3  -9   10.46    0.70
   2  -3   9    9.74    0.82
   2  -3   9   10.80    0.56
   2   3  -9   10.07    0.86
  -2   3   9   10.74    0.71
   2  -3   9   10.08    0.67
  -2  -3  -9    9.44    0.48
   2   3  -9    9.71    0.73
  -2  -3   9    9.07    0.74
   2  -3  -9    9.63    0.66
  -2   3  -9   10.98    0.69
  -2   3  -9   10.17    0.72
  -2  -3   9   11.29    0.79
   2  -3  -9    9.40    0.76
  -3   3   9   12.58    0.73
  -3   3   9   10.91    0.76
   3  -3   9   12.46    0.66
   3  -3   9   13.14    0.75
  -3  -3  -9   11.97    0.82
   3   3  -9   11.91    0.88
  -3  -3  -9   11.72    0.51
   3   3  -9   12.88    0.99
  -3   3  -9   12.92    0.63
   3  -3  -9   12.91    0.79
   3  -3  -9   12.89    0.93
  -3   3  -9   12.18    0.82
  -3  -3   9   12.13    0.87
  -3  -3   9   12.84    0.88
  -4  -3  -9    4.30    0.34
  -4  -3  -9    6.06    0.65
  -4   3   9    3.81    0.50
   4  -3   9    5.13    0.51
  -4   3   9    4.72    0.57
  -4  -3  -9    6.01    0.34
   4  -3   9    5.20    0.47
   4   3  -9    5.30    0.61
   4   3  -9    5.43    0.86
  -4   3  -9    5.37    0.58
  -4   3  -9    4.48    0.36
  -4  -3   9    5.98    0.69
  -4  -3   9    5.11    0.64
   4  -3  -9    4.44    0.76
   4  -3  -9    5.70    0.57
  -5  -3  -9   22.74    1.06
  -5   3   9   25.09    1.29
  -5  -3  -9   23.41    1.06
   5   3  -9   24.39    1.48
   5   3  -9   23.72    1.57
  -5  -3  -9   24.84    1.45
   5  -3   9   24.02    1.17
   5  -3   9   24.99    1.17
  -5   3   9   24.76    1.30
  -5   3  -9   23.84    1.09
   5  -3  -9   23.12    1.52
  -5   3  -9   24.14    1.34
   5  -3  -9   26.21    1.37
  -5  -3   9   26.29    1.47
   6  -3   9    3.74    0.52
  -6   3   9    2.77    0.51
  -6  -3  -9    2.28    0.34
  -6  -3  -9    2.93    0.58
   6   3  -9    2.58    0.74
  -6   3   9    2.61    0.48
   6   3  -9    2.18    0.52
   6  -3  -9    3.61    0.64
  -6  -3   9    2.35    0.56
  -6   3  -9    2.38    0.48
   6  -3  -9    2.53    0.75
  -6   3  -9    2.70    0.38
  -7   3   9   18.23    1.27
   7   3  -9   18.11    1.41
  -7  -3  -9   18.27    1.00
   7  -3   9   18.78    0.98
  -7   3   9   18.35    1.23
  -7  -3  -9   18.00    1.37
  -7   3  -9   15.46    1.23
  -7  -3   9   17.69    1.31
  -7   3  -9   18.57    0.98
  -8  -3  -9    3.56    0.62
  -8   3   9    2.27    0.64
   8  -3   9    3.45    0.54
  -8   3   9    3.25    0.62
  -8   3  -9    3.15    0.45
  -8   3  -9    3.73    0.70
  -8  -3   9    3.01    0.67
   9  -3   9    5.81    0.91
   9  -3   9    6.71    0.72
  -9   3   9    7.49    1.09
  -9  -3  -9    6.57    0.85
  -9   3  -9    6.41    0.71
  -9   3  -9    6.31    1.17
  -9  -3   9    6.28    0.98
 -10  -3  -9    9.98    1.09
  10  -3   9   11.32    0.93
 -10   3   9    9.76    1.34
 -10  -3   9   12.85    1.57
 -10   3  -9    9.16    1.44
 -10   3  -9    9.57    0.93
 -11  -3  -9   10.23    1.29
 -11   3   9    7.53    1.13
 -11   3  -9    6.29    1.04
 -11   3  -9    8.43    1.32
 -11  -3   9    9.79    1.38
   0   4  -9   12.81    0.95
   0   4   9   13.93    0.68
   0  -4   9   14.03    0.75
   0  -4  -9   15.48    0.83
   0  -4   9   14.27    0.91
   0  -4  -9   15.01    0.73
   0  -4   9   14.89    0.94
   0   4  -9   14.42    0.89
  -1  -4  -9    4.61    0.35
   1  -4   9    5.03    0.61
   1   4  -9    4.80    0.51
  -1   4   9    4.60    0.35
   1  -4   9    4.58    0.54
   1  -4   9    4.11    0.39
   1   4  -9    3.92    0.64
  -1   4   9    4.45    0.52
  -1  -4  -9    4.79    0.45
   1  -4  -9    4.17    0.41
   1  -4  -9    3.69    0.42
  -1   4  -9    4.63    0.58
  -1  -4   9    3.08    0.44
  -1  -4   9    3.67    0.56
  -1   4  -9    3.71    0.47
  -1  -4   9    4.03    0.52
  -2   4   9   57.85    2.17
   2  -4   9   57.10    2.28
   2  -4   9   52.15    2.11
  -2   4   9   54.27    2.24
   2  -4   9   51.50    2.40
  -2  -4  -9   48.47    2.03
   2   4  -9   52.93    2.36
   2   4  -9   53.99    2.42
  -2  -4  -9   52.15    2.01
  -2  -4  -9   52.12    2.25
  -2  -4   9   52.73    2.32
   2  -4  -9   53.91    2.20
  -2  -4   9   54.15    2.38
  -2   4  -9   52.94    2.25
   2  -4  -9   55.96    2.23
  -2   4  -9   54.26    2.30
  -3  -4  -9   12.46    0.61
   3  -4   9   13.23    0.84
  -3   4   9   13.99    0.79
   3  -4   9   14.57    0.74
   3   4  -9   11.42    1.06
   3   4  -9   12.72    0.92
  -3  -4  -9   12.20    0.85
  -3   4   9   11.73    0.79
   3  -4  -9   13.16    0.86
  -3  -4   9   13.67    0.94
  -3  -4   9   14.33    0.95
   3  -4  -9   13.08    0.81
  -3   4  -9   13.45    0.88
  -3   4  -9   13.19    0.71
   4  -4   9   45.44    1.92
  -4  -4  -9   45.90    2.09
  -4   4   9   40.61    1.87
   4   4  -9   42.64    2.13
   4   4  -9   43.74    2.22
   4  -4   9   44.21    1.85
  -4   4   9   43.89    1.95
  -4  -4  -9   43.73    1.71
  -4   4  -9   44.58    2.01
  -4  -4   9   42.79    2.06
   4  -4  -9   44.37    1.97
  -4  -4   9   46.07    2.15
  -4   4  -9   43.92    1.79
   4  -4  -9   40.58    2.09
  -5   4   9    9.22    0.74
   5  -4   9    9.72    0.76
   5  -4   9    9.31    0.74
  -5  -4  -9    8.30    0.85
  -5   4   9    7.39    0.73
   5   4  -9    9.94    1.13
   5   4  -9    8.62    0.89
  -5  -4  -9    8.96    0.59
  -5   4  -9    9.17    0.78
   5  -4  -9    9.79    1.09
  -5   4  -9    9.37    0.60
   5  -4  -9    9.21    0.77
  -5  -4   9    9.86    0.90
  -6  -4  -9   13.81    0.85
  -6  -4  -9   16.53    1.20
  -6   4   9   13.93    1.00
   6  -4   9   15.85    0.96
  -6   4   9   15.64    1.01
   6  -4   9   12.99    0.97
   6   4  -9   14.91    1.18
  -6   4  -9   13.85    0.80
   6  -4  -9   15.78    1.09
  -6   4  -9   12.52    0.97
  -6  -4   9   13.88    1.15
   6  -4  -9   11.29    1.30
  -7  -4  -9    2.01    0.40
  -7   4   9    2.06    0.53
  -7  -4  -9    2.20    0.61
   7  -4   9    1.82    0.40
  -7   4   9    0.91    0.44
   7   4  -9    1.22    0.48
  -7   4  -9    1.18    0.30
  -7   4  -9    0.89    0.39
  -7  -4   9    2.43    0.63
  -8   4   9    8.63    0.99
   8  -4   9   11.13    0.85
  -8  -4  -9    9.74    0.85
  -8  -4   9   10.68    1.16
  -8   4  -9    8.43    1.01
  -8   4  -9   10.49    0.81
   9  -4   9    0.28    0.43
  -9  -4  -9    0.40    0.45
  -9   4   9   -0.38    0.47
  -9   4  -9    0.69    0.41
  -9   4  -9   -0.80    0.53
  10  -4   9   13.16    1.11
 -10  -4  -9   14.21    1.25
 -10   4  -9   14.63    1.62
 -10   4  -9   12.25    1.09
 -10  -4   9   15.47    1.76
 -11   4   9   -0.54    0.75
 -11  -4  -9    0.84    0.76
 -11   4  -9    0.45    0.60
 -11  -4   9   -0.08    0.91
   0   5   9    6.94    0.47
   0  -5   9    7.33    0.71
   0  -5   9    7.31    0.71
   0   5  -9    6.30    0.75
   0  -5  -9    7.41    0.55
   0   5  -9    6.22    0.60
   0  -5  -9    7.20    0.53
   0  -5   9    7.07    0.56
   1  -5   9   19.51    1.14
   1   5  -9   20.63    1.14
  -1   5   9   18.68    0.93
   1   5  -9   17.66    1.21
  -1   5   9   18.23    1.06
   1  -5   9   19.71    0.98
  -1  -5  -9   21.04    0.93
  -1  -5  -9   19.44    1.00
   1  -5   9   19.25    1.17
  -1  -5   9   18.59    1.13
  -1   5  -9   18.57    1.08
  -1   5  -9   19.84    1.18
  -1  -5   9   20.34    1.19
   1  -5  -9   19.24    0.97
  -1  -5   9   20.45    1.06
   1  -5  -9   19.11    1.00
   2  -5   9    7.88    0.79
   2  -5   9    8.30    0.59
  -2  -5  -9    8.61    0.52
   2  -5   9    8.39    0.74
  -2  -5  -9    8.10    0.51
  -2  -5  -9    8.54    0.64
   2   5  -9    7.81    0.72
   2   5  -9    7.65    0.89
  -2   5   9    7.94    0.56
  -2   5   9    7.87    0.66
  -2   5  -9    8.34    0.78
  -2  -5   9    7.60    0.74
   2  -5  -9    7.99    0.67
  -2   5  -9    8.10    0.68
  -2  -5   9    7.38    0.70
  -2  -5   9    8.11    0.75
   2  -5  -9    8.36    0.58
   3   5  -9   11.04    0.88
  -3  -5  -9    9.58    0.55
   3  -5   9   11.08    0.83
   3   5  -9   10.89    1.05
  -3  -5  -9    9.68    0.76
   3  -5   9   10.15    0.71
  -3   5   9   10.70    0.73
  -3  -5  -9   10.02    0.58
  -3   5   9    9.86    0.68
   3  -5  -9   10.23    0.81
  -3   5  -9   10.28    0.78
  -3  -5   9   10.15    0.86
  -3  -5   9   10.27    0.86
   3  -5  -9    9.72    0.69
  -3   5  -9    9.75    0.65
  -4  -5  -9    9.13    0.82
   4   5  -9    9.25    0.86
   4  -5   9    8.14    0.70
  -4  -5  -9    9.80    0.59
  -4   5   9    8.31    0.68
   4  -5   9   10.12    0.80
   4   5  -9    9.15    1.12
  -4   5   9    9.35    0.69
  -4   5  -9    8.11    0.61
   4  -5  -9    9.32    0.86
   4  -5  -9    9.23    0.70
  -4  -5   9    9.39    0.90
  -4  -5   9    8.77    0.85
  -4   5  -9   10.12    0.77
   5  -5   9   18.08    1.13
  -5  -5  -9   18.40    1.23
   5  -5   9   17.17    1.07
   5   5  -9   17.33    1.28
   5   5  -9   16.44    1.48
  -5  -5  -9   18.50    0.93
  -5   5   9   17.04    1.00
  -5   5   9   17.31    1.08
  -5   5  -9   17.88    0.95
  -5   5  -9   17.40    1.09
  -5  -5   9   17.28    1.23
   5  -5  -9   17.54    1.25
  -5  -5   9   16.76    1.23
   5  -5  -9   18.59    1.11
   6  -5   9   10.10    0.95
  -6  -5  -9    9.58    0.78
  -6   5   9    8.10    0.80
  -6   5   9    9.22    0.85
  -6  -5  -9   10.79    1.02
   6  -5   9   12.13    0.93
   6   5  -9    9.05    1.01
  -6   5  -9    9.19    0.69
  -6  -5   9   10.27    1.00
  -6   5  -9    9.12    0.84
   7  -5   9   22.16    1.43
   7   5  -9   21.78    1.62
  -7  -5  -9   19.32    1.21
  -7   5   9   20.06    1.36
   7  -5   9   20.88    1.23
  -7   5   9   21.74    1.31
  -7  -5   9   20.84    1.51
  -7   5  -9   22.38    1.16
  -7   5  -9   20.28    1.31
  -8   5   9    2.33    0.67
  -8  -5  -9    1.77    0.50
   8  -5   9    1.62    0.49
  -8   5   9    1.41    0.50
  -8   5  -9    1.26    0.51
  -8   5  -9    1.55    0.41
  -8  -5   9    0.74    0.57
  -9  -5  -9    4.54    0.70
  -9   5   9    3.89    0.72
   9  -5   9    5.11    0.71
  -9   5  -9    2.90    0.70
  -9   5  -9    4.68    0.64
  -9  -5   9    5.12    0.97
  10  -5   9    0.25    0.59
 -10  -5  -9    0.40    0.61
 -10   5   9   -0.05    0.63
 -10   5  -9    0.34    0.52
 -10   5  -9   -1.01    0.60
 -11  -5  -9   17.55    1.63
 -11   5   9   20.66    1.81
 -11   5  -9   19.84    1.52
 -11   5  -9   15.44    1.79
 -11  -5   9   20.89    2.29
   0  -6  -9    3.38    0.44
   0  -6   9    2.85    0.47
   0   6  -9    2.97    0.60
   0   6  -9    2.07    0.41
   0  -6  -9    2.92    0.41
   0  -6   9    2.24    0.46
   0  -6   9    2.58    0.49
   0   6   9    3.05    0.36
   1  -6   9   13.10    0.84
  -1   6   9   12.71    0.76
   1   6  -9   15.33    1.12
   1  -6   9   13.40    0.99
   1  -6   9   14.48    1.01
  -1  -6  -9   14.46    0.81
  -1  -6  -9   14.76    0.82
  -1  -6  -9   14.45    0.81
   1   6  -9   13.61    0.93
   1  -6  -9   13.90    0.87
   1  -6  -9   12.10    0.74
  -1   6  -9   14.07    1.07
  -1  -6   9   13.96    1.04
  -1   6  -9   13.37    0.89
  -1  -6   9   12.55    0.96
  -1  -6   9   13.62    0.91
  -2  -6  -9   64.11    2.54
   2  -6   9   65.03    2.64
  -2  -6  -9   67.68    2.58
   2  -6   9   65.44    2.81
  -2  -6  -9   67.68    2.68
   2   6  -9   64.47    2.86
   2   6  -9   60.71    2.92
   2  -6   9   65.56    2.87
  -2   6   9   64.67    2.61
  -2   6   9   65.86    2.64
   2  -6  -9   68.15    2.60
  -2   6  -9   65.99    2.75
  -2  -6   9   66.37    2.90
  -2  -6   9   62.37    2.73
   2  -6  -9   65.24    2.70
  -2  -6   9   62.11    2.76
   3  -6   9   19.54    1.04
  -3  -6  -9   17.39    0.88
  -3   6   9   14.83    0.92
  -3  -6  -9   16.88    1.03
  -3   6   9   16.58    0.96
   3  -6   9   17.46    1.12
   3   6  -9   16.94    1.16
  -3  -6  -9   16.09    0.87
   3   6  -9   16.60    1.38
   3  -6  -9   18.02    0.94
  -3  -6   9   16.18    1.17
  -3   6  -9   17.68    1.07
  -3   6  -9   17.69    0.97
   3  -6  -9   15.32    1.07
  -3  -6   9   16.77    1.15
  -3  -6   9   15.29    1.12
   4  -6   9   20.98    1.24
  -4   6   9   19.90    1.13
   4   6  -9   17.64    1.50
  -4  -6  -9   16.49    0.97
   4   6  -9   19.77    1.31
  -4   6   9   20.92    1.06
   4  -6   9   20.30    1.14
  -4  -6  -9   20.07    1.24
  -4   6  -9   19.20    1.04
  -4  -6   9   19.60    1.31
  -4   6  -9   19.65    1.18
   4  -6  -9   20.32    1.31
   4  -6  -9   20.95    1.10
  -4  -6   9   19.22    1.33
   5  -6   9    6.37    0.86
  -5  -6  -9    5.45    0.62
   5   6  -9    5.98    0.83
  -5   6   9    5.06    0.65
  -5   6   9    6.58    0.63
  -5  -6  -9    5.16    0.78
  -5  -6  -9    5.72    0.40
   5  -6   9    4.30    0.77
  -5   6  -9    5.99    0.58
   5  -6  -9    5.80    0.64
  -5   6  -9    6.60    0.70
  -5  -6   9    5.55    0.84
   5  -6  -9    5.91    1.00
  -6  -6  -9    5.77    0.71
   6   6  -9    6.27    0.96
  -6   6   9    5.18    0.69
   6  -6   9    5.35    0.71
  -6   6   9    5.64    0.74
  -6  -6  -9    5.53    0.92
  -6  -6   9    4.89    0.87
  -6   6  -9    6.27    0.76
  -6   6  -9    6.54    0.64
   6  -6  -9    4.84    0.88
  -7  -6  -9   -0.44    0.51
  -7   6   9   -0.08    0.43
   7  -6   9    1.19    0.60
  -7   6   9    0.37    0.43
   7  -6   9    1.46    0.50
  -7  -6   9    0.55    0.56
  -7   6  -9    0.67    0.41
  -7   6  -9    0.42    0.32
  -8  -6  -9    8.51    1.18
  -8   6   9    9.74    1.07
   8  -6   9    9.82    1.01
   8  -6   9   11.16    1.41
  -8   6   9   11.00    1.11
  -8   6  -9   10.81    0.89
  -8  -6   9   10.33    1.30
  -8   6  -9    8.58    1.01
  -9   6   9    1.46    0.61
  -9  -6  -9    1.68    0.61
   9  -6   9    1.40    0.61
  -9   6  -9    0.37    0.50
  -9  -6   9    0.85    0.74
  -9   6  -9    1.40    0.52
  10  -6   9   16.97    1.48
 -10  -6  -9   15.63    1.45
 -10   6   9   15.18    1.54
 -10   6  -9   16.96    1.34
 -10   6  -9   13.97    1.39
 -11   6   9    2.08    0.86
 -11  -6  -9    2.22    0.92
 -11   6  -9    0.26    0.80
 -11   6  -9    2.25    0.76
 -11  -6   9    3.12    1.18
   0   7  -9    9.97    1.11
   0   7   9   12.20    0.74
   0  -7  -9   11.84    0.82
   0   7  -9   11.37    0.85
   0  -7   9    9.42    0.82
   0  -7   9   11.07    0.99
   0  -7  -9   10.65    0.68
   0  -7   9   10.99    0.94
   1   7  -9   36.28    1.82
  -1   7   9   37.41    1.65
   1  -7   9   38.10    1.73
  -1  -7  -9   34.82    1.58
   1  -7   9   39.75    1.88
  -1  -7  -9   34.97    1.63
  -1  -7  -9   36.16    1.67
   1   7  -9   36.66    2.01
   1  -7   9   37.16    1.90
  -1  -7   9   34.95    1.91
  -1  -7   9   32.54    1.72
   1  -7  -9   35.42    1.69
  -1   7  -9   36.69    1.77
  -1  -7   9   35.52    1.80
   1  -7  -9   38.67    1.57
  -1   7  -9   37.03    1.95
  -2   7   9    9.50    0.69
  -2  -7  -9    9.20    0.68
   2   7  -9    8.57    0.84
  -2  -7  -9    9.99    0.71
   2   7  -9    9.97    1.16
   2  -7   9   10.06    0.95
  -2  -7  -9    9.14    0.68
   2  -7   9   10.09    0.79
   2  -7   9    8.70    0.94
   2  -7  -9    8.69    0.84
  -2  -7   9    9.05    0.96
  -2  -7   9   10.04    0.91
  -2  -7   9    9.34    0.91
   2  -7  -9    9.88    0.62
  -2   7  -9    7.95    0.73
   3  -7   9    1.25    0.49
  -3  -7  -9    1.15    0.35
   3   7  -9    1.13    0.40
   3   7  -9    0.01    0.64
   3  -7   9    2.05    0.46
  -3  -7  -9    1.85    0.37
  -3   7   9    2.02    0.38
  -3  -7  -9    1.00    0.34
  -3   7   9    1.41    0.35
  -3  -7   9    1.28    0.51
  -3  -7   9    1.17    0.51
  -3   7  -9    1.03    0.34
   3  -7  -9    1.50    0.48
   3  -7  -9    1.58    0.28
  -3  -7   9    0.53    0.46
  -4   7   9    4.21    0.56
  -4  -7  -9    3.48    0.60
  -4  -7  -9    4.31    0.67
  -4   7   9    4.45    0.59
  -4  -7  -9    4.30    0.53
   4   7  -9    4.69    0.78
   4  -7   9    6.55    0.87
  -4   7  -9    5.97    0.73
   4  -7  -9    4.85    0.54
  -4  -7   9    4.05    0.77
  -4  -7   9    3.71    0.67
   4  -7  -9    5.70    0.94
   5   7  -9   39.90    2.17
  -5  -7  -9   41.49    2.07
  -5   7   9   40.75    1.93
  -5  -7  -9   39.01    1.62
   5  -7   9   37.82    1.97
  -5  -7  -9   40.48    1.80
   5  -7   9   41.25    2.07
  -5   7   9   37.92    1.71
  -5   7  -9   38.15    1.82
  -5  -7   9   36.23    2.13
   5  -7  -9   39.53    2.14
  -5   7  -9   39.76    1.94
  -6  -7  -9    8.34    0.64
   6   7  -9    9.10    1.22
   6  -7   9   11.78    1.16
   6  -7   9   10.07    1.15
  -6  -7  -9    8.43    1.07
  -6   7   9    9.05    0.88
  -6   7   9   11.14    0.80
  -6  -7  -9    7.67    0.87
  -6   7  -9   11.45    0.95
  -6  -7   9    8.41    1.08
  -6   7  -9   10.15    0.82
  -7  -7  -9    4.67    0.71
  -7   7   9    4.44    0.73
   7  -7   9    5.91    0.92
  -7   7   9    4.42    0.77
  -7   7  -9    5.89    0.75
  -7   7  -9    4.69    0.80
  -7  -7   9    4.00    0.81
  -8   7   9    1.96    0.58
   8  -7   9    1.70    0.63
  -8  -7   9    1.95    0.76
  -8   7  -9    1.28    0.48
  -8   7  -9    2.25    0.61
  -9   7   9    3.74    0.72
   9  -7   9    2.93    0.75
  -9   7  -9    4.11    0.70
  -9  -7   9    3.52    0.99
  -9   7  -9    2.63    0.72
 -10  -7  -9    1.36    0.81
 -10   7   9    1.02    0.76
  10  -7   9    1.14    0.82
 -10   7  -9    0.16    0.67
 -10  -7   9    0.38    0.96
 -10   7  -9    1.49    0.65
   0  -8   9    2.38    0.52
   0   8  -9    2.49    0.75
   0  -8   9    2.28    0.54
   0  -8  -9    2.21    0.47
   0  -8  -9    1.70    0.29
   0  -8  -9    2.24    0.47
   0  -8   9    1.86    0.47
   0   8   9    2.28    0.40
   0   8  -9    1.49    0.38
  -1  -8  -9   18.45    1.13
   1  -8   9   17.42    1.17
  -1   8   9   19.35    1.07
   1   8  -9   17.38    1.51
  -1  -8  -9   18.40    1.10
   1  -8   9   18.49    1.35
   1  -8   9   21.23    1.31
  -1  -8  -9   19.80    0.99
   1   8  -9   18.50    1.23
  -1  -8   9   18.86    1.37
  -1   8  -9   18.53    1.15
  -1  -8   9   17.05    1.22
   1  -8  -9   18.93    0.92
   1  -8  -9   19.19    1.18
  -1  -8   9   19.34    1.24
  -1   8  -9   17.99    1.45
  -2   8   9    8.40    0.70
   2   8  -9    7.19    0.82
  -2  -8  -9    6.98    0.62
  -2  -8  -9    8.58    0.77
   2  -8   9    6.79    0.98
   2  -8   9    8.77    0.86
  -2  -8  -9    7.84    0.71
   2  -8   9    8.57    0.97
  -2   8  -9    7.14    0.72
   2  -8  -9    7.76    0.93
  -2  -8   9    6.94    0.87
   2  -8  -9    7.46    0.54
  -2  -8   9    9.24    0.98
  -2  -8   9    7.70    0.99
   3  -8   9    8.64    1.03
  -3  -8  -9    9.06    0.81
   3   8  -9   10.17    0.95
  -3  -8  -9    9.26    0.82
   3  -8   9    8.32    0.98
  -3   8   9   10.57    0.79
  -3  -8  -9    8.85    0.75
  -3  -8   9    6.34    1.03
  -3  -8   9    8.19    1.02
   3  -8  -9    8.95    1.01
   3  -8  -9   10.07    0.62
  -3  -8   9   10.57    1.10
  -3   8  -9    9.21    0.79
  -4  -8  -9    8.32    0.76
  -4  -8  -9    7.73    0.84
  -4  -8  -9    7.63    0.80
   4  -8   9    9.83    1.09
   4   8  -9    7.52    0.95
   4  -8   9    9.96    1.09
  -4   8   9    8.75    0.78
  -4  -8   9    6.60    0.96
   4  -8  -9    6.25    1.12
  -4   8  -9    8.98    0.81
  -4   8  -9    6.92    0.77
   5  -8   9    1.26    0.61
   5   8  -9    0.98    0.52
  -5   8   9    0.78    0.37
   5  -8   9    1.49    0.64
  -5  -8  -9    1.79    0.40
  -5   8   9    1.43    0.35
  -5  -8  -9    1.51    0.53
  -5  -8  -9    1.77    0.53
  -5   8  -9    1.19    0.40
  -5   8  -9    2.29    0.48
  -5  -8   9    1.37    0.54
  -6   8   9    2.37    0.41
  -6  -8  -9    2.00    0.63
   6   8  -9    0.77    0.66
  -6  -8  -9    1.38    0.56
   6  -8   9    3.15    0.77
  -6  -8  -9    1.06    0.35
   6  -8   9    1.82    0.87
  -6   8   9    1.55    0.50
  -6  -8   9    0.79    0.57
  -6   8  -9    2.01    0.53
  -6   8  -9    1.69    0.47
  -7   8   9    0.35    0.47
  -7  -8  -9   -0.30    0.61
  -7  -8  -9    0.15    0.62
   7  -8   9    2.43    0.74
  -7  -8  -9    0.72    0.33
  -7  -8   9    1.26    0.65
  -7   8  -9    0.40    0.41
  -7   8  -9    1.42    0.53
  -8   8   9    3.81    0.75
   8  -8   9    4.21    0.84
  -8   8  -9    5.98    0.98
  -8  -8   9    3.68    0.83
  -8   8  -9    3.82    0.65
  -9   8   9    4.00    0.80
   9  -8   9    4.66    0.93
  -9  -8   9    5.98    1.12
  -9   8  -9    3.42    0.77
  -9   8  -9    5.09    0.84
 -10   8   9    4.05    0.90
  10  -8   9    4.66    1.08
 -10   8  -9    2.67    0.81
 -10  -8   9    2.83    1.21
   0  -9   9    1.70    0.58
   0  -9  -9    2.72    0.57
   0  -9  -9    2.12    0.50
   0  -9  -9    1.61    0.28
   0  -9   9    3.17    0.59
   0  -9   9    2.03    0.56
   0   9  -9    2.33    0.48
  -1  -9  -9    5.47    0.72
  -1   9   9    5.92    0.66
  -1  -9  -9    5.57    0.54
   1   9  -9    5.35    0.78
   1  -9   9    5.19    0.89
  -1  -9  -9    4.39    0.66
   1  -9   9    5.34    0.90
  -1  -9   9    3.99    0.72
  -1  -9   9    4.76    0.86
   1  -9  -9    5.77    0.77
   1  -9  -9    7.79    0.93
   1  -9  -9    5.41    0.44
  -1  -9   9    4.34    0.77
  -1   9  -9    5.09    0.71
   2   9  -9    0.42    0.41
   2  -9   9    1.30    0.57
   2  -9   9    0.83    0.48
   2  -9   9    0.22    0.52
  -2  -9  -9    1.63    0.44
  -2  -9  -9    1.13    0.44
  -2   9   9    0.12    0.28
  -2  -9  -9    0.66    0.28
  -2   9  -9   -0.21    0.32
  -2  -9   9   -0.37    0.49
  -2  -9   9    0.67    0.58
   2  -9  -9    0.08    0.54
  -3  -9  -9    0.95    0.49
   3   9  -9    1.47    0.52
  -3  -9  -9    1.42    0.50
  -3   9   9    2.05    0.44
  -3  -9  -9    0.91    0.32
   3  -9   9    1.35    0.66
   3  -9   9    1.39    0.60
  -3  -9   9    0.44    0.57
  -3   9  -9    1.60    0.41
   3  -9  -9    1.07    0.62
  -4  -9  -9    1.71    0.52
  -4   9   9    2.03    0.44
   4  -9   9    1.61    0.86
  -4  -9  -9    1.73    0.48
   4  -9   9    1.64    0.68
  -4  -9  -9    1.25    0.52
   4   9  -9    1.95    0.55
  -4   9  -9    1.51    0.42
  -4  -9   9    0.91    0.58
  -4   9  -9    2.05    0.49
  -5  -9  -9    2.41    0.61
  -5  -9  -9    2.33    0.53
   5  -9   9    3.89    0.85
   5   9  -9    1.98    0.73
  -5  -9  -9    1.63    0.62
  -5   9   9    2.52    0.54
  -5  -9   9    2.15    0.71
  -5   9  -9    2.12    0.52
  -6  -9  -9    3.86    0.77
  -6  -9  -9    2.46    0.50
  -6   9   9    2.82    0.59
   6  -9   9    4.76    0.95
  -6  -9  -9    3.12    0.69
  -6  -9   9    1.56    0.66
  -6   9  -9    2.75    0.58
  -6   9  -9    3.70    0.65
  -7  -9  -9    0.70    0.72
  -7   9   9    0.18    0.48
  -7  -9  -9    0.29    0.52
   7  -9   9    2.61    0.87
  -7   9  -9    0.90    0.59
  -7  -9   9   -0.47    0.70
  -7   9  -9    0.23    0.52
  -8   9   9    5.54    0.83
  -8   9  -9    6.82    1.21
  -8   9  -9    6.20    1.04
  -8  -9   9    4.08    0.95
  -9   9   9    0.89    0.70
   9  -9   9    2.77    1.00
  -9   9  -9    2.33    0.81
  -9  -9   9    0.96    1.06
  -9   9  -9    1.66    0.73
   0 -10   9    0.90    0.58
   0 -10  -9    0.01    0.20
   0  10  -9   -0.60    0.38
   0 -10   9   -0.22    0.51
   0 -10  -9   -0.30    0.52
   0 -10  -9   -0.38    0.39
  -1 -10  -9    1.54    0.33
  -1 -10  -9    1.87    0.49
   1 -10   9    0.12    0.59
   1 -10   9    1.20    0.64
  -1  10   9    2.24    0.45
  -1 -10  -9    1.15    0.58
   1  10  -9    1.12    0.44
  -1 -10   9    1.09    0.65
  -1 -10   9    0.34    0.65
   1 -10  -9    3.01    0.67
  -1  10  -9    1.52    0.44
   1 -10  -9    1.50    0.52
  -2 -10  -9    1.52    0.55
  -2  10   9    0.48    0.34
  -2 -10  -9    0.95    0.57
   2  10  -9    1.00    0.47
   2 -10   9    0.68    0.64
  -2 -10  -9   -0.09    0.28
   2 -10   9    0.63    0.66
  -2 -10   9    1.02    0.68
  -2  10  -9    0.49    0.41
   3  10  -9    2.00    0.60
   3 -10   9    1.07    0.68
  -3 -10  -9    2.61    0.66
  -3  10   9    2.32    0.49
  -3 -10  -9    2.10    0.62
  -3 -10  -9    1.36    0.37
  -3  10  -9    1.67    0.45
  -3 -10   9    2.87    0.85
  -4 -10  -9    5.38    0.96
  -4 -10  -9    4.82    0.81
  -4 -10  -9    3.96    0.66
   4  10  -9    5.05    0.89
   4 -10   9    5.37    1.01
  -4  10   9    5.79    0.84
  -4 -10   9    3.47    0.82
  -4  10  -9    4.86    0.76
  -5 -10  -9    1.21    0.58
  -5  10   9    0.98    0.50
  -5 -10  -9    1.20    0.63
   5  10  -9    1.30    0.72
  -5 -10  -9    1.45    0.59
   5 -10   9    2.77    0.89
  -5  10  -9    1.62    0.55
  -5 -10   9    0.28    0.71
  -5  10  -9    0.58    0.43
  -6 -10  -9   -0.85    0.47
  -6 -10  -9    0.66    0.66
  -6  10   9    0.48    0.48
   6 -10   9    0.76    0.92
  -6 -10   9   -0.13    0.63
  -6  10  -9   -0.81    0.45
  -6  10  -9   -0.13    0.48
   7 -10   9    7.52    1.30
  -7  10   9    4.51    0.78
  -7 -10  -9    5.11    0.96
  -7 -10   9    5.21    1.11
  -7  10  -9    4.34    0.76
  -7  10  -9    3.62    0.77
  -8  10   9    2.17    0.76
  -8 -10  -9    2.83    1.04
  -8 -10   9    2.29    0.90
  -8  10  -9    2.70    0.78
   0 -11   9   -0.11    0.62
   0 -11  -9    0.66    0.51
   0  11  -9    1.10    0.49
  -1  11   9    0.84    0.52
   1 -11   9    0.18    0.68
   1  11  -9    0.35    0.51
  -1 -11  -9    0.33    0.51
   1 -11   9    0.04    0.61
   1 -11  -9    0.64    0.52
  -1 -11   9    0.00    0.72
  -1  11  -9   -0.18    0.46
  -2 -11  -9    2.64    0.75
   2 -11   9    0.09    0.73
  -2  11   9    0.99    0.47
   2 -11   9    1.93    0.79
   2  11  -9    1.11    0.57
  -2  11  -9    1.05    0.49
   2 -11  -9    2.43    0.73
  -2 -11   9    1.00    0.76
   3 -11   9    9.71    1.32
   3  11  -9    8.47    1.22
  -3 -11  -9    7.23    0.77
  -3  11   9    8.30    0.96
  -3 -11  -9    9.47    1.28
  -3  11  -9    8.23    0.95
  -3 -11   9   10.55    1.47
  -4 -11  -9   -0.14    0.42
  -4 -11  -9    0.81    0.67
  -4  11   9    0.55    0.47
   4  11  -9    0.54    0.72
   4 -11   9    0.32    0.86
  -4  11  -9    0.41    0.49
  -4 -11   9    0.09    0.75
  -5 -11  -9    2.13    0.76
   5 -11   9    2.80    1.01
  -5  11   9    1.98    0.58
  -5 -11  -9    2.59    0.69
  -5 -11   9    1.43    0.87
  -5  11  -9    3.23    0.71
  -5  11  -9    2.11    0.58
  -6  11   9   -0.14    0.62
   6 -11   9    2.60    1.10
  -6 -11  -9    0.25    0.74
  -6 -11   9   -0.02    0.86
  -7 -11  -9    0.83    0.89
  -7  11   9    0.38    0.66
   7 -11   9    2.66    1.33
  -7 -11   9   -0.36    0.87
  -7  11  -9    0.43    0.64
  -7  11  -9   -0.52    0.61
   0 -12  -9    4.20    0.84
   0  12  -9    5.44    1.02
   0 -12   9    3.34    0.88
   1 -12   9    1.20    0.87
  -1 -12  -9    3.58    0.80
   1  12  -9    1.59    0.71
   1 -12  -9    1.91    0.71
  -1  12  -9    2.99    0.65
  -1 -12   9    1.96    0.97
   2 -12   9    5.85    1.19
   2  12  -9    4.88    0.87
  -2 -12  -9    8.01    1.19
  -2 -12   9    4.21    1.02
  -2  12  -9    4.64    0.76
   2 -12  -9    6.21    1.01
  -3  12   9    0.71    0.53
   3  12  -9    0.21    0.76
  -3 -12  -9    1.04    0.45
  -3 -12  -9    0.32    0.84
   3 -12   9    0.87    0.91
   3 -12  -9    1.99    0.77
  -3  12  -9    1.09    0.58
  -3 -12   9    2.71    0.94
  -4 -12  -9    8.23    1.46
  -4  12   9    5.54    0.86
  -4 -12  -9    6.28    0.87
   4 -12   9    8.63    1.46
  -4  12  -9    7.15    1.05
  -4 -12   9    5.08    1.12
   4 -12  -9    6.52    1.13
   5 -12   9    6.72    1.40
  -5  12   9    3.20    0.73
  -5 -12  -9    4.71    0.97
  -5 -12  -9    2.79    0.78
  -5 -12   9    3.35    0.99
  -5  12  -9    4.04    0.74
  -6  12   9    2.26    0.78
  -6 -12  -9    1.84    0.85
   6 -12   9    3.39    1.39
  -6  12  -9    1.59    0.81
  -6 -12   9    1.22    0.94
   0 -13   9    1.08    0.93
   0 -13  -9    1.02    0.76
   0  13  -9    0.75    0.75
   1 -13   9    2.40    1.15
   1  13  -9    3.04    0.81
   1 -13  -9    3.36    0.87
  -1  13  -9    2.90    0.72
  -1 -13   9    1.85    1.02
  -2  13   9    1.02    0.77
   2  13  -9    0.67    0.86
   2 -13   9   -1.04    0.98
  -2 -13  -9    0.36    1.01
   2 -13  -9    0.81    0.83
  -2  13  -9    0.31    0.66
  -2 -13   9   -1.36    0.90
  -3 -13  -9    2.21    1.02
   3 -13   9    3.05    1.20
  -3 -13   9    4.16    1.28
   3 -13  -9    2.57    0.98
  -4 -13  -9    0.96    1.02
  -4  13   9    0.32    0.71
   4 -13   9   -0.86    1.11
  -4 -13   9   -0.38    1.13
   4 -13  -9    0.50    0.95
   0 -14   9    1.49    1.17
  -1 -14   9    2.03    1.23
   0   0 -10    3.26    0.44
   0   0 -10    3.29    0.42
   0   0  10    3.92    0.55
  -1   0  10   26.86    1.37
  -1   0 -10   26.33    1.17
   1   0 -10   26.18    1.29
   1   0  10   25.46    1.41
  -1   0 -10   27.53    1.34
   1   0 -10   25.28    1.31
   2   0  10    4.54    0.65
  -2   0 -10    5.01    0.51
  -2   0  10    4.29    0.40
   2   0 -10    3.74    0.48
  -2   0  10    3.35    0.54
  -2   0 -10    4.36    0.35
   2   0 -10    5.10    0.60
   3   0 -10    4.53    0.53
  -3   0 -10    4.20    0.51
   3   0 -10    4.75    0.68
  -3   0  10    4.08    0.56
  -3   0  10    3.49    0.45
   4   0 -10   99.17    3.91
  -4   0  10   90.11    3.76
  -4   0 -10   90.86    3.82
  -4   0  10   95.89    3.72
   4   0 -10   97.03    3.88
  -5   0  10   13.69    0.96
  -5   0 -10   12.80    0.59
  -5   0  10   15.42    1.06
   5   0 -10   16.27    1.24
  -5   0 -10   14.14    1.02
   5   0 -10   14.07    1.03
  -6   0  10    0.96    0.39
   6   0 -10    1.02    0.41
   6   0 -10    2.60    0.75
  -6   0  10    1.12    0.47
  -6   0 -10    1.19    0.20
  -6   0 -10    1.49    0.45
  -7   0 -10   27.80    1.72
   7   0 -10   28.34    1.77
  -7   0  10   28.22    1.67
  -7   0 -10   30.10    1.28
  -8   0 -10    7.76    0.65
  -8   0  10    7.65    1.07
  -8   0 -10    8.63    1.16
  -9   0 -10   -0.43    0.35
  -9   0  10   -0.13    0.56
  -9   0 -10    0.12    0.64
 -10   0 -10   10.43    1.01
 -10   0  10   11.35    1.52
 -10   0 -10   12.07    1.62
 -11   0 -10    1.59    1.00
 -11   0  10    1.79    0.95
   0   1  10    6.21    0.64
   0  -1 -10    4.69    0.49
   0  -1 -10    6.19    0.50
   0   1 -10    5.79    0.56
   0  -1  10    5.49    0.47
   0   1 -10    5.33    0.52
   0  -1  10    4.96    0.32
   0  -1  10    5.87    0.66
   0  -1  10    5.27    0.31
   1  -1  10   88.42    3.71
   1   1 -10   91.24    3.65
  -1  -1 -10   96.35    3.63
  -1  -1 -10   90.81    3.41
  -1   1  10   90.20    3.64
   1  -1  10   95.41    3.46
   1   1 -10   92.56    3.60
  -1  -1  10   95.40    3.41
   1  -1 -10   94.11    3.63
   1  -1 -10   82.74    3.52
  -1   1 -10   91.15    3.48
  -1   1 -10   94.75    3.64
  -1  -1  10   90.24    3.65
  -1  -1  10   94.32    3.59
   1   1  10   88.32    3.70
  -2   1  10   12.07    0.66
   2   1 -10   11.91    0.81
  -2  -1 -10   10.71    0.76
  -2  -1 -10   11.40    0.55
   2   1 -10   12.26    0.87
  -2   1  10   11.54    0.82
   2  -1  10   11.87    0.63
   2  -1  10   11.03    0.94
   2  -1 -10   11.49    0.78
  -2   1 -10   12.30    0.64
  -2  -1  10   12.12    0.80
  -2  -1  10   10.77    0.82
   2  -1 -10   11.92    0.84
  -2  -1  10   12.22    0.70
  -2   1 -10   11.84    0.80
  -3   1  10   24.11    1.13
   3   1 -10   20.68    1.29
   3  -1  10   21.78    0.93
  -3   1  10   22.91    1.21
  -3  -1 -10   23.98    1.25
   3   1 -10   23.51    1.28
  -3   1 -10   22.32    1.22
   3  -1 -10   22.93    1.31
  -3  -1  10   23.26    1.16
   3  -1 -10   22.49    1.23
  -3  -1  10   20.30    1.22
  -4  -1 -10   15.04    1.02
  -4   1  10   16.80    0.98
   4   1 -10   18.62    1.20
   4   1 -10   16.53    1.11
  -4   1  10   14.88    1.02
   4  -1 -10   16.91    1.07
  -4   1 -10   15.75    1.03
  -4  -1  10   18.01    1.09
   4  -1 -10   16.70    1.19
  -4  -1  10   16.36    1.02
   5   1 -10    6.83    0.97
  -5  -1 -10    4.18    0.64
  -5   1  10    4.26    0.60
  -5   1  10    5.15    0.71
   5   1 -10    4.17    0.64
  -5   1 -10    3.85    0.56
  -5   1 -10    4.12    0.34
   5  -1 -10    5.80    0.94
  -5  -1  10    5.67    0.76
  -5  -1  10    4.74    0.65
   5  -1 -10    4.60    0.62
  -6  -1 -10    2.87    0.58
  -6  -1 -10    1.88    0.30
   6   1 -10    3.35    0.74
  -6   1  10    2.72    0.54
  -6   1  10    2.82    0.57
   6   1 -10    3.13    0.59
   6  -1 -10    2.13    0.72
  -6  -1  10    2.44    0.52
  -6  -1  10    2.82    0.58
   6  -1 -10    2.24    0.47
  -6   1 -10    2.83    0.32
  -6   1 -10    2.23    0.52
   7   1 -10   17.63    1.40
  -7   1  10   18.20    1.30
  -7  -1 -10   18.30    0.90
  -7  -1 -10   16.06    1.36
  -7   1 -10   17.52    1.35
   7  -1 -10   17.85    1.36
  -7  -1  10   17.60    1.29
  -7   1 -10   18.35    0.90
  -8  -1 -10    1.31    0.59
  -8  -1 -10    0.44    0.31
  -8   1  10    1.17    0.52
  -8  -1  10    1.29    0.59
  -8   1 -10    1.83    0.59
  -8   1 -10    1.29    0.31
  -9  -1 -10    7.05    1.20
  -9   1  10    7.15    1.18
  -9  -1 -10    5.44    0.72
  -9  -1  10    7.13    1.18
  -9   1 -10    6.84    1.21
  -9   1 -10    6.94    0.71
 -10  -1 -10    9.69    1.00
 -10  -1 -10   13.37    1.60
 -10   1  10   12.94    1.54
 -10   1 -10   13.43    1.65
 -10  -1  10   13.69    1.55
 -10   1 -10   12.46    1.01
 -11  -1 -10    7.20    1.29
 -11   1  10    7.83    1.31
 -11  -1 -10    4.66    0.77
 -11   1 -10    6.55    1.35
 -11   1 -10    5.71    0.80
 -11  -1  10    6.87    1.30
   0  -2 -10   15.09    0.88
   0  -2 -10   15.10    0.82
   0  -2  10   15.04    0.96
   0   2 -10   14.18    0.90
   0  -2  10   15.21    0.86
   0  -2  10   15.84    0.69
   0   2 -10   13.56    0.88
   0   2  10   14.03    0.95
   1  -2  10    4.73    0.43
  -1   2  10    3.86    0.38
  -1  -2 -10    4.67    0.48
   1   2 -10    3.77    0.48
  -1   2  10    5.75    0.61
   1  -2  10    4.02    0.63
  -1  -2 -10    5.07    0.39
   1   2 -10    3.90    0.61
   1  -2  10    4.87    0.29
  -1  -2  10    3.45    0.55
  -1   2 -10    3.81    0.51
   1  -2 -10    3.82    0.55
  -1   2 -10    5.26    0.53
  -1  -2  10    3.97    0.47
   1  -2 -10    3.69    0.44
   1   2  10    3.69    0.62
  -2  -2 -10  108.39    4.18
   2   2 -10  106.22    4.23
  -2   2  10  108.29    4.17
  -2   2  10  106.62    3.98
   2  -2  10  108.52    4.00
   2  -2  10  103.94    3.82
   2  -2  10  105.50    4.30
  -2  -2 -10  105.90    3.83
   2   2 -10  108.57    4.25
  -2  -2  10  105.98    4.20
  -2   2 -10  108.52    4.20
   2  -2 -10  108.97    4.18
  -2  -2  10  114.70    4.25
   2  -2 -10  104.08    4.16
  -2   2 -10  105.26    4.00
   3  -2  10   15.30    0.77
   3   2 -10   16.02    1.04
  -3   2  10   14.89    0.84
   3   2 -10   15.70    1.13
  -3   2  10   15.55    0.97
  -3  -2 -10   16.17    0.98
  -3  -2  10   14.87    1.01
  -3   2 -10   15.61    0.97
   3  -2 -10   16.00    0.97
  -3  -2  10   16.37    1.03
   3  -2 -10   14.90    1.07
  -4   2  10   53.58    2.28
   4   2 -10   51.65    2.50
  -4   2  10   53.80    2.33
   4   2 -10   51.55    2.46
  -4  -2 -10   53.41    2.42
  -4   2 -10   54.82    2.41
   4  -2 -10   56.24    2.43
  -4  -2  10   55.98    2.49
  -4  -2  10   56.64    2.44
  -4   2 -10   52.95    2.03
   4  -2 -10   54.40    2.50
   5   2 -10   15.51    1.11
  -5  -2 -10   15.68    1.10
  -5   2  10   13.95    1.01
   5   2 -10   14.11    1.29
  -5  -2 -10   14.67    0.63
   5  -2  10   13.93    0.70
  -5   2  10   15.11    0.99
  -5   2 -10   13.86    0.99
   5  -2 -10   15.70    1.05
  -5   2 -10   15.68    0.71
  -5  -2  10   15.87    1.15
  -5  -2  10   14.65    1.11
   5  -2 -10   15.31    1.31
  -6  -2 -10   10.78    1.03
  -6   2  10   11.67    0.96
  -6   2  10   13.45    1.06
   6   2 -10   11.63    1.06
   6  -2  10   10.75    0.59
  -6  -2 -10   11.21    0.61
  -6  -2  10   11.53    0.99
  -6   2 -10   11.21    0.62
   6  -2 -10   11.54    0.98
   6  -2 -10   12.12    1.32
  -6   2 -10    9.38    0.90
   7  -2  10   12.92    0.69
  -7   2  10   12.81    1.14
  -7  -2 -10   13.88    1.25
  -7   2  10   14.71    1.24
   7   2 -10   14.99    1.30
  -7  -2 -10   15.10    0.81
   7  -2  10   12.82    0.69
  -7  -2  10   12.98    1.19
   7  -2 -10   12.63    1.15
  -7   2 -10   13.32    0.77
  -8  -2 -10   13.33    0.90
   8  -2  10   13.15    0.90
   8  -2  10   14.44    0.75
  -8   2  10   12.05    1.23
  -8  -2 -10   13.13    1.34
  -8   2 -10   15.03    0.87
  -8   2 -10   15.27    1.32
  -8  -2  10   13.64    1.32
  -9  -2 -10    1.50    0.70
  -9   2  10    0.20    0.62
  -9  -2 -10    0.94    0.41
  -9   2 -10    1.56    0.68
  -9   2 -10    0.71    0.37
  -9  -2  10    0.47    0.60
 -10   2  10   13.73    1.60
 -10  -2 -10   14.78    1.18
 -10  -2 -10   14.36    1.66
 -10  -2  10   15.00    1.67
 -10   2 -10   14.54    1.61
 -10   2 -10   14.06    1.08
 -11   2  10    6.86    1.12
 -11  -2 -10    7.72    1.35
 -11  -2 -10    6.13    0.85
 -11   2 -10    6.83    0.83
 -11   2 -10    6.35    1.27
 -11  -2  10    5.49    1.12
   0  -3  10   12.68    0.79
   0  -3  10   12.48    0.90
   0   3 -10   11.60    0.86
   0  -3 -10   12.55    0.77
   0  -3  10   12.29    0.63
   0   3 -10   10.07    0.76
   0   3  10   11.45    0.87
   0   3  10   11.27    0.54
   0  -3 -10   11.17    0.73
  -1   3  10   10.92    0.79
  -1  -3 -10   10.03    0.60
   1  -3  10   10.41    0.70
   1   3 -10   10.29    0.75
   1  -3  10   10.07    0.54
  -1  -3 -10   10.72    0.73
   1  -3  10   11.01    0.86
   1   3 -10   11.03    0.86
  -1   3  10   10.16    0.54
  -1   3 -10    9.79    0.74
   1  -3 -10   10.40    0.77
  -1  -3  10    9.07    0.61
  -1  -3  10    9.86    0.75
   1  -3 -10    9.29    0.67
  -1  -3  10    9.99    0.78
  -1   3 -10    9.48    0.73
  -2  -3 -10   48.55    2.05
   2   3 -10   48.53    2.15
  -2   3  10   46.92    1.88
   2  -3  10   44.64    1.78
  -2  -3 -10   45.95    1.73
   2  -3  10   41.25    2.15
   2  -3  10   47.32    1.95
  -2   3  10   46.99    2.04
   2   3 -10   47.43    2.17
  -2   3 -10   47.18    2.08
  -2  -3  10   45.51    2.10
  -2  -3  10   44.50    2.07
   2  -3 -10   46.43    2.08
   2  -3 -10   44.09    2.00
  -2   3 -10   46.87    1.96
   3   3 -10    8.58    0.94
  -3   3  10    7.07    0.57
   3   3 -10    7.85    0.73
  -3  -3 -10    7.01    0.63
   3  -3  10    6.97    0.48
   3  -3  10    7.73    0.60
  -3   3  10    8.50    0.69
   3  -3 -10    8.21    0.86
  -3   3 -10    7.22    0.67
   3  -3 -10    8.25    0.66
  -3  -3  10    7.10    0.71
  -3  -3  10    5.94    0.74
  -4   3  10    9.02    0.75
   4  -3  10   10.30    0.67
  -4  -3 -10    8.74    0.78
   4  -3  10    9.85    0.59
   4   3 -10    9.43    1.06
  -4   3  10    9.11    0.70
   4   3 -10    8.63    0.82
  -4   3 -10    9.93    0.79
  -4   3 -10   11.09    0.56
  -4  -3  10    9.10    0.85
   4  -3 -10    8.49    0.73
   4  -3 -10    9.13    0.99
  -5   3  10    3.00    0.48
  -5  -3 -10    3.01    0.30
  -5   3  10    2.36    0.50
   5  -3  10    2.84    0.48
  -5  -3 -10    2.68    0.52
  -5  -3 -10    3.28    0.32
   5   3 -10    3.19    0.76
   5   3 -10    3.32    0.57
  -5   3 -10    3.18    0.34
   5  -3 -10    3.73    0.79
  -5   3 -10    2.62    0.49
   5  -3 -10    3.09    0.58
  -5  -3  10    2.54    0.54
   6  -3  10    4.26    0.53
   6   3 -10    3.56    0.64
  -6  -3 -10    3.10    0.45
  -6   3  10    3.57    0.54
  -6  -3 -10    3.78    0.44
  -6   3  10    5.08    0.75
  -6  -3 -10    3.62    0.66
  -6   3 -10    3.60    0.61
  -6  -3  10    3.89    0.70
  -6   3 -10    3.85    0.42
   6  -3 -10    4.01    0.69
  -7   3  10   31.42    1.76
   7   3 -10   30.28    1.97
   7  -3  10   34.55    1.48
  -7  -3 -10   32.74    1.47
  -7   3  10   35.71    1.85
  -7  -3 -10   31.23    1.93
  -7   3 -10   27.52    1.74
  -7   3 -10   34.93    1.48
   8  -3  10    2.07    0.46
  -8  -3 -10    1.68    0.64
  -8  -3 -10    1.89    0.42
  -8   3  10    1.09    0.58
   8  -3  10    3.06    0.48
  -8  -3  10    1.82    0.67
  -8   3 -10    1.68    0.36
  -9  -3 -10    4.15    0.91
   9  -3  10    5.93    0.79
  -9  -3 -10    4.16    0.61
  -9   3  10    2.60    0.72
  -9   3 -10    2.94    0.76
  -9   3 -10    3.89    0.56
  -9  -3  10    4.68    0.98
 -10   3  10    4.44    0.88
 -10  -3 -10    4.32    1.07
 -10  -3 -10    4.42    0.74
 -10   3 -10    7.69    1.41
 -10   3 -10    6.04    0.85
 -10  -3  10    4.98    1.09
 -11  -3 -10    1.49    1.07
 -11  -3 -10    0.96    0.91
 -11   3 -10    2.90    1.02
 -11   3 -10   -0.22    0.57
 -11  -3  10    0.68    0.95
   0  -4  10    2.03    0.36
   0  -4 -10    3.30    0.44
   0  -4  10    2.93    0.47
   0   4 -10    2.37    0.42
   0  -4 -10    2.77    0.42
   0   4 -10    1.90    0.50
   0   4  10    2.66    0.27
   0  -4  10    2.46    0.44
   0  -4 -10    2.89    0.34
   1   4 -10    5.28    0.59
  -1  -4 -10    5.26    0.49
   1  -4  10    5.43    0.61
  -1  -4 -10    6.24    0.55
   1  -4  10    5.41    0.44
   1  -4  10    7.17    0.73
  -1   4  10    5.21    0.63
  -1   4  10    5.48    0.39
   1   4 -10    4.88    0.74
  -1  -4 -10    5.42    0.38
  -1   4 -10    6.37    0.69
  -1   4 -10    5.28    0.56
   1  -4 -10    4.87    0.48
   1  -4 -10    4.68    0.48
  -1  -4  10    6.60    0.67
  -1  -4  10    5.15    0.60
  -1  -4  10    6.20    0.54
   1  -4 -10    5.51    0.66
  -2  -4 -10   27.65    1.16
  -2   4  10   29.43    1.42
  -2   4  10   29.88    1.27
   2  -4  10   29.01    1.40
   2  -4  10   27.84    1.23
  -2  -4 -10   28.59    1.40
   2   4 -10   27.87    1.58
  -2  -4 -10   27.34    1.16
   2   4 -10   28.09    1.50
   2  -4  10   27.08    1.57
  -2   4 -10   28.77    1.45
  -2  -4  10   28.17    1.47
   2  -4 -10   28.03    1.48
  -2   4 -10   27.84    1.40
  -2  -4  10   28.46    1.50
   2  -4 -10   23.31    1.29
   2  -4 -10   29.35    1.38
  -3  -4 -10    2.99    0.47
  -3   4  10    2.90    0.42
   3  -4  10    3.88    0.53
   3   4 -10    3.18    0.59
   3  -4  10    3.91    0.42
  -3  -4 -10    4.20    0.28
  -3   4  10    4.16    0.57
   3   4 -10    3.03    0.70
   3  -4 -10    2.91    0.57
  -3  -4  10    3.82    0.63
  -3   4 -10    2.94    0.55
  -3  -4  10    2.41    0.48
   3  -4 -10    3.76    0.47
  -4  -4 -10   16.82    1.12
  -4   4  10   17.91    1.06
   4  -4  10   18.18    1.03
   4   4 -10   17.22    1.39
   4   4 -10   16.67    1.19
  -4  -4 -10   17.49    0.78
   4  -4  10   17.64    0.95
  -4   4  10   19.34    1.06
  -4  -4  10   17.26    1.20
  -4   4 -10   19.84    1.15
   4  -4 -10   19.70    1.11
   4  -4 -10   18.70    1.35
  -4   4 -10   19.00    0.91
   5   4 -10    1.29    0.46
  -5  -4 -10    1.23    0.25
  -5   4  10    1.03    0.39
  -5   4  10    0.39    0.30
  -5  -4 -10    0.90    0.40
   5   4 -10    0.90    0.65
   5  -4  10    1.31    0.36
   5  -4  10    0.89    0.32
  -5  -4 -10    1.29    0.24
  -5   4 -10    0.95    0.33
   5  -4 -10    0.50    0.64
  -5  -4  10    0.91    0.44
   5  -4 -10    0.61    0.34
  -5   4 -10    0.72    0.23
   6  -4  10    4.14    0.68
   6   4 -10    3.74    0.69
  -6   4  10    3.59    0.63
   6  -4  10    3.96    0.65
  -6   4  10    2.69    0.53
  -6  -4 -10    3.52    0.47
  -6  -4 -10    4.33    0.51
  -6  -4 -10    3.11    0.62
  -6   4 -10    4.01    0.47
  -6   4 -10    3.05    0.56
  -6  -4  10    5.32    0.83
   6  -4 -10    4.13    0.73
   7  -4  10    1.70    0.47
  -7   4  10    0.44    0.38
  -7  -4 -10    0.40    0.37
  -7   4  10    1.70    0.54
   7   4 -10    0.63    0.54
  -7  -4 -10    0.82    0.34
  -7  -4 -10    0.57    0.54
  -7   4 -10    1.10    0.29
  -7  -4  10    0.70    0.54
  -7   4 -10    0.33    0.42
  -8   4  10    2.02    0.75
   8  -4  10    2.51    0.54
  -8  -4 -10    1.38    0.42
  -8  -4 -10    2.41    0.71
  -8   4  10    0.64    0.47
  -8   4 -10    0.67    0.48
  -8   4 -10    1.57    0.39
  -9   4  10   -0.79    0.54
  -9  -4 -10    0.02    0.44
  -9  -4 -10    1.12    0.78
  -9  -4  10    0.41    0.68
  -9   4 -10   -0.20    0.37
 -10   4  10   13.02    1.48
 -10  -4 -10   16.32    1.32
 -10  -4 -10   16.48    1.90
 -10  -4  10   14.66    1.84
 -10   4 -10   16.09    1.23
 -10   4 -10   12.88    1.49
 -11   4  10    1.71    0.89
 -11  -4 -10    1.28    1.11
 -11   4 -10    0.05    0.91
 -11  -4  10    3.02    1.25
   0   5 -10   19.28    1.26
   0  -5  10   19.21    1.02
   0   5 -10   21.21    1.19
   0   5  10   21.04    0.94
   0  -5  10   21.45    1.26
   0  -5 -10   20.83    1.07
   0  -5  10   19.20    1.19
   0  -5 -10   19.43    0.98
  -1  -5 -10   10.10    0.62
  -1   5  10   11.84    0.64
   1  -5  10   11.08    0.70
   1   5 -10    9.76    0.81
   1  -5  10   10.57    0.86
   1   5 -10    8.91    0.97
  -1  -5 -10   11.56    0.74
  -1   5  10   10.55    0.85
   1  -5  10   12.53    0.96
  -1  -5  10   10.61    0.77
  -1   5 -10   11.90    0.94
  -1  -5  10    9.92    0.85
   1  -5 -10   10.99    0.73
  -1   5 -10    9.78    0.78
  -1  -5  10   11.30    0.89
   1  -5 -10   10.56    0.70
  -2   5  10    9.11    0.76
   2  -5  10    8.78    0.64
  -2   5  10    9.29    0.62
   2  -5  10    9.42    0.81
   2   5 -10    9.07    0.81
   2  -5  10    9.12    0.96
  -2  -5 -10    9.79    0.70
   2   5 -10    8.55    1.02
  -2  -5 -10    9.78    0.57
  -2  -5 -10    9.27    0.54
  -2  -5  10    9.62    0.84
   2  -5 -10    9.71    0.74
  -2  -5  10    8.56    0.82
  -2   5 -10    8.41    0.75
  -2   5 -10    9.22    0.86
  -2  -5  10    8.93    0.77
   2  -5 -10    9.63    0.66
  -3   5  10    3.31    0.58
  -3  -5 -10    3.00    0.35
   3  -5  10    2.24    0.45
   3   5 -10    2.37    0.64
   3   5 -10    2.67    0.49
  -3   5  10    2.49    0.41
  -3  -5 -10    2.73    0.46
   3  -5  10    3.57    0.52
  -3  -5 -10    2.48    0.31
  -3   5 -10    3.14    0.56
   3  -5 -10    2.62    0.48
   3  -5 -10    2.59    0.46
  -3  -5  10    1.76    0.45
   4  -5  10    7.37    0.68
   4   5 -10    7.55    0.83
  -4  -5 -10    7.75    0.52
   4   5 -10    7.02    1.22
  -4   5  10    7.40    0.66
   4  -5  10    8.75    0.80
  -4  -5 -10    5.62    0.72
  -4   5  10    6.96    0.72
  -4  -5  10    7.48    0.84
   4  -5 -10    6.87    0.84
  -4   5 -10    7.88    0.78
   4  -5 -10    8.00    0.70
  -4  -5  10    7.05    0.83
  -4   5 -10    7.28    0.60
  -5  -5 -10    6.54    0.54
   5  -5  10    6.85    0.80
   5  -5  10    6.55    0.75
  -5   5  10    7.61    0.71
  -5  -5 -10    7.18    0.83
   5   5 -10    7.42    0.91
  -5   5  10    5.78    0.72
  -5   5 -10    6.77    0.57
   5  -5 -10    7.83    0.73
  -5  -5  10    6.12    0.81
   5  -5 -10    5.57    0.92
  -5   5 -10    6.54    0.72
  -6   5  10    2.06    0.48
   6  -5  10    3.14    0.54
  -6   5  10    1.96    0.44
  -6  -5 -10    2.27    0.59
   6   5 -10    2.91    0.66
   6  -5  10    3.06    0.55
  -6  -5 -10    2.10    0.39
  -6   5 -10    1.98    0.35
   6  -5 -10    1.76    0.49
  -6   5 -10    3.69    0.64
  -6  -5  10    2.36    0.64
   7   5 -10    1.74    0.60
  -7   5  10    1.39    0.48
  -7  -5 -10    2.00    0.48
  -7   5  10    1.20    0.53
  -7  -5 -10    2.37    0.68
  -7  -5 -10    1.79    0.42
   7  -5  10    2.85    0.60
   7  -5  10    1.31    0.61
  -7  -5  10    2.20    0.70
  -7   5 -10    3.15    0.55
  -7   5 -10    1.84    0.49
  -8  -5 -10    5.77    0.97
  -8   5  10    9.49    1.19
  -8  -5 -10    8.17    1.25
  -8   5  10    6.00    0.95
  -8  -5 -10    7.35    0.80
  -8   5 -10    6.52    0.72
  -8  -5  10    6.68    1.09
  -8   5 -10    5.81    0.87
  -9   5  10   -0.22    0.56
  -9  -5 -10    0.22    0.53
  -9  -5 -10    0.88    0.81
  -9   5 -10   -0.67    0.50
  -9   5 -10    0.52    0.43
 -10  -5 -10    2.16    1.06
 -10  -5 -10    2.25    0.69
 -10   5  10    0.85    0.76
 -10  -5  10    3.31    1.02
 -10   5 -10    2.73    0.63
 -10   5 -10    1.22    0.71
 -11  -5  10    1.61    1.41
   0   6 -10    3.82    0.56
   0   6 -10    5.10    0.87
   0  -6 -10    3.95    0.53
   0   6  10    4.86    0.44
   0  -6 -10    4.12    0.51
   0  -6  10    5.37    0.77
   0  -6  10    5.04    0.72
   0  -6  10    4.45    0.57
  -1  -6 -10   24.10    1.15
  -1  -6 -10   23.42    1.19
   1   6 -10   24.65    1.41
   1  -6  10   24.72    1.25
   1  -6  10   27.19    1.50
  -1   6  10   25.30    1.18
   1  -6  10   24.87    1.43
  -1  -6 -10   25.16    1.24
   1   6 -10   25.30    1.56
  -1   6 -10   25.79    1.37
  -1  -6  10   24.37    1.41
  -1  -6  10   22.54    1.43
  -1  -6  10   23.80    1.29
  -1   6 -10   25.28    1.50
   1  -6 -10   23.53    1.25
   1  -6 -10   25.57    1.21
   2   6 -10    9.88    0.89
  -2   6  10    9.42    0.82
  -2  -6 -10   10.21    0.66
  -2   6  10   10.95    0.70
   2   6 -10    8.76    1.15
   2  -6  10   10.26    0.77
   2  -6  10    9.37    1.03
   2  -6  10   10.75    0.92
  -2  -6 -10   11.15    0.76
  -2  -6 -10   11.80    0.69
  -2  -6  10   10.31    0.94
  -2   6 -10   10.56    1.01
  -2   6 -10   11.02    0.84
  -2  -6  10    9.50    0.92
   2  -6 -10   11.66    0.87
   2  -6 -10   11.18    0.72
  -2  -6  10   11.49    0.90
  -3   6  10    7.03    0.73
   3   6 -10    6.76    0.80
  -3  -6 -10    8.46    0.70
   3  -6  10    9.57    0.88
   3  -6  10    8.13    0.73
  -3   6  10    8.02    0.64
   3   6 -10    7.74    1.07
   3  -6  10    7.79    1.00
  -3  -6 -10    8.56    0.59
  -3  -6 -10    8.93    0.60
  -3  -6  10    7.47    0.86
   3  -6 -10    8.32    0.68
  -3  -6  10    7.89    0.87
   3  -6 -10    8.75    0.88
  -3   6 -10    8.91    0.82
  -3  -6  10    6.39    0.92
   4   6 -10    3.44    0.62
  -4   6  10    4.57    0.55
   4  -6  10    4.56    0.76
  -4  -6 -10    3.67    0.60
   4  -6  10    3.89    0.66
  -4  -6 -10    4.41    0.51
  -4  -6 -10    3.86    0.35
  -4   6  10    5.77    0.67
  -4   6 -10    4.19    0.54
   4  -6 -10    3.48    0.64
  -4   6 -10    4.46    0.68
   4  -6 -10    4.44    0.57
  -4  -6  10    4.43    0.76
  -5  -6 -10    3.13    0.43
  -5   6  10    2.33    0.47
   5  -6  10    4.02    0.67
   5   6 -10    3.39    0.71
  -5  -6 -10    2.49    0.56
   5  -6  10    3.20    0.57
  -5   6  10    2.67    0.48
   5  -6 -10    2.53    0.70
  -5  -6  10    2.66    0.59
  -5   6 -10    2.81    0.50
  -5   6 -10    3.05    0.54
   5  -6 -10    3.63    0.62
   6  -6  10    8.87    1.09
  -6   6  10    6.87    0.84
  -6  -6 -10    8.64    0.77
  -6   6  10    8.93    0.86
   6  -6  10   10.06    1.06
   6   6 -10    9.25    1.09
  -6  -6 -10   10.24    1.10
  -6  -6  10    8.90    1.04
  -6   6 -10    9.49    0.91
  -6   6 -10    8.30    0.75
  -7   6  10    0.70    0.49
   7   6 -10    0.03    0.64
  -7  -6 -10    0.74    0.61
   7  -6  10    1.53    0.63
   7  -6  10    1.61    0.65
  -7   6  10    0.89    0.46
  -7  -6 -10    1.18    0.49
  -7  -6  10    0.63    0.57
  -7   6 -10    1.41    0.46
  -7   6 -10    0.69    0.37
  -8   6  10    0.26    0.51
  -8  -6 -10    1.86    0.76
   8  -6  10    2.44    0.69
  -8  -6 -10    1.11    0.48
   8  -6  10    0.19    1.08
  -8   6 -10    1.19    0.43
  -8  -6  10    1.49    0.79
  -8   6 -10    0.81    0.53
  -9  -6 -10    1.58    0.59
  -9   6  10    2.27    0.71
  -9  -6 -10    1.19    0.83
  -9   6 -10    1.88    0.53
  -9  -6  10    1.00    0.80
  -9   6 -10    1.28    0.63
 -10   6  10    3.13    0.88
 -10  -6 -10    1.60    0.77
 -10  -6 -10    0.99    0.97
 -10   6 -10    1.85    0.62
 -10   6 -10    1.47    0.71
   0  -7 -10   13.67    0.82
   0   7 -10   15.13    1.31
   0  -7  10   13.68    1.11
   0  -7  10   12.73    0.94
   0   7 -10   13.22    0.99
   0  -7 -10   11.90    0.89
   0  -7  10   14.56    1.12
   0   7  10   14.51    0.85
   1   7 -10    1.90    0.69
   1  -7  10    1.88    0.51
  -1  -7 -10    2.63    0.45
   1  -7  10    2.14    0.44
  -1  -7 -10    3.54    0.55
  -1   7  10    2.26    0.36
   1   7 -10    2.39    0.49
  -1  -7 -10    2.03    0.39
   1  -7 -10    2.62    0.40
  -1  -7  10    2.65    0.57
  -1  -7  10    2.58    0.58
   1  -7 -10    2.14    0.46
  -1  -7  10    2.62    0.51
  -1   7 -10    1.74    0.39
  -1   7 -10    3.47    0.72
  -2  -7 -10    3.38    0.49
  -2  -7 -10    4.22    0.53
   2  -7  10    3.40    0.62
   2  -7  10    3.83    0.72
  -2  -7 -10    3.56    0.54
   2  -7  10    5.15    0.69
  -2   7  10    4.38    0.51
   2   7 -10    3.83    0.80
   2   7 -10    3.90    0.65
   2  -7 -10    4.22    0.47
  -2  -7  10    3.38    0.64
   2  -7 -10    4.85    0.76
  -2   7 -10    2.86    0.49
  -2  -7  10    3.01    0.56
  -2  -7  10    3.13    0.63
   3  -7  10   28.40    1.49
   3  -7  10   29.09    1.64
  -3   7  10   27.20    1.40
  -3  -7 -10   27.99    1.32
  -3  -7 -10   28.85    1.34
  -3   7  10   29.72    1.42
  -3  -7 -10   28.52    1.45
   3   7 -10   27.27    1.64
   3  -7 -10   27.18    1.58
   3  -7 -10   28.18    1.34
  -3  -7  10   25.97    1.66
  -3   7 -10   26.32    1.48
  -3  -7  10   24.59    1.60
  -4   7  10    3.09    0.50
  -4  -7 -10    3.09    0.47
  -4   7  10    2.11    0.46
   4  -7  10    2.71    0.62
  -4  -7 -10    2.65    0.55
  -4  -7 -10    2.59    0.44
   4   7 -10    2.64    0.63
   4  -7 -10    3.07    0.66
  -4  -7  10    2.72    0.66
  -4   7 -10    3.91    0.61
   4  -7 -10    2.25    0.39
  -4   7 -10    2.83    0.53
  -4  -7  10    1.15    0.64
  -5  -7 -10    4.69    0.70
   5  -7  10    5.75    0.93
   5   7 -10    5.36    0.92
  -5   7  10    7.16    0.76
  -5   7  10    5.25    0.69
  -5  -7 -10    5.53    0.49
  -5  -7 -10    6.09    0.90
   5  -7  10    5.65    0.97
   5  -7 -10    3.85    0.83
  -5  -7  10    5.07    0.90
  -5   7 -10    6.61    0.66
  -5   7 -10    6.12    0.84
  -6  -7 -10    1.59    0.62
   6   7 -10    1.34    0.68
   6  -7  10    1.07    0.65
   6  -7  10    2.11    0.69
  -6   7  10    1.37    0.43
  -6  -7 -10    1.22    0.48
  -6   7  10    1.79    0.47
  -6  -7  10    1.66    0.65
  -6   7 -10    1.30    0.38
  -6   7 -10    2.05    0.57
  -7   7  10    4.74    0.71
   7  -7  10    7.30    1.24
   7   7 -10    6.98    1.27
  -7  -7 -10    5.65    0.80
  -7  -7 -10    5.52    0.91
   7  -7  10    6.00    0.99
  -7   7 -10    4.71    0.75
  -7  -7  10    6.42    1.12
  -7   7 -10    6.10    0.91
   8  -7  10    1.42    0.77
  -8  -7 -10    1.08    0.75
  -8   7  10   -0.07    0.55
  -8   7 -10    0.60    0.47
  -8   7 -10   -0.32    0.52
  -8  -7  10    1.07    0.77
  -9   7  10    5.44    0.92
  -9  -7 -10    7.46    1.16
  -9  -7  10    6.24    1.19
  -9   7 -10    6.46    1.06
 -10  -7 -10    3.41    1.25
 -10   7  10    3.34    0.92
 -10  -7  10    3.28    1.16
 -10   7 -10    3.20    0.78
 -10   7 -10    4.46    0.95
   0   8 -10   -0.07    0.34
   0  -8  10   -0.02    0.41
   0  -8  10    0.28    0.48
   0  -8  10    0.60    0.49
   0   8 -10    1.12    0.69
   0   8  10    0.64    0.31
   0  -8 -10   -0.26    0.33
  -1  -8 -10    7.59    0.78
   1  -8  10    7.05    0.97
  -1  -8 -10    7.28    0.70
   1  -8  10    9.39    1.02
  -1  -8 -10    8.41    0.66
   1   8 -10    7.23    0.83
   1  -8  10    6.32    0.85
  -1   8  10    6.63    0.65
   1  -8 -10    7.76    0.88
  -1  -8  10    5.71    0.93
  -1  -8  10    6.70    0.91
  -1   8 -10    5.74    0.72
   1  -8 -10    6.74    0.55
  -1   8 -10    7.23    1.04
  -1  -8  10    7.92    1.04
   2   8 -10    8.75    0.93
  -2   8  10    9.34    0.78
  -2  -8 -10    8.94    0.71
  -2  -8 -10    8.92    0.75
   2  -8  10    8.57    1.15
  -2  -8 -10    9.61    0.83
   2  -8  10    9.55    1.06
   2  -8  10   11.03    0.97
   2  -8 -10    9.75    0.67
  -2  -8  10    6.28    0.99
  -2   8 -10    9.53    0.85
  -2  -8  10    9.39    1.06
   2  -8 -10    9.40    1.01
   3   8 -10    4.93    0.84
   3  -8  10    6.17    0.95
  -3  -8 -10    6.37    0.74
   3  -8  10    6.42    0.93
  -3  -8 -10    4.80    0.60
  -3  -8 -10    6.28    0.74
  -3   8  10    4.74    0.63
   3  -8 -10    5.97    0.56
  -3   8 -10    4.47    0.67
   3  -8 -10    5.34    0.81
  -3  -8  10    5.54    0.89
  -4  -8 -10    1.37    0.43
  -4  -8 -10    2.15    0.49
   4   8 -10    2.05    0.59
  -4   8  10    1.66    0.41
   4  -8  10    1.64    0.63
  -4  -8 -10    2.39    0.46
  -4  -8  10    1.20    0.55
   4  -8 -10    2.54    0.73
  -4   8 -10    1.39    0.43
   4  -8 -10    2.55    0.41
  -5   8  10    9.57    0.86
  -5  -8 -10   10.55    1.10
  -5   8  10    8.87    0.88
   5  -8  10   12.91    1.26
  -5  -8 -10    7.72    0.69
   5  -8  10   11.36    1.26
   5   8 -10   10.43    1.19
  -5  -8 -10    8.95    0.92
  -5  -8  10   10.02    1.18
  -5   8 -10   11.96    1.07
  -5   8 -10   12.08    0.97
   6  -8  10   10.89    1.40
  -6   8  10   11.12    1.01
   6   8 -10    9.45    1.40
  -6  -8 -10   11.21    1.27
   6  -8  10   11.83    1.77
  -6  -8 -10   11.83    1.11
  -6   8 -10   10.74    1.11
  -6  -8  10   10.01    1.27
  -6   8 -10    9.15    0.95
  -7  -8 -10    2.61    0.76
   7  -8  10    3.36    0.91
  -7   8  10    2.87    0.62
  -7  -8  10    2.99    0.75
  -7   8 -10    3.65    0.73
  -7   8 -10    2.28    0.57
   8  -8  10    7.05    1.17
  -8  -8 -10    5.41    1.05
  -8   8  10    4.69    0.79
  -8  -8  10    3.01    0.96
  -8   8 -10    3.65    0.69
  -9   8  10    2.43    0.72
  -9  -8 -10    3.49    1.11
   9  -8  10    5.52    1.17
  -9  -8  10    3.58    1.14
  -9   8 -10    2.76    0.78
  -9   8 -10    1.71    0.70
   0  -9 -10    2.98    0.45
   0  -9  10    4.18    0.69
   0   9 -10    4.26    0.73
   0  -9 -10    4.12    0.72
   0  -9  10    3.14    0.73
  -1   9  10   14.11    0.96
  -1  -9 -10   13.15    0.99
   1  -9  10   11.63    1.22
   1  -9  10   10.90    1.12
  -1  -9 -10   13.14    0.82
  -1  -9 -10   12.18    1.09
   1  -9  10   10.84    1.22
   1   9 -10   11.79    1.06
  -1   9 -10   10.19    0.97
  -1  -9  10   11.39    1.23
   1  -9 -10   10.40    1.13
   1  -9 -10   12.39    0.73
  -2   9  10    1.28    0.41
   2  -9  10    1.27    0.63
   2  -9  10    1.99    0.59
  -2  -9 -10    1.74    0.49
   2   9 -10    1.45    0.48
  -2  -9 -10    2.04    0.51
   2  -9  10    1.47    0.65
  -2  -9 -10    1.43    0.35
   2  -9 -10    0.77    0.60
  -2   9 -10    1.48    0.45
  -2  -9  10    2.16    0.68
   2  -9 -10    1.43    0.28
   3   9 -10   12.67    1.18
   3  -9  10   13.09    1.27
  -3  -9 -10   13.04    1.07
  -3  -9 -10   13.43    1.08
   3  -9  10   12.73    1.31
  -3   9  10   13.32    1.00
  -3  -9 -10   12.56    0.92
   3  -9 -10   10.20    1.32
  -3  -9  10   10.32    1.27
   3  -9 -10   12.76    0.76
  -3   9 -10   12.70    1.01
  -4  -9 -10    5.01    0.66
   4   9 -10    5.00    0.86
  -4   9  10    4.30    0.72
  -4  -9 -10    4.85    0.70
  -4  -9 -10    3.16    0.56
   4  -9  10    4.06    0.85
  -4   9 -10    3.84    0.71
  -4  -9  10    4.66    0.90
  -5  -9 -10   18.90    1.37
  -5  -9 -10   16.78    1.08
   5  -9  10   16.61    1.57
  -5   9  10   17.24    1.22
  -5  -9 -10   18.30    1.32
   5   9 -10   15.63    1.57
  -5  -9  10   16.42    1.50
  -5   9 -10   14.42    1.19
  -5   9 -10   18.30    1.28
  -6   9  10   -0.14    0.45
  -6  -9 -10   -0.01    0.65
   6   9 -10    0.34    0.75
  -6  -9 -10    0.01    0.40
   6  -9  10    0.49    0.82
  -6   9 -10    1.10    0.48
  -6   9 -10   -0.28    0.57
  -6  -9  10   -0.30    0.62
  -7   9  10    1.10    0.62
   7  -9  10    3.22    1.08
  -7  -9 -10    2.34    0.84
  -7   9 -10    0.98    0.56
  -7  -9  10    1.62    0.77
  -7   9 -10    2.36    0.71
   8  -9  10    2.49    1.15
  -8   9  10    0.72    0.64
  -8  -9 -10    1.27    0.88
  -8   9 -10    1.37    0.75
  -8   9 -10   -0.06    0.62
  -8  -9  10    1.34    0.83
   0 -10 -10    5.14    0.76
   0 -10  10    4.02    0.91
   0 -10 -10    4.27    0.48
   0  10 -10    4.01    0.70
  -1 -10 -10    2.20    0.39
  -1 -10 -10    3.39    0.74
   1  10 -10    1.94    0.55
  -1  10  10    2.56    0.55
   1 -10  10    1.95    0.75
  -1 -10 -10    2.65    0.57
  -1  10 -10    3.20    0.59
   1 -10 -10    2.57    0.42
  -1 -10  10    2.12    0.76
   1 -10 -10    3.06    0.66
   1 -10 -10    1.34    0.67
  -2  10  10   11.18    1.01
   2 -10  10   13.11    1.43
  -2 -10 -10   14.09    0.91
  -2 -10 -10   13.45    1.29
  -2 -10 -10   16.74    1.27
   2  10 -10   12.81    1.23
  -2 -10  10   12.68    1.43
  -2  10 -10   13.16    1.11
  -3  10  10    0.67    0.42
   3  10 -10   -0.10    0.58
  -3 -10 -10    0.36    0.34
   3 -10  10    0.48    0.70
  -3 -10 -10    0.73    0.56
  -3 -10 -10    1.02    0.62
  -3  10 -10    0.05    0.43
  -3 -10  10   -0.42    0.68
  -4 -10 -10   18.64    1.22
   4  10 -10   17.45    1.56
  -4 -10 -10   16.65    1.31
  -4  10  10   18.40    1.30
   4 -10  10   17.32    1.64
  -4 -10 -10   17.24    1.47
  -4  10 -10   15.98    1.24
  -4 -10  10   16.93    1.57
  -5 -10 -10    1.85    0.61
  -5  10  10    1.07    0.52
   5  10 -10    1.50    0.82
  -5 -10 -10    0.36    0.53
   5 -10  10    1.10    0.91
  -5  10 -10    2.82    0.69
  -5 -10  10    0.44    0.71
  -5  10 -10    0.24    0.47
  -6  10  10    2.77    0.64
  -6 -10 -10    3.61    0.80
   6 -10  10    2.61    1.03
  -6  10 -10    3.51    0.75
  -6  10 -10    2.10    0.66
  -6 -10  10    2.28    0.90
  -7  10  10    2.31    0.68
   7 -10  10    5.24    1.31
  -7 -10 -10    2.42    0.94
  -7  10 -10    2.81    0.70
  -7  10 -10    1.15    0.68
  -7 -10  10    0.46    0.82
  -8  10  10    2.03    0.81
  -8 -10 -10    3.13    1.09
  -8  10 -10    2.45    0.82
   0 -11 -10    2.16    0.65
   0 -11  10    2.06    0.80
   0  11 -10    1.00    0.55
   1  11 -10    4.24    0.75
   1 -11  10    4.52    1.03
  -1 -11 -10    4.44    0.55
  -1 -11 -10    5.97    0.88
  -1 -11  10    5.46    1.03
  -1  11 -10    4.78    0.79
   1 -11 -10    5.06    0.85
  -2  11  10    1.57    0.53
   2 -11  10    0.61    0.84
  -2 -11 -10    1.95    0.77
   2  11 -10    0.65    0.64
  -2 -11 -10    0.72    0.38
   2 -11 -10    1.53    0.67
  -2  11 -10    0.96    0.51
  -2 -11  10   -0.24    0.72
  -3 -11 -10    3.84    0.72
  -3 -11 -10    4.96    0.92
   3 -11  10    6.71    1.18
   3  11 -10    5.12    0.90
  -3  11  10    4.49    0.71
  -3  11 -10    4.51    0.76
  -3 -11  10    2.49    1.00
  -4  11  10    2.81    0.63
   4  11 -10    3.53    0.92
  -4 -11 -10    2.53    0.82
  -4 -11 -10    2.42    0.55
   4 -11  10    3.55    1.02
  -4  11 -10    1.53    0.61
  -4 -11  10    0.91    0.85
  -5  11  10    1.74    0.61
   5  11 -10    2.26    0.89
   5 -11  10    1.19    1.01
  -5 -11 -10   -0.01    0.58
  -5  11 -10    0.74    0.58
  -5 -11  10    0.33    0.85
  -6  11  10    4.01    0.77
   6 -11  10    6.28    1.35
  -6 -11 -10    6.04    1.00
  -6  11 -10    3.34    0.76
  -6 -11  10    4.33    1.17
   0 -12  10    1.09    0.90
   0  12 -10    0.77    0.66
   0 -12 -10    0.86    0.67
   1  12 -10    1.87    0.72
  -1 -12 -10    3.83    0.84
   1 -12  10    0.13    0.86
   1 -12 -10    1.56    0.74
  -1 -12  10    1.87    0.90
  -2  12  10   10.56    1.33
   2 -12  10    8.33    1.40
   2  12 -10    8.11    1.34
  -2 -12 -10    9.44    1.69
   2 -12 -10    7.40    1.12
  -2 -12  10    6.29    1.20
  -2  12 -10    7.55    1.20
  -3 -12 -10   -1.41    0.84
  -3  12  10   -1.07    0.57
   3  12 -10    0.29    0.79
   3 -12  10    0.00    0.99
  -3  12 -10    0.62    0.61
  -4  12  10    7.72    1.21
  -4 -12 -10    7.89    1.13
   4 -12  10   10.64    1.86
   4  12 -10    9.48    1.69
  -4  12 -10    8.96    1.19
  -4 -12  10    6.38    1.29
   4 -12 -10    8.95    1.48
   5 -12  10    2.09    1.30
  -5  12  10    3.45    0.82
  -5 -12  10    1.38    1.01
  -5  12 -10    3.71    0.75
   0  13 -10    0.26    0.80
   0 -13 -10   -0.39    0.77
   0 -13  10   -1.05    0.96
   1  13 -10    1.91    0.83
   1 -13  10    1.58    1.02
  -1 -13  10    1.93    1.07
   1 -13 -10    1.18    0.83
  -1  13 -10    1.83    0.72
   2 -13  10    0.38    1.05
  -2 -13 -10    1.27    1.13
  -2  13  10    2.36    0.88
   2  13 -10    0.77    0.93
  -2  13 -10    0.41    0.74
   2 -13 -10    0.77    0.91
  -2 -13  10    0.56    1.02
  -3 -13 -10    0.81    1.02
   3  13 -10   -0.49    0.95
   3 -13  10    0.55    1.20
   3 -13 -10   -0.79    0.90
   0   0  11    0.71    0.33
   0   0 -11    0.65    0.28
   1   0 -11    0.97    0.35
  -1   0 -11    1.32    0.35
  -1   0  11    0.87    0.34
   1   0 -11    0.85    0.27
  -1   0 -11    1.26    0.28
   1   0  11    0.82    0.39
   2   0 -11   14.06    0.96
  -2   0  11   15.29    0.81
  -2   0 -11   15.68    0.99
  -2   0 -11   16.08    0.74
  -2   0  11   15.18    1.00
   2   0 -11   16.82    1.03
   3   0 -11   17.69    1.11
  -3   0  11   18.84    0.99
   3   0 -11   19.62    1.22
  -3   0 -11   17.47    1.08
  -3   0  11   16.37    1.11
   4   0 -11    0.82    0.52
   4   0 -11    0.02    0.28
  -4   0 -11    0.42    0.24
  -4   0  11    0.08    0.35
  -4   0  11    0.41    0.28
  -5   0  11    0.21    0.40
  -5   0 -11   -0.11    0.26
  -5   0  11    0.33    0.34
   5   0 -11    0.26    0.30
   5   0 -11    0.76    0.61
   6   0 -11    3.11    0.63
  -6   0 -11    1.75    0.49
  -6   0 -11    2.13    0.27
  -6   0  11    2.92    0.55
  -7   0 -11    0.20    0.44
  -7   0  11    0.60    0.47
   7   0 -11    0.77    0.47
  -7   0 -11    0.71    0.21
  -8   0  11    2.63    0.70
  -8   0 -11    1.72    0.65
  -8   0 -11    1.32    0.31
  -9   0 -11    1.12    0.76
  -9   0  11    0.57    0.67
  -9   0 -11    1.19    0.36
 -10   0  11    1.14    0.80
 -10   0 -11   -0.05    0.80
 -10   0 -11   -0.43    0.43
 -11   0 -11    8.08    1.41
 -11   0  11    7.39    1.24
   0  -1  11   14.04    0.99
   0  -1  11   13.49    0.77
   0  -1  11   12.46    0.56
   0   1 -11   10.79    0.83
   0  -1 -11   12.51    0.79
   0   1 -11   13.48    0.88
   0  -1 -11   13.03    0.85
   0   1  11   12.10    0.95
   0  -1  11   12.30    0.54
  -1  -1 -11    3.44    0.51
  -1   1  11    3.46    0.61
  -1   1  11    2.84    0.36
   1  -1  11    2.29    0.47
   1  -1  11    2.88    0.38
   1   1 -11    3.17    0.45
  -1  -1 -11    3.19    0.40
   1   1 -11    2.82    0.47
   1  -1 -11    2.10    0.40
  -1  -1  11    2.81    0.44
  -1  -1  11    2.49    0.33
  -1  -1  11    3.74    0.61
  -1   1 -11    2.88    0.41
   1  -1 -11    4.16    0.54
   1   1  11    2.74    0.48
  -1   1 -11    3.71    0.51
  -2  -1 -11   10.76    0.57
   2   1 -11   11.07    0.91
   2  -1  11   12.30    1.04
  -2  -1 -11   11.99    0.83
  -2   1  11   11.07    0.89
  -2   1  11   11.25    0.65
   2  -1  11   11.94    0.63
   2  -1 -11   13.09    0.92
  -2   1 -11   12.23    0.87
   2  -1 -11   12.29    0.84
  -2   1 -11   11.59    0.67
  -2  -1  11   12.45    0.92
  -2  -1  11   11.48    0.71
  -3   1  11   39.96    1.67
   3   1 -11   36.84    1.89
  -3   1  11   34.23    1.78
   3   1 -11   36.99    1.86
  -3  -1 -11   38.15    1.81
  -3   1 -11   36.38    1.80
  -3  -1  11   38.80    1.85
   3  -1 -11   37.93    1.82
   3  -1 -11   37.72    1.86
  -3  -1  11   39.17    1.70
  -4   1  11   24.16    1.39
  -4   1  11   26.32    1.31
   4   1 -11   24.57    1.56
   4   1 -11   24.61    1.45
  -4  -1 -11   25.80    1.41
  -4   1 -11   25.37    1.40
  -4  -1  11   26.16    1.35
  -4  -1  11   23.96    1.45
   4  -1 -11   25.45    1.54
   4  -1 -11   25.72    1.43
   5   1 -11    3.31    0.75
   5   1 -11    1.62    0.44
  -5  -1 -11    1.15    0.39
  -5   1  11    1.16    0.49
  -5   1  11    2.06    0.43
  -5   1 -11    1.46    0.37
   5  -1 -11    1.75    0.46
  -5  -1  11    2.42    0.54
  -5  -1  11    1.85    0.46
   5  -1 -11    2.62    0.71
  -6   1  11    1.38    0.44
   6   1 -11    1.24    0.47
  -6  -1 -11    0.75    0.45
  -6   1  11    1.80    0.57
  -6   1 -11    0.90    0.38
   6  -1 -11    1.29    0.46
  -6  -1  11    1.17    0.47
  -7  -1 -11    9.47    1.06
  -7   1  11    9.17    0.98
   7   1 -11    9.54    1.12
  -7  -1 -11    8.43    0.54
  -7  -1  11    9.33    1.03
   7  -1 -11    9.42    1.08
  -7   1 -11    7.45    0.95
  -7   1 -11    9.22    0.57
  -8  -1 -11    6.82    0.60
  -8  -1 -11    8.09    1.17
  -8   1  11    7.03    1.09
   8   1 -11    9.74    1.20
  -8   1 -11    7.60    0.60
  -8   1 -11    5.97    1.05
  -8  -1  11    7.48    1.10
  -9   1  11    9.46    1.33
  -9  -1 -11    9.00    1.39
  -9  -1 -11    7.74    0.77
  -9  -1  11    9.96    1.36
  -9   1 -11   10.32    1.41
  -9   1 -11    9.38    0.77
 -10  -1 -11    1.61    0.52
 -10   1  11    3.03    0.91
 -10  -1 -11    3.51    1.06
 -10  -1  11    2.64    0.90
 -10   1 -11    2.79    0.94
 -10   1 -11    2.53    0.51
 -11   1  11    2.07    1.02
 -11  -1 -11    2.59    1.15
 -11  -1  11    1.27    1.01
 -11   1 -11    3.45    1.10
   0   2  11    1.67    0.44
   0  -2 -11    2.60    0.44
   0  -2  11    2.65    0.41
   0   2 -11    1.87    0.41
   0  -2 -11    1.91    0.37
   0   2 -11    1.71    0.36
   0  -2  11    1.40    0.24
   0  -2  11    3.18    0.57
   1   2 -11    8.84    0.72
  -1   2  11    9.10    0.79
   1  -2  11    8.20    0.88
   1  -2  11    8.71    0.41
  -1  -2 -11    7.98    0.56
   1  -2  11    8.63    0.61
  -1  -2 -11    9.10    0.72
   1   2 -11    8.29    0.83
   1  -2 -11    7.21    0.63
  -1  -2  11    8.22    0.81
   1   2  11    8.24    0.84
  -1  -2  11    9.33    0.71
   1  -2 -11    9.07    0.72
  -1  -2  11    7.56    0.53
  -1   2 -11    7.42    0.68
  -1   2 -11    6.98    0.70
   2   2 -11    1.50    0.33
   2  -2  11    1.09    0.41
   2  -2  11    1.57    0.28
  -2   2  11    1.99    0.42
  -2  -2 -11    1.58    0.24
  -2   2  11    1.44    0.25
   2   2 -11    1.88    0.53
  -2  -2 -11    1.66    0.34
  -2  -2  11    1.90    0.37
   2  -2 -11    1.78    0.45
   2  -2 -11    1.08    0.28
  -2   2 -11    1.19    0.35
  -2   2 -11    1.70    0.33
  -2  -2  11    1.42    0.43
  -3   2  11    8.72    0.63
   3  -2  11    8.68    0.55
  -3   2  11    9.81    0.82
  -3  -2 -11    9.36    0.75
   3   2 -11    8.50    0.97
   3   2 -11    8.88    0.80
  -3  -2  11    8.25    0.81
   3  -2 -11    8.99    0.75
   3  -2 -11    9.33    0.93
  -3   2 -11    9.34    0.78
  -3  -2  11    9.36    0.81
  -4  -2 -11   18.11    1.12
  -4   2  11   15.56    1.09
   4   2 -11   17.49    1.33
   4   2 -11   17.70    1.20
  -4   2  11   16.69    1.00
  -4  -2  11   18.51    1.20
   4  -2 -11   18.36    1.33
  -4   2 -11   16.71    1.09
   4  -2 -11   18.12    1.14
  -4  -2  11   15.91    1.17
   5   2 -11    9.43    1.22
  -5   2  11    9.55    0.80
  -5   2  11    8.41    0.92
   5  -2  11    8.66    0.47
  -5  -2 -11    7.63    0.82
   5   2 -11    8.33    0.88
  -5  -2  11   10.44    0.90
   5  -2 -11    8.92    0.85
  -5   2 -11    8.51    0.80
   5  -2 -11   11.44    1.26
  -6  -2 -11    1.30    0.48
   6   2 -11    2.37    0.57
  -6   2  11    2.06    0.52
  -6   2  11    2.79    0.59
  -6  -2  11    1.76    0.56
   6  -2 -11    2.39    0.53
  -6   2 -11    2.80    0.34
  -6   2 -11    1.39    0.39
   7   2 -11    5.82    1.02
  -7  -2 -11    7.13    0.51
  -7   2  11    5.49    0.92
  -7  -2 -11    7.44    1.03
  -7   2 -11    6.84    0.51
  -7   2 -11    4.89    0.81
  -7  -2  11    7.02    0.97
   7  -2 -11    6.44    1.01
  -8   2  11    8.58    1.14
   8   2 -11   10.55    1.30
  -8  -2 -11    8.59    0.68
  -8  -2 -11   11.41    1.29
  -8   2 -11    8.47    0.68
  -8  -2  11    9.74    1.20
  -8   2 -11    7.92    1.05
  -9   2  11    3.09    0.84
  -9  -2 -11    2.19    0.48
  -9  -2 -11    2.67    0.87
  -9   2 -11    1.20    0.71
  -9  -2  11    3.57    0.86
  -9   2 -11    3.28    0.47
 -10  -2 -11    0.23    0.52
 -10   2  11    0.68    0.74
 -10  -2 -11    1.88    0.94
 -10   2 -11   -1.01    0.74
 -10  -2  11    1.48    0.87
 -10   2 -11    1.39    0.47
 -11  -2 -11    3.97    1.30
 -11   2  11    4.95    1.13
 -11  -2  11    3.29    1.13
 -11   2 -11    2.97    1.14
   0  -3  11    0.89    0.22
   0  -3  11    0.45    0.27
   0   3  11    0.64    0.35
   0  -3 -11    1.08    0.34
   0  -3 -11    0.48    0.27
   0   3 -11    0.59    0.27
   0   3  11    0.46    0.13
   0   3 -11    0.36    0.36
   0  -3  11    1.32    0.43
  -1   3  11   15.84    1.08
   1  -3  11   16.89    0.77
   1  -3  11   18.41    1.20
  -1  -3 -11   16.29    0.83
  -1   3  11   17.14    0.77
   1   3 -11   16.20    1.12
  -1  -3 -11   17.14    1.00
   1   3 -11   17.51    1.07
   1  -3  11   17.06    0.96
  -1  -3  11   16.10    0.87
  -1   3 -11   15.21    1.01
  -1   3 -11   17.35    1.03
  -1  -3  11   16.88    1.03
  -1  -3  11   16.22    1.11
   1  -3 -11   16.12    1.02
   1  -3 -11   16.54    0.97
  -2  -3 -11   53.92    2.04
   2  -3  11   51.91    2.55
  -2   3  11   56.33    2.43
  -2  -3 -11   54.92    2.39
   2  -3  11   56.60    2.09
  -2   3  11   58.83    2.20
   2  -3  11   56.03    2.28
   2   3 -11   54.16    2.48
   2   3 -11   51.67    2.50
   2  -3 -11   55.55    2.42
  -2  -3  11   55.99    2.46
  -2   3 -11   54.27    2.43
   2  -3 -11   56.00    2.38
  -2   3 -11   55.00    2.29
  -3   3  11   15.93    0.88
  -3   3  11   14.70    1.04
  -3  -3 -11   16.41    1.02
   3   3 -11   16.50    1.24
   3  -3  11   15.46    0.74
   3   3 -11   15.63    1.08
   3  -3  11   15.35    0.87
   3  -3 -11   15.48    1.17
   3  -3 -11   14.96    0.98
  -3  -3  11   14.42    1.07
  -3   3 -11   15.44    1.03
   4  -3  11    8.26    0.62
   4   3 -11    7.70    1.15
   4   3 -11    7.27    0.79
  -4   3  11    8.40    0.66
   4  -3  11    7.94    0.53
  -4  -3 -11    6.92    0.72
  -4   3  11    7.11    0.79
  -4   3 -11    8.22    0.75
   4  -3 -11    7.90    0.78
  -4  -3  11    8.81    0.87
   4  -3 -11    8.59    1.07
   5   3 -11    4.19    0.94
  -5   3  11    4.06    0.56
  -5  -3 -11    3.26    0.57
  -5   3  11    4.63    0.75
   5   3 -11    4.09    0.72
   5  -3  11    4.57    0.51
   5  -3 -11    4.70    0.66
   5  -3 -11    7.03    1.13
  -5  -3  11    5.34    0.80
  -5   3 -11    5.71    0.69
  -6  -3 -11    5.56    0.42
   6  -3  11    6.52    0.57
  -6  -3 -11    6.07    0.51
  -6  -3 -11    5.92    0.89
   6   3 -11    7.34    0.94
  -6   3  11    5.36    0.93
  -6   3  11    4.87    0.74
  -6   3 -11    6.75    0.50
   6  -3 -11    6.83    0.83
  -6  -3  11    5.24    0.89
  -6   3 -11    5.35    0.74
  -7  -3 -11    4.78    0.50
  -7  -3 -11    4.05    0.45
   7   3 -11    3.02    0.67
  -7   3  11    2.67    0.57
   7  -3  11    3.42    0.53
  -7  -3 -11    3.54    0.69
  -7  -3  11    4.00    0.73
  -7   3 -11    3.15    0.59
  -7   3 -11    3.40    0.49
   7  -3 -11    4.54    0.77
   8   3 -11   10.46    1.36
  -8  -3 -11   10.18    0.81
  -8   3  11    9.27    1.12
  -8  -3 -11   11.99    1.36
   8  -3  11   11.37    0.79
  -8   3 -11   11.13    0.76
  -8  -3  11   10.75    1.32
  -8   3 -11    9.23    1.06
  -9  -3 -11    8.82    1.47
  -9   3  11    6.38    1.00
  -9  -3 -11    9.43    0.88
  -9  -3  11   10.37    1.47
  -9   3 -11    5.63    0.89
  -9   3 -11    8.02    0.80
 -10   3  11   -0.39    0.73
 -10  -3 -11    1.49    0.99
 -10  -3  11    0.32    0.87
 -10   3 -11   -0.60    0.72
 -10   3 -11    0.23    0.49
 -11  -3 -11    2.11    1.19
 -11   3  11   -1.48    0.87
 -11  -3  11    2.05    1.10
 -11   3 -11   -1.39    0.88
   0   4 -11    0.98    0.29
   0  -4 -11    1.21    0.34
   0   4  11    1.57    0.31
   0  -4  11    0.94    0.32
   0  -4  11    1.69    0.47
   0  -4 -11    0.53    0.25
   0  -4  11    1.29    0.26
   0   4 -11    0.52    0.45
  -1   4  11    0.65    0.17
  -1  -4 -11    0.92    0.30
   1  -4  11    0.60    0.20
   1   4 -11    0.39    0.27
   1   4 -11    0.24    0.44
   1  -4  11    0.70    0.31
  -1   4  11    0.30    0.36
  -1  -4 -11    0.94    0.30
  -1   4 -11    1.07    0.41
  -1  -4  11    0.82    0.29
  -1   4 -11    0.31    0.29
  -1  -4  11    0.39    0.31
  -1  -4  11    0.38    0.40
   1  -4 -11    0.80    0.39
   1  -4 -11    0.45    0.21
   2   4 -11   34.35    1.81
  -2   4  11   38.74    1.77
   2  -4  11   36.21    1.68
  -2  -4 -11   36.35    1.72
   2  -4  11   37.08    1.52
   2   4 -11   34.37    1.90
  -2   4  11   37.85    1.55
   2  -4  11   35.44    1.94
  -2  -4 -11   33.46    1.42
  -2  -4 -11   35.64    1.43
  -2  -4  11   33.19    1.63
  -2   4 -11   38.55    1.73
   2  -4 -11   37.27    1.70
  -2   4 -11   37.01    1.79
   2  -4 -11   34.67    1.79
  -2  -4  11   36.68    1.84
  -2  -4  11   33.56    1.78
   3  -4  11   23.78    1.15
   3   4 -11   24.84    1.65
  -3   4  11   26.42    1.39
  -3   4  11   25.22    1.23
   3  -4  11   27.37    1.32
   3   4 -11   25.59    1.50
  -3  -4 -11   22.36    1.33
   3  -4 -11   26.51    1.36
  -3  -4  11   25.39    1.46
  -3   4 -11   25.44    1.42
   3  -4 -11   24.48    1.52
  -4  -4 -11   36.48    1.81
   4  -4  11   37.94    1.66
   4   4 -11   33.48    1.89
   4   4 -11   31.59    2.06
  -4   4  11   34.85    1.73
  -4   4  11   35.71    1.67
   4  -4  11   35.04    1.55
  -4  -4  11   36.00    1.93
   4  -4 -11   36.30    2.02
  -4   4 -11   37.05    1.81
   4  -4 -11   36.06    1.76
  -5  -4 -11   16.44    0.76
   5  -4  11   17.07    0.99
  -5  -4 -11   15.30    0.73
  -5  -4 -11   15.31    1.17
  -5   4  11   15.96    1.13
   5   4 -11   16.96    1.29
   5  -4  11   18.10    1.03
  -5   4  11   17.83    1.10
  -5   4 -11   20.23    0.91
   5  -4 -11   18.90    1.51
  -5  -4  11   17.48    1.32
  -5   4 -11   16.72    1.15
   5  -4 -11   19.17    1.22
  -6  -4 -11    4.61    0.45
  -6   4  11    3.63    0.63
  -6  -4 -11    4.08    0.73
   6   4 -11    4.33    0.80
   6  -4  11    4.24    0.67
  -6   4  11    3.99    0.65
  -6  -4 -11    4.31    0.46
   6  -4 -11    4.51    0.79
  -6   4 -11    5.09    0.74
  -6  -4  11    4.42    0.80
  -6   4 -11    3.37    0.48
  -7   4  11    1.48    0.49
  -7  -4 -11    2.02    0.71
  -7   4  11    0.75    0.59
  -7  -4 -11    1.73    0.38
   7  -4  11    2.34    0.48
  -7  -4 -11    2.32    0.40
   7   4 -11    1.52    0.65
  -7  -4  11    2.09    0.62
  -7   4 -11    0.82    0.44
  -7   4 -11    1.49    0.35
  -8  -4 -11    9.33    0.81
   8   4 -11    8.87    1.32
  -8   4  11    8.73    1.05
   8  -4  11    9.32    0.92
  -8  -4 -11   10.70    1.35
  -8   4 -11    8.99    0.77
  -8   4 -11    7.24    1.01
  -9   4  11    3.65    0.75
  -9  -4 -11    5.63    0.90
  -9  -4 -11    5.63    1.15
  -9   4 -11    4.73    0.85
  -9  -4  11    5.49    1.15
  -9   4 -11    5.80    0.78
 -10   4  11    8.44    1.33
 -10  -4 -11   12.84    1.89
 -10   4 -11    9.78    1.39
 -10  -4  11   14.78    1.88
 -10   4 -11   11.78    1.10
   0  -5  11   34.51    1.83
   0  -5  11   34.03    1.54
   0   5 -11   34.60    1.82
   0  -5 -11   35.44    1.50
   0  -5  11   35.01    1.75
   0   5  11   35.12    1.44
   0  -5 -11   33.61    1.63
   0   5 -11   35.38    1.77
   0  -5 -11   34.54    1.62
   1   5 -11   13.17    0.96
   1   5 -11   10.95    1.14
   1  -5  11   13.31    0.79
  -1  -5 -11   13.10    0.87
  -1   5  11   12.58    1.00
   1  -5  11   12.70    0.97
   1  -5  11   14.97    1.13
  -1  -5 -11   13.39    0.84
  -1  -5 -11   13.88    0.71
  -1   5  11   13.10    0.72
   1  -5 -11   13.60    0.82
  -1  -5  11   13.68    0.87
  -1   5 -11   13.06    1.06
  -1   5 -11   12.65    0.92
  -1  -5  11   11.48    1.04
   1  -5 -11   12.80    0.99
  -1  -5  11   12.33    0.98
   1  -5 -11   12.41    0.82
  -2  -5 -11   14.70    0.80
  -2   5  11   17.18    0.86
   2  -5  11   15.96    1.07
   2  -5  11   16.11    0.89
  -2  -5 -11   15.44    0.77
   2   5 -11   15.63    1.31
  -2  -5 -11   14.22    0.95
   2   5 -11   14.16    1.07
   2  -5  11   15.65    1.28
  -2  -5 -11   15.23    0.74
  -2   5  11   15.73    1.07
  -2  -5  11   15.87    1.12
  -2   5 -11   15.71    1.12
  -2   5 -11   15.34    1.03
   2  -5 -11   15.38    1.15
  -2  -5  11   12.61    0.99
   2  -5 -11   16.20    0.97
   2  -5 -11   16.25    0.95
  -2  -5  11   13.61    1.10
   3  -5  11   13.62    0.80
  -3   5  11   12.81    0.80
   3  -5  11   12.53    0.96
  -3  -5 -11   13.49    0.63
   3   5 -11    9.81    1.27
   3   5 -11   11.99    1.04
  -3   5  11   13.85    0.98
  -3  -5 -11   12.22    0.89
   3  -5 -11   11.86    1.18
   3  -5 -11   13.33    0.90
  -3   5 -11   13.36    1.02
  -3  -5  11   12.28    1.04
   4  -5  11    6.73    0.76
  -4   5  11    7.20    0.80
   4  -5  11    5.46    0.66
  -4  -5 -11    5.62    0.67
  -4   5  11    5.14    0.59
   4   5 -11    5.50    0.81
  -4  -5 -11    6.17    0.44
   4  -5 -11    7.76    1.16
  -4   5 -11    6.35    0.77
   4  -5 -11    6.21    0.68
  -4  -5  11    6.28    0.83
  -5   5  11    3.06    0.52
  -5  -5 -11    1.52    0.47
  -5  -5 -11    2.65    0.39
   5   5 -11    2.64    0.59
  -5   5  11    2.72    0.47
   5  -5  11    2.42    0.52
   5  -5  11    2.61    0.51
   5  -5 -11    1.85    0.46
  -5  -5  11    2.24    0.57
  -5   5 -11    2.44    0.48
  -5   5 -11    2.94    0.49
   6  -5  11    2.68    0.56
   6   5 -11    1.80    0.59
  -6  -5 -11    1.84    0.34
  -6  -5 -11    3.07    0.69
  -6   5  11    1.23    0.51
  -6  -5 -11    1.89    0.35
  -6   5  11    2.20    0.48
   6  -5  11    2.41    0.56
  -6   5 -11    1.09    0.45
   6  -5 -11    1.58    0.50
  -6   5 -11    2.22    0.36
  -6  -5  11    1.99    0.64
  -7   5  11   12.84    1.11
  -7  -5 -11   12.20    0.87
   7  -5  11   13.43    1.14
  -7  -5 -11   12.53    0.89
   7   5 -11   15.43    1.49
  -7   5  11   12.90    1.25
  -7  -5 -11   14.99    1.38
  -7   5 -11   15.46    1.20
  -7   5 -11   14.04    0.91
  -7  -5  11   14.40    1.42
  -8  -5 -11    6.71    0.80
  -8  -5 -11    7.58    1.32
   8  -5  11    8.14    1.08
  -8   5  11    5.84    0.88
  -8  -5  11    7.97    1.22
  -8   5 -11    7.66    0.82
  -8   5 -11    5.65    1.00
  -9   5  11    0.20    0.64
  -9  -5 -11    2.44    0.59
  -9  -5 -11    1.63    0.89
  -9   5 -11    1.41    0.51
  -9   5 -11    1.19    0.67
 -10   5  11    2.99    0.97
 -10  -5 -11    4.70    1.21
 -10  -5  11    4.56    1.19
 -10   5 -11    3.99    0.70
 -10   5 -11    2.43    0.78
   0   6 -11    0.32    0.32
   0  -6  11    0.47    0.33
   0  -6  11   -0.31    0.37
   0  -6  11    0.45    0.44
   0  -6 -11    0.30    0.26
   0   6 -11    1.05    0.56
   0   6  11    0.87    0.24
   0  -6 -11    1.12    0.35
   1   6 -11    6.61    1.05
   1  -6  11    5.93    0.82
  -1   6  11    4.59    0.48
  -1  -6 -11    5.27    0.54
  -1  -6 -11    6.27    0.63
  -1  -6 -11    5.53    0.56
   1  -6  11    4.81    0.60
   1   6 -11    5.58    0.70
   1  -6 -11    5.51    0.63
  -1  -6  11    4.37    0.83
  -1  -6  11    5.15    0.68
   1  -6 -11    4.62    0.51
  -1   6 -11    5.09    0.75
  -1   6 -11    5.21    0.64
  -1  -6  11    4.38    0.73
   2   6 -11   28.05    1.95
  -2  -6 -11   32.63    1.41
   2  -6  11   31.38    1.90
  -2  -6 -11   34.53    1.62
   2  -6  11   35.12    1.76
   2   6 -11   33.99    1.81
  -2   6  11   31.29    1.67
   2  -6  11   31.51    1.55
  -2  -6 -11   33.10    1.44
  -2   6  11   32.70    1.50
  -2  -6  11   32.97    1.79
   2  -6 -11   35.13    1.58
  -2   6 -11   33.09    1.81
   2  -6 -11   32.58    1.62
  -2  -6  11   33.86    1.68
  -2   6 -11   34.71    1.73
  -3  -6 -11   13.92    0.77
   3  -6  11   15.41    1.09
  -3   6  11   13.96    1.01
  -3   6  11   14.16    0.89
   3  -6  11   14.34    0.99
  -3  -6 -11   13.07    0.94
   3   6 -11   13.88    1.14
  -3  -6  11   13.42    1.10
  -3  -6  11   13.84    1.13
  -3   6 -11   13.75    1.03
   3  -6 -11   13.17    0.92
   3  -6 -11   14.28    1.10
  -4  -6 -11   13.25    0.78
  -4   6  11   17.42    1.11
  -4  -6 -11   12.47    1.00
   4  -6  11   15.14    1.03
   4  -6  11   14.85    1.14
  -4   6  11   15.47    0.97
   4   6 -11   12.44    1.14
   4  -6 -11   15.20    1.00
  -4  -6  11   14.26    1.21
  -4   6 -11   15.61    1.13
   4  -6 -11   14.57    1.23
  -5   6  11    8.88    0.91
   5  -6  11    7.50    0.94
   5   6 -11    7.75    1.02
  -5   6  11    7.08    0.75
   5  -6  11    8.56    0.97
  -5  -6 -11    7.49    0.63
  -5  -6  11    6.97    0.99
  -5   6 -11    8.73    0.74
   5  -6 -11    7.95    0.83
  -5   6 -11    7.14    0.92
   6  -6  11    4.35    0.72
   6   6 -11    3.98    0.79
  -6   6  11    3.02    0.57
   6  -6  11    4.15    0.71
  -6  -6 -11    5.17    0.93
  -6   6  11    3.89    0.60
  -6  -6 -11    3.68    0.48
  -6  -6  11    3.89    0.77
  -6   6 -11    5.45    0.86
  -6   6 -11    3.82    0.53
  -7  -6 -11    2.57    0.48
   7  -6  11    2.69    0.70
   7  -6  11    1.96    1.15
  -7   6  11    2.75    0.61
  -7  -6 -11    3.02    0.81
  -7   6  11    1.52    0.70
   7   6 -11    2.86    0.85
  -7   6 -11    1.99    0.47
  -7  -6  11    2.62    0.75
  -7   6 -11    2.32    0.58
  -8   6  11    2.21    0.66
   8  -6  11    4.18    0.81
  -8  -6 -11    2.48    0.83
  -8  -6 -11    3.06    0.58
  -8   6 -11    2.89    0.66
  -8  -6  11    4.14    1.02
  -8   6 -11    3.46    0.56
  -9  -6 -11    3.10    0.98
  -9   6 -11    4.45    0.83
  -9  -6  11    4.98    1.09
  -9   6 -11    5.05    0.74
 -10  -6 -11   13.17    2.05
 -10   6  11   11.49    1.58
 -10   6 -11   14.96    1.39
 -10   6 -11   13.49    1.56
   0  -7  11    3.26    0.63
   0  -7 -11    2.69    0.43
   0  -7  11    3.24    0.54
   0   7 -11    3.00    0.78
   0  -7 -11    2.83    0.49
   0   7 -11    2.22    0.45
  -1  -7 -11    5.73    0.63
   1   7 -11    3.94    0.88
  -1   7  11    5.17    0.54
   1  -7  11    5.33    0.84
   1   7 -11    5.35    0.74
  -1  -7 -11    3.87    0.61
  -1  -7 -11    4.56    0.59
   1  -7  11    6.36    1.10
   1  -7  11    5.31    0.72
  -1  -7  11    5.28    0.82
  -1   7 -11    6.90    1.12
  -1  -7  11    4.66    0.74
  -1   7 -11    5.27    0.70
   1  -7 -11    5.37    0.55
   1  -7 -11    5.88    0.76
   2   7 -11    3.90    0.65
   2  -7  11    4.86    0.86
   2  -7  11    4.85    0.71
  -2  -7 -11    5.44    0.57
  -2   7  11    5.78    0.59
  -2  -7 -11    6.04    0.63
  -2  -7 -11    6.69    0.64
   2  -7 -11    5.53    0.56
  -2   7 -11    3.53    0.65
  -2  -7  11    4.64    0.81
  -2  -7  11    6.24    0.90
   2  -7 -11    5.28    0.82
  -3  -7 -11   15.28    1.02
   3  -7  11   14.58    1.20
  -3  -7 -11   16.44    0.90
   3   7 -11   13.13    1.18
  -3  -7 -11   14.44    0.90
  -3   7  11   14.43    1.08
  -3   7  11   14.79    0.94
   3  -7  11   14.31    1.09
  -3  -7  11   15.11    1.27
   3  -7 -11   17.62    1.26
   3  -7 -11   15.70    0.96
  -3  -7  11   14.87    1.24
  -3   7 -11   14.20    1.08
   4   7 -11    1.16    0.49
  -4  -7 -11    1.46    0.38
  -4  -7 -11    0.89    0.39
   4  -7  11    1.36    0.57
  -4   7  11    1.21    0.40
  -4   7  11    1.16    0.46
   4  -7  11    1.77    0.50
  -4  -7  11    0.62    0.50
   4  -7 -11    0.90    0.66
  -4   7 -11    0.52    0.45
   4  -7 -11    1.32    0.39
  -5  -7 -11    5.91    0.90
   5   7 -11    7.17    1.12
  -5   7  11    6.61    0.80
   5  -7  11    9.12    1.09
   5  -7  11    7.36    1.04
  -5  -7 -11    7.26    0.76
  -5   7 -11    8.11    0.80
   5  -7 -11    7.51    0.83
  -5  -7  11    5.85    1.03
  -5   7 -11    8.37    1.00
  -6  -7 -11    2.34    0.77
  -6  -7 -11    3.31    0.71
   6   7 -11    4.13    0.86
   6  -7  11    3.56    0.79
  -6   7  11    3.12    0.59
   6  -7  11    3.96    0.79
  -6   7 -11    5.38    0.70
  -6   7 -11    4.05    0.76
  -6  -7  11    2.96    0.71
  -7   7  11    4.78    0.75
   7   7 -11    5.17    0.97
   7  -7  11    7.58    1.01
  -7  -7 -11    5.04    0.92
  -7   7 -11    4.76    0.80
  -7   7 -11    6.85    1.03
  -7  -7  11    4.44    0.96
   8  -7  11    5.77    1.05
  -8  -7 -11    5.08    1.10
  -8   7 -11    4.03    0.69
  -8   7 -11    5.11    0.88
  -8  -7  11    4.44    1.04
  -9  -7 -11    7.98    1.33
  -9   7  11    7.77    1.32
  -9  -7  11    9.86    1.50
  -9   7 -11    8.27    1.08
  -9   7 -11    8.58    1.17
   0  -8 -11    4.22    0.66
   0  -8 -11    4.18    0.53
   0  -8 -11    4.93    0.80
   0  -8  11    5.70    0.97
   0   8 -11    4.50    0.77
   0  -8  11    4.07    0.67
  -1  -8 -11    1.93    0.43
   1  -8  11    1.51    0.50
   1  -8  11    1.97    0.59
  -1   8  11    1.46    0.37
   1   8 -11    1.63    0.46
  -1  -8 -11    2.03    0.40
  -1   8 -11    0.68    0.78
  -1  -8  11    1.26    0.51
  -1   8 -11    1.33    0.40
   1  -8 -11    1.16    0.30
  -1  -8  11    0.96    0.57
   1  -8 -11    1.30    0.50
   2   8 -11    2.87    0.64
  -2  -8 -11    3.29    0.59
  -2   8  11    4.31    0.59
   2  -8  11    3.93    0.64
  -2  -8 -11    4.85    0.61
  -2  -8 -11    3.38    0.53
   2  -8  11    4.00    0.76
  -2  -8  11    2.71    0.61
   2  -8 -11    4.60    0.70
  -2   8 -11    3.30    0.57
  -2  -8  11    2.42    0.64
   2  -8 -11    4.34    0.55
  -3  -8 -11    7.66    0.75
  -3  -8 -11    7.62    0.82
  -3  -8 -11    8.14    0.79
   3  -8  11   10.57    1.07
  -3   8  11    8.14    0.78
   3   8 -11    7.17    0.99
   3  -8  11    6.06    1.05
  -3  -8  11    6.63    1.04
   3  -8 -11    7.67    0.68
   3  -8 -11    8.71    1.15
  -3   8 -11    5.75    0.79
  -4  -8 -11    1.74    0.41
   4  -8  11    1.04    0.64
  -4  -8 -11    1.60    0.46
   4   8 -11    2.32    0.66
  -4  -8 -11    0.84    0.40
  -4   8  11    1.67    0.42
   4  -8 -11    1.07    0.39
  -4   8 -11    1.08    0.46
   4  -8 -11    2.09    0.74
  -4  -8  11    0.80    0.56
  -5  -8 -11    0.55    0.51
  -5  -8 -11   -0.72    0.40
   5   8 -11    0.04    0.57
  -5   8  11   -0.28    0.39
   5  -8  11    0.74    0.65
   5  -8  11    0.69    0.68
  -5   8 -11    1.17    0.49
  -5   8 -11   -0.19    0.46
  -5  -8  11    0.23    0.60
   6   8 -11    1.19    0.76
   6  -8  11    0.55    0.74
  -6   8  11    0.86    0.48
  -6  -8 -11    2.06    0.69
  -6   8 -11    2.03    0.51
  -6   8 -11    2.14    0.61
  -6  -8  11    0.60    0.71
  -7   8  11    6.04    0.99
   7   8 -11    5.28    1.05
   7  -8  11    6.98    1.09
  -7  -8 -11    4.76    0.95
  -7   8 -11    5.05    0.72
  -7   8 -11    6.80    1.19
  -7  -8  11    5.02    0.99
   8  -8  11    1.66    1.00
  -8   8  11    0.17    0.65
  -8  -8 -11    1.35    0.91
  -8  -8  11   -0.41    0.88
  -8   8 -11    1.73    0.79
  -8   8 -11    0.41    0.57
  -9  -8 -11    8.15    1.37
  -9   8  11    7.65    1.11
  -9   8 -11    7.23    1.29
   0  -9 -11   -0.11    0.42
   0  -9  11   -0.28    0.56
   0  -9 -11    0.28    0.56
   0  -9 -11    0.06    0.28
   0   9 -11    0.45    0.46
  -1  -9 -11    0.74    0.33
  -1  -9 -11    0.69    0.41
   1   9 -11   -0.11    0.47
  -1   9  11    1.02    0.39
   1  -9  11    0.22    0.62
   1  -9  11   -0.03    0.54
   1  -9 -11    0.54    0.59
   1  -9 -11    0.51    0.27
  -1   9 -11    0.27    0.41
  -1  -9  11    0.82    0.63
   2   9 -11    0.54    0.47
  -2   9  11    0.83    0.36
   2  -9  11    0.84    0.59
  -2  -9 -11    0.77    0.51
  -2  -9 -11    2.13    0.52
  -2  -9 -11    1.12    0.39
   2  -9  11   -0.05    0.55
   2  -9 -11    0.46    0.66
  -2   9 -11    0.12    0.43
  -2  -9  11   -0.26    0.62
   2  -9 -11    0.13    0.29
  -3  -9 -11    0.31    0.51
  -3  -9 -11    0.69    0.36
   3   9 -11    0.13    0.51
   3  -9  11    1.70    0.70
  -3   9  11    0.55    0.39
   3  -9  11    0.07    0.66
  -3  -9 -11    0.63    0.48
   3  -9 -11    0.07    0.31
  -3   9 -11    0.50    0.41
  -3  -9  11   -0.46    0.58
   4  -9  11    0.34    0.69
  -4   9  11   -0.14    0.39
   4   9 -11   -0.39    0.56
  -4  -9 -11    0.14    0.46
  -4  -9 -11   -0.60    0.36
  -4   9 -11   -0.68    0.42
  -4  -9  11   -0.13    0.54
  -5   9  11    2.62    0.54
  -5  -9 -11    2.97    0.65
   5  -9  11    3.40    0.89
  -5  -9 -11    2.38    0.53
   5   9 -11    3.53    0.83
  -5   9 -11    3.34    0.66
  -5  -9  11    2.77    0.75
  -6  -9 -11    5.63    0.97
   6  -9  11    5.68    1.13
  -6   9  11    6.59    1.00
   6   9 -11    7.12    1.21
  -6  -9  11    4.76    1.08
  -6   9 -11    7.38    1.09
  -6   9 -11    5.09    0.84
  -7  -9 -11   11.31    1.49
  -7   9  11    9.88    1.23
   7  -9  11   12.82    1.84
  -7   9 -11   12.83    1.43
  -7  -9  11    8.99    1.38
   8  -9  11    4.60    1.28
  -8   9  11    3.60    0.84
  -8  -9 -11    2.68    1.07
  -8  -9  11    2.38    1.06
  -8   9 -11    1.72    0.75
  -8   9 -11    3.26    0.95
   0 -10 -11   -0.25    0.48
   0 -10  11    0.63    0.67
   0 -10 -11    0.20    0.66
   0  10 -11   -0.08    0.52
   0 -10 -11    0.53    0.31
  -1 -10 -11    8.02    0.95
  -1  10  11    8.49    1.00
   1 -10  11    7.83    1.28
   1  10 -11    6.17    0.91
  -1  10 -11    7.03    0.98
   1 -10 -11    8.58    0.64
   1 -10 -11    5.29    0.92
  -1 -10  11    8.57    1.34
   1 -10 -11    8.28    1.05
   2  10 -11    2.23    0.69
  -2 -10 -11    2.98    0.75
   2 -10  11    1.28    0.74
  -2  10  11    0.79    0.47
  -2 -10 -11    1.55    0.43
  -2 -10  11    0.34    0.68
  -2  10 -11    1.33    0.54
   2 -10 -11    1.71    0.35
  -3  10  11   -0.46    0.44
   3  10 -11    0.56    0.62
  -3 -10 -11   -0.58    0.39
  -3 -10 -11    0.02    0.59
   3 -10  11   -0.24    0.74
  -3  10 -11   -0.11    0.48
  -3 -10  11   -0.66    0.67
  -4 -10 -11    4.27    0.76
  -4  10  11    4.88    0.73
   4  10 -11    7.17    1.28
  -4 -10 -11    4.76    0.69
   4 -10  11    5.20    1.09
  -4  10 -11    4.48    0.74
  -4 -10  11    5.15    1.11
   5  10 -11    1.58    0.85
  -5  10  11    1.27    0.54
  -5 -10 -11   -0.07    0.52
   5 -10  11    0.79    0.87
  -5 -10  11    0.41    0.71
  -5  10 -11   -0.11    0.53
   6 -10  11    1.05    1.07
  -6  10  11    3.09    0.69
  -6 -10 -11    1.00    0.73
   6  10 -11    3.54    1.07
  -6  10 -11    4.79    0.83
  -6  10 -11    1.85    0.69
  -6 -10  11    2.46    1.01
  -7  10  11    1.97    0.73
   7 -10  11    1.02    1.18
  -7 -10 -11    1.82    0.91
  -7  10 -11   -0.16    0.69
  -7  10 -11    0.90    0.79
  -7 -10  11    1.01    0.99
   0  11 -11    1.40    0.64
   0 -11  11    2.37    0.87
   0 -11 -11    1.20    0.62
   1  11 -11    1.69    0.71
   1 -11  11    1.50    0.83
  -1 -11 -11    0.93    0.60
   1 -11 -11    1.30    0.63
  -1 -11  11    1.57    0.84
  -1  11 -11    0.64    0.63
  -2  11  11    3.42    0.68
   2 -11  11    1.74    0.84
  -2 -11 -11    3.47    0.85
   2  11 -11    2.36    0.72
  -2  11 -11    2.11    0.64
   2 -11 -11    2.42    0.76
  -2 -11  11    0.69    0.94
   3 -11  11    5.68    1.17
   3  11 -11    7.15    1.11
  -3 -11 -11    5.40    0.96
  -3  11  11    5.40    0.97
  -3  11 -11    5.92    1.07
  -3 -11  11    5.55    1.16
  -4 -11 -11    7.84    1.01
   4  11 -11    6.90    1.14
  -4  11  11    6.96    1.09
   4 -11  11    8.99    1.37
  -4  11 -11    6.03    0.88
  -4 -11  11    6.90    1.22
  -5  11  11    7.63    1.18
   5 -11  11    8.17    1.38
   5  11 -11    6.74    1.25
  -5 -11 -11    5.00    0.82
  -5 -11  11    5.92    1.26
  -5  11 -11    8.19    1.17
  -6 -11 -11   -0.17    0.73
   6 -11  11    1.60    1.25
  -6  11  11    1.35    0.73
  -6  11 -11    0.09    0.70
  -6 -11  11   -0.34    0.94
   0 -12 -11    1.24    0.72
   0  12 -11    1.61    0.77
   0 -12  11    2.06    1.03
   1 -12  11    5.10    1.20
   1  12 -11    5.47    0.96
  -1  12 -11    4.55    0.89
   1 -12 -11    5.22    0.97
  -1 -12  11    6.74    1.40
   2 -12  11    1.92    1.07
   2  12 -11    2.60    0.89
  -2 -12 -11    4.84    1.15
  -2  12  11    4.88    0.93
   2 -12 -11    2.42    0.86
  -2 -12  11    2.65    1.20
  -2  12 -11    2.04    0.76
   3  12 -11    0.28    0.88
  -3 -12 -11   -0.37    0.95
   3 -12  11   -0.59    1.04
  -3  12  11    0.15    0.66
  -3 -12  11   -1.32    0.92
  -3  12 -11    1.23    0.74
   3 -12 -11    1.24    0.91
  -4  12  11    2.76    0.78
   4 -12  11    2.76    1.27
   4  12 -11    3.03    1.19
  -4  12 -11    3.61    0.82
   4 -12 -11    1.94    0.97
  -4 -12  11    1.54    1.08
   0  13 -11    3.78    0.91
   0 -13  11    3.92    1.19
   0 -13 -11    1.36    0.92
   1  13 -11    0.55    0.92
  -1 -13 -11    3.74    1.25
   1 -13  11    1.33    1.12
   1 -13 -11    1.52    0.96
  -1 -13  11    1.92    1.25
  -1  13 -11    1.10    0.86
   0   0 -12   18.42    1.11
   0   0  12   20.60    1.29
   0   0 -12   17.37    1.04
   1   0 -12    4.04    0.52
  -1   0 -12    4.60    0.59
  -1   0 -12    3.81    0.50
  -1   0  12    5.11    0.77
   1   0 -12    3.60    0.62
   1   0  12    3.75    0.69
  -2   0 -12   11.70    0.64
   2   0 -12   11.30    0.85
   2   0 -12   10.62    0.95
  -2   0  12   11.37    1.00
  -2   0  12   11.38    0.68
  -2   0 -12   11.22    0.88
  -3   0  12  139.69    5.01
  -3   0  12  128.95    5.20
   3   0 -12  133.71    5.23
   3   0 -12  132.70    5.26
  -3   0 -12  131.29    5.20
   4   0 -12   13.57    1.20
  -4   0 -12   11.46    0.91
  -4   0  12    9.28    0.98
   4   0 -12   10.84    0.94
  -4   0  12   10.40    0.83
   5   0 -12    0.49    0.35
  -5   0 -12    0.26    0.32
  -5   0  12    0.14    0.36
   5   0 -12    1.64    0.71
   6   0 -12    8.44    1.02
  -6   0 -12    6.16    0.79
  -6   0  12    7.66    0.92
  -7   0 -12    9.16    1.03
  -7   0  12    9.31    1.11
   7   0 -12   10.52    1.15
  -8   0  12    4.53    0.86
  -8   0 -12    4.61    0.47
  -8   0 -12    3.62    0.73
   8   0 -12    3.87    0.81
  -9   0 -12   13.26    1.54
  -9   0  12   19.12    1.64
 -10   0 -12    0.12    0.84
 -10   0  12    2.02    0.92
   0  -1  12    9.55    0.88
   0   1 -12    7.44    0.76
   0   1  12    7.20    0.88
   0   1 -12    7.71    0.70
   0  -1 -12    7.58    0.65
   0  -1 -12    6.93    0.66
   1  -1  12    6.54    0.88
  -1   1  12    6.88    0.41
  -1   1  12    8.29    0.86
  -1  -1 -12    7.82    0.73
   1   1 -12    7.26    0.68
  -1  -1 -12    6.82    0.57
   1   1 -12    7.50    0.80
  -1   1 -12    6.85    0.64
  -1  -1  12    8.22    0.50
  -1  -1  12    8.20    0.85
  -1   1 -12    6.01    0.67
   1   1  12    6.14    0.87
   1  -1 -12    7.44    0.72
   1  -1 -12    6.69    0.64
  -2  -1 -12   29.27    1.25
   2   1 -12   32.09    1.65
  -2   1  12   33.24    1.69
  -2  -1 -12   30.59    1.58
   2   1 -12   31.61    1.67
  -2   1  12   30.58    1.34
   2  -1 -12   32.08    1.62
  -2   1 -12   32.43    1.63
   2  -1 -12   33.04    1.64
  -2   1 -12   31.86    1.37
  -2  -1  12   28.23    1.65
  -2  -1  12   32.49    1.41
  -3  -1 -12   11.11    0.88
  -3   1  12   11.83    0.77
   3   1 -12   11.87    1.09
   3   1 -12   13.38    0.99
  -3   1  12   13.49    1.00
   3  -1 -12   12.66    0.92
  -3  -1  12   11.40    0.82
  -3   1 -12   13.37    0.95
   3  -1 -12   13.30    1.12
  -3  -1  12   10.00    0.98
  -4   1  12    4.59    0.61
   4   1 -12    3.86    0.65
   4   1 -12    4.57    0.81
  -4  -1 -12    5.13    0.65
  -4   1  12    3.70    0.60
   4  -1 -12    3.82    0.64
   4  -1 -12    6.74    1.05
  -4   1 -12    3.78    0.63
  -4  -1  12    4.93    0.66
  -5   1  12   10.08    0.89
  -5  -1 -12    9.09    0.85
   5   1 -12    9.73    0.98
  -5   1  12    7.14    1.22
  -5   1 -12    8.45    0.86
  -5  -1  12   10.69    0.93
   5  -1 -12   10.02    0.96
   5  -1 -12   10.91    1.25
   6   1 -12   11.01    1.17
  -6   1  12   12.42    1.06
  -6  -1 -12    9.14    0.97
  -6  -1  12   11.16    1.05
   6  -1 -12   11.10    1.12
  -6   1 -12   11.59    1.01
   7   1 -12    9.63    1.15
  -7   1  12    9.07    1.11
  -7  -1 -12    7.49    1.02
   7  -1 -12    9.74    1.18
  -7  -1  12   10.07    1.12
  -7   1 -12    8.94    0.96
  -7   1 -12    9.70    0.70
  -8   1  12    7.37    1.18
  -8  -1 -12    5.78    0.49
   8   1 -12    4.79    0.87
  -8  -1 -12    5.25    0.87
  -8  -1  12    6.46    1.14
  -8   1 -12    6.64    0.52
   8  -1 -12    8.06    1.17
  -8   1 -12    4.82    0.88
  -9  -1 -12    4.79    0.99
  -9   1  12    4.50    0.97
  -9   1 -12    3.56    0.85
  -9  -1  12    5.68    1.01
  -9   1 -12    4.19    0.52
 -10  -1 -12    5.20    1.15
 -10   1  12    3.41    0.98
 -10  -1  12    3.20    1.01
 -10   1 -12    1.24    0.97
   0   2 -12    0.86    0.40
   0   2  12    2.06    0.53
   0  -2  12    1.04    0.19
   0  -2  12    1.23    0.32
   0   2 -12    0.67    0.31
   0  -2 -12    0.96    0.30
  -1  -2 -12    0.47    0.30
  -1  -2 -12    0.33    0.25
   1  -2  12    0.36    0.25
   1   2 -12    0.75    0.27
   1   2 -12    0.13    0.41
   1   2  12    0.76    0.43
  -1  -2  12    0.34    0.28
   1  -2 -12    0.28    0.25
  -1   2 -12   -0.19    0.33
  -1   2 -12    0.11    0.28
   1  -2 -12    1.20    0.37
  -1  -2  12    0.33    0.22
   2   2 -12    9.94    0.83
  -2   2  12    9.98    0.61
  -2  -2 -12   11.33    0.85
  -2   2  12   10.79    0.94
  -2  -2 -12    9.61    0.52
   2  -2  12    9.99    0.67
   2   2 -12   11.76    1.03
   2  -2 -12   10.50    0.82
   2  -2 -12    9.31    0.91
  -2   2 -12   11.98    0.91
  -2   2 -12   10.02    0.74
  -2  -2  12    9.69    0.84
   3  -2  12   45.19    1.78
   3   2 -12   44.69    2.17
   3   2 -12   43.84    2.24
  -3   2  12   41.81    2.09
  -3  -2 -12   43.84    2.07
  -3   2  12   44.53    1.86
  -3  -2  12   44.49    1.96
  -3   2 -12   42.54    2.07
  -3  -2  12   44.56    2.12
   3  -2 -12   42.12    2.14
   3  -2 -12   44.52    2.09
  -4   2  12    8.82    0.95
  -4  -2 -12    8.71    0.81
   4   2 -12    8.37    0.88
   4  -2  12    8.39    0.51
  -4   2  12    8.09    0.71
   4   2 -12    9.42    1.22
  -4   2 -12    9.24    0.81
   4  -2 -12    9.58    1.17
   4  -2 -12    8.23    0.83
  -4  -2  12    9.79    0.86
  -5   2  12    3.16    0.63
  -5   2  12    3.65    0.65
   5   2 -12    3.03    0.62
  -5  -2 -12    2.46    0.51
  -5  -2  12    3.54    0.62
  -5   2 -12    4.28    0.67
   5  -2 -12    2.56    0.53
   5  -2 -12    4.23    0.86
   6   2 -12    2.78    0.67
  -6  -2 -12    1.23    0.50
  -6   2  12    2.27    0.53
  -6  -2  12    1.95    0.54
  -6   2 -12    1.47    0.47
   6  -2 -12    1.65    0.56
  -7   2  12    0.70    0.50
  -7  -2 -12   -0.23    0.49
   7   2 -12    1.07    0.56
  -7   2 -12    0.50    0.41
  -7  -2  12    0.11    0.51
   7  -2 -12    0.57    0.54
  -7   2 -12    0.89    0.24
  -8   2  12    7.29    1.10
  -8  -2 -12    8.11    1.25
   8   2 -12    8.65    1.28
  -8  -2 -12    6.52    0.53
  -8  -2  12    7.42    1.23
  -8   2 -12    7.52    1.02
  -8   2 -12    7.52    0.62
  -9  -2 -12   10.87    1.53
  -9   2  12   11.05    1.39
  -9   2 -12    9.88    0.81
  -9   2 -12    8.02    1.24
  -9  -2  12   10.64    1.47
 -10   2  12    1.52    0.85
 -10  -2 -12   -0.10    0.89
 -10  -2  12    0.62    0.90
 -10   2 -12   -0.78    0.78
   0  -3 -12   11.38    0.79
   0  -3 -12   10.18    0.79
   0  -3  12   10.61    0.60
   0  -3  12   12.20    0.83
   0   3 -12    9.84    0.82
   0   3 -12   10.77    0.91
   0   3  12    9.81    0.99
   1   3 -12    2.62    0.49
  -1   3  12    2.39    0.54
  -1  -3 -12    2.23    0.44
   1  -3  12    1.87    0.40
   1   3 -12    1.85    0.53
  -1  -3 -12    3.21    0.42
   1  -3  12    2.22    0.30
  -1   3  12    2.27    0.26
  -1   3 -12    1.65    0.37
   1  -3 -12    1.51    0.44
  -1  -3  12    1.80    0.41
   1  -3 -12    1.43    0.34
  -1   3 -12    1.95    0.47
  -1  -3  12    2.36    0.39
   2  -3  12    5.21    0.89
  -2   3  12    5.06    0.44
  -2  -3 -12    6.02    0.63
  -2   3  12    6.68    0.83
   2   3 -12    4.89    0.77
   2  -3  12    5.64    0.38
  -2  -3 -12    5.21    0.39
   2  -3  12    5.65    0.55
   2   3 -12    5.16    0.68
  -2   3 -12    5.71    0.69
  -2   3 -12    6.97    0.70
   2  -3 -12    7.33    0.87
   2  -3 -12    4.81    0.60
  -2  -3  12    4.40    0.69
   3   3 -12    0.20    0.30
   3  -3  12   -0.01    0.24
  -3   3  12    0.59    0.43
   3   3 -12    0.49    0.60
  -3  -3 -12    0.05    0.29
  -3   3  12   -0.10    0.22
  -3  -3  12    0.15    0.34
   3  -3 -12    0.51    0.55
  -3   3 -12    0.13    0.29
   3  -3 -12    0.21    0.29
   4   3 -12   31.84    2.06
   4  -3  12   35.31    1.50
  -4  -3 -12   33.76    1.79
   4   3 -12   35.03    1.93
  -4   3  12   35.03    1.80
  -4   3  12   33.90    1.64
  -4  -3  12   36.47    1.93
   4  -3 -12   35.72    1.81
  -4   3 -12   35.76    1.83
   4  -3 -12   37.16    2.04
  -5   3  12    1.04    0.38
  -5   3  12    0.48    0.50
  -5  -3 -12    0.63    0.37
   5   3 -12    0.77    0.45
   5  -3  12    1.21    0.29
   5  -3 -12    1.44    0.43
  -5  -3  12    2.13    0.56
  -5   3 -12    0.91    0.39
  -6   3  12    7.34    0.84
  -6  -3 -12    6.52    0.90
  -6   3  12    9.26    1.30
   6   3 -12    8.13    1.09
   6  -3 -12    8.12    0.97
  -6  -3  12    9.00    1.04
  -6   3 -12    9.23    0.93
  -7  -3 -12   -0.58    0.52
   7   3 -12    1.71    0.65
  -7   3  12   -0.28    0.42
  -7   3 -12    0.10    0.42
   7  -3 -12    1.11    0.56
  -7  -3  12    0.64    0.63
  -7   3 -12    0.42    0.26
  -8   3  12   18.31    1.48
  -8  -3 -12   22.87    1.74
   8   3 -12   21.12    1.85
  -8  -3 -12   21.29    1.01
  -8   3 -12   20.83    1.51
  -8  -3  12   22.68    1.76
  -8   3 -12   20.88    1.10
  -9   3  12   -0.72    0.65
  -9  -3 -12    1.60    0.82
  -9  -3  12   -0.63    0.74
  -9   3 -12    0.14    0.58
 -10  -3 -12    0.43    1.00
 -10   3  12   -0.17    0.78
 -10   3 -12    0.89    0.70
 -10  -3  12    2.13    1.06
   0  -4  12    2.10    0.33
   0  -4  12    1.39    0.38
   0  -4 -12    2.21    0.44
   0  -4 -12    1.93    0.38
   0   4 -12    1.92    0.42
   0   4 -12    1.01    0.54
   0  -4  12    2.56    0.60
  -1  -4 -12    7.21    0.71
   1  -4  12    6.90    0.52
   1   4 -12    6.35    0.96
   1  -4  12    4.81    0.90
   1  -4  12    6.69    0.67
  -1  -4 -12    7.04    0.60
  -1   4  12    5.33    0.85
   1   4 -12    5.90    0.71
  -1   4  12    7.50    0.46
   1  -4 -12    7.82    0.82
  -1  -4  12    7.30    1.19
  -1   4 -12    6.67    0.69
  -1   4 -12    6.83    0.83
  -1  -4  12    6.72    0.76
  -1  -4  12    7.00    0.62
   1  -4 -12    5.95    0.61
  -2  -4 -12   11.56    0.61
   2  -4  12   12.32    0.70
   2   4 -12   11.99    1.20
   2   4 -12   11.03    0.95
  -2   4  12   11.60    0.69
  -2   4  12   11.45    1.03
   2  -4  12   12.76    0.87
  -2  -4 -12   13.08    0.92
  -2  -4 -12   13.18    0.62
  -2   4 -12   12.19    0.97
  -2   4 -12   12.23    0.94
  -2  -4  12   12.73    0.97
  -2  -4  12   10.95    0.83
   2  -4 -12   12.15    0.86
   2  -4 -12   10.71    1.07
   3   4 -12   11.13    1.01
  -3  -4 -12   11.39    0.90
  -3   4  12   13.07    1.05
   3  -4  12   11.48    0.70
  -3   4  12   11.34    0.74
   3  -4  12   11.85    0.83
   3   4 -12   10.33    1.31
   3  -4 -12   11.49    0.89
  -3   4 -12   12.05    0.99
   3  -4 -12    9.81    1.16
  -3  -4  12   12.35    1.03
  -4   4  12    3.23    0.54
  -4  -4 -12    3.35    0.57
   4  -4  12    2.88    0.49
   4  -4  12    3.29    0.42
  -4   4  12    3.08    0.59
   4   4 -12    2.59    0.62
   4  -4 -12    3.25    0.54
  -4  -4  12    3.46    0.70
   4  -4 -12    3.16    0.87
  -4   4 -12    3.57    0.62
   5  -4  12    9.87    0.79
  -5  -4 -12    7.26    0.83
   5   4 -12    8.85    1.01
  -5   4  12    8.77    0.80
  -5   4  12   10.18    1.01
  -5   4 -12    9.54    0.91
   5  -4 -12    9.01    0.89
  -5  -4  12    7.89    1.05
  -6   4  12    9.60    0.97
   6  -4  12   11.66    0.83
  -6  -4 -12    9.24    1.06
  -6   4  12   11.25    1.15
   6   4 -12   11.78    1.21
  -6   4 -12   10.26    1.02
   6  -4 -12   12.01    1.10
  -6  -4  12   11.06    1.19
  -6   4 -12   12.66    0.74
  -7  -4 -12    0.08    0.57
   7  -4  12    0.72    0.41
   7   4 -12   -0.04    0.57
  -7   4  12    1.27    0.49
  -7   4 -12    0.65    0.46
  -7   4 -12    0.42    0.31
   7  -4 -12    0.29    0.51
   8   4 -12   10.33    1.49
  -8  -4 -12    9.97    1.39
  -8   4  12   10.51    1.12
  -8   4 -12    8.65    1.12
  -8   4 -12    9.30    0.81
  -8  -4  12   13.50    1.53
  -9   4  12    7.24    1.17
  -9  -4 -12    4.42    1.02
  -9  -4  12    5.54    1.10
  -9   4 -12    4.51    0.89
 -10  -4 -12    4.52    1.22
 -10   4  12    3.57    0.87
 -10  -4  12    3.41    1.20
 -10   4 -12    2.88    0.85
   0  -5 -12    1.18    0.32
   0  -5  12    0.79    0.40
   0   5 -12    1.26    0.59
   0  -5 -12    1.21    0.28
   0  -5  12    1.50    0.34
   0  -5 -12    0.90    0.42
   0   5 -12    1.29    0.39
  -1  -5 -12    4.26    0.63
   1   5 -12    2.58    0.74
   1  -5  12    3.57    0.64
   1   5 -12    3.88    0.63
   1  -5  12    4.02    0.52
  -1   5  12    3.48    0.39
  -1   5  12    4.07    0.65
  -1  -5 -12    3.46    0.40
  -1  -5 -12    4.11    0.61
  -1   5 -12    3.63    0.69
   1  -5 -12    3.47    0.61
  -1  -5  12    3.67    0.58
  -1   5 -12    3.28    0.60
   1  -5 -12    4.60    0.52
  -1  -5  12    4.19    0.69
  -2   5  12   13.58    1.14
  -2  -5 -12   13.62    0.76
  -2  -5 -12   14.40    0.97
  -2  -5 -12   14.20    0.71
   2   5 -12   11.45    1.31
   2  -5  12   12.16    0.99
  -2   5  12   14.02    0.77
   2  -5  12   12.28    0.83
   2   5 -12   13.86    1.10
  -2   5 -12   12.35    0.99
   2  -5 -12   14.20    0.93
  -2   5 -12   13.10    1.12
   2  -5 -12   13.63    1.20
  -2  -5  12   14.21    1.08
  -2  -5  12   15.52    1.01
   3  -5  12    4.09    0.72
   3  -5  12    3.51    0.56
  -3  -5 -12    3.54    0.58
   3   5 -12    1.90    0.75
  -3   5  12    3.86    0.51
   3   5 -12    2.88    0.54
  -3  -5  12    3.12    0.63
  -3   5 -12    2.90    0.58
   3  -5 -12    2.63    0.76
  -3  -5  12    2.22    0.55
   3  -5 -12    3.59    0.58
   4  -5  12    5.59    0.67
  -4  -5 -12    5.47    0.70
  -4   5  12    5.22    0.62
  -4   5  12    6.41    0.91
   4   5 -12    6.20    0.89
   4  -5  12    5.93    0.76
  -4  -5  12    5.32    0.82
   4  -5 -12    7.01    1.00
  -4   5 -12    5.02    0.81
   4  -5 -12    5.57    0.70
  -5  -5 -12    4.82    0.78
  -5   5  12    5.78    0.74
   5  -5  12    6.25    0.83
  -5   5  12    5.37    0.99
   5   5 -12    7.28    0.98
   5  -5  12    6.18    0.76
   5  -5 -12    6.44    0.85
  -5   5 -12    7.76    0.89
  -5  -5  12    6.30    0.95
  -6   5  12    6.62    0.82
  -6  -5 -12    6.17    0.50
   6  -5  12    6.00    0.89
  -6  -5 -12    5.69    0.85
   6   5 -12    6.11    1.08
  -6   5  12    7.03    1.06
   6  -5  12    7.08    0.86
  -6   5 -12    8.09    0.97
  -6  -5  12    7.19    1.14
   6  -5 -12    6.40    0.98
  -6   5 -12    7.51    0.70
   7  -5  12    0.57    0.53
   7   5 -12    0.34    0.69
  -7  -5 -12    1.14    0.66
  -7   5  12    0.99    0.52
  -7   5  12   -0.09    0.78
  -7  -5 -12    0.41    0.34
  -7   5 -12   -0.09    0.34
  -7   5 -12   -0.05    0.49
  -7  -5  12    0.26    0.66
   8   5 -12    6.64    1.13
  -8   5  12    4.35    0.76
  -8  -5 -12    5.59    1.03
  -8   5 -12    4.91    0.63
  -8   5 -12    6.63    1.04
  -9  -5 -12    1.03    0.92
  -9   5  12   -0.42    0.66
  -9   5 -12    1.91    0.60
  -9  -5  12    1.79    0.93
  -9   5 -12    0.97    0.69
   0  -6  12   -0.32    0.37
   0  -6 -12   -0.04    0.46
   0   6 -12    0.48    0.60
   0  -6 -12   -0.24    0.25
   0   6 -12   -0.10    0.33
   0  -6  12   -0.21    0.33
   0  -6 -12    0.29    0.32
   1  -6  12    1.41    0.40
   1   6 -12    1.36    0.70
  -1  -6 -12    1.31    0.31
  -1  -6 -12    1.36    0.32
  -1   6  12    1.27    0.28
   1  -6  12    0.91    0.47
  -1  -6 -12    1.58    0.39
   1   6 -12    1.45    0.45
  -1  -6 -12    1.36    0.46
  -1  -6  12    1.31    0.52
   1  -6 -12    0.93    0.30
   1  -6 -12    1.08    0.56
  -1  -6  12    1.18    0.42
  -1   6 -12    1.46    0.43
   1  -6 -12    1.61    0.41
  -1   6 -12    1.97    0.70
  -2  -6 -12    2.35    0.42
  -2   6  12    2.48    0.57
   2  -6  12    3.44    0.65
   2  -6  12    2.57    0.46
  -2  -6 -12    2.18    0.43
   2   6 -12    1.50    0.44
   2   6 -12    0.57    0.87
  -2  -6 -12    2.44    0.43
  -2   6  12    2.57    0.39
  -2  -6  12    1.72    0.54
  -2   6 -12    1.91    0.44
   2  -6 -12    2.81    0.52
   2  -6 -12    2.38    0.70
  -2  -6  12    2.68    0.57
   2  -6 -12    2.28    0.41
  -2   6 -12    3.28    0.74
  -3  -6 -12    8.78    0.59
  -3   6  12   10.57    0.76
   3  -6  12   10.70    1.00
  -3  -6 -12    9.21    0.53
  -3  -6 -12    8.98    0.55
  -3   6  12    8.28    0.99
  -3  -6 -12   11.10    0.87
   3   6 -12    9.77    1.02
   3  -6 -12    9.14    1.01
  -3   6 -12    8.95    0.92
   3  -6 -12    9.32    1.31
  -3  -6  12    9.17    1.00
   3  -6 -12    9.03    0.82
   4  -6  12    8.12    0.87
   4   6 -12    8.64    1.05
  -4  -6 -12    6.90    0.80
  -4  -6 -12    8.31    0.55
  -4   6  12    7.91    0.75
   4  -6  12    8.23    0.96
  -4   6  12   10.63    1.00
  -4   6 -12    8.43    0.94
  -4  -6  12    7.00    0.96
   4  -6 -12    7.98    0.82
  -4  -6  12    6.14    0.87
  -5   6  12    7.03    1.02
   5   6 -12    4.94    0.87
   5  -6  12    5.18    0.90
  -5   6  12    4.85    0.71
  -5  -6 -12    5.65    0.53
   5  -6  12    5.08    0.70
   5  -6 -12    5.94    0.83
  -5   6 -12    6.03    0.91
  -5  -6  12    5.99    1.00
  -6   6  12    1.63    0.67
   6   6 -12    0.82    0.59
  -6   6  12    0.84    0.42
   6  -6  12    1.75    0.61
  -6  -6 -12    1.32    0.37
  -6  -6 -12    0.24    0.51
  -6  -6  12    1.10    0.69
  -6   6 -12    1.93    0.43
  -6   6 -12    2.09    0.62
   6  -6 -12    1.17    0.53
  -7  -6 -12    1.11    0.69
  -7  -6 -12    0.68    0.41
  -7   6  12    0.79    0.52
   7   6 -12    1.52    0.79
   7  -6  12    1.75    0.67
  -7  -6  12    1.63    0.79
  -7   6 -12    0.98    0.42
  -7   6 -12    2.27    0.66
  -8  -6 -12    1.59    0.80
  -8   6  12    1.97    0.64
  -8   6 -12    1.08    0.50
  -8  -6  12    1.01    0.91
  -8   6 -12    1.02    0.64
  -9  -6 -12    0.19    0.90
  -9   6  12    0.96    0.76
  -9   6 -12    0.85    0.71
   0  -7 -12   -0.27    0.27
   0   7 -12    0.73    0.40
   0  -7  12    0.13    0.43
   0  -7  12   -0.84    0.42
   0  -7 -12    0.40    0.37
   0   7 -12   -0.11    0.72
   1   7 -12    6.03    0.87
  -1  -7 -12    6.14    0.70
  -1  -7 -12    5.88    0.65
  -1  -7 -12    8.26    0.78
  -1   7  12    5.68    0.58
   1  -7  12    9.02    1.02
   1  -7  12    6.13    0.80
   1  -7 -12    6.91    0.65
  -1  -7  12    5.47    0.88
   1  -7 -12    6.29    0.84
  -1   7 -12    7.34    0.82
  -1  -7  12    6.55    0.87
  -1   7 -12    7.58    1.28
  -2  -7 -12    3.52    0.46
  -2   7  12    3.75    0.54
   2  -7  12    2.73    0.64
  -2  -7 -12    3.81    0.53
  -2  -7 -12    4.09    0.67
   2  -7  12    3.44    0.57
  -2  -7  12    2.51    0.62
  -2  -7  12    3.80    0.68
   2  -7 -12    4.13    0.67
   2  -7 -12    4.36    0.59
   3   7 -12    1.20    0.51
  -3  -7 -12    2.70    0.49
   3  -7  12    2.73    0.57
   3  -7  12    1.71    0.60
  -3  -7 -12    2.73    0.42
  -3   7  12    2.37    0.42
   3  -7 -12    2.50    0.46
   3  -7 -12    2.21    0.65
  -3  -7  12    2.02    0.66
  -3  -7  12    2.16    0.65
  -3   7 -12    1.73    0.49
   4  -7  12   11.46    1.14
  -4  -7 -12   10.45    0.78
  -4   7  12   10.71    0.87
  -4   7  12    8.54    1.09
  -4  -7 -12    9.32    0.91
   4  -7  12    9.05    1.05
   4   7 -12    9.59    1.15
   4  -7 -12    8.83    1.28
  -4  -7  12    8.84    1.16
   4  -7 -12   11.04    0.91
  -4   7 -12    8.62    0.97
   5  -7  12    1.88    0.69
   5   7 -12    1.60    0.67
   5  -7  12    2.44    0.71
  -5   7  12    2.93    0.53
  -5   7  12    4.08    0.91
  -5  -7  12    2.13    0.66
  -5   7 -12    3.22    0.65
   5  -7 -12    2.67    0.57
   6   7 -12    1.48    0.70
  -6   7  12    2.06    0.52
   6  -7  12    2.56    0.76
  -6   7 -12    1.67    0.64
  -6  -7  12    1.92    0.74
  -6   7 -12    2.69    0.54
   7   7 -12    1.15    0.86
  -7  -7 -12    0.89    0.71
   7  -7  12    2.41    0.81
  -7   7  12    0.23    0.55
  -7   7 -12    0.70    0.66
  -7  -7  12    1.47    0.82
  -8   7  12    3.18    0.75
  -8  -7 -12    3.93    0.96
  -8  -7  12    3.41    1.14
  -8   7 -12    5.13    0.93
  -8   7 -12    2.47    0.64
  -9  -7 -12    0.97    1.04
  -9   7  12   -0.81    0.72
  -9   7 -12    2.46    0.87
   0  -8  12    0.22    0.52
   0  -8  12    0.53    0.61
   0  -8 -12    0.23    0.45
   0  -8 -12    0.06    0.39
   0   8 -12    0.21    0.41
   0  -8 -12   -0.15    0.29
  -1  -8 -12   17.72    1.12
  -1  -8 -12   19.14    1.15
  -1   8  12   21.78    1.14
  -1  -8 -12   18.26    1.19
   1  -8  12   18.83    1.33
   1   8 -12   18.43    1.37
   1  -8  12   19.18    1.50
  -1  -8  12   14.74    1.38
   1  -8 -12   18.56    1.32
  -1  -8  12   16.08    1.31
  -1   8 -12   17.54    1.30
   1  -8 -12   18.85    1.08
  -2   8  12    8.41    0.79
  -2  -8 -12   12.20    0.89
   2  -8  12    9.24    1.16
   2   8 -12    8.75    1.09
  -2  -8 -12    9.57    0.81
   2  -8  12    7.89    1.06
  -2  -8 -12   11.10    0.90
   2  -8 -12    9.61    1.17
  -2   8 -12    9.99    0.99
   2  -8 -12   10.67    0.81
  -2  -8  12    7.46    1.10
   3   8 -12   11.75    1.24
   3  -8  12   11.74    1.22
  -3   8  12   12.76    0.95
  -3  -8 -12   11.60    0.98
   3  -8  12   14.60    1.34
  -3  -8 -12   11.95    0.95
  -3  -8 -12   11.67    0.93
  -3   8 -12   11.12    1.03
   3  -8 -12   15.90    1.40
  -3  -8  12   12.68    1.26
   3  -8 -12   12.25    0.92
  -4  -8 -12    5.56    0.83
  -4   8  12    8.53    0.83
   4  -8  12    7.26    1.16
   4   8 -12    8.85    1.15
  -4  -8 -12    7.06    0.96
  -4   8 -12    5.76    0.93
  -4  -8  12    7.13    1.16
   4  -8 -12    7.10    0.81
  -5  -8 -12    2.96    0.60
   5   8 -12    3.03    0.89
   5  -8  12    3.56    0.85
  -5   8  12    3.10    0.60
  -5  -8  12    2.50    0.87
  -5   8 -12    3.65    0.74
  -6   8  12    0.90    0.54
   6  -8  12    2.38    0.86
   6   8 -12    1.93    0.87
  -6  -8 -12    0.29    0.59
  -6   8 -12    2.38    0.71
  -6  -8  12    0.45    0.75
   7   8 -12    1.48    0.98
  -7   8  12    1.80    0.64
  -7  -8 -12    0.78    0.71
   7  -8  12    3.00    0.94
  -7  -8  12    2.97    0.94
  -7   8 -12    2.74    0.80
  -7   8 -12    2.41    0.66
  -8  -8 -12    2.28    0.96
  -8   8  12    1.15    0.72
  -8  -8  12    0.74    1.00
  -8   8 -12    0.52    0.87
   0  -9 -12   -0.16    0.60
   0  -9  12    0.70    0.68
   0   9 -12    0.45    0.50
   0  -9 -12    0.43    0.30
   0  -9 -12   -0.21    0.43
   1  -9  12    1.94    0.74
  -1  -9 -12    2.08    0.63
  -1  -9 -12    2.00    0.52
  -1  -9 -12    1.56    0.45
   1   9 -12    1.38    0.61
  -1   9  12    2.67    0.52
   1  -9 -12    2.04    0.71
  -1  -9  12    1.13    0.69
   1  -9 -12    2.38    0.41
  -1   9 -12    1.32    0.54
  -2   9  12   10.87    0.94
   2  -9  12   11.06    1.37
   2  -9  12   11.75    1.57
   2   9 -12   10.50    1.24
  -2  -9 -12   14.62    1.10
  -2  -9 -12   13.04    1.01
   2  -9 -12   10.17    1.42
  -2  -9  12   10.85    1.29
  -2   9 -12   10.70    1.13
   2  -9 -12   12.77    0.88
  -3  -9 -12    3.22    0.57
  -3   9  12    2.39    0.50
  -3  -9 -12    2.64    0.59
   3  -9  12    3.09    0.79
   3   9 -12    2.20    0.67
  -3  -9  12    1.55    0.73
   3  -9 -12    2.92    0.49
  -3   9 -12    2.80    0.60
   4  -9  12    4.01    0.94
   4   9 -12    5.05    1.00
  -4  -9 -12    3.62    0.64
  -4   9  12    4.18    0.66
  -4   9 -12    3.73    0.70
  -4  -9  12    4.17    0.86
  -5   9  12   13.89    1.17
   5   9 -12   14.88    1.63
   5  -9  12   13.22    1.64
  -5  -9 -12   10.50    1.13
  -5  -9  12   11.82    1.46
  -5   9 -12   10.65    1.21
   6   9 -12    0.62    0.95
   6  -9  12    0.52    0.91
  -6   9  12    0.83    0.56
  -6  -9  12   -0.54    0.79
  -6   9 -12   -0.70    0.61
  -7   9  12    0.05    0.65
   7  -9  12    0.95    0.99
  -7   9 -12    1.66    0.72
  -7  -9  12    0.54    0.90
  -7   9 -12    0.37    0.83
   0 -10  12    1.47    0.78
   0  10 -12    1.33    0.63
   0 -10 -12    0.99    0.37
   0 -10 -12    1.94    0.60
  -1 -10 -12    8.01    1.02
  -1 -10 -12    7.38    0.79
   1  10 -12    8.27    1.17
   1 -10  12    8.42    1.40
  -1  10 -12    8.66    1.13
   1 -10 -12    9.50    0.78
  -1 -10  12    7.96    1.20
   1 -10 -12   10.51    1.17
  -2 -10 -12    3.92    0.78
   2 -10  12    1.75    0.86
   2  10 -12    2.17    0.75
  -2 -10 -12    3.16    0.59
  -2  10  12    3.02    0.61
  -2 -10  12    1.66    0.82
  -2  10 -12    1.66    0.61
   3  10 -12    8.14    1.35
  -3 -10 -12    6.43    0.90
   3 -10  12    6.38    1.10
  -3  10  12    5.91    0.92
  -3 -10  12    5.37    1.00
  -3  10 -12    5.56    0.85
   4 -10  12    1.39    0.95
  -4  10  12    1.40    0.56
  -4 -10 -12    2.54    0.61
   4  10 -12    1.27    0.77
  -4 -10  12    0.40    0.78
  -4  10 -12    1.75    0.63
  -5 -10 -12    0.95    0.60
   5  10 -12    1.40    0.94
  -5  10  12    1.42    0.59
   5 -10  12    2.09    1.04
  -5  10 -12   -0.04    0.61
  -5 -10  12    0.89    0.90
   6  10 -12    1.89    1.09
  -6 -10 -12    1.14    0.72
  -6  10  12    2.22    0.76
   6 -10  12    3.10    1.23
  -6 -10  12    0.36    1.00
  -6  10 -12    1.05    0.69
   0 -11 -12    5.35    0.92
   0  11 -12    7.29    1.32
   0 -11  12    9.12    1.57
   1  11 -12    3.89    0.81
  -1 -11 -12    4.79    0.84
   1 -11  12    4.47    1.07
   1 -11 -12    3.31    0.84
  -1  11 -12    3.95    0.83
  -1 -11  12    4.58    1.04
   2  11 -12   13.18    1.50
  -2 -11 -12   15.14    1.68
   2 -11  12    9.52    1.71
  -2  11  12   12.89    1.37
  -2 -11  12    9.87    1.41
  -2  11 -12   14.28    1.40
   2 -11 -12   15.07    1.51
   3  11 -12   -0.28    0.78
   3 -11  12    0.14    0.89
  -3 -11 -12    0.66    0.59
  -3  11  12    0.29    0.58
  -3 -11  12   -0.90    0.77
  -3  11 -12   -0.30    0.67
   4  11 -12    6.80    1.18
  -4  11  12    4.71    0.82
   4 -11  12    6.48    1.34
  -4 -11 -12    5.59    0.81
  -4 -11  12    4.24    1.05
  -4  11 -12    6.15    0.95
   5  11 -12    1.09    1.10
  -5 -11 -12    0.19    0.65
   5 -11  12    1.39    1.24
  -5  11  12    1.10    0.69
  -5 -11  12   -0.40    0.93
  -5  11 -12    2.64    0.80
   0 -12 -12    1.05    0.82
   0  12 -12    0.60    0.79
   0 -12  12    0.69    1.03
   1  12 -12    1.61    0.85
   1 -12  12    2.12    1.07
  -1  12 -12    1.11    0.86
  -1 -12  12    2.83    1.10
   1 -12 -12    1.47    0.86
   2  12 -12    1.42    0.93
   2 -12  12    1.88    1.13
  -2  12 -12    3.60    0.93
   2 -12 -12    1.43    0.93
  -2 -12  12    0.30    1.09
   3 -12  12    3.01    1.21
   3  12 -12    1.94    1.05
   3 -12 -12    3.70    1.06
  -3  12 -12    3.21    0.86
  -3 -12  12    1.85    1.07
   0   0  13   -0.38    0.47
   0   0 -13   -0.08    0.27
   0   0 -13    0.37    0.36
   1   0 -13    0.44    0.29
   1   0 -13    0.18    0.41
  -1   0  13    0.67    0.50
  -1   0  13    0.23    0.16
  -1   0 -13   -0.43    0.28
   1   0  13   -0.21    0.46
  -2   0  13    2.38    0.41
   2   0 -13    1.54    0.39
  -2   0  13    2.30    0.57
  -2   0 -13    1.20    0.41
   2   0 -13    2.54    0.56
  -2   0 -13    2.00    0.32
  -3   0  13   12.41    0.81
  -3   0 -13   11.43    0.95
   3   0 -13   12.81    1.00
   3   0 -13   10.02    1.15
   4   0 -13    8.17    0.90
   4   0 -13   10.31    1.25
  -4   0 -13    7.10    0.79
  -4   0  13    8.83    0.78
   5   0 -13    0.98    0.47
  -5   0  13    1.77    0.46
  -5   0 -13    1.30    0.41
   6   0 -13    0.45    0.47
  -6   0  13    0.30    0.49
  -6   0 -13   -0.33    0.36
   7   0 -13    1.51    0.58
  -7   0  13    1.28    0.57
  -7   0 -13    1.44    0.56
   8   0 -13    0.26    0.69
  -8   0 -13   -0.35    0.54
  -8   0  13    0.80    0.61
  -9   0 -13   -1.08    0.67
  -9   0  13   -0.45    0.73
 -10   0 -13   -1.07    0.85
 -10   0  13    0.54    0.99
   0   1  13    0.87    0.48
   0   1 -13    0.51    0.40
   0  -1 -13    0.47    0.35
   0  -1  13    1.43    0.56
   0  -1 -13    0.07    0.27
   0   1 -13    0.29    0.27
   1   1 -13    9.60    0.95
  -1   1  13    8.93    0.46
  -1  -1 -13   10.25    0.86
   1   1 -13   10.35    0.85
  -1  -1 -13    9.16    0.72
  -1  -1  13   10.36    1.66
   1  -1 -13    8.89    0.88
  -1  -1  13   10.04    0.67
   1   1  13    8.35    1.10
  -1  -1  13    8.85    0.53
  -1   1 -13    8.57    0.78
  -1   1 -13    8.75    0.82
   1  -1 -13    9.96    0.79
  -2   1  13   14.09    1.13
   2   1 -13   12.03    0.97
  -2   1  13   13.46    0.71
  -2  -1 -13   13.18    1.00
  -2  -1 -13   11.94    0.64
   2   1 -13   12.28    1.13
   2  -1 -13   13.13    0.97
  -2   1 -13   12.35    0.79
   2  -1 -13   15.09    1.07
  -2   1 -13   13.21    1.03
  -2  -1  13   12.83    0.77
   3   1 -13   14.99    1.12
   3   1 -13   15.43    1.31
  -3   1  13   14.85    0.86
  -3   1  13   12.22    1.20
  -3  -1 -13   15.76    1.08
   3  -1 -13   17.02    1.30
   3  -1 -13   14.75    1.07
  -3  -1  13   15.04    0.92
  -3   1 -13   14.03    1.08
   4   1 -13    1.08    0.45
  -4  -1 -13    1.03    0.41
  -4   1  13    1.40    0.38
   4   1 -13    1.80    0.72
  -4   1 -13    1.28    0.42
   4  -1 -13    2.22    0.75
   4  -1 -13    1.48    0.48
  -4  -1  13    1.25    0.42
  -5  -1 -13    2.18    0.47
   5   1 -13    2.51    0.56
  -5   1  13    4.22    0.61
   5  -1 -13    2.69    0.57
  -5   1 -13    2.82    0.59
  -5  -1  13    3.08    0.59
  -6  -1 -13   -0.18    0.39
  -6   1  13    0.47    0.45
   6   1 -13    0.44    0.51
   6  -1 -13    0.61    0.47
  -6  -1  13    0.33    0.45
  -6   1 -13   -0.08    0.39
  -7   1  13    0.46    0.60
   7   1 -13    0.22    0.61
   7  -1 -13    0.71    0.56
  -7  -1  13    0.85    0.59
  -7   1 -13    0.28    0.46
  -8   1  13    0.15    0.61
  -8  -1 -13   -0.31    0.56
   8   1 -13   -0.19    0.72
   8  -1 -13    0.70    0.69
  -8   1 -13   -0.18    0.49
  -8  -1  13    0.63    0.66
  -9   1  13    0.39    0.78
  -9   1 -13   -0.78    0.58
  -9  -1  13    0.79    0.82
 -10  -1 -13   -0.35    0.89
 -10   1  13    0.59    0.97
 -10   1 -13    0.50    0.83
 -10  -1  13    2.06    1.06
   0   2 -13   -0.39    0.24
   0  -2  13    0.09    0.14
   0  -2 -13    0.01    0.34
   0   2  13    0.14    0.46
   0  -2  13   -0.21    0.28
   0  -2  13    0.09    0.16
   0   2 -13   -0.25    0.42
   0  -2 -13   -0.15    0.26
   1  -2  13   15.75    0.93
  -1  -2 -13   16.42    1.08
  -1   2  13   12.90    1.21
  -1   2  13   13.35    0.65
   1   2 -13   17.13    1.22
   1   2 -13   14.28    1.05
  -1  -2 -13   14.93    0.85
  -1  -2  13   16.47    1.04
  -1   2 -13   14.17    1.04
   1  -2 -13   15.06    1.01
  -1   2 -13   15.93    1.01
   1  -2 -13   16.48    1.07
  -1  -2  13   14.90    0.81
  -1  -2  13   15.17    0.78
   2   2 -13    2.18    0.44
   2  -2  13    3.15    0.46
  -2   2  13    3.47    0.64
  -2   2  13    2.44    0.35
   2   2 -13    2.91    0.67
  -2  -2 -13    2.41    0.46
  -2   2 -13    2.63    0.45
  -2   2 -13    2.82    0.51
  -2  -2  13    2.52    0.40
   2  -2 -13    1.91    0.43
  -2  -2  13    2.70    0.49
   2  -2 -13    3.09    0.62
   3   2 -13   16.26    1.21
  -3  -2 -13   18.22    1.18
  -3   2  13   16.81    0.95
   3  -2  13   16.33    0.86
   3   2 -13   18.00    1.44
  -3   2  13   17.83    1.31
   3  -2 -13   19.57    1.36
   3  -2 -13   18.15    1.19
  -3   2 -13   17.34    1.20
  -3  -2  13   18.75    1.08
  -4   2  13    3.98    0.58
  -4   2  13    2.54    0.77
   4   2 -13    3.41    0.60
  -4  -2 -13    6.20    0.76
   4   2 -13    4.28    0.87
  -4   2 -13    5.76    0.76
   4  -2 -13    4.68    0.83
   4  -2 -13    4.80    0.74
   5   2 -13    1.15    0.47
  -5  -2 -13    0.59    0.36
  -5   2  13    0.09    0.36
  -5  -2  13    0.80    0.47
   5  -2 -13    1.19    0.49
  -5   2 -13    0.66    0.41
   6   2 -13    0.96    0.52
  -6  -2 -13   -0.30    0.40
  -6   2  13   -0.13    0.41
  -6   2 -13    1.09    0.46
   6  -2 -13    0.98    0.54
  -6  -2  13    0.06    0.50
   7   2 -13    4.88    0.87
  -7  -2 -13    4.07    0.75
  -7   2  13    3.61    0.70
   7  -2 -13    4.83    0.87
  -7  -2  13    5.15    0.85
  -7   2 -13    3.98    0.71
  -8  -2 -13    1.59    0.73
  -8   2  13    3.45    0.81
   8   2 -13    2.73    0.90
   8  -2 -13    3.70    0.84
  -8  -2  13    3.11    0.83
  -8   2 -13    2.11    0.65
  -9   2  13    1.17    0.77
  -9  -2 -13    1.94    0.86
  -9  -2  13    2.64    0.95
  -9   2 -13    0.96    0.70
 -10   2  13   -0.19    0.91
 -10  -2  13    1.99    1.09
 -10   2 -13   -0.35    0.80
   0  -3 -13    5.71    0.67
   0  -3 -13    4.76    0.63
   0   3 -13    4.74    0.63
   0   3  13    4.42    0.75
   0  -3  13    4.82    0.43
   0  -3  13    5.80    0.66
   0   3 -13    3.42    0.67
   1  -3  13    4.88    0.37
  -1   3  13    5.41    0.94
   1  -3  13    3.87    0.57
  -1  -3 -13    5.31    0.68
   1   3 -13    3.73    0.60
  -1  -3 -13    3.32    0.54
   1   3 -13    3.87    0.70
  -1  -3  13    4.54    0.51
  -1   3 -13    4.77    0.66
  -1   3 -13    3.68    0.61
   1  -3 -13    4.77    0.77
  -1  -3  13    4.08    0.65
   1  -3 -13    4.65    0.57
   2   3 -13   11.83    1.00
   2   3 -13   10.39    1.22
   2  -3  13   13.17    0.82
  -2   3  13   11.77    0.65
  -2   3  13   13.93    1.14
  -2  -3 -13   12.15    0.95
  -2  -3  13   10.87    0.81
   2  -3 -13   13.09    1.12
  -2   3 -13   10.42    0.93
   2  -3 -13   10.96    0.88
  -2   3 -13   11.80    0.92
  -2  -3  13   11.85    0.97
  -3   3  13    2.95    0.46
   3   3 -13    3.79    0.88
   3  -3  13    2.79    0.47
  -3   3  13    4.07    0.69
  -3  -3 -13    4.09    0.65
   3   3 -13    4.41    0.73
  -3  -3  13    4.15    0.72
  -3   3 -13    3.64    0.62
   3  -3 -13    5.07    0.67
   3  -3 -13    4.02    0.78
   4  -3  13   20.43    1.02
  -4  -3 -13   21.30    1.34
  -4   3  13   18.64    1.44
   4   3 -13   20.48    1.47
  -4   3  13   21.28    1.16
  -4  -3  13   23.88    1.48
  -4   3 -13   20.05    1.37
   4  -3 -13   21.39    1.36
   4  -3 -13   21.67    1.70
   5   3 -13    6.19    0.95
  -5   3  13    5.56    0.71
  -5  -3  13    6.11    0.91
   5  -3 -13    5.55    0.85
  -5   3 -13    6.18    0.85
   6   3 -13    4.14    0.77
  -6  -3 -13    4.02    0.69
  -6   3  13    3.80    0.60
   6  -3 -13    3.53    0.71
  -6  -3  13    3.70    0.75
  -6   3 -13    2.73    0.58
  -7  -3 -13    0.56    0.54
  -7   3  13   -0.08    0.48
   7   3 -13    1.26    0.66
  -7   3 -13    1.22    0.30
   7  -3 -13    1.32    0.64
  -7   3 -13    1.08    0.53
  -7  -3  13    0.99    0.64
  -8  -3 -13    0.36    0.68
  -8   3  13   -0.10    0.60
   8   3 -13    1.58    0.83
  -8   3 -13    0.36    0.64
  -8  -3  13    2.31    0.82
  -9  -3  13    0.09    0.86
  -9   3 -13   -0.16    0.63
   0  -4 -13    0.61    0.40
   0   4 -13    0.93    0.54
   0  -4  13    0.39    0.37
   0  -4 -13    0.53    0.31
   0   4 -13    0.92    0.36
   0  -4  13    0.62    0.28
   1  -4  13    6.33    0.71
  -1  -4 -13    7.63    0.64
  -1  -4 -13    7.32    0.76
  -1   4  13    6.50    0.44
   1   4 -13    5.54    0.73
   1  -4  13    6.47    0.53
  -1   4  13    6.40    0.99
   1   4 -13    5.50    0.86
  -1  -4  13    6.62    0.76
   1  -4 -13    8.51    0.93
  -1   4 -13    6.54    0.75
  -1   4 -13    6.79    0.92
   1  -4 -13    6.29    0.66
  -1  -4  13    6.20    0.62
   2   4 -13    1.91    0.72
   2   4 -13    2.24    0.52
  -2  -4 -13    2.06    0.43
   2  -4  13    2.05    0.45
  -2  -4 -13    2.01    0.33
  -2  -4 -13    1.96    0.28
  -2   4  13    2.07    0.61
  -2   4  13    2.46    0.37
  -2  -4  13    2.42    0.53
   2  -4 -13    2.72    0.68
  -2   4 -13    1.24    0.45
   2  -4 -13    2.27    0.43
  -2   4 -13    2.49    0.58
  -2  -4  13    1.65    0.46
  -3   4  13   17.92    1.32
   3   4 -13   16.48    1.56
  -3   4  13   17.14    0.93
   3   4 -13   16.68    1.27
   3  -4  13   15.43    0.98
   3  -4  13   14.91    0.80
  -3  -4 -13   15.46    1.11
  -3   4 -13   17.19    1.20
  -3  -4  13   14.97    1.24
   3  -4 -13   15.30    1.44
   3  -4 -13   16.79    1.13
   4  -4  13    3.58    0.61
   4  -4  13    4.85    0.50
   4   4 -13    4.37    0.77
  -4   4  13    6.69    1.07
  -4   4  13    5.02    0.61
  -4  -4 -13    5.69    0.74
   4  -4 -13    5.27    0.81
  -4   4 -13    5.08    0.82
   4  -4 -13    3.83    0.94
  -4  -4  13    6.61    0.94
   5  -4  13    1.85    0.40
  -5   4  13    2.19    0.46
   5   4 -13    2.57    0.64
  -5  -4 -13    1.81    0.50
  -5   4  13    1.58    0.65
  -5  -4  13    2.31    0.65
  -5   4 -13    2.58    0.63
   5  -4 -13    3.25    0.62
  -6   4  13   -0.27    0.41
  -6  -4 -13    0.40    0.49
   6  -4  13   -0.04    0.34
   6   4 -13    0.52    0.66
  -6   4 -13    1.12    0.51
  -6  -4  13    0.90    0.60
   6  -4 -13    1.06    0.51
   7   4 -13    3.19    0.85
  -7   4  13    1.95    0.62
   7  -4 -13    3.10    0.76
  -7   4 -13    4.08    0.62
  -7   4 -13    2.59    0.70
  -7  -4  13    3.86    0.86
   8   4 -13    0.40    0.81
  -8   4  13   -0.05    0.61
  -8  -4  13   -0.31    0.80
  -9  -4 -13    4.77    1.17
  -9   4  13    6.85    1.01
  -9  -4  13    6.88    1.18
  -9   4 -13    5.19    0.93
   0  -5 -13    4.61    0.79
   0  -5  13    4.37    0.73
   0   5 -13    3.55    0.66
   0  -5  13    4.10    0.59
   0  -5 -13    3.62    0.59
   0   5 -13    5.02    0.85
   1   5 -13   -1.33    0.66
  -1   5  13   -0.17    0.19
   1   5 -13    0.32    0.35
  -1  -5 -13    0.45    0.34
   1  -5  13    0.29    0.29
   1  -5  13   -0.35    0.35
  -1  -5 -13    0.45    0.38
   1  -5 -13   -0.20    0.52
   1  -5 -13    0.13    0.29
  -1   5 -13   -0.58    0.31
  -1   5 -13    0.31    0.60
  -1  -5  13   -0.05    0.42
  -1  -5  13    0.00    0.35
   2   5 -13   14.66    1.19
   2  -5  13   14.22    0.87
  -2   5  13   16.27    0.84
  -2   5  13   13.76    1.26
   2   5 -13   12.39    1.46
  -2  -5 -13   14.40    0.76
  -2  -5 -13   14.42    1.06
   2  -5  13   14.26    1.05
   2  -5 -13   16.37    1.38
  -2  -5  13   14.50    1.03
  -2  -5  13   13.45    1.14
   2  -5 -13   16.24    1.04
  -2   5 -13   13.97    1.10
  -2   5 -13   14.98    1.24
   3  -5  13    3.68    0.59
  -3   5  13    2.72    0.68
  -3  -5 -13    3.07    0.56
   3   5 -13    2.72    0.67
  -3   5  13    2.83    0.49
   3  -5  13    2.91    0.56
  -3   5 -13    2.76    0.58
  -3  -5  13    3.41    0.68
   3  -5 -13    3.76    0.65
  -3  -5  13    3.31    0.62
   3  -5 -13    3.41    0.86
  -4   5  13   37.67    1.75
   4  -5  13   35.82    1.65
   4  -5  13   37.04    1.81
  -4   5  13   40.26    2.05
  -4  -5 -13   34.56    1.90
   4   5 -13   35.01    2.09
  -4  -5  13   37.71    2.13
  -4   5 -13   38.99    2.05
   4  -5 -13   36.45    1.90
   5   5 -13    4.76    0.83
   5  -5  13    4.33    0.71
  -5   5  13    5.29    0.73
  -5  -5 -13    5.92    0.82
  -5   5  13    7.74    1.19
   5  -5  13    6.79    0.86
   5  -5 -13    6.43    0.89
  -5   5 -13    5.35    0.94
  -5  -5  13    6.99    1.09
  -6  -5 -13    1.67    0.54
  -6   5  13    2.14    0.52
   6   5 -13    2.38    0.77
   6  -5  13    3.19    0.60
   6  -5 -13    2.26    0.65
  -6  -5  13    2.19    0.74
  -6   5 -13    1.96    0.64
  -7   5  13    5.08    0.79
  -7  -5 -13    3.72    0.83
   7   5 -13    5.02    1.06
  -7   5 -13    7.64    1.08
  -7   5 -13    7.22    0.79
   7  -5 -13    6.82    1.18
  -7  -5  13    5.57    0.98
   8   5 -13   14.92    1.84
  -8   5  13   14.91    1.40
  -8  -5 -13   10.38    1.56
  -8   5 -13   13.46    1.40
  -8  -5  13   16.16    1.75
  -9  -5 -13    2.94    1.10
  -9   5  13    5.45    0.97
  -9  -5  13    3.84    1.18
  -9   5 -13    3.38    0.90
   0  -6 -13    0.24    0.33
   0   6 -13   -0.30    0.68
   0  -6 -13   -0.06    0.54
   0   6 -13    0.26    0.40
   0  -6  13    0.42    0.39
   0  -6  13   -0.71    0.41
   0  -6 -13    0.09    0.30
   1  -6  13   13.60    1.13
   1  -6  13   14.58    0.95
   1   6 -13   12.28    1.40
  -1   6  13   14.11    0.81
  -1  -6 -13   15.18    1.07
  -1  -6 -13   14.14    0.87
   1   6 -13   13.64    1.16
  -1  -6 -13   14.26    1.04
  -1  -6 -13   13.42    0.78
  -1   6 -13   13.21    1.09
   1  -6 -13   15.39    0.99
  -1  -6  13   12.28    1.14
  -1   6 -13   15.65    1.46
  -1  -6  13   14.01    1.03
   1  -6 -13   13.03    1.26
   2  -6  13    4.50    0.72
   2  -6  13    2.52    0.62
   2   6 -13    3.57    0.65
  -2   6  13    3.79    0.51
  -2  -6 -13    3.43    0.59
  -2  -6 -13    3.13    0.56
  -2  -6 -13    3.34    0.47
   2  -6 -13    2.59    0.82
   2  -6 -13    3.36    0.61
  -2  -6  13    3.55    0.72
  -2  -6  13    3.49    0.61
  -2   6 -13    3.20    0.60
   3   6 -13    5.25    0.94
   3  -6  13    7.65    0.97
  -3   6  13    6.72    0.63
  -3   6  13    5.79    1.09
  -3  -6 -13    7.34    0.83
  -3   6 -13    5.62    0.82
   3  -6 -13    5.78    1.06
   3  -6 -13    5.86    0.78
  -3  -6  13    7.13    1.02
  -3  -6  13    5.41    0.86
  -4   6  13    3.29    0.77
   4  -6  13    6.16    0.96
  -4   6  13    4.34    0.67
   4   6 -13    3.89    0.73
   4  -6  13    4.83    0.82
  -4  -6 -13    6.07    0.80
   4  -6 -13    5.09    0.79
  -4  -6  13    4.47    0.81
  -4   6 -13    4.30    0.73
   5  -6  13   13.03    1.15
  -5  -6 -13   11.54    1.07
   5   6 -13   12.16    1.34
  -5   6  13   13.10    1.01
  -5  -6  13   11.76    1.37
   5  -6 -13   13.15    1.17
  -5   6 -13   14.17    1.27
  -6   6  13    1.00    0.49
   6   6 -13    0.93    0.66
  -6  -6 -13   -0.36    0.47
   6  -6  13    0.48    0.61
  -6  -6  13    0.21    0.69
   6  -6 -13    0.99    0.61
  -6   6 -13    0.51    0.57
   7   6 -13    3.78    0.97
  -7   6  13    4.19    0.74
  -7  -6 -13    3.20    0.80
  -7   6 -13    5.68    0.98
  -7  -6  13    3.78    1.08
   8   6 -13   15.41    1.90
  -8   6  13   12.72    1.42
  -8  -6  13   14.95    1.84
  -8   6 -13   17.59    1.64
   0  -7  13   -0.27    0.48
   0  -7 -13    0.68    0.42
   0  -7 -13   -0.11    0.61
   0   7 -13    0.66    0.42
   0  -7 -13   -0.21    0.30
   0  -7  13    0.72    0.46
   1  -7  13    4.33    0.78
  -1  -7 -13    3.95    0.66
   1   7 -13    5.47    0.88
   1  -7  13    5.06    0.80
  -1  -7 -13    5.56    0.93
  -1  -7 -13    4.33    0.74
  -1  -7 -13    4.02    0.65
   1  -7 -13    4.43    0.66
   1  -7 -13    4.64    0.65
   1  -7 -13    4.04    0.88
  -1  -7  13    4.58    0.80
  -1   7 -13    3.74    0.66
  -1   7 -13    3.86    0.92
  -1  -7  13    5.41    0.87
  -2   7  13    7.39    0.70
   2  -7  13    7.09    0.96
   2  -7  13    9.38    1.14
  -2  -7 -13    7.40    0.70
  -2  -7 -13    6.33    0.65
  -2  -7 -13    8.44    0.88
  -2  -7 -13    6.91    0.85
   2   7 -13    8.31    1.08
   2  -7 -13    8.74    1.04
  -2   7 -13    7.90    0.87
   2  -7 -13    8.63    1.42
  -2  -7  13    8.05    1.07
   2  -7 -13    8.51    0.81
  -2  -7  13    7.00    1.05
  -3  -7 -13    4.67    0.52
  -3  -7 -13    4.90    0.78
  -3  -7 -13    3.70    0.62
  -3   7  13    4.70    0.66
   3  -7  13    5.95    1.05
   3   7 -13    4.10    0.79
   3  -7 -13    4.68    0.83
  -3   7 -13    3.16    0.61
   3  -7 -13    3.86    0.73
  -3  -7  13    3.95    0.78
  -4   7  13    5.07    0.70
   4   7 -13    3.28    0.76
  -4  -7 -13    4.97    0.80
   4  -7  13    4.76    0.83
   4  -7 -13    4.80    0.79
  -4  -7  13    3.64    0.79
  -5  -7 -13   13.78    1.21
  -5   7  13   13.26    1.10
   5   7 -13   14.77    1.53
   5  -7  13   14.57    1.38
  -5  -7  13   14.05    1.44
  -5   7 -13   13.23    1.33
   5  -7 -13   16.31    1.26
  -6  -7 -13    2.52    0.69
  -6   7  13    2.54    0.59
   6   7 -13    3.22    0.85
   6  -7  13    4.67    0.85
  -6   7 -13    4.52    0.88
  -6  -7  13    5.07    1.08
   7   7 -13    1.49    0.97
  -7   7  13    0.90    0.62
  -7   7 -13    1.55    0.77
  -7  -7  13    2.00    0.93
  -8  -7 -13   -0.67    0.83
  -8   7  13    1.17    0.68
  -8   7 -13    2.41    0.93
  -8  -7  13    1.19    1.04
   0  -8 -13    0.41    0.43
   0   8 -13    0.60    0.50
   0  -8 -13    0.18    0.35
   0  -8  13   -0.33    0.58
   0  -8 -13    0.41    0.51
   0  -8  13    1.18    0.58
  -1  -8 -13   10.31    0.89
  -1   8  13   11.52    0.90
  -1  -8 -13    8.73    0.89
   1  -8  13    6.99    1.23
   1  -8  13   10.04    1.12
  -1  -8 -13    9.30    1.53
   1   8 -13    9.66    1.13
   1  -8 -13   10.64    0.87
  -1   8 -13   10.59    1.09
  -1  -8  13    8.58    1.14
   1  -8 -13   10.53    1.18
  -1  -8  13   10.43    1.22
   2  -8  13   -0.12    0.63
  -2  -8 -13    1.33    0.44
   2  -8  13    0.96    0.63
  -2  -8 -13    0.29    0.43
  -2   8  13   -0.21    0.34
   2   8 -13   -0.13    0.54
   2  -8 -13    1.12    0.68
   2  -8 -13    0.68    0.40
  -2   8 -13    0.46    0.47
  -2  -8  13    0.66    0.60
   3  -8  13    4.69    0.88
  -3  -8 -13    6.86    0.77
  -3   8  13    6.57    0.79
   3   8 -13    5.77    1.08
  -3  -8 -13    8.00    0.90
   3  -8 -13    5.60    0.78
  -3  -8  13    5.24    0.95
  -3   8 -13    4.81    0.89
   3  -8 -13    5.94    0.97
   4   8 -13    2.31    0.71
   4  -8  13    2.18    0.80
  -4  -8 -13    3.15    0.60
  -4   8  13    2.17    0.51
  -4   8 -13    0.63    0.55
  -4  -8  13    1.37    0.72
   4  -8 -13    1.71    0.54
  -5  -8 -13    4.82    0.92
   5   8 -13    6.44    1.11
   5  -8 -13    5.65    1.01
  -5  -8  13    4.46    0.91
  -5   8 -13    5.17    0.86
  -6   8  13   -0.07    0.57
   6   8 -13    0.71    0.87
   6  -8  13    0.72    0.85
  -6  -8 -13    0.75    0.60
  -6  -8  13    1.60    0.83
  -7   8  13    5.83    0.88
  -7  -8 -13    4.92    1.02
   7   8 -13    6.96    1.33
  -7  -8  13    6.64    1.38
   0   9 -13    1.70    0.63
   0  -9 -13    1.62    0.42
   0  -9 -13    1.31    0.56
   0  -9  13    0.44    0.70
   1   9 -13    6.54    1.18
  -1  -9 -13    5.71    0.82
  -1  -9 -13    6.50    0.92
   1  -9  13    9.79    1.37
  -1   9 -13    7.47    1.08
  -1  -9  13    6.23    1.03
   1  -9 -13    7.59    0.80
  -2   9  13    5.46    0.81
  -2  -9 -13    7.98    1.00
   2   9 -13    5.92    0.97
   2  -9  13    5.91    1.04
  -2   9 -13    6.32    1.06
   2  -9 -13    5.68    0.79
  -2  -9  13    5.36    1.04
   3  -9  13    2.31    0.83
  -3  -9 -13    2.40    0.60
   3   9 -13    1.62    0.71
  -3   9  13    0.71    0.48
   3  -9 -13    1.96    0.52
  -3  -9  13    1.75    0.81
  -3   9 -13    2.03    0.60
   4  -9  13    4.14    1.01
  -4  -9 -13    3.64    0.71
   4   9 -13    3.63    0.88
  -4   9  13    4.03    0.69
  -4   9 -13    2.84    0.73
  -4  -9  13    3.17    0.94
  -5   9  13    0.23    0.53
  -5  -9 -13   -1.02    0.54
   5   9 -13   -0.27    0.77
   5  -9  13    0.04    0.86
  -5  -9  13   -0.46    0.79
  -5   9 -13   -0.58    0.59
   6  -9  13    0.61    0.96
  -6   9  13    1.54    0.66
   6   9 -13    1.10    1.02
  -6  -9 -13    0.15    0.62
  -6  -9  13    1.23    0.87
  -6   9 -13   -0.22    0.68
   0 -10  13   -1.44    0.77
   0  10 -13    0.16    0.65
   0 -10 -13   -0.18    0.39
   0 -10 -13   -0.62    0.58
  -1 -10 -13    0.15    0.42
   1 -10  13    1.31    0.88
   1  10 -13    1.58    0.81
  -1 -10 -13    0.94    0.58
  -1 -10  13   -0.79    0.72
   1 -10 -13    1.27    0.70
  -1  10 -13    1.24    0.67
  -2  10  13    3.52    0.68
  -2 -10 -13    4.42    0.85
  -2 -10 -13    2.72    0.65
   2 -10  13    2.26    0.93
   2  10 -13    3.66    0.90
  -2 -10  13    2.16    0.89
  -2  10 -13    1.72    0.71
  -3 -10 -13   12.20    1.24
   3  10 -13   13.26    1.54
  -3  10  13   10.07    1.09
   3 -10  13   11.44    1.73
  -3  10 -13   11.36    1.34
  -3 -10  13   11.13    1.53
   4  10 -13    6.53    1.16
  -4  10  13    5.88    1.04
  -4 -10 -13    9.08    1.17
   4 -10  13    7.19    1.22
  -4  10 -13    6.91    1.21
  -4 -10  13    5.24    1.12
  -5 -10 -13    1.33    0.68
  -5  10  13    0.83    0.68
   5  10 -13    0.85    1.00
   5 -10  13    0.63    1.10
  -5 -10  13   -0.05    0.90
  -5  10 -13    0.22    0.72
   0 -11 -13   -0.40    0.71
   0  11 -13   -0.05    0.77
   0 -11  13    0.70    0.95
   1 -11  13    3.69    1.12
   1  11 -13    1.68    0.83
  -1 -11 -13    1.52    0.77
   1 -11 -13    2.72    0.82
  -1  11 -13    2.25    0.84
  -2  11  13    2.88    0.77
   2 -11  13    1.17    1.01
   2  11 -13    0.95    0.83
  -2  11 -13    1.62    0.76
   2 -11 -13    2.39    0.89
  -2 -11  13    0.27    0.92
   3  11 -13    6.29    1.24
  -3  11  13    7.31    1.21
   3 -11  13    5.45    1.34
  -3  11 -13    5.42    0.97
   0   0 -14   -0.02    0.31
   0   0 -14    0.37    0.46
   1   0 -14   42.91    2.06
   1   0 -14   42.19    2.10
  -1   0 -14   42.02    2.09
  -1   0 -14   42.31    1.87
   2   0 -14    0.89    0.61
   2   0 -14    1.07    0.39
  -2   0  14    0.53    0.24
  -2   0 -14    0.85    0.30
  -2   0 -14    1.22    0.48
   3   0 -14    9.81    0.98
  -3   0 -14    9.90    0.97
  -3   0  14   10.05    0.78
   3   0 -14   10.23    1.24
  -4   0 -14    2.03    0.53
   4   0 -14    1.99    0.55
  -4   0  14    1.53    0.44
  -5   0  14    4.78    0.68
  -5   0 -14    3.25    0.64
   5   0 -14    4.68    0.86
  -6   0 -14    7.32    0.97
   6   0 -14    6.61    1.08
  -6   0  14    6.58    1.04
  -7   0 -14   11.43    1.22
  -7   0  14   12.80    1.36
   7   0 -14   12.13    1.36
  -8   0 -14    2.42    0.68
   8   0 -14    3.19    0.92
  -8   0  14    3.60    0.92
  -9   0 -14    3.25    0.81
   0   1 -14   -0.50    0.27
   0   1 -14   -0.21    0.44
   0  -1 -14   -0.20    0.29
   0  -1 -14    0.53    0.42
   1   1 -14   12.23    0.96
  -1  -1 -14   11.26    0.95
   1   1 -14   10.29    1.09
  -1  -1 -14    9.75    0.77
   1  -1 -14   10.81    0.89
  -1  -1  14   10.14    0.62
  -1   1 -14    9.20    0.88
   1  -1 -14   10.41    0.99
  -1   1 -14    8.32    0.89
  -1  -1  14   10.53    0.54
   2   1 -14    7.93    1.10
  -2  -1 -14    5.94    0.46
   2   1 -14    6.65    0.76
  -2   1  14    5.90    0.48
  -2  -1 -14    6.85    0.87
  -2   1 -14    6.21    0.65
   2  -1 -14    6.51    0.87
   2  -1 -14    5.96    0.76
  -2   1 -14    6.69    0.82
  -2  -1  14    7.22    0.60
   3   1 -14   12.69    1.37
   3   1 -14   12.44    1.06
  -3   1  14   10.69    0.75
  -3  -1 -14   10.92    0.99
  -3   1 -14   11.08    1.04
   3  -1 -14   11.40    1.02
  -3  -1  14   12.36    0.88
  -4  -1 -14   23.64    1.44
   4   1 -14   21.25    1.50
  -4   1  14   21.90    1.23
   4  -1 -14   19.33    1.44
  -4   1 -14   22.50    1.46
   4  -1 -14   22.36    1.91
  -4  -1  14   23.89    1.31
   5   1 -14    0.59    0.49
  -5  -1 -14    0.45    0.45
  -5   1  14    1.19    0.47
   5  -1 -14    0.89    0.46
  -5   1 -14    0.83    0.47
  -5  -1  14    0.81    0.47
  -6   1  14    2.56    0.66
  -6  -1 -14    1.45    0.55
   6   1 -14    2.26    0.63
  -6  -1  14    1.61    0.59
  -6   1 -14    2.18    0.58
   6  -1 -14    2.95    0.70
  -7  -1 -14    2.85    0.70
   7   1 -14    3.07    0.81
  -7   1  14    4.07    0.81
  -7  -1  14    3.29    0.80
   7  -1 -14    3.87    0.84
  -7   1 -14    3.13    0.68
   8   1 -14    3.22    0.94
  -8   1  14    3.35    0.90
  -8  -1 -14    3.13    0.76
   8  -1 -14    3.33    0.94
  -8   1 -14    2.67    0.71
  -8  -1  14    3.01    0.89
  -9   1  14    3.35    0.98
  -9  -1 -14    2.65    0.84
  -9  -1  14    5.01    1.06
  -9   1 -14    1.57    0.75
   0  -2 -14    0.87    0.39
   0  -2 -14    1.04    0.43
   0   2 -14    1.39    0.54
   0   2 -14    0.82    0.34
  -1  -2 -14   13.03    0.85
   1   2 -14   14.73    1.19
   1   2 -14   11.15    0.98
  -1  -2 -14   12.12    0.99
  -1  -2  14   13.58    0.72
   1  -2 -14   13.74    1.09
  -1   2 -14   11.67    0.99
  -1   2 -14   14.59    1.01
   1  -2 -14   13.50    1.00
  -1  -2  14   11.82    0.68
  -2   2  14    1.17    0.24
  -2  -2 -14    1.06    0.44
   2   2 -14    0.87    0.38
   2   2 -14    0.98    0.68
   2  -2 -14    0.99    0.37
  -2   2 -14    1.52    0.42
  -2   2 -14    0.32    0.35
  -2  -2  14    0.93    0.35
   2  -2 -14    2.24    0.63
  -2  -2  14    1.01    0.35
  -3   2  14    5.66    0.57
  -3  -2 -14    5.35    0.78
   3   2 -14    4.57    0.94
   3   2 -14    4.77    0.82
  -3   2 -14    6.65    0.87
  -3  -2  14    3.93    0.67
   3  -2 -14    5.91    0.91
   3  -2 -14    5.00    0.76
  -4  -2 -14    2.43    0.56
   4   2 -14    3.06    0.66
  -4   2  14    2.72    0.45
  -4   2 -14    3.26    0.67
   4  -2 -14    2.83    1.14
  -4  -2  14    3.15    0.56
   4  -2 -14    2.86    0.57
   5   2 -14   15.52    1.36
  -5   2  14   14.38    1.07
  -5  -2 -14   17.36    1.27
   5  -2 -14   16.83    1.31
  -5   2 -14   17.75    1.31
  -5  -2  14   16.59    1.25
   6   2 -14    4.55    0.88
  -6  -2 -14    2.95    0.61
  -6   2  14    3.10    0.62
  -6   2 -14    2.29    0.57
   6  -2 -14    3.34    0.71
   7   2 -14    4.27    0.89
  -7   2  14    2.84    0.70
  -7   2 -14    3.80    0.70
  -7  -2  14    4.22    0.84
   7  -2 -14    4.37    0.88
  -8  -2 -14   -0.06    0.58
   8   2 -14    0.24    0.81
  -8   2  14   -0.51    0.68
   8  -2 -14    1.02    0.83
  -8  -2  14    0.98    0.77
  -8   2 -14    1.35    0.65
  -9  -2 -14   -0.70    0.76
  -9   2 -14   -0.03    0.72
  -9  -2  14    1.13    0.98
   0  -3 -14   10.20    0.90
   0  -3  14   13.10    0.92
   0  -3 -14   12.78    0.92
   0   3 -14   10.51    0.96
   0  -3  14   10.77    0.60
   0   3 -14    7.79    1.12
  -1  -3 -14   -0.19    0.34
   1   3 -14    0.11    0.36
   1   3 -14    0.56    0.63
  -1  -3 -14    0.66    0.37
   1  -3  14    0.29    0.34
  -1   3 -14    0.73    0.51
   1  -3 -14    0.40    0.33
   1  -3 -14    0.98    0.51
  -1  -3  14    0.26    0.26
  -1  -3  14    1.12    0.43
  -1   3 -14    0.12    0.32
   2   3 -14   17.10    1.24
   2   3 -14   18.79    1.51
   2  -3  14   16.13    1.02
  -2   3  14   16.85    0.83
  -2  -3 -14   17.02    1.21
  -2  -3  14   18.92    1.28
  -2   3 -14   14.83    1.19
  -2   3 -14   17.69    1.14
   2  -3 -14   17.07    1.17
  -2  -3  14   15.12    0.99
   2  -3 -14   18.60    1.35
   3  -3  14   12.39    0.83
  -3  -3 -14   12.66    1.09
   3   3 -14   14.07    1.17
  -3   3  14   13.42    0.81
  -3   3 -14   14.41    1.17
   3  -3 -14   13.24    1.07
  -3  -3  14   14.29    1.18
   3  -3 -14   13.21    1.41
  -3  -3  14   12.75    0.99
  -4   3  14   13.10    0.90
  -4  -3 -14   11.25    1.05
   4  -3  14   12.88    0.74
   4   3 -14   14.93    1.26
  -4   3 -14   13.73    1.18
   4  -3 -14   13.08    1.12
  -4  -3  14   12.55    1.11
  -5  -3 -14    1.12    0.48
  -5   3  14    0.58    0.43
   5   3 -14    1.29    0.57
  -5  -3  14    0.37    0.56
   5  -3 -14    1.16    0.51
  -5   3 -14    1.32    0.54
  -6   3  14    5.36    0.84
   6   3 -14    4.83    0.92
  -6  -3 -14    4.32    0.79
  -6   3 -14    6.92    1.01
  -6  -3  14    4.18    0.82
   6  -3 -14    5.50    0.89
  -7   3  14    0.37    0.53
   7   3 -14    1.32    0.71
  -7  -3 -14   -0.44    0.52
   7  -3 -14   -0.06    0.66
  -7  -3  14   -0.67    0.67
  -7   3 -14   -0.68    0.54
  -8  -3 -14    4.80    0.95
   8   3 -14    7.03    1.28
  -8   3  14    5.57    0.89
  -8  -3  14    6.12    1.10
  -9  -3 -14   -1.05    0.79
  -9   3  14   -0.30    0.77
  -9  -3  14    0.36    1.04
  -9   3 -14    1.22    0.80
   0  -4  14   -0.25    0.38
   0   4 -14   -0.09    0.36
   0   4 -14    0.66    0.57
   0  -4  14    0.10    0.26
   0  -4 -14   -0.18    0.31
   0  -4 -14    0.76    0.44
   1  -4  14    4.73    0.69
   1   4 -14    2.89    0.82
  -1  -4 -14    3.80    0.72
   1   4 -14    2.94    0.57
  -1   4  14    3.51    0.76
  -1  -4 -14    4.92    0.64
  -1   4 -14    4.07    0.74
   1  -4 -14    5.43    0.75
  -1  -4  14    4.58    0.78
  -1  -4  14    4.12    0.59
   1  -4 -14    5.07    0.67
  -1   4 -14    3.11    0.58
   2  -4  14    0.42    0.23
   2   4 -14    0.14    0.38
   2   4 -14   -0.32    0.72
   2  -4  14   -0.05    0.34
  -2   4  14    0.37    0.60
  -2  -4 -14    0.69    0.44
  -2   4  14    0.07    0.21
   2  -4 -14    0.68    0.36
  -2  -4  14    0.60    0.48
   2  -4 -14    0.51    0.61
  -2  -4  14    0.96    0.40
  -2   4 -14   -0.08    0.37
  -2   4 -14    0.19    0.56
  -3  -4 -14    4.13    0.77
  -3   4  14    4.61    1.27
  -3   4  14    2.77    0.49
   3   4 -14    2.17    0.57
   3  -4  14    2.13    0.46
  -3  -4  14    2.08    0.56
   3  -4 -14    3.46    0.93
  -3  -4  14    3.24    0.68
  -3   4 -14    2.16    0.60
   3  -4 -14    2.49    0.53
   4   4 -14   -0.45    0.43
   4  -4  14    0.18    0.33
  -4  -4 -14   -0.17    0.41
  -4   4  14    0.13    0.34
   4  -4 -14    0.35    0.45
  -4   4 -14    0.98    0.54
  -4  -4  14    0.61    0.58
  -5  -4 -14    7.99    0.96
   5   4 -14    7.21    1.10
  -5   4  14    8.41    0.85
   5  -4  14    6.31    0.66
   5  -4 -14    8.05    0.99
  -5  -4  14    8.14    1.17
  -5   4 -14    8.64    1.08
   6   4 -14    0.40    0.65
  -6  -4 -14   -0.53    0.49
  -6   4  14   -0.03    0.46
   6  -4 -14    0.80    0.62
  -6   4 -14    0.38    0.59
  -6  -4  14    0.83    0.71
   7   4 -14    0.35    0.70
  -7  -4 -14   -0.04    0.59
  -7   4  14   -0.28    0.54
   7  -4 -14    0.48    0.69
  -7  -4  14    0.59    0.78
  -7   4 -14    0.62    0.61
  -8   4  14   12.77    1.43
  -8  -4 -14   14.74    1.51
   8   4 -14   15.38    1.94
  -8  -4  14   17.84    1.88
  -8   4 -14   15.33    1.53
   0   5 -14    0.72    0.41
   0  -5 -14    1.85    0.56
   0  -5 -14    1.22    0.39
   0   5 -14    1.25    0.78
   0  -5  14    1.62    0.39
   0  -5  14    0.35    0.47
  -1  -5 -14    0.39    0.40
  -1  -5 -14    1.59    0.44
   1   5 -14    1.56    0.48
   1  -5  14    1.35    0.38
   1  -5  14    0.98    0.46
   1  -5 -14    1.78    0.65
   1  -5 -14    0.95    0.38
  -1   5 -14    1.52    0.75
  -1   5 -14    0.85    0.38
  -1  -5  14    1.21    0.49
  -1  -5  14    1.61    0.44
  -2  -5 -14    0.42    0.41
   2  -5  14   -0.10    0.42
  -2   5  14    0.62    0.63
  -2  -5 -14    0.16    0.26
  -2  -5 -14   -0.06    0.26
  -2   5  14    0.65    0.26
   2   5 -14    0.48    0.49
  -2   5 -14   -0.31    0.39
   2  -5 -14    0.38    0.35
  -2  -5  14    0.03    0.45
  -2   5 -14    0.36    0.64
  -2  -5  14    0.60    0.47
   2  -5 -14   -0.25    0.72
   3  -5  14    4.06    0.60
  -3   5  14    3.94    0.83
  -3  -5 -14    6.21    0.87
  -3   5  14    4.15    0.56
   3  -5  14    4.91    0.66
   3   5 -14    4.37    0.82
   3  -5 -14    3.41    0.99
   3  -5 -14    4.90    0.78
  -3  -5  14    4.96    0.82
  -3  -5  14    2.73    0.69
  -3   5 -14    3.75    0.66
   4  -5  14    6.41    0.74
  -4  -5 -14    5.93    0.89
   4   5 -14    6.40    1.07
  -4   5  14    7.08    0.72
  -4  -5  14    5.41    0.87
  -4   5 -14    6.97    1.07
   4  -5 -14    6.04    0.90
  -4  -5  14    7.93    1.12
  -5   5  14    0.69    0.42
  -5  -5 -14    1.20    0.52
   5   5 -14    0.77    0.59
   5  -5  14    0.51    0.46
   5  -5 -14    1.14    0.53
  -5   5 -14    0.58    0.58
  -5  -5  14    0.57    0.74
   6   5 -14    2.55    0.82
  -6   5  14    2.41    0.58
  -6  -5 -14    1.20    0.55
   6  -5 -14    2.86    0.70
  -6   5 -14    3.50    0.81
  -6  -5  14    2.14    0.81
  -7   5  14    0.30    0.56
   7   5 -14   -0.30    0.74
  -7  -5 -14    0.27    0.57
  -7   5 -14   -0.02    0.72
   7  -5 -14    0.64    0.71
  -8  -5 -14    0.35    0.74
  -8   5  14    0.97    0.73
   8   5 -14    1.24    1.07
  -8   5 -14    1.61    0.79
  -8  -5  14    3.25    1.10
   0  -6 -14   -0.02    0.34
   0  -6  14    0.85    0.42
   0  -6  14    0.62    0.51
   0   6 -14    0.33    0.44
   0   6 -14    1.19    0.80
   0  -6 -14    1.18    0.64
   1  -6  14    3.31    0.65
   1   6 -14    2.44    0.59
  -1  -6 -14    4.80    0.83
   1  -6  14    3.06    0.52
  -1   6  14    3.67    0.51
  -1  -6 -14    3.90    0.57
  -1  -6 -14    2.51    0.55
  -1  -6  14    2.17    0.63
  -1   6 -14    2.73    0.57
  -1   6 -14    2.97    0.89
  -1  -6  14    2.72    0.57
   1  -6 -14    2.74    0.83
   1  -6 -14    2.61    0.51
  -2  -6 -14    2.69    0.46
   2   6 -14    1.86    0.54
   2  -6  14    2.64    0.62
  -2   6  14    2.43    0.39
  -2  -6 -14    2.94    0.60
   2  -6  14    2.61    0.51
  -2   6 -14    1.87    0.54
   2  -6 -14    2.31    0.52
  -2  -6  14    1.41    0.59
   2  -6 -14    2.19    0.91
  -2  -6  14    2.45    0.60
  -3  -6 -14    6.33    0.89
  -3   6  14    3.93    0.60
  -3   6  14    4.29    0.85
   3   6 -14    3.66    0.75
   3  -6  14    4.56    0.73
  -3  -6  14    5.00    0.81
   3  -6 -14    4.60    0.70
  -3  -6  14    2.89    0.69
  -3   6 -14    4.61    0.78
   4   6 -14    4.32    0.80
  -4  -6 -14    4.94    0.75
  -4   6  14    5.38    0.74
  -4   6  14    4.34    0.84
   4  -6  14    4.00    0.74
  -4  -6  14    6.16    0.95
   4  -6 -14    5.45    0.88
  -4   6 -14    4.46    0.81
   5  -6  14    3.02    0.72
  -5  -6 -14    4.39    0.75
   5   6 -14    4.81    0.90
  -5   6  14    3.99    0.62
   5  -6 -14    4.16    0.77
  -5  -6  14    4.70    0.95
  -5   6 -14    6.39    1.14
  -6  -6 -14    4.51    0.78
  -6   6  14    5.31    0.94
   6   6 -14    4.86    0.99
  -6   6 -14    6.03    0.99
   6  -6 -14    6.12    0.94
  -6  -6  14    6.05    1.12
  -7   6  14    1.10    0.65
  -7  -6 -14   -0.49    0.59
   7   6 -14   -0.15    0.93
  -7   6 -14    0.50    0.78
  -7  -6  14    1.43    0.95
  -8   6  14    0.02    0.75
  -8  -6 -14   -0.90    0.74
   8   6 -14    0.77    1.11
  -8   6 -14    2.59    0.99
   0  -7  14   16.94    1.36
   0  -7 -14   17.02    1.15
   0   7 -14   18.22    1.38
   0  -7  14   15.93    1.25
   0  -7 -14   17.14    1.47
  -1  -7 -14    1.16    0.41
   1   7 -14    1.16    0.58
  -1  -7 -14    0.75    0.45
   1  -7  14    1.05    0.64
   1  -7 -14    0.96    0.83
  -1   7 -14    0.50    0.49
   1  -7 -14    2.00    0.49
  -1  -7  14    1.02    0.58
  -1  -7  14    2.05    0.66
  -2   7  14    1.74    0.38
  -2  -7 -14    2.14    0.57
   2  -7  14    1.70    0.67
   2   7 -14    1.78    0.71
  -2  -7  14    1.43    0.65
   2  -7 -14    1.43    0.98
   2  -7 -14    1.98    0.48
  -2  -7  14    1.14    0.65
  -2   7 -14    1.34    0.51
   3   7 -14    6.21    1.13
  -3  -7 -14    9.16    1.05
  -3   7  14    7.16    0.75
   3  -7  14    6.11    0.93
   3  -7 -14    6.25    0.89
  -3   7 -14    4.77    0.90
  -3  -7  14    6.56    0.98
  -4   7  14    0.95    0.42
  -4  -7 -14    0.29    0.49
   4   7 -14   -0.42    0.66
   4  -7  14    1.10    0.69
  -4  -7  14    0.39    0.64
  -4   7 -14    0.26    0.52
   4  -7 -14    0.85    0.51
  -5   7  14    0.85    0.51
  -5  -7 -14    1.18    0.57
   5  -7  14    1.83    0.76
   5   7 -14    0.43    0.75
  -5  -7  14    0.85    0.83
  -5   7 -14    0.39    0.61
   5  -7 -14    1.39    0.62
  -6   7  14    1.24    0.58
   6   7 -14    2.60    0.88
  -6   7 -14    2.98    0.83
  -6  -7  14    2.47    0.95
   6  -7 -14    2.57    0.75
  -7  -7 -14    2.56    0.80
  -7   7  14    2.44    0.70
   7   7 -14    2.77    1.09
  -7   7 -14    4.05    0.96
  -7  -7  14    3.25    1.15
   0   8 -14    2.99    0.70
   0  -8 -14    4.54    0.73
   0  -8  14    4.42    0.90
   0  -8 -14    4.54    0.70
   1  -8  14    3.22    0.83
   1   8 -14    3.37    0.74
  -1  -8 -14    3.68    0.61
  -1  -8 -14    3.43    0.61
  -1  -8  14    3.91    0.85
   1  -8 -14    4.47    0.76
  -1   8 -14    3.27    0.67
  -2  -8 -14    6.04    1.00
   2   8 -14    5.30    0.92
   2  -8  14    2.71    0.82
  -2   8  14    4.13    0.56
  -2  -8  14    3.67    0.89
   2  -8 -14    4.99    0.83
  -2   8 -14    5.22    0.96
  -3   8  14   26.10    1.48
   3   8 -14   26.10    1.95
   3  -8  14   28.12    1.91
  -3  -8 -14   27.70    1.68
   3  -8 -14   26.26    1.56
  -3  -8  14   26.08    1.95
  -3   8 -14   27.17    1.72
   4   8 -14    4.13    0.92
  -4  -8 -14    4.68    0.77
  -4   8  14    4.06    0.66
   4  -8  14    5.68    1.03
   4  -8 -14    4.44    0.74
  -4  -8  14    5.29    1.02
  -4   8 -14    3.48    0.76
   5  -8  14    9.95    1.47
   5   8 -14   10.28    1.62
  -5   8  14   11.52    1.10
  -5  -8 -14   12.42    1.27
  -5   8 -14    7.95    1.28
  -5  -8  14   10.23    1.54
  -6  -8 -14    0.13    0.64
   6   8 -14    0.79    0.96
  -6   8  14    0.83    0.64
  -6  -8  14    0.18    0.99
  -6   8 -14   -0.09    0.76
   0  -9 -14    0.52    0.45
   0  -9 -14    0.42    0.59
   0   9 -14    0.02    0.63
   0  -9  14   -1.40    0.68
  -1  -9 -14    4.08    0.64
   1  -9  14    3.63    0.97
  -1  -9 -14    4.15    0.68
   1   9 -14    3.01    0.81
  -1  -9  14    4.01    1.00
   1  -9 -14    3.80    0.77
  -1   9 -14    4.66    0.88
   1  -9 -14    4.16    0.64
   2   9 -14    6.02    0.99
  -2  -9 -14    6.64    1.06
   2  -9  14    8.45    1.23
  -2   9 -14    7.43    1.16
   2  -9 -14    5.92    0.90
  -2  -9  14    6.71    1.11
  -3   9  14    6.75    0.92
   3  -9  14    7.12    1.16
   3   9 -14    5.24    0.98
  -3  -9 -14    6.81    1.15
  -3   9 -14    6.28    1.15
  -3  -9  14    5.86    1.06
   4  -9  14    0.24    0.89
  -4  -9 -14    2.48    0.67
   4   9 -14    2.19    0.93
  -4   9  14    1.59    0.58
  -4  -9  14    0.09    0.93
  -4   9 -14    0.85    0.62
  -5  -9 -14    1.66    0.70
  -5   9  14    2.07    0.68
   5  -9  14    3.39    1.04
   5   9 -14    1.88    1.02
  -5  -9  14    1.87    0.96
   0  10 -14    0.37    0.77
   0 -10 -14    1.48    0.73
   0 -10  14   -1.03    0.85
   1  10 -14    7.90    1.21
   1 -10  14    4.92    1.15
  -1 -10  14    8.02    1.25
  -1  10 -14    9.63    1.38
   1 -10 -14    6.80    1.04
   2 -10  14    0.84    0.98
  -2  10  14    1.50    0.70
   2  10 -14    0.72    0.79
  -2 -10  14   -0.39    0.84
  -2  10 -14    0.14    0.71
  -3 -10 -14    9.41    1.32
   3  10 -14    7.32    1.18
   3 -10  14    7.90    1.32
  -3  10  14    5.64    0.86
  -3 -10  14    5.62    1.13
  -3  10 -14    6.90    1.04
   4 -10  14    4.13    1.14
  -4 -10 -14    4.38    0.90
  -4  10  14    2.58    0.76
   4  10 -14    2.72    1.06
  -4 -10  14    3.09    1.09
  -4  10 -14    3.27    0.88
   0  11 -14    2.69    0.96
   0 -11  14    1.59    1.10
   1 -11  14   -0.49    1.09
   1  11 -14    1.81    0.96
  -1  11 -14    1.13    0.93
  -1 -11  14    1.02    1.05
   0   0 -15    0.78    0.53
   0   0 -15   -0.62    0.32
   1   0 -15    6.12    1.03
  -1   0 -15    4.13    0.76
   1   0 -15    6.03    0.77
  -1   0 -15    5.02    0.67
  -2   0 -15   -0.01    0.29
   2   0 -15    0.44    0.38
   2   0 -15    0.17    0.67
  -2   0 -15    0.23    0.43
  -2   0  15   -0.13    0.22
  -3   0  15    1.86    0.40
   3   0 -15    2.20    0.56
   3   0 -15    0.95    0.83
  -3   0 -15    2.12    0.56
   4   0 -15    7.02    1.04
  -4   0  15    8.99    0.87
  -4   0 -15   10.14    1.06
   5   0 -15    2.86    0.69
  -5   0  15    3.40    0.64
  -5   0 -15    3.25    0.66
  -6   0 -15   -0.53    0.51
  -6   0  15    0.16    0.59
   6   0 -15    0.41    0.59
   7   0 -15    5.31    0.99
  -7   0  15    6.02    0.98
  -7   0 -15    7.08    1.13
  -8   0  15    0.43    0.85
  -8   0 -15    0.41    0.71
   8   0 -15    1.38    0.97
   0  -1 -15    8.41    0.93
   0  -1 -15    5.74    0.80
   0   1 -15    7.23    1.00
   0   1 -15    7.54    0.84
  -1  -1 -15    5.51    0.80
   1   1 -15    5.75    0.79
   1   1 -15    6.83    0.93
  -1  -1 -15    5.85    0.75
   1  -1 -15    6.08    0.79
  -1   1 -15    5.17    0.79
  -1   1 -15    5.93    0.83
   1  -1 -15    6.14    1.02
   2   1 -15   11.18    1.35
   2   1 -15   11.69    1.06
  -2  -1 -15   12.47    1.09
  -2   1  15   10.77    0.61
   2  -1 -15   10.18    1.00
  -2   1 -15   10.30    1.01
  -2   1 -15   11.57    0.82
  -2  -1  15   10.69    0.73
   2  -1 -15   12.73    1.26
  -2  -1  15   11.67    0.73
   3   1 -15   -0.47    0.73
  -3  -1 -15    0.71    0.47
   3   1 -15    0.47    0.43
  -3   1  15   -0.46    0.28
   3  -1 -15    0.78    0.48
  -3   1 -15    0.95    0.48
   3  -1 -15    0.04    0.79
  -3  -1  15    0.09    0.35
  -4  -1 -15    5.60    0.91
   4   1 -15    3.16    0.72
  -4   1  15    3.55    0.53
   4  -1 -15    3.41    0.70
  -4  -1  15    4.74    0.77
  -4   1 -15    3.62    0.69
  -5   1  15    0.11    0.45
  -5  -1 -15    2.35    0.59
   5   1 -15    1.08    0.59
  -5  -1  15    1.45    0.54
  -5   1 -15    1.63    0.58
   5  -1 -15    0.94    0.51
   6   1 -15    0.84    0.64
  -6   1  15   -0.15    0.55
  -6  -1 -15    0.45    0.52
  -6   1 -15    0.19    0.52
   6  -1 -15    0.28    0.61
  -6  -1  15    0.12    0.58
   7   1 -15    2.86    0.80
  -7   1  15    3.42    0.80
  -7  -1 -15    2.31    0.71
   7  -1 -15    2.82    0.86
  -7  -1  15    3.31    0.84
  -7   1 -15    2.67    0.72
  -8  -1 -15    0.68    0.70
   8   1 -15    2.71    1.05
  -8   1  15    2.27    0.85
   8  -1 -15    1.00    0.94
  -8   1 -15    0.82    0.71
  -8  -1  15    1.25    0.86
   0  -2 -15    0.01    0.50
   0   2 -15   -0.34    0.58
   0   2 -15    0.06    0.37
   0  -2 -15   -0.18    0.34
   1   2 -15   20.82    1.55
  -1  -2 -15   23.38    1.20
  -1  -2 -15   22.06    1.41
   1   2 -15   22.94    1.48
  -1   2 -15   22.62    1.45
   1  -2 -15   20.23    1.37
  -1   2 -15   22.67    1.40
  -1  -2  15   21.88    0.96
   1  -2 -15   23.46    1.47
  -2   2  15    0.45    0.21
   2   2 -15    0.89    0.46
   2   2 -15    0.38    0.79
  -2  -2 -15    1.67    0.53
   2  -2 -15    0.73    0.70
  -2   2 -15    1.40    0.48
  -2  -2  15    1.00    0.36
  -2   2 -15    0.54    0.44
  -2  -2  15    1.19    0.36
   2  -2 -15    1.04    0.42
   3   2 -15    3.46    0.70
  -3  -2 -15    2.65    0.57
  -3   2  15    3.11    0.51
  -3   2 -15    3.72    0.71
  -3  -2  15    3.96    0.68
   3  -2 -15    4.37    0.80
  -4   2  15    3.99    0.55
  -4  -2 -15    5.83    0.87
   4   2 -15    2.87    0.67
   4  -2 -15    3.45    0.70
  -4  -2  15    4.51    0.67
  -4   2 -15    4.85    0.81
  -5  -2 -15    4.98    0.90
  -5   2  15    6.06    0.81
   5   2 -15    6.05    1.08
   5  -2 -15    6.88    1.04
  -5   2 -15    7.02    1.02
  -5  -2  15    6.33    0.85
  -6  -2 -15    3.77    0.76
   6   2 -15    3.68    0.81
  -6   2  15    3.42    0.64
  -6  -2  15    2.65    0.75
   6  -2 -15    4.44    0.89
  -6   2 -15    4.25    0.79
  -7   2  15    7.46    1.17
  -7  -2 -15    6.96    1.17
   7   2 -15   11.58    1.48
  -7  -2  15   11.47    1.45
  -7   2 -15   10.01    1.23
   7  -2 -15   11.57    1.47
  -8  -2 -15    1.96    0.81
  -8   2  15    1.31    0.78
   8   2 -15    2.86    1.16
  -8   2 -15    2.66    0.81
   8  -2 -15    3.54    1.02
  -8  -2  15    3.77    1.02
   0   3 -15    5.34    0.93
   0  -3 -15    6.10    0.80
   0  -3 -15    7.39    0.90
   0   3 -15    6.68    0.89
   0  -3  15    7.41    0.85
  -1  -3 -15    1.69    0.48
   1  -3  15    2.84    0.55
   1   3 -15    3.10    0.63
  -1  -3 -15    3.09    0.49
   1   3 -15    2.30    0.78
  -1  -3  15    2.54    0.56
  -1   3 -15    1.31    0.45
  -1  -3  15    2.08    0.38
   1  -3 -15    2.50    0.51
  -1   3 -15    2.82    0.69
  -1  -3  15    2.47    0.36
   2   3 -15   15.68    1.29
   2  -3  15   15.21    1.02
   2   3 -15   13.10    1.54
  -2   3  15   15.52    0.77
  -2  -3 -15   15.92    1.24
   2  -3 -15   18.57    1.48
   2  -3 -15   16.77    1.21
  -2   3 -15   14.46    1.18
  -2  -3  15   17.00    1.24
  -2   3 -15   14.42    1.21
  -2  -3  15   16.01    0.99
  -2  -3  15   17.12    1.04
  -3   3  15    8.90    0.65
   3   3 -15    9.01    1.06
  -3  -3 -15    8.39    1.00
   3  -3  15    8.20    0.71
   3  -3 -15    7.37    0.91
  -3  -3  15    8.37    0.90
   3  -3 -15   11.07    1.48
  -3   3 -15    7.26    1.00
   4   3 -15   11.27    1.27
  -4   3  15   12.24    0.90
  -4  -3 -15   12.48    1.13
  -4  -3  15   11.42    1.12
  -4   3 -15   12.31    1.23
   4  -3 -15   10.57    1.16
   5   3 -15    1.10    0.64
  -5   3  15    0.70    0.45
  -5  -3 -15    0.45    0.51
  -5  -3  15    0.42    0.58
   5  -3 -15    1.16    0.55
  -5   3 -15    1.03    0.59
  -6   3  15    5.61    0.99
   6   3 -15    8.89    1.43
  -6  -3 -15    9.45    1.14
  -6  -3  15    6.91    1.00
   6  -3 -15    7.98    1.29
  -6   3 -15   10.03    1.22
  -7   3  15   -1.03    0.59
   7   3 -15   -0.14    0.73
  -7  -3 -15   -0.87    0.59
   7  -3 -15    0.32    0.77
  -7   3 -15    0.89    0.74
  -7  -3  15    0.00    0.75
  -8   3  15    2.12    0.75
   8   3 -15    2.06    1.01
  -8  -3 -15    1.57    0.77
   8  -3 -15    2.59    0.93
  -8   3 -15    0.31    0.75
  -8  -3  15    3.98    1.03
   0  -4  15    0.67    0.29
   0   4 -15    0.39    0.70
   0  -4 -15    1.84    0.52
   0   4 -15    0.66    0.41
   0  -4  15    0.36    0.46
   1   4 -15    1.95    0.56
   1  -4  15    3.18    0.59
  -1  -4 -15    1.39    0.47
   1   4 -15   -0.16    0.84
  -1  -4 -15    1.85    0.47
   1  -4 -15    2.92    0.68
  -1   4 -15    1.93    0.75
  -1   4 -15    1.33    0.45
   1  -4 -15    2.12    0.47
  -1  -4  15    2.35    0.43
  -1  -4  15    2.45    0.59
  -2  -4 -15    5.87    0.94
   2   4 -15    3.35    0.67
  -2   4  15    4.05    0.44
   2  -4  15    4.11    0.60
   2  -4 -15    4.31    0.88
  -2  -4  15    4.78    0.76
   2  -4 -15    4.50    0.78
  -2  -4  15    4.93    0.79
  -2   4 -15    4.17    0.80
   3   4 -15    2.91    0.74
  -3   4  15    3.32    0.51
   3  -4  15    3.49    0.52
  -3  -4 -15    2.64    0.62
  -3  -4  15    2.09    0.71
  -3  -4  15    1.27    0.63
   3  -4 -15    2.42    0.92
  -3   4 -15    3.03    0.69
   3  -4 -15    2.57    0.58
  -4  -4 -15    1.57    0.55
  -4   4  15    0.42    0.37
   4   4 -15   -0.23    0.52
   4  -4  15    0.64    0.38
  -4   4 -15    0.84    0.59
   4  -4 -15    0.99    0.52
  -4  -4  15    1.06    0.57
  -4  -4  15    1.05    0.66
  -5  -4 -15   12.18    1.19
  -5   4  15    9.57    0.98
   5   4 -15   12.38    1.39
  -5  -4  15   13.34    1.40
   5  -4 -15   12.94    1.29
  -5   4 -15   13.00    1.34
  -6  -4 -15    2.74    0.70
   6   4 -15    3.48    0.96
  -6   4  15    2.79    0.63
   6  -4 -15    1.83    0.76
  -6   4 -15    2.99    0.83
  -6  -4  15    2.52    0.84
  -7  -4 -15   -0.32    0.63
   7   4 -15    0.53    0.81
  -7   4  15   -0.69    0.65
  -7   4 -15    0.10    0.74
  -7  -4  15    1.39    0.89
   7  -4 -15    1.22    0.83
  -8  -4 -15    2.37    0.84
  -8   4  15    4.52    0.92
   8   4 -15    3.41    1.14
  -8  -4  15    2.53    1.10
  -8   4 -15    4.22    0.94
   0   5 -15   15.64    1.31
   0  -5 -15   16.61    1.25
   0  -5 -15   15.39    1.14
   0  -5  15   16.90    1.26
   0   5 -15   17.21    1.66
  -1  -5 -15    0.81    0.47
   1   5 -15    1.61    0.57
   1  -5  15    1.67    0.58
  -1  -5 -15    3.50    0.72
  -1   5 -15    1.52    0.52
  -1   5 -15    2.17    0.84
  -1  -5  15    2.00    0.63
   1  -5 -15    2.23    0.49
   1  -5 -15    1.85    0.73
   2  -5  15    9.75    1.00
  -2  -5 -15   13.23    1.18
  -2   5  15   10.98    0.71
   2   5 -15   11.84    1.20
   2  -5 -15   12.08    1.50
  -2  -5  15    9.81    1.20
  -2   5 -15    8.84    1.03
   2  -5 -15   11.17    1.03
   3   5 -15    3.42    0.79
  -3   5  15    4.22    0.59
  -3  -5 -15    3.83    0.75
   3  -5  15    4.12    0.64
   3  -5 -15    4.64    0.84
  -3  -5  15    3.17    0.73
  -3   5 -15    3.73    0.76
   4   5 -15   16.29    1.50
   4  -5  15   16.29    1.13
  -4   5  15   17.42    1.06
  -4  -5 -15   17.08    1.34
   4  -5 -15   14.34    1.29
  -4   5 -15   14.10    1.36
  -4  -5  15   17.75    1.63
  -5  -5 -15   15.72    1.40
   5   5 -15   16.66    1.61
  -5   5  15   18.18    1.21
   5  -5 -15   19.32    1.49
  -5   5 -15   20.60    1.60
  -5  -5  15   18.02    1.71
  -6  -5 -15    6.26    1.12
  -6   5  15    4.30    0.71
   6   5 -15    5.20    1.11
  -6  -5  15    5.99    1.10
  -6   5 -15    4.87    0.97
   6  -5 -15    5.27    0.92
  -6  -5  15    6.02    1.03
   7   5 -15    0.52    0.85
  -7  -5 -15   -0.64    0.65
  -7  -5  15    0.37    0.94
   7  -5 -15   -0.50    0.79
   0   6 -15    1.60    0.62
   0  -6 -15    1.23    0.46
   0  -6  15    1.83    0.66
   1   6 -15    6.74    1.04
   1  -6  15    6.46    1.00
  -1  -6 -15    7.62    0.70
  -1  -6 -15    4.59    0.86
  -1   6 -15    6.53    1.06
  -1  -6  15    6.24    1.05
   1  -6 -15    7.49    1.73
  -1   6 -15    6.25    0.97
   1  -6 -15    5.75    0.83
  -2  -6 -15    1.46    0.55
   2   6 -15    1.06    0.63
  -2   6  15    0.87    0.33
   2  -6  15    0.86    0.57
  -2  -6  15    0.09    0.58
   2  -6 -15    0.62    0.47
   2  -6 -15    0.50    0.93
  -2   6 -15    0.41    0.49
   3   6 -15    5.30    0.92
  -3   6  15    7.44    0.74
  -3  -6 -15    6.44    1.03
   3  -6  15    7.89    1.00
   3  -6 -15    5.56    1.00
  -3   6 -15    6.22    1.01
  -3  -6  15    8.20    1.28
   4  -6  15    3.93    0.77
   4   6 -15    3.60    0.78
  -4  -6 -15    6.84    1.03
  -4   6  15    5.27    0.77
   4  -6 -15    5.56    0.99
  -4  -6  15    5.95    1.04
   5   6 -15   33.84    2.28
  -5  -6 -15   30.14    1.94
  -5   6  15   31.31    1.73
  -5  -6  15   36.86    2.36
   5  -6 -15   33.93    2.04
  -5   6 -15   31.01    2.09
   6   6 -15    2.77    0.96
  -6  -6 -15    4.24    0.82
  -6   6  15    3.24    0.67
   6  -6 -15    3.29    0.92
  -6   6 -15    4.49    0.93
  -6  -6  15    4.52    1.17
   7   6 -15    4.64    1.18
  -7   6  15    3.81    0.77
  -7   6 -15    4.69    1.09
  -7  -6  15    4.44    1.10
   0   7 -15   -0.16    0.56
   0  -7 -15    0.37    0.43
   0  -7  15   -0.32    0.61
   1   7 -15    1.34    0.64
  -1  -7 -15    0.65    0.43
   1  -7  15    0.10    0.64
  -1  -7 -15    0.32    0.48
  -1  -7  15    0.91    0.67
  -1   7 -15    0.38    0.55
   1  -7 -15    0.31    0.45
   2   7 -15    2.82    0.73
  -2  -7 -15    2.95    0.68
   2  -7  15    2.49    0.79
  -2   7  15    3.22    0.48
   2  -7 -15    3.43    0.63
  -2   7 -15    2.24    0.67
  -2  -7  15    2.56    0.80
   3  -7  15    2.92    0.75
  -3  -7 -15    4.53    0.79
  -3   7  15    4.05    0.56
   3   7 -15    2.58    0.82
  -3   7 -15    2.42    0.74
  -3  -7  15    3.07    0.78
   3  -7 -15    3.36    0.69
  -4  -7 -15   11.87    1.28
   4  -7  15    6.96    1.20
   4   7 -15    8.22    1.42
  -4   7  15    9.45    0.96
  -4  -7  15   11.45    1.54
  -4   7 -15    9.25    1.19
   4  -7 -15    9.15    1.20
   5   7 -15   -0.01    0.84
  -5   7  15    0.65    0.53
  -5  -7 -15   -0.85    0.59
  -5  -7  15   -0.05    0.91
   5  -7 -15    0.23    0.68
  -6   7  15    2.95    0.73
   6   7 -15    3.80    0.99
   6  -7 -15    3.01    1.47
  -6   7 -15    1.93    0.93
  -6  -7  15    4.60    1.23
   0   8 -15    3.58    0.80
   0  -8 -15    4.23    0.67
   0  -8  15    3.75    0.86
   0  -8 -15    5.01    0.75
   1   8 -15    3.39    0.81
   1  -8  15    1.51    0.81
  -1  -8 -15    3.11    0.63
   1  -8 -15    5.29    0.90
  -1  -8  15    2.65    0.85
  -1   8 -15    3.34    0.79
   2  -8  15    0.61    0.71
  -2  -8 -15    0.25    0.57
   2   8 -15    1.19    0.74
  -2  -8  15    1.37    0.82
  -2   8 -15    0.76    0.65
   2  -8 -15    1.33    0.54
  -3  -8 -15    2.84    0.75
   3  -8  15    1.00    0.86
  -3   8  15    1.87    0.57
   3   8 -15    2.09    0.88
  -3   8 -15    2.67    0.73
  -3  -8  15    1.75    0.85
   3  -8 -15    1.95    0.63
   4   8 -15    4.03    0.96
  -4   8  15    3.88    0.69
  -4  -8 -15    4.84    0.88
  -4   8 -15    3.41    0.81
  -4  -8  15    2.72    0.94
   5   8 -15    6.58    1.32
  -5   8  15    6.62    1.10
  -5  -8 -15    7.10    1.29
  -5   8 -15    5.00    0.94
  -5  -8  15    7.04    1.32
   0  -9 -15   -0.23    0.70
   0   9 -15    0.86    0.73
   0  -9 -15   -0.63    0.51
   1   9 -15    2.96    0.93
   1  -9  15    3.88    0.99
  -1  -9 -15    3.29    0.68
   1  -9 -15    3.52    0.83
   1  -9 -15    3.80    0.77
  -1  -9  15    3.10    0.98
  -1   9 -15    4.59    0.91
   2   9 -15    0.04    0.77
   2  -9  15    0.19    0.89
  -2  -9 -15   -0.36    0.60
  -2  -9  15   -0.24    0.82
  -2   9 -15    0.84    0.71
   3   9 -15    3.98    1.05
  -3   9 -15    3.91    0.86
  -3  -9  15    2.77    1.04
   4  -9  15    7.04    1.32
  -4  -9 -15    6.37    1.02
   4   9 -15    4.60    1.16
  -4  -9  15    6.50    1.19
  -4   9 -15    7.14    1.11
   0 -10  15   -1.40    0.94
   0  10 -15    0.43    0.90
   1 -10  15   -0.36    0.93
   1  10 -15    1.80    1.04
  -1 -10  15    0.54    0.93
   1 -10 -15    1.51    0.94
  -1  10 -15    2.04    0.90
   0   0 -16   17.05    1.26
   0   0 -16   16.18    1.31
   1   0 -16   11.33    1.05
  -1   0 -16    7.27    0.94
   1   0 -16    9.54    1.33
  -1   0 -16    9.49    1.02
  -2   0 -16    2.45    0.64
  -2   0 -16    2.84    0.47
   2   0 -16    3.35    0.90
   2   0 -16    2.77    0.60
  -3   0  16    6.91    0.65
  -3   0 -16    8.66    1.10
   3   0 -16    5.96    1.00
   4   0 -16    2.42    0.67
  -4   0  16    1.75    0.49
  -5   0 -16    0.41    0.61
   5   0 -16    1.06    0.62
  -5   0  16    1.07    0.58
   6   0 -16    2.27    0.75
  -6   0 -16    2.84    0.74
  -6   0  16    3.01    0.74
  -7   0 -16   10.75    1.42
  -7   0  16   15.06    1.60
   7   0 -16   13.64    1.70
   0  -1 -16    1.45    0.66
   0  -1 -16    1.32    0.48
   0   1 -16    1.84    0.75
   0   1 -16    1.50    0.48
  -1  -1 -16    4.96    0.65
  -1  -1 -16    4.57    0.73
   1   1 -16    8.18    1.25
   1   1 -16    4.92    0.78
   1  -1 -16    5.91    0.84
  -1   1 -16    4.90    0.82
  -1   1 -16    5.12    0.90
   1  -1 -16    6.94    1.16
   2   1 -16    0.84    0.46
  -2  -1 -16   -0.08    0.50
   2   1 -16    0.26    0.85
  -2   1 -16   -0.87    0.44
   2  -1 -16    1.20    0.79
   2  -1 -16    0.72    0.44
  -2  -1  16   -0.09    0.25
   3   1 -16    5.90    0.99
  -3   1  16    6.66    0.63
  -3  -1 -16    8.06    1.11
  -3   1 -16    7.20    1.05
  -3  -1  16    7.65    0.76
   3  -1 -16    6.66    1.00
  -4   1  16    4.96    0.75
   4   1 -16    5.01    0.86
  -4  -1 -16    6.86    1.05
  -4  -1  16    7.15    0.93
  -4   1 -16    6.60    1.05
   4  -1 -16    6.42    0.97
  -5   1  16    2.53    0.59
   5   1 -16    2.62    0.72
  -5  -1 -16    4.30    0.82
   5  -1 -16    3.22    0.72
  -5  -1  16    3.80    0.73
  -5   1 -16    3.30    0.80
   6   1 -16    3.03    0.81
  -6   1  16    1.73    0.68
  -6  -1 -16    3.39    0.78
  -6  -1  16    3.25    0.82
   6  -1 -16    2.55    0.83
  -6   1 -16    4.50    0.88
  -7  -1 -16    0.38    0.70
   7   1 -16    1.27    0.90
  -7  -1  16    1.17    0.83
  -7   1 -16    1.64    0.69
   7  -1 -16    1.46    0.81
   0   2 -16    9.08    0.98
   0  -2 -16    7.54    0.90
   0  -2 -16    7.94    1.05
   0   2 -16    5.92    1.00
  -1  -2 -16    1.42    0.58
   1   2 -16    1.88    0.58
  -1  -2 -16    1.46    0.48
   1   2 -16    1.14    0.80
  -1   2 -16    0.98    0.45
  -1   2 -16    2.42    0.66
   1  -2 -16    1.46    0.47
   1  -2 -16    2.82    0.77
   2   2 -16    1.60    0.52
   2   2 -16    3.10    0.91
  -2  -2 -16    1.37    0.55
  -2   2 -16    1.71    0.54
   2  -2 -16    2.55    0.55
  -2  -2  16    1.91    0.40
   2  -2 -16    1.47    0.84
  -3   2  16    4.29    0.52
   3   2 -16    5.83    0.98
  -3  -2 -16    5.16    0.97
   3  -2 -16    4.15    0.75
  -3   2 -16    4.02    0.76
  -3  -2  16    5.00    0.77
  -4  -2 -16    0.99    0.61
   4   2 -16    0.48    0.61
  -4   2  16    0.73    0.40
   4  -2 -16    0.40    0.56
  -4   2 -16    1.44    0.66
  -4  -2  16    0.31    0.54
  -5  -2 -16    1.44    0.62
   5   2 -16    0.24    0.61
  -5   2  16   -0.48    0.46
  -5  -2  16    0.59    0.61
  -5   2 -16    0.79    0.65
   5  -2 -16    0.15    0.59
  -6  -2 -16    5.21    0.89
   6   2 -16    5.85    1.05
  -6   2  16    5.68    0.80
  -6  -2  16    6.24    1.01
  -6   2 -16    7.25    1.30
   6  -2 -16    7.77    1.37
   7   2 -16    2.70    0.90
  -7  -2 -16    2.13    0.73
  -7   2  16    2.84    0.78
   7  -2 -16    3.69    0.95
  -7  -2  16    2.33    0.96
  -7   2 -16    4.07    0.91
   0  -3 -16    5.39    0.82
   0   3 -16    9.13    1.30
   0   3 -16    7.45    0.97
   0  -3 -16    6.55    1.29
  -1  -3 -16    2.69    0.61
   1   3 -16    1.88    0.89
   1   3 -16    2.44    0.63
  -1  -3  16    3.00    0.40
   1  -3 -16    2.80    0.56
  -1   3 -16    2.50    0.58
  -1   3 -16    3.35    0.81
   1  -3 -16    2.43    0.79
   2   3 -16    2.06    0.63
  -2  -3 -16    1.95    0.61
  -2   3 -16    1.84    0.61
  -2  -3  16    2.41    0.47
   2  -3 -16    1.87    0.53
   3   3 -16    1.72    0.61
  -3  -3 -16    2.19    0.68
  -3   3  16    1.92    0.36
  -3   3 -16    1.30    0.65
   3  -3 -16    1.91    0.56
  -3  -3  16    1.94    0.54
  -4  -3 -16    3.00    0.73
  -4   3  16    3.06    0.49
   4   3 -16    3.03    0.74
   4  -3 -16    2.34    0.70
  -4   3 -16    1.80    0.67
  -4  -3  16    2.53    0.65
   5   3 -16    4.99    0.97
  -5  -3 -16    4.58    0.82
  -5   3  16    4.59    0.67
  -5  -3  16    6.05    0.91
   5  -3 -16    4.68    0.85
  -5   3 -16    6.24    1.02
   6   3 -16    8.95    1.54
  -6  -3 -16    7.18    1.07
  -6   3  16    7.06    1.06
  -6   3 -16    6.60    1.05
  -6  -3  16    8.42    1.43
   6  -3 -16    8.04    1.42
   7   3 -16    1.64    0.97
  -7  -3 -16    1.00    0.75
  -7   3 -16    1.51    0.82
   7  -3 -16    1.08    0.88
   0   4 -16    2.42    0.56
   0  -4 -16    1.63    0.52
   0   4 -16    3.62    0.99
   0  -4  16    3.57    0.70
   1   4 -16    4.20    0.74
  -1  -4 -16    4.02    0.70
   1  -4  16    6.79    0.90
  -1  -4  16    5.69    0.86
  -1  -4  16    5.30    0.73
   1  -4 -16    4.69    0.84
  -1   4 -16    5.11    0.90
   2  -4  16    1.45    0.50
   2   4 -16    1.03    0.59
  -2  -4 -16   -0.10    0.52
  -2  -4  16    0.09    0.64
  -2   4 -16    0.26    0.53
   2  -4 -16    2.58    1.16
  -2  -4  16    1.02    0.51
   2  -4 -16    0.62    0.51
  -3  -4 -16    1.18    0.61
  -3   4  16    2.37    0.38
   3   4 -16    1.94    0.73
   3  -4  16    2.80    0.51
  -3  -4  16    2.13    0.65
  -3   4 -16    1.51    0.61
   3  -4 -16    2.73    0.65
  -3  -4  16    1.68    0.70
   4   4 -16    3.67    0.86
  -4   4  16    4.69    0.72
  -4  -4 -16    4.60    0.82
  -4   4 -16    3.13    0.80
  -4  -4  16    4.82    0.83
   4  -4 -16    4.06    0.81
  -5   4  16    3.21    0.60
  -5  -4 -16    3.24    0.77
   5   4 -16    2.07    0.80
  -5  -4  16    3.57    0.83
   5  -4 -16    2.51    0.76
  -5   4 -16    4.82    0.91
  -6   4  16    3.50    0.73
   6   4 -16    5.41    1.10
  -6  -4 -16    3.27    0.85
  -6   4 -16    4.62    0.98
  -6  -4  16    4.09    0.97
   6  -4 -16    3.12    0.92
  -7   4  16    0.28    0.70
   7   4 -16    0.87    0.95
  -7  -4 -16    1.07    0.76
  -7   4 -16    0.02    0.93
   7  -4 -16    1.39    0.98
  -7  -4  16   -0.72    0.90
   0  -5 -16    0.21    0.43
   0   5 -16    0.68    0.52
   0  -5  16    0.85    0.63
  -1  -5 -16    0.69    0.50
  -1  -5 -16    1.09    0.39
   1  -5  16    1.29    0.60
   1   5 -16    1.33    0.61
  -1  -5  16    1.19    0.67
   1  -5 -16    0.66    0.49
  -1   5 -16    1.23    0.55
   2   5 -16    3.35    0.75
  -2  -5 -16    2.09    0.64
   2  -5  16    2.86    0.63
  -2   5 -16    2.56    0.67
   2  -5 -16    3.44    0.65
  -2  -5  16    3.60    0.80
   3   5 -16    2.30    0.77
  -3  -5 -16    2.85    0.72
   3  -5  16    2.46    0.59
  -3   5 -16    1.88    0.65
   3  -5 -16    2.43    0.61
  -3  -5  16    1.94    0.81
  -4  -5 -16    4.40    0.78
   4   5 -16    2.04    0.78
  -4   5 -16    2.27    0.72
   4  -5 -16    3.07    0.72
  -4  -5  16    4.66    1.03
  -5   5  16    3.00    0.61
  -5  -5 -16    2.14    0.72
   5   5 -16    1.59    0.84
  -5  -5  16    2.36    0.86
  -5   5 -16    0.59    0.80
   5  -5 -16    1.70    0.71
  -5  -5  16    2.12    0.89
   6   5 -16    0.92    0.94
  -6  -5 -16    0.02    0.72
  -6   5  16    1.76    0.68
  -6  -5  16    0.16    0.96
   6  -5 -16    0.94    0.81
  -6   5 -16    1.69    0.91
   0   6 -16   10.77    1.22
   0  -6  16    6.38    1.14
   0  -6 -16    9.41    0.99
   1  -6  16    3.45    0.76
  -1  -6 -16    3.03    0.67
   1   6 -16    3.04    0.76
   1  -6 -16    3.25    0.67
  -1  -6  16    4.44    0.87
  -1   6 -16    3.65    0.75
   2  -6  16    1.42    0.68
  -2  -6 -16    0.48    0.59
   2   6 -16    2.71    0.80
   2  -6 -16    1.98    0.60
  -2  -6  16    1.26    0.78
  -2   6 -16    1.74    0.65
  -3  -6 -16    2.58    0.74
   3   6 -16    0.88    0.75
   3  -6  16    1.16    0.64
   3  -6 -16    1.49    0.67
  -3   6 -16    0.32    0.57
  -3  -6  16    1.87    0.84
   4   6 -16    0.45    0.72
  -4  -6 -16    1.24    0.70
  -4  -6  16    1.02    0.90
  -4   6 -16    0.38    0.65
   4  -6 -16    0.58    0.65
   5   6 -16    6.33    1.13
  -5  -6 -16    7.90    1.27
   5  -6 -16    6.39    1.02
  -5  -6  16    4.34    1.10
  -5   6 -16    4.05    0.98
  -6  -6 -16   -0.11    0.75
   6   6 -16    0.26    0.99
  -6   6 -16    0.18    0.90
   6  -6 -16    1.39    0.92
   0   7 -16    3.39    0.78
   0  -7 -16    3.64    0.69
   0  -7  16    2.76    0.89
   1  -7  16    1.28    0.73
  -1  -7 -16    1.66    0.59
   1   7 -16    2.30    0.76
  -1   7 -16    2.48    0.73
   1  -7 -16    2.54    0.64
  -1  -7  16    2.17    0.80
   2   7 -16    3.73    0.98
  -2  -7 -16    3.15    0.75
   2  -7  16    3.83    0.89
  -2  -7  16    3.88    0.90
   2  -7 -16    5.04    0.80
  -2   7 -16    2.90    0.77
  -3  -7 -16    8.05    1.34
   3   7 -16    4.21    1.06
   3  -7  16    5.47    0.96
  -3   7 -16    6.70    1.14
   3  -7 -16    4.02    0.80
  -3  -7  16    6.62    1.18
   4   7 -16   11.61    1.68
  -4  -7 -16   12.81    1.51
  -4   7 -16    8.70    1.30
  -4  -7  16   12.22    1.76
   4  -7 -16   12.24    1.42
   5   7 -16    8.77    1.48
  -5  -7  16   12.22    1.88
   5  -7 -16    9.15    1.57
  -5   7 -16    8.11    1.21
   0  -8 -16    0.15    0.59
   0  -8  16    0.98    0.83
   0   8 -16    0.92    0.77
   1   8 -16    3.40    0.92
  -1  -8 -16    1.16    0.63
   1  -8  16    2.45    0.89
  -1   8 -16    3.27    0.85
   1  -8 -16    1.60    0.64
  -1  -8  16    1.38    0.94
   2  -8  16    0.85    0.83
  -2  -8 -16   -1.06    0.59
   2   8 -16    0.80    0.82
   2  -8 -16    1.54    0.68
  -2   8 -16    0.05    0.72
  -2  -8  16    0.00    0.85
   3   8 -16    3.35    1.01
   3  -8  16    2.52    1.00
  -3  -8 -16    5.35    0.95
  -3   8 -16    3.91    0.87
  -3  -8  16    1.96    0.95
   0  -9  16   -0.39    0.91
   0   9 -16    0.07    0.83
   1  -9  16    2.89    1.01
   1   9 -16    0.95    0.94
  -1  -9 -16    2.03    0.75
  -1   9 -16    1.51    0.86
  -1  -9  16    1.29    0.96
   0   0 -17   -0.21    0.50
   1   0 -17    5.05    0.95
  -1   0 -17    5.41    0.91
  -2   0 -17    3.48    0.71
   2   0 -17    5.66    1.01
   3   0 -17    0.14    0.60
  -3   0 -17   -0.24    0.57
  -4   0 -17    1.82    0.76
  -5   0 -17    0.18    0.69
   5   0 -17   -0.14    0.66
   6   0 -17    7.40    1.15
  -6   0 -17    7.24    1.16
   0   1 -17    4.91    0.90
   0  -1 -17    3.45    0.65
  -1  -1 -17    0.91    0.54
   1   1 -17    1.12    0.53
  -1   1 -17    0.51    0.48
   1  -1 -17    0.73    0.55
  -2  -1 -17    1.52    0.65
   2   1 -17    2.89    0.65
  -2   1 -17    2.42    0.65
   2  -1 -17    2.61    0.61
   3   1 -17    2.22    0.67
  -3  -1 -17    1.81    0.63
  -3   1 -17    0.53    0.63
   3  -1 -17    2.02    0.67
  -4  -1 -17    1.55    0.75
   4   1 -17    1.10    0.68
  -4   1 -17    1.13    0.71
   4  -1 -17    0.77    0.70
   5   1 -17    2.11    0.80
  -5  -1 -17    2.05    0.79
  -5   1 -17    1.62    0.76
  -5  -1  17    2.18    0.96
   5  -1 -17    1.35    0.75
  -6  -1 -17    2.64    0.84
   6   1 -17    2.06    0.83
  -6   1 -17    0.59    0.77
  -6  -1  17    1.34    1.05
   6  -1 -17    2.23    0.87
   0   2 -17    1.16    0.57
   0  -2 -17    1.23    0.49
   1   2 -17   10.01    1.14
  -1  -2 -17    8.72    1.04
  -1   2 -17    8.89    1.10
   1  -2 -17    9.25    1.08
   2   2 -17    0.10    0.57
  -2  -2 -17   -0.30    0.51
  -2   2 -17   -0.21    0.52
   2  -2 -17    0.54    0.54
   3   2 -17    0.50    0.58
  -3  -2 -17    0.58    0.65
  -3   2 -17   -0.47    0.57
   3  -2 -17    0.14    0.60
   4   2 -17    8.87    1.30
  -4  -2 -17    8.58    1.34
  -4   2 -17    7.29    1.26
   4  -2 -17    7.37    1.24
  -5  -2 -17    0.78    0.72
   5   2 -17    2.18    0.87
   5  -2 -17    1.54    0.75
  -5   2 -17    1.79    0.76
  -5  -2  17    2.11    0.91
   6   2 -17    4.51    1.10
   6  -2 -17    4.23    0.99
  -6  -2  17    4.23    1.15
  -6   2 -17    3.41    0.93
   0  -3 -17    8.73    1.00
   0   3 -17    7.85    1.08
   1   3 -17    4.43    0.78
  -1  -3 -17    3.41    0.68
  -1   3 -17    4.70    0.80
   1  -3 -17    5.07    0.91
  -2  -3 -17   -0.12    0.55
   2   3 -17    0.68    0.61
  -2   3 -17   -0.64    0.52
   2  -3 -17   -0.55    0.52
  -3  -3 -17   14.31    1.42
   3   3 -17   12.72    1.43
  -3   3 -17    8.75    1.21
   3  -3 -17   12.37    1.32
  -4  -3 -17    2.89    0.79
   4   3 -17    2.26    0.83
   4  -3 -17    1.48    0.73
  -4   3 -17    0.29    0.72
  -5  -3 -17    1.78    0.77
   5   3 -17    1.68    0.84
  -5  -3  17    2.35    0.99
  -5   3 -17    3.09    0.92
   5  -3 -17    1.88    0.78
  -6  -3 -17    2.14    0.85
   6   3 -17    2.05    1.00
   6  -3 -17    1.32    0.87
  -6   3 -17    1.15    0.85
  -6  -3  17    2.06    1.16
   0  -4  17   12.50    1.22
   0   4 -17   10.12    1.21
   0  -4 -17   10.68    1.13
  -1  -4 -17    1.37    0.57
   1   4 -17    0.81    0.62
   1  -4  17    1.92    0.58
  -1   4 -17    1.18    0.56
   1  -4 -17    1.16    0.58
  -2  -4 -17    3.08    0.71
   2   4 -17    3.25    0.76
   2  -4 -17    3.30    0.71
  -2   4 -17    2.65    0.62
   3   4 -17    0.84    0.76
   3  -4 -17    2.37    0.72
  -3   4 -17    1.55    0.71
  -4  -4 -17    2.41    0.80
   4   4 -17    0.13    0.68
   4  -4 -17    0.70    0.68
   5   4 -17    3.60    1.01
  -5  -4 -17    3.82    0.91
   5  -4 -17    2.67    0.88
  -5   4 -17    1.98    0.88
   0  -5  17    9.57    1.30
   0  -5 -17    8.85    1.08
   0   5 -17    8.09    1.21
  -1  -5 -17    3.04    0.69
   1   5 -17    4.04    0.81
   1  -5  17    4.01    0.78
  -1  -5  17    4.79    0.97
  -1   5 -17    3.49    0.71
   1  -5 -17    2.75    0.67
  -2  -5 -17    2.33    0.72
   2   5 -17    3.56    0.83
   2  -5 -17    3.03    0.73
  -2   5 -17    3.41    0.72
  -2  -5  17    3.04    0.95
   3   5 -17   14.07    1.64
   3  -5 -17   16.54    1.52
  -3  -5  17   17.02    1.69
  -3   5 -17   12.83    1.41
   4   5 -17    1.84    0.92
   4  -5 -17    1.19    0.72
  -4   5 -17    0.80    0.77
   5   5 -17    5.62    1.12
  -5  -5 -17    9.66    1.51
  -5   5 -17    5.92    1.08
   5  -5 -17    8.32    1.44
   0  -6 -17   13.30    1.27
   0   6 -17   12.78    1.46
   0  -6  17   12.79    1.50
   1   6 -17    1.27    0.74
   1  -6  17    0.71    0.74
  -1  -6 -17   -0.46    0.55
   1  -6 -17    0.77    0.62
  -1   6 -17    0.02    0.66
  -1  -6  17    0.19    0.79
   2   6 -17    4.83    0.97
   2  -6  17    4.63    0.97
  -2   6 -17    3.71    0.86
   2  -6 -17    4.64    0.81
  -2  -6  17    4.51    0.96
   3   6 -17    2.87    0.98
  -3  -6 -17    3.98    0.90
  -3  -6  17    4.08    1.09
  -3   6 -17    0.86    0.75
   3  -6 -17    1.70    0.76
  -4  -6 -17    1.34    0.85
   4   6 -17    0.79    0.94
  -4   6 -17   -0.30    0.73
   4  -6 -17    1.12    0.77
  -4  -6  17    1.27    1.02
   0  -7 -17    1.19    0.64
   0  -7  17    0.62    0.83
   0   7 -17    1.53    0.78
   1   7 -17    4.44    0.95
   1  -7  17    5.80    0.99
  -1  -7 -17    3.00    0.76
  -1   7 -17    4.58    0.95
   1  -7 -17    3.96    0.79
  -1  -7  17    6.06    1.08
   2  -7  17    1.30    1.12
  -2  -7 -17    1.43    0.73
   2   7 -17    0.91    0.93
   2  -7 -17    2.80    0.78
  -2  -7  17    2.66    1.08
  -2   7 -17    1.90    0.80
  -3  -7 -17    8.33    1.15
   3   7 -17    5.52    1.16
   3  -7 -17    8.40    1.17
  -3  -7  17    9.59    1.40
  -3   7 -17    8.79    1.38
   0   0 -18    0.32    0.56
   1   0 -18    1.76    0.67
  -1   0 -18    0.39    0.56
   2   0 -18    0.34    0.64
  -2   0 -18   -0.53    0.62
   3   0 -18    1.02    0.73
  -3   0 -18   -0.07    0.70
  -4   0 -18   21.14    1.77
   4   0 -18   16.54    1.75
   5   0 -18   -0.36    0.80
  -5   0 -18    2.07    0.87
   0   1 -18    1.20    0.62
   0  -1 -18    0.56    0.57
   1   1 -18    3.50    0.78
  -1  -1 -18    2.21    0.71
  -1   1 -18    4.00    0.78
   1  -1 -18    3.27    0.76
  -2  -1 -18    0.31    0.62
   2   1 -18    1.59    0.71
  -2   1 -18    0.24    0.62
   2  -1 -18    0.96    0.64
   3   1 -18    8.57    1.34
  -3  -1 -18    5.97    1.00
   3  -1 -18    7.38    1.27
   4   1 -18    0.71    0.79
  -4  -1 -18    1.49    0.81
   4  -1 -18    0.29    0.73
  -4   1 -18   -1.16    0.72
   5   1 -18    0.81    0.86
  -5  -1 -18    1.08    0.89
   5  -1 -18    1.67    0.90
   0  -2 -18    2.98    0.68
   0   2 -18    3.17    0.73
  -1  -2 -18    2.97    0.74
   1   2 -18    4.24    0.80
  -1   2 -18    3.70    0.72
   1  -2 -18    3.11    0.71
   2   2 -18    4.50    0.85
  -2  -2 -18    5.47    0.91
  -2   2 -18    3.28    0.75
   2  -2 -18    6.01    0.92
   3   2 -18    2.48    0.80
  -3  -2 -18   -0.06    0.73
  -3   2 -18   -0.27    0.69
   3  -2 -18    2.47    0.76
   4   2 -18    4.04    1.06
  -4  -2 -18    4.46    1.02
   4  -2 -18    2.52    0.88
  -4   2 -18    2.09    0.85
   5   2 -18    2.27    0.92
  -5  -2 -18    2.65    0.90
  -5   2 -18    2.52    1.00
   5  -2 -18    3.92    1.02
   0   3 -18    3.24    0.77
   0  -3 -18    4.06    0.74
   1   3 -18    0.98    0.65
  -1  -3 -18   -0.29    0.60
   1  -3 -18    1.53    0.64
  -1   3 -18    0.54    0.63
  -2  -3 -18    3.38    0.79
   2   3 -18    4.98    0.91
   2  -3 -18    4.97    0.86
  -2   3 -18    2.45    0.70
   3   3 -18   10.06    1.55
  -3  -3 -18    7.39    1.09
  -3   3 -18    8.83    1.29
   4   3 -18    0.34    0.79
  -4  -3 -18    2.18    0.91
   4  -3 -18    0.69    0.84
   0   4 -18    0.54    0.66
   0  -4 -18    0.99    0.63
   1   4 -18    1.29    0.73
  -1  -4 -18   -0.51    0.60
  -1   4 -18    0.13    0.64
   1  -4 -18    1.01    0.67
  -2  -4 -18    0.50    0.67
   2   4 -18    3.29    0.87
   2  -4 -18    1.34    0.72
  -2   4 -18    2.55    0.74
   3   4 -18   -0.12    0.80
  -3  -4 -18   -0.73    0.72
   3  -4 -18   -0.15    0.72
   4   4 -18    0.51    0.84
  -4  -4 -18    3.55    1.00
  -4   4 -18    0.21    0.81
   4  -4 -18    1.38    0.82
   0  -5 -18    4.11    0.80
   0  -5  18    4.44    0.97
   0   5 -18    4.25    0.91
  -1  -5 -18   -1.14    0.62
   1   5 -18   -0.95    0.74
  -1   5 -18   -0.82    0.69
  -1  -5  18    0.46    0.82
   1  -5 -18    0.50    0.66
  -2  -5 -18   -0.32    0.69
   2   5 -18    1.39    0.83
   2  -5 -18    0.84    0.69
  -2   5 -18    0.64    0.76
   3   5 -18   -0.96    0.90
   3  -5 -18   -0.12    0.77
  -3   5 -18   -0.63    0.71
   0  -6 -18    9.79    1.32
   0   6 -18    8.24    1.45
   1   6 -18    2.25    0.99
  -1   6 -18    2.25    0.79
  -1  -6  18    2.32    1.03
   1  -6 -18    2.55    0.78
   0   0 -19   -0.24    0.68
   1   0 -19    1.42    0.75
  -1   0 -19    1.33    0.71
  -2   0 -19    7.60    1.13
   2   0 -19   11.47    1.51
  -3   0 -19    2.53    0.90
   3   0 -19    4.15    1.02
   0   1 -19   -0.52    0.66
   0  -1 -19   -0.63    0.64
  -1  -1 -19    6.17    1.11
   1   1 -19    7.00    1.27
   1  -1 -19    5.30    0.97
  -1   1 -19    5.36    0.96
   2   1 -19    3.34    0.93
  -2  -1 -19    1.65    0.79
   2  -1 -19    3.35    0.92
  -2   1 -19    1.46    0.80
   3   1 -19    2.86    0.91
  -3  -1 -19    0.29    0.80
   3  -1 -19    2.96    0.90
  -3   1 -19    1.44    0.85
   0  -2 -19    1.40    0.74
   0   2 -19    0.76    0.73
   1   2 -19    4.07    0.94
  -1  -2 -19    5.03    0.90
   1  -2 -19    4.70    0.92
  -1   2 -19    5.39    0.97
   2   2 -19    1.22    0.83
  -2  -2 -19    0.96    0.78
  -2   2 -19   -0.64    0.68
   2  -2 -19    0.81    0.77
   0   3 -19    0.68    0.74
   0  -3 -19   -0.05    0.69
  -1  -3 -19    1.80    0.75
   1   3 -19    1.62    0.85
   1  -3 -19    2.80    0.82
  -1   3 -19    1.97    0.77
  -2  -3 -19    4.15    0.90
   2   3 -19    4.11    1.05
   2  -3 -19    4.07    0.95
  -2   3 -19    3.20    0.88
   0   0   0    0.00    0.00
;
_shelx_hkl_checksum              63535
loop_
_space_group_symop_operation_xyz
'x, y, z'
'x+1/2, -y+1/2, -z'
'-x, y+1/2, -z+1/2'
'-x+1/2, -y, z+1/2'
loop_
_atom_site_label
_atom_site_type_symbol
_atom_site_fract_x
_atom_site_fract_y
_atom_site_fract_z
_atom_site_U_iso_or_equiv
_atom_site_adp_type
_atom_site_occupancy
_atom_site_site_symmetry_order
_atom_site_calc_flag
_atom_site_refinement_flags_posn
_atom_site_refinement_flags_adp
_atom_site_refinement_flags_occupancy
_atom_site_disorder_assembly
_atom_site_disorder_group
S S 1.25392(6) 0.44968(5) 0.80528(4) 0.01849(14) Uani 1 1 d . . . . .
O1 O 0.77373(16) 0.32357(14) 0.76479(11) 0.0145(3) Uani 1 1 d . . . . .
O2 O 0.9036(2) 0.51155(16) 1.05611(11) 0.0222(4) Uani 1 1 d . . . . .
O3 O 0.59665(18) 0.46144(16) 0.75285(12) 0.0192(4) Uani 1 1 d . . . . .
H3 H 0.593(4) 0.465(3) 0.687(3) 0.049(11) Uiso 1 1 d . . . . .
N1 N 1.0594(2) 0.46705(17) 0.93991(13) 0.0141(4) Uani 1 1 d . . . . .
N3 N 0.9904(2) 0.38557(16) 0.79373(13) 0.0125(4) Uani 1 1 d . . . . .
C2 C 1.0948(2) 0.43329(19) 0.84815(16) 0.0140(4) Uani 1 1 d . . . . .
C4 C 0.8579(2) 0.37491(19) 0.82871(15) 0.0117(4) Uani 1 1 d . . . . .
C5 C 0.8203(2) 0.41367(19) 0.91736(15) 0.0127(4) Uani 1 1 d . . . . .
C6 C 0.9239(2) 0.4665(2) 0.97590(15) 0.0146(4) Uani 1 1 d . . . . .
C7 C 1.1662(3) 0.5162(2) 1.00495(17) 0.0194(5) Uani 1 1 d . . . . .
H7A H 1.2534 0.4781 0.9911 0.023 Uiso 1 1 calc R U . . .
H7B H 1.1421 0.4979 1.0709 0.023 Uiso 1 1 calc R U . . .
C8 C 1.1816(3) 0.6498(2) 0.99396(18) 0.0235(5) Uani 1 1 d . . . . .
H8A H 1.2051 0.6683 0.9287 0.035 Uiso 1 1 calc R U . . .
H8B H 1.2528 0.6778 1.0360 0.035 Uiso 1 1 calc R U . . .
H8C H 1.0966 0.6881 1.0103 0.035 Uiso 1 1 calc R U . . .
C9 C 1.0218(2) 0.3428(2) 0.69527(15) 0.0153(4) Uani 1 1 d . . . . .
H9A H 1.0922 0.3929 0.6671 0.018 Uiso 1 1 calc R U . . .
H9B H 0.9401 0.3492 0.6557 0.018 Uiso 1 1 calc R U . . .
C10 C 1.0706(3) 0.2142(2) 0.69616(18) 0.0204(5) Uani 1 1 d . . . . .
H10A H 1.1529 0.2082 0.7338 0.031 Uiso 1 1 calc R U . . .
H10B H 1.0890 0.1888 0.6316 0.031 Uiso 1 1 calc R U . . .
H10C H 1.0008 0.1645 0.7237 0.031 Uiso 1 1 calc R U . . .
C11 C 0.6730(2) 0.40582(19) 0.95296(16) 0.0134(4) Uani 1 1 d . . . . .
C12 C 0.6645(3) 0.3458(3) 1.05237(18) 0.0243(6) Uani 1 1 d . . . . .
H12A H 0.7149 0.2723 1.0512 0.036 Uiso 1 1 calc R U . . .
H12B H 0.5703 0.3299 1.0678 0.036 Uiso 1 1 calc R U . . .
H12C H 0.7031 0.3979 1.1000 0.036 Uiso 1 1 calc R U . . .
C13 C 0.6097(3) 0.5313(2) 0.96056(17) 0.0209(5) Uani 1 1 d . . . . .
H13A H 0.6598 0.5772 1.0070 0.031 Uiso 1 1 calc R U . . .
H13B H 0.5156 0.5249 0.9802 0.031 Uiso 1 1 calc R U . . .
H13C H 0.6144 0.5700 0.8991 0.031 Uiso 1 1 calc R U . . .
C14 C 0.5919(3) 0.3261(2) 0.88368(16) 0.0167(5) Uani 1 1 d . . . . .
H14A H 0.6100 0.2435 0.8999 0.020 Uiso 1 1 calc R U . . .
H14B H 0.4947 0.3403 0.8936 0.020 Uiso 1 1 calc R U . . .
C15 C 0.6237(3) 0.3443(2) 0.77900(17) 0.0174(5) Uani 1 1 d . . . . .
C16 C 0.5567(3) 0.2548(2) 0.71285(17) 0.0191(5) Uani 1 1 d . . . . .
H16A H 0.4588 0.2635 0.7161 0.029 Uiso 1 1 calc R U . . .
H16B H 0.5817 0.1756 0.7323 0.029 Uiso 1 1 calc R U . . .
H16C H 0.5869 0.2684 0.6481 0.029 Uiso 1 1 calc R U . . .
loop_
_atom_site_aniso_label
_atom_site_aniso_U_11
_atom_site_aniso_U_22
_atom_site_aniso_U_33
_atom_site_aniso_U_23
_atom_site_aniso_U_13
_atom_site_aniso_U_12
S 0.0122(3) 0.0183(3) 0.0250(3) -0.0011(2) 0.0010(2) -0.0013(2)
O1 0.0107(8) 0.0180(8) 0.0147(7) -0.0050(6) -0.0020(6) -0.0001(6)
O2 0.0259(10) 0.0298(10) 0.0110(7) -0.0047(6) -0.0002(7) -0.0071(8)
O3 0.0240(9) 0.0184(9) 0.0151(8) 0.0018(6) -0.0007(7) 0.0045(7)
N1 0.0154(9) 0.0130(9) 0.0139(8) -0.0003(7) -0.0035(7) -0.0028(7)
N3 0.0140(9) 0.0110(8) 0.0125(8) -0.0004(7) -0.0019(7) 0.0007(7)
C2 0.0158(11) 0.0105(10) 0.0156(10) 0.0028(8) -0.0033(8) 0.0012(9)
C4 0.0142(11) 0.0083(9) 0.0127(10) 0.0024(7) -0.0028(8) 0.0010(8)
C5 0.0158(11) 0.0092(10) 0.0131(10) 0.0025(7) 0.0002(8) -0.0006(8)
C6 0.0201(12) 0.0109(10) 0.0128(9) 0.0017(8) -0.0014(8) -0.0021(9)
C7 0.0189(12) 0.0200(12) 0.0192(11) -0.0017(9) -0.0095(10) -0.0030(9)
C8 0.0238(14) 0.0222(13) 0.0246(12) -0.0030(10) -0.0059(10) -0.0075(10)
C9 0.0159(11) 0.0196(11) 0.0105(9) -0.0003(8) 0.0010(9) 0.0010(8)
C10 0.0249(14) 0.0179(11) 0.0184(11) -0.0044(9) 0.0008(10) 0.0000(9)
C11 0.0157(11) 0.0131(10) 0.0115(10) 0.0007(8) 0.0001(8) -0.0013(8)
C12 0.0249(14) 0.0306(14) 0.0174(11) 0.0098(10) 0.0020(10) -0.0068(11)
C13 0.0236(13) 0.0204(12) 0.0185(11) -0.0044(9) 0.0047(10) 0.0033(10)
C14 0.0138(12) 0.0178(11) 0.0186(11) -0.0006(9) 0.0006(9) -0.0006(9)
C15 0.0142(12) 0.0193(12) 0.0188(11) -0.0017(9) 0.0002(9) 0.0007(9)
C16 0.0143(12) 0.0209(12) 0.0221(12) -0.0073(9) -0.0035(9) 0.0009(9)
loop_
_atom_type_symbol
_atom_type_description
_atom_type_scat_dispersion_real
_atom_type_scat_dispersion_imag
_atom_type_scat_source
C C 0.0033 0.0016 'International Tables Vol C Tables 4.2.6.8 and 6.1.1.4'
H H 0.0000 0.0000 'International Tables Vol C Tables 4.2.6.8 and 6.1.1.4'
N N 0.0061 0.0033 'International Tables Vol C Tables 4.2.6.8 and 6.1.1.4'
O O 0.0106 0.0060 'International Tables Vol C Tables 4.2.6.8 and 6.1.1.4'
S S 0.1246 0.1234 'International Tables Vol C Tables 4.2.6.8 and 6.1.1.4'
loop_
_geom_angle_atom_site_label_1
_geom_angle_atom_site_label_2
_geom_angle_atom_site_label_3
_geom_angle
_geom_angle_site_symmetry_1
_geom_angle_site_symmetry_3
C4 O1 C15 116.37(17) . .
C15 O3 H3 108(2) . .
C2 N1 C6 124.18(18) . .
C2 N1 C7 119.5(2) . .
C6 N1 C7 116.14(18) . .
C2 N3 C4 121.95(18) . .
C2 N3 C9 118.78(18) . .
C4 N3 C9 119.26(18) . .
N1 C2 N3 115.6(2) . .
N1 C2 S 122.21(17) . .
N3 C2 S 122.14(16) . .
O1 C4 C5 125.2(2) . .
O1 C4 N3 111.98(18) . .
C5 C4 N3 122.9(2) . .
C4 C5 C6 117.5(2) . .
C4 C5 C11 122.1(2) . .
C6 C5 C11 120.40(19) . .
O2 C6 N1 117.8(2) . .
O2 C6 C5 124.8(2) . .
N1 C6 C5 117.46(19) . .
N1 C7 C8 112.0(2) . .
N1 C7 H7A 109.2 . .
C8 C7 H7A 109.2 . .
N1 C7 H7B 109.2 . .
C8 C7 H7B 109.2 . .
H7A C7 H7B 107.9 . .
C7 C8 H8A 109.5 . .
C7 C8 H8B 109.5 . .
H8A C8 H8B 109.5 . .
C7 C8 H8C 109.5 . .
H8A C8 H8C 109.5 . .
H8B C8 H8C 109.5 . .
N3 C9 C10 111.36(18) . .
N3 C9 H9A 109.4 . .
C10 C9 H9A 109.4 . .
N3 C9 H9B 109.4 . .
C10 C9 H9B 109.4 . .
H9A C9 H9B 108.0 . .
C9 C10 H10A 109.5 . .
C9 C10 H10B 109.5 . .
H10A C10 H10B 109.5 . .
C9 C10 H10C 109.5 . .
H10A C10 H10C 109.5 . .
H10B C10 H10C 109.5 . .
C5 C11 C14 108.37(18) . .
C5 C11 C12 111.59(19) . .
C14 C11 C12 106.39(19) . .
C5 C11 C13 110.29(18) . .
C14 C11 C13 111.72(19) . .
C12 C11 C13 108.44(19) . .
C11 C12 H12A 109.5 . .
C11 C12 H12B 109.5 . .
H12A C12 H12B 109.5 . .
C11 C12 H12C 109.5 . .
H12A C12 H12C 109.5 . .
H12B C12 H12C 109.5 . .
C11 C13 H13A 109.5 . .
C11 C13 H13B 109.5 . .
H13A C13 H13B 109.5 . .
C11 C13 H13C 109.5 . .
H13A C13 H13C 109.5 . .
H13B C13 H13C 109.5 . .
C15 C14 C11 115.1(2) . .
C15 C14 H14A 108.5 . .
C11 C14 H14A 108.5 . .
C15 C14 H14B 108.5 . .
C11 C14 H14B 108.5 . .
H14A C14 H14B 107.5 . .
O3 C15 O1 107.37(18) . .
O3 C15 C14 110.04(19) . .
O1 C15 C14 108.02(19) . .
O3 C15 C16 112.8(2) . .
O1 C15 C16 103.84(18) . .
C14 C15 C16 114.3(2) . .
C15 C16 H16A 109.5 . .
C15 C16 H16B 109.5 . .
H16A C16 H16B 109.5 . .
C15 C16 H16C 109.5 . .
H16A C16 H16C 109.5 . .
H16B C16 H16C 109.5 . .
loop_
_geom_bond_atom_site_label_1
_geom_bond_atom_site_label_2
_geom_bond_distance
_geom_bond_site_symmetry_2
S C2 1.672(2) .
O1 C4 1.340(3) .
O1 C15 1.493(3) .
O2 C6 1.241(3) .
O3 C15 1.390(3) .
O3 H3 0.92(4) .
N1 C2 1.376(3) .
N1 C6 1.413(3) .
N1 C7 1.485(3) .
N3 C2 1.377(3) .
N3 C4 1.385(3) .
N3 C9 1.484(3) .
C4 C5 1.358(3) .
C5 C6 1.426(3) .
C5 C11 1.522(3) .
C7 C8 1.515(3) .
C7 H7A 0.9700 .
C7 H7B 0.9700 .
C8 H8A 0.9600 .
C8 H8B 0.9600 .
C8 H8C 0.9600 .
C9 C10 1.520(3) .
C9 H9A 0.9700 .
C9 H9B 0.9700 .
C10 H10A 0.9600 .
C10 H10B 0.9600 .
C10 H10C 0.9600 .
C11 C14 1.534(3) .
C11 C12 1.541(3) .
C11 C13 1.541(3) .
C12 H12A 0.9600 .
C12 H12B 0.9600 .
C12 H12C 0.9600 .
C13 H13A 0.9600 .
C13 H13B 0.9600 .
C13 H13C 0.9600 .
C14 C15 1.503(3) .
C14 H14A 0.9700 .
C14 H14B 0.9700 .
C15 C16 1.511(3) .
C16 H16A 0.9600 .
C16 H16B 0.9600 .
C16 H16C 0.9600 .
loop_
_geom_torsion_atom_site_label_1
_geom_torsion_atom_site_label_2
_geom_torsion_atom_site_label_3
_geom_torsion_atom_site_label_4
_geom_torsion
_geom_torsion_site_symmetry_1
_geom_torsion_site_symmetry_2
_geom_torsion_site_symmetry_3
_geom_torsion_site_symmetry_4
C6 N1 C2 N3 -6.6(3) . . . .
C7 N1 C2 N3 178.21(19) . . . .
C6 N1 C2 S 173.15(17) . . . .
C7 N1 C2 S -2.1(3) . . . .
C4 N3 C2 N1 1.4(3) . . . .
C9 N3 C2 N1 -177.70(18) . . . .
C4 N3 C2 S -178.34(16) . . . .
C9 N3 C2 S 2.6(3) . . . .
C15 O1 C4 C5 19.7(3) . . . .
C15 O1 C4 N3 -159.74(18) . . . .
C2 N3 C4 O1 -178.46(19) . . . .
C9 N3 C4 O1 0.6(3) . . . .
C2 N3 C4 C5 2.1(3) . . . .
C9 N3 C4 C5 -178.9(2) . . . .
O1 C4 C5 C6 -179.9(2) . . . .
N3 C4 C5 C6 -0.5(3) . . . .
O1 C4 C5 C11 -2.0(3) . . . .
N3 C4 C5 C11 177.43(19) . . . .
C2 N1 C6 O2 -172.1(2) . . . .
C7 N1 C6 O2 3.3(3) . . . .
C2 N1 C6 C5 8.1(3) . . . .
C7 N1 C6 C5 -176.51(19) . . . .
C4 C5 C6 O2 176.0(2) . . . .
C11 C5 C6 O2 -2.0(3) . . . .
C4 C5 C6 N1 -4.2(3) . . . .
C11 C5 C6 N1 177.80(19) . . . .
C2 N1 C7 C8 87.8(3) . . . .
C6 N1 C7 C8 -87.8(3) . . . .
C2 N3 C9 C10 87.0(2) . . . .
C4 N3 C9 C10 -92.1(2) . . . .
C4 C5 C11 C14 12.1(3) . . . .
C6 C5 C11 C14 -170.1(2) . . . .
C4 C5 C11 C12 128.9(2) . . . .
C6 C5 C11 C12 -53.2(3) . . . .
C4 C5 C11 C13 -110.5(2) . . . .
C6 C5 C11 C13 67.4(2) . . . .
C5 C11 C14 C15 -40.7(3) . . . .
C12 C11 C14 C15 -160.8(2) . . . .
C13 C11 C14 C15 81.0(3) . . . .
C4 O1 C15 O3 73.0(2) . . . .
C4 O1 C15 C14 -45.6(2) . . . .
C4 O1 C15 C16 -167.29(19) . . . .
C11 C14 C15 O3 -59.3(3) . . . .
C11 C14 C15 O1 57.6(3) . . . .
C11 C14 C15 C16 172.6(2) . . . .

_cod_database_fobs_code 1529502
