#------------------------------------------------------------------------------
#$Date: 2015-09-05 23:22:24 +0300 (Sat, 05 Sep 2015) $
#$Revision: 154522 $
#$URL: svn://www.crystallography.net/cod/cif/1/52/98/1529866.cif $
#------------------------------------------------------------------------------
#
# This file is available in the Crystallography Open Database (COD),
# http://www.crystallography.net/
#
# All data on this site have been placed in the public domain by the
# contributors.
#
data_1529866
loop_
_publ_author_name
'Zhang, Xiaojuan'
'Han, Xiuling'
'Lu, Xiyan'
_publ_section_title
;
 Cationic Pd(II)-Catalyzed Cyclization of N-Tosyl-aniline Tethered Allenyl
 Aldehydes with Arylboronic Acids: Diastereo- and Enantioselective
 Synthesis of Tetrahydroquinoline Derivatives.
;
_journal_issue                   15
_journal_name_full               'Organic letters'
_journal_page_first              3910
_journal_page_last               3913
_journal_paper_doi               10.1021/acs.orglett.5b01894
_journal_volume                  17
_journal_year                    2015
_chemical_formula_sum            'C24 H23 N O3 S'
_chemical_formula_weight         405.49
_chemical_name_systematic
; 
 ? 
;
_space_group_crystal_system      triclinic
_space_group_IT_number           2
_space_group_name_Hall           '-P 1'
_space_group_name_H-M_alt        'P -1'
_symmetry_space_group_name_Hall  '-P 1'
_symmetry_space_group_name_H-M   'P -1'
_atom_sites_solution_hydrogens   geom
_audit_creation_method           SHELXL-2013
_cell_angle_alpha                76.387(4)
_cell_angle_beta                 83.994(5)
_cell_angle_gamma                64.267(4)
_cell_formula_units_Z            2
_cell_length_a                   9.2832(19)
_cell_length_b                   10.302(2)
_cell_length_c                   12.390(2)
_cell_measurement_reflns_used    1340
_cell_measurement_temperature    293(2)
_cell_measurement_theta_max      45.647
_cell_measurement_theta_min      5.018
_cell_volume                     1037.4(3)
_computing_cell_refinement       'Bruker SMART'
_computing_data_collection       'Bruker SMART'
_computing_data_reduction        'Bruker SHELXTL'
_computing_molecular_graphics    'Bruker SHELXTL'
_computing_publication_material  'Bruker SHELXTL'
_computing_structure_refinement  'SHELXL-2013 (Sheldrick, 2013)'
_computing_structure_solution    'Bruker SHELXTL'
_diffrn_ambient_temperature      293(2)
_diffrn_measured_fraction_theta_full 0.998
_diffrn_measured_fraction_theta_max 0.998
_diffrn_measurement_device_type  'CCD area detector'
_diffrn_measurement_method       'phi and omega scans'
_diffrn_radiation_type           MoK\a
_diffrn_radiation_wavelength     0.71073
_diffrn_reflns_av_R_equivalents  0.0207
_diffrn_reflns_av_unetI/netI     0.0424
_diffrn_reflns_laue_measured_fraction_full 0.998
_diffrn_reflns_laue_measured_fraction_max 0.998
_diffrn_reflns_limit_h_max       11
_diffrn_reflns_limit_h_min       -11
_diffrn_reflns_limit_k_max       12
_diffrn_reflns_limit_k_min       -7
_diffrn_reflns_limit_l_max       15
_diffrn_reflns_limit_l_min       -14
_diffrn_reflns_number            6346
_diffrn_reflns_point_group_measured_fraction_full 0.998
_diffrn_reflns_point_group_measured_fraction_max 0.998
_diffrn_reflns_theta_full        25.242
_diffrn_reflns_theta_max         25.999
_diffrn_reflns_theta_min         1.691
_exptl_absorpt_coefficient_mu    0.181
_exptl_absorpt_correction_T_max  0.7457
_exptl_absorpt_correction_T_min  0.6194
_exptl_absorpt_correction_type   multi-scan
_exptl_absorpt_process_details   sadabs
_exptl_crystal_colour            colorless
_exptl_crystal_density_diffrn    1.298
_exptl_crystal_description       prismatic
_exptl_crystal_F_000             428
_exptl_crystal_size_max          0.211
_exptl_crystal_size_mid          0.165
_exptl_crystal_size_min          0.112
_refine_diff_density_max         0.172
_refine_diff_density_min         -0.335
_refine_diff_density_rms         0.037
_refine_ls_extinction_method     none
_refine_ls_goodness_of_fit_ref   1.026
_refine_ls_hydrogen_treatment    constr
_refine_ls_matrix_type           full
_refine_ls_number_parameters     264
_refine_ls_number_reflns         4068
_refine_ls_number_restraints     1
_refine_ls_restrained_S_all      1.026
_refine_ls_R_factor_all          0.0793
_refine_ls_R_factor_gt           0.0515
_refine_ls_shift/su_max          0.000
_refine_ls_shift/su_mean         0.000
_refine_ls_structure_factor_coef Fsqd
_refine_ls_weighting_details
'w=1/[\s^2^(Fo^2^)+(0.0691P)^2^+0.1099P] where P=(Fo^2^+2Fc^2^)/3'
_refine_ls_weighting_scheme      calc
_refine_ls_wR_factor_gt          0.1285
_refine_ls_wR_factor_ref         0.1480
_reflns_Friedel_coverage         0.000
_reflns_number_gt                2759
_reflns_number_total             4068
_reflns_threshold_expression     'I > 2\s(I)'
_cod_data_source_file            ol5b01894_si_002.cif
_cod_data_source_block           cd214279
_cod_original_cell_volume        1037.4(4)
_cod_database_code               1529866
_shelx_space_group_comment
; 
The symmetry employed for this shelxl refinement is uniquely defined 
by the following loop, which should always be used as a source of 
symmetry information in preference to the above space-group names. 
They are only intended as comments. 
;
_shelxl_version_number           2013-4
_shelx_res_file
; 
TITL cd214279 in P-1 
CELL 0.71073   9.2832  10.3016  12.3897  76.387  83.994  64.267 
ZERR    2.00   0.0019   0.0021   0.0024   0.004   0.005   0.004 
LATT 1 
SFAC C  H  N  O  S 
UNIT 48 46 2 6 2 
OMIT  -3.00  52.00 
L.S. 10 
ACTA 
BOND  $H 
FMAP 2 
PLAN 20 
dfix 2.25 0.02 h1 h1_$2 
HTAB C19 O2_$1 
eqiv $2 -x,-y+2,-z 
EQIV $1 -x, -y+2, -z+1 
HTAB C2 O3 
conf 
htab 
mpla c1 > c6 
mpla c12 > c17 
mpla c18 > c23 
wpdb -1 
HTAB C2 O3 
HTAB C19 O2_$1 
WGHT    0.069100    0.109900 
FVAR       0.25635 
MOLE 1 
S1    5    0.125799    1.155291    0.328509    11.00000    0.07831    0.05474 = 
         0.07661   -0.02779    0.01963   -0.02388 
N1    3    0.091777    1.112956    0.215262    11.00000    0.05349    0.04105 = 
         0.07657   -0.01865    0.01014   -0.01489 
O1    4    0.156415    0.871431    0.013294    11.00000    0.07761    0.06551 = 
         0.08288   -0.02012   -0.01500   -0.02984 
AFIX 147 
H1    2    0.070761    0.884023    0.044994    11.00000   -1.50000 
AFIX   0 
O2    4    0.006372    1.143978    0.406284    11.00000    0.08291    0.08059 = 
         0.09482   -0.03622    0.03782   -0.02255 
O3    4    0.138733    1.291397    0.294927    11.00000    0.13082    0.05903 = 
         0.09377   -0.02986    0.01046   -0.04282 
C1    1    0.162368    1.149457    0.110767    11.00000    0.04514    0.04186 = 
         0.06911   -0.00923   -0.00153   -0.01363 
C2    1    0.142078    1.294211    0.066702    11.00000    0.07557    0.04461 = 
         0.08452   -0.01252   -0.00208   -0.02033 
AFIX  43 
H2    2    0.083519    1.367561    0.106017    11.00000   -1.20000 
AFIX   0 
C3    1    0.207809    1.328915   -0.034007    11.00000    0.08939    0.05306 = 
         0.08486    0.00369   -0.00805   -0.03428 
AFIX  43 
H3    2    0.196681    1.425001   -0.061001    11.00000   -1.20000 
AFIX   0 
C4    1    0.290304    1.223379   -0.095996    11.00000    0.07494    0.06933 = 
         0.06993    0.00027   -0.00153   -0.03426 
AFIX  43 
H4    2    0.334700    1.247538   -0.164299    11.00000   -1.20000 
AFIX   0 
C5    1    0.305535    1.082600   -0.055088    11.00000    0.05941    0.06140 = 
         0.06607   -0.01243   -0.00156   -0.02093 
AFIX  43 
H5    2    0.359541    1.011513   -0.097121    11.00000   -1.20000 
AFIX   0 
C6    1    0.242584    1.042678    0.047567    11.00000    0.03874    0.04344 = 
         0.06301   -0.00753   -0.00599   -0.01140 
C7    1    0.258604    0.887565    0.082597    11.00000    0.03970    0.04290 = 
         0.06896   -0.01505   -0.00349   -0.00863 
AFIX  13 
H7    2    0.369254    0.820691    0.069296    11.00000   -1.20000 
AFIX   0 
C8    1    0.221175    0.848821    0.205732    11.00000    0.04014    0.03820 = 
         0.07163   -0.01249   -0.00020   -0.01043 
AFIX  13 
H8    2    0.309148    0.841228    0.247886    11.00000   -1.20000 
AFIX   0 
C9    1    0.069227    0.975451    0.234633    11.00000    0.04494    0.04311 = 
         0.08206   -0.01649    0.00912   -0.01474 
AFIX  23 
H9A   2   -0.018530    0.991290    0.189436    11.00000   -1.20000 
H9B   2    0.041852    0.949607    0.311952    11.00000   -1.20000 
AFIX   0 
C10   1    0.217054    0.699760    0.233338    11.00000    0.04865    0.04219 = 
         0.07571   -0.01083   -0.00103   -0.01577 
C11   1    0.084056    0.682057    0.257589    11.00000    0.06073    0.05104 = 
         0.14959   -0.01660    0.01218   -0.02316 
AFIX  93 
H11A  2    0.086122    0.588886    0.267832    11.00000   -1.20000 
H11B  2   -0.011778    0.762747    0.264442    11.00000   -1.20000 
AFIX   0 
C12   1    0.371814    0.572543    0.221919    11.00000    0.05463    0.03445 = 
         0.07335   -0.00479    0.00381   -0.01487 
C13   1    0.381585    0.476700    0.157734    11.00000    0.08818    0.05562 = 
         0.10901   -0.03044    0.00334   -0.02685 
AFIX  43 
H13   2    0.290605    0.490630    0.122664    11.00000   -1.20000 
AFIX   0 
C14   1    0.526079    0.359511    0.144966    11.00000    0.11659    0.05855 = 
         0.12589   -0.04178    0.03025   -0.02451 
AFIX  43 
H14   2    0.530895    0.294796    0.102066    11.00000   -1.20000 
AFIX   0 
C15   1    0.660520    0.338218    0.194372    11.00000    0.08096    0.04845 = 
         0.12665   -0.01383    0.03337   -0.00184 
AFIX  43 
H15   2    0.757379    0.260310    0.184356    11.00000   -1.20000 
AFIX   0 
C16   1    0.652997    0.430932    0.258325    11.00000    0.05875    0.06003 = 
         0.10749    0.00013    0.00018   -0.00615 
AFIX  43 
H16   2    0.744676    0.415456    0.293346    11.00000   -1.20000 
AFIX   0 
C17   1    0.509451    0.548903    0.271995    11.00000    0.06052    0.04921 = 
         0.08199   -0.01031   -0.00199   -0.01143 
AFIX  43 
H17   2    0.506023    0.612643    0.315343    11.00000   -1.20000 
AFIX   0 
C18   1    0.311144    1.016344    0.378719    11.00000    0.07160    0.06957 = 
         0.05457   -0.02438    0.01188   -0.03372 
C19   1    0.318897    0.894336    0.458298    11.00000    0.08269    0.08398 = 
         0.05882   -0.01764    0.01330   -0.03826 
AFIX  43 
H19   2    0.226055    0.889742    0.491312    11.00000   -1.20000 
AFIX   0 
C20   1    0.465676    0.779955    0.487939    11.00000    0.09888    0.08790 = 
         0.05334   -0.00834    0.00101   -0.02971 
AFIX  43 
H20   2    0.470599    0.698570    0.542209    11.00000   -1.20000 
AFIX   0 
C21   1    0.605079    0.781569    0.440349    11.00000    0.08074    0.10674 = 
         0.05227   -0.02537   -0.01149   -0.02478 
C22   1    0.594248    0.906268    0.364615    11.00000    0.07322    0.12793 = 
         0.06969   -0.03495    0.00904   -0.04621 
AFIX  43 
H22   2    0.687671    0.911726    0.333673    11.00000   -1.20000 
AFIX   0 
C23   1    0.449952    1.023400    0.332939    11.00000    0.08564    0.08987 = 
         0.06353   -0.02104    0.01066   -0.04666 
AFIX  43 
H23   2    0.446072    1.106490    0.281179    11.00000   -1.20000 
AFIX   0 
C24   1    0.765196    0.651165    0.470391    11.00000    0.09876    0.15803 = 
         0.08528   -0.02625   -0.02582   -0.01011 
AFIX 137 
H24A  2    0.760264    0.598049    0.544530    11.00000   -1.50000 
H24B  2    0.846805    0.685781    0.466255    11.00000   -1.50000 
H24C  2    0.789894    0.587101    0.419410    11.00000   -1.50000 
AFIX   0 
HKLF 4 
  
REM  cd214279 in P-1 
REM R1 =  0.0515 for    2759 Fo > 4sig(Fo)  and  0.0793 for all    4068 data 
REM    264 parameters refined using      1 restraints 
  
END 
  
WGHT      0.0688      0.1129 
  
REM Instructions for potential hydrogen bonds 
HTAB C2 O3 
HTAB C19 O2_$1 
  
REM Highest difference peak  0.172,  deepest hole -0.335,  1-sigma level  0.037 
Q1    1   0.1573  0.7723  0.0326  11.00000  0.05    0.17 
Q2    1   0.8228  0.6458  0.5414  11.00000  0.05    0.14 
Q3    1   0.0511  1.1587  0.2470  11.00000  0.05    0.14 
Q4    1   0.2900  0.6584  0.1952  11.00000  0.05    0.13 
Q5    1   0.8261  0.6339  0.3869  11.00000  0.05    0.13 
Q6    1   0.1318  0.7106  0.1614  11.00000  0.05    0.13 
Q7    1   0.1586  1.0948  0.0667  11.00000  0.05    0.13 
Q8    1   0.0798  1.1362  0.4496  11.00000  0.05    0.13 
Q9    1   0.0847  1.1387  0.2619  11.00000  0.05    0.12 
Q10   1  -0.0534  0.7821  0.1819  11.00000  0.05    0.12 
Q11   1   0.0873  1.0694  0.2234  11.00000  0.05    0.12 
Q12   1   0.7187  0.6668  0.4855  11.00000  0.05    0.12 
Q13   1   0.0788  0.5749  0.3339  11.00000  0.05    0.12 
Q14   1   0.2556  0.8659  0.1520  11.00000  0.05    0.12 
Q15   1   0.1305  1.3346  0.2644  11.00000  0.05    0.12 
Q16   1   0.3408  0.5208  0.2203  11.00000  0.05    0.12 
Q17   1   0.2851  1.0589  0.0196  11.00000  0.05    0.12 
Q18   1   0.2359  1.1842  0.3189  11.00000  0.05    0.12 
Q19   1   0.1857  0.6846  0.3083  11.00000  0.05    0.12 
Q20   1   0.3288  0.8540  0.2774  11.00000  0.05    0.12 
;
_shelx_res_checksum              41491
_shelx_hkl_file
; 
   1   0   0    0.28    0.04 
   1   0   0    0.18    0.04 
   2   0   0   77.03    2.22 
   2   0   0   79.85    2.05 
   3   0   0   20.15    0.70 
   3   0   0   20.90    0.64 
   4   0   0   12.33    0.47 
   5   0   0    7.39    0.37 
   6   0   0    0.33    0.13 
   7   0   0    0.08    0.11 
  -8   0   0    2.06    0.28 
  -9   0   0    0.49    0.20 
 -10   0   0    0.02    0.17 
 -11   0   0    0.00    0.20 
 -10   1   0    0.06    0.21 
  -9   1   0    0.17    0.16 
  -8   1   0    1.11    0.23 
  -7   1   0    2.01    0.27 
  -6   1   0   17.93    0.71 
  -5   1   0   18.41    0.69 
   4  -1   0    0.08    0.09 
  -4   1   0   -0.08    0.08 
   3  -1   0   25.72    0.80 
  -3   1   0   26.53    0.80 
  -2   1   0   46.11    1.26 
  -1   1   0  354.77    8.91 
   0   1   0  259.72    6.56 
   1   1   0   14.16    0.39 
   1   1   0   13.89    0.43 
  -2  -1   0  192.31    5.26 
   2   1   0  194.02    4.89 
   2   1   0  191.74    5.29 
  -3  -1   0    8.90    0.27 
   3   1   0    8.56    0.36 
   3   1   0    8.76    0.34 
  -4  -1   0    2.70    0.12 
   4   1   0    2.53    0.20 
   4   1   0    2.67    0.23 
  -5  -1   0    1.13    0.09 
   5   1   0    1.14    0.17 
   5   1   0    1.12    0.18 
  -6  -1   0    1.97    0.12 
   6   1   0    1.85    0.25 
   6   1   0    1.57    0.20 
   7   1   0   20.32    0.79 
   8   1   0    7.85    0.47 
   9   1   0   -0.03    0.12 
 -10  -1   0    0.07    0.15 
 -11  -1   0    0.72    0.25 
 -10   2   0    0.11    0.22 
  -9   2   0    0.60    0.24 
  -8   2   0    0.46    0.20 
  -7   2   0    3.31    0.35 
  -6   2   0    2.64    0.29 
  -5   2   0    7.69    0.40 
  -4   2   0   19.18    0.68 
  -3   2   0  240.35    6.16 
  -2   2   0    0.44    0.10 
  -1   2   0   26.48    0.74 
   0   2   0   13.48    0.40 
   0   2   0   13.63    0.43 
   1   2   0  194.16    4.86 
   1   2   0  190.81    5.26 
   2   2   0   57.42    1.65 
   2   2   0   57.99    1.52 
   3   2   0    6.68    0.27 
   3   2   0    6.29    0.29 
   4   2   0    5.73    0.31 
   4   2   0    5.99    0.28 
   5   2   0    1.93    0.22 
   5   2   0    1.31    0.17 
   6   2   0    1.22    0.18 
   6   2   0    1.48    0.22 
   7   2   0    0.17    0.11 
   7   2   0   -0.12    0.06 
   8   2   0    0.00    0.10 
   8   2   0    0.04    0.08 
   9   2   0   -0.11    0.09 
  10   2   0    0.14    0.12 
 -11  -2   0   -0.11    0.16 
  11   2   0    0.07    0.15 
  -9   3   0    0.08    0.20 
  -8   3   0    2.64    0.36 
  -7   3   0    2.67    0.32 
  -6   3   0    3.28    0.32 
  -5   3   0    2.98    0.28 
  -4   3   0    3.35    0.27 
  -3   3   0    1.24    0.17 
  -2   3   0    0.04    0.09 
  -1   3   0   24.04    0.71 
   0   3   0    7.84    0.28 
   0   3   0    7.30    0.30 
   1   3   0    1.05    0.08 
   1   3   0    0.97    0.10 
   2   3   0    7.37    0.26 
   2   3   0    6.90    0.29 
   3   3   0    1.31    0.14 
   3   3   0    1.20    0.11 
   4   3   0   49.53    1.40 
   4   3   0   49.32    1.51 
   5   3   0   27.80    0.97 
   5   3   0   27.70    0.89 
   6   3   0    1.66    0.23 
   6   3   0    1.71    0.21 
   7   3   0    6.20    0.40 
   7   3   0    6.04    0.36 
   8   3   0    2.20    0.26 
   8   3   0    2.23    0.29 
   9   3   0    1.21    0.21 
   9   3   0    1.26    0.24 
  10   3   0    0.18    0.12 
  11   3   0    0.17    0.14 
  12   3   0    0.22    0.17 
  -9   4   0    0.11    0.21 
  -8   4   0    0.50    0.21 
  -7   4   0    0.13    0.16 
  -6   4   0    0.05    0.13 
  -5   4   0   -0.04    0.12 
  -4   4   0    0.01    0.12 
  -3   4   0   -0.08    0.09 
  -2   4   0    0.50    0.13 
  -1   4   0   11.85    0.44 
   0   4   0   83.49    2.37 
   0   4   0   81.96    2.18 
   1   4   0  101.77    2.66 
   1   4   0  104.69    2.92 
   2   4   0   43.93    1.36 
   2   4   0   46.72    1.23 
   3   4   0   40.98    1.15 
   3   4   0   41.45    1.27 
   4   4   0   19.82    0.73 
   4   4   0   21.26    0.67 
   5   4   0    0.50    0.12 
   5   4   0    0.38    0.11 
   6   4   0    4.10    0.27 
   6   4   0    3.66    0.28 
   7   4   0    1.49    0.20 
   7   4   0    1.60    0.24 
   8   4   0    1.26    0.20 
   8   4   0    1.15    0.21 
   9   4   0    0.70    0.17 
   9   4   0    1.23    0.24 
  10   4   0    0.32    0.13 
  10   4   0    0.18    0.14 
  11   4   0    0.21    0.14 
  12   4   0   -0.03    0.12 
  -8   5   0    0.21    0.21 
  -7   5   0   -0.05    0.17 
  -6   5   0    0.24    0.18 
  -5   5   0    2.79    0.30 
  -4   5   0    0.10    0.13 
  -3   5   0    1.56    0.22 
  -2   5   0    3.45    0.27 
  -1   5   0    7.52    0.36 
   0   5   0   30.30    1.01 
   0   5   0   31.55    0.92 
   1   5   0   50.33    1.50 
   1   5   0   48.32    1.34 
   2   5   0  129.69    3.31 
   2   5   0  126.19    3.62 
   3   5   0   68.79    1.86 
   3   5   0   69.23    2.05 
   4   5   0    6.96    0.32 
   4   5   0    7.62    0.37 
   5   5   0    7.99    0.36 
   5   5   0    7.31    0.39 
   6   5   0    0.39    0.13 
   6   5   0    0.32    0.10 
   7   5   0    1.41    0.23 
   7   5   0    1.56    0.21 
   8   5   0    0.03    0.09 
   8   5   0   -0.01    0.07 
   9   5   0    0.16    0.12 
   9   5   0    0.12    0.10 
  10   5   0    0.33    0.13 
  10   5   0    0.01    0.11 
  11   5   0    0.07    0.12 
  11   5   0    0.11    0.11 
  12   5   0   -0.02    0.11 
  -7   6   0    0.03    0.21 
  -6   6   0    0.68    0.24 
  -5   6   0    0.85    0.20 
  -4   6   0    0.86    0.21 
  -3   6   0   34.56    1.14 
  -2   6   0    7.99    0.42 
  -1   6   0   27.32    0.89 
  -1   6   0   27.29    0.96 
   0   6   0   21.08    0.69 
   0   6   0   21.54    0.78 
   1   6   0    7.15    0.37 
   1   6   0    7.39    0.31 
   2   6   0   25.98    0.77 
   2   6   0   24.93    0.88 
   3   6   0    7.15    0.37 
   3   6   0    7.18    0.31 
   4   6   0    2.17    0.23 
   4   6   0    2.60    0.20 
   5   6   0    3.71    0.24 
   5   6   0    3.77    0.28 
   6   6   0    1.31    0.20 
   6   6   0    1.43    0.19 
   7   6   0    0.01    0.09 
   7   6   0    0.11    0.08 
   8   6   0    0.44    0.13 
   8   6   0    0.45    0.15 
   9   6   0    1.51    0.24 
   9   6   0    1.40    0.25 
  10   6   0    0.76    0.21 
  10   6   0    0.16    0.12 
  11   6   0   -0.01    0.12 
  11   6   0    0.03    0.12 
  12   6   0    0.11    0.13 
  -6   7   0   -0.10    0.21 
  -5   7   0    0.09    0.18 
  -4   7   0    7.26    0.47 
  -3   7   0    6.44    0.42 
  -2   7   0    0.11    0.11 
  -2   7   0    0.06    0.14 
  -1   7   0   29.13    1.06 
  -1   7   0   29.76    0.97 
   0   7   0   34.28    1.04 
   0   7   0   34.43    1.19 
   1   7   0    8.05    0.35 
   1   7   0    8.22    0.42 
   2   7   0    1.17    0.19 
   2   7   0    1.01    0.13 
   3   7   0    4.24    0.23 
   3   7   0    4.75    0.30 
   4   7   0    1.06    0.14 
   4   7   0    1.16    0.18 
   5   7   0    1.96    0.20 
   5   7   0    2.05    0.24 
   6   7   0   10.87    0.53 
   6   7   0    9.71    0.45 
   7   7   0    0.14    0.11 
   7   7   0    0.21    0.10 
   8   7   0    0.66    0.17 
   8   7   0    0.38    0.13 
   9   7   0    1.18    0.22 
   9   7   0    1.38    0.26 
  10   7   0    1.29    0.25 
  10   7   0    0.67    0.16 
  11   7   0    0.17    0.16 
  11   7   0    0.13    0.12 
  12   7   0    0.03    0.12 
  -5   8   0    0.57    0.19 
  -5   8   0    0.69    0.28 
  -4   8   0    0.26    0.20 
  -4   8   0    0.02    0.11 
  -3   8   0    0.07    0.11 
  -3   8   0    0.30    0.17 
  -2   8   0    3.81    0.36 
  -2   8   0    3.27    0.31 
  -1   8   0    2.19    0.24 
  -1   8   0    2.02    0.27 
   0   8   0    0.04    0.10 
   0   8   0    0.04    0.09 
   1   8   0    0.02    0.09 
   1   8   0    0.10    0.09 
   2   8   0    4.85    0.26 
   2   8   0    4.03    0.31 
   3   8   0    1.55    0.17 
   3   8   0    1.32    0.20 
   4   8   0    1.55    0.18 
   4   8   0    1.73    0.23 
   5   8   0    2.43    0.23 
   5   8   0    2.13    0.26 
   6   8   0   16.00    0.72 
   6   8   0   16.37    0.63 
   7   8   0    1.50    0.22 
   7   8   0    1.95    0.28 
   8   8   0    1.41    0.25 
   8   8   0    0.94    0.18 
   9   8   0    3.57    0.35 
   9   8   0    3.63    0.39 
  10   8   0    1.03    0.23 
  10   8   0    0.36    0.14 
  11   8   0    0.37    0.15 
  12   8   0   -0.22    0.11 
  -4   9   0    0.23    0.16 
  -3   9   0    1.51    0.28 
  -3   9   0    1.60    0.29 
  -2   9   0   -0.06    0.14 
  -2   9   0   -0.09    0.09 
  -1   9   0    0.58    0.17 
  -1   9   0    0.61    0.15 
   0   9   0    1.03    0.22 
   0   9   0    1.04    0.16 
   1   9   0    7.65    0.37 
   1   9   0    8.11    0.49 
   2   9   0    0.71    0.13 
   2   9   0    0.73    0.17 
   3   9   0    1.67    0.18 
   3   9   0    1.67    0.26 
   4   9   0    0.68    0.13 
   4   9   0    0.54    0.15 
   5   9   0    0.23    0.10 
   5   9   0    0.07    0.10 
   6   9   0    0.18    0.11 
   6   9   0    0.13    0.08 
   7   9   0    0.21    0.12 
   7   9   0    0.39    0.12 
   8   9   0    0.37    0.15 
   8   9   0    0.39    0.13 
   9   9   0    1.57    0.28 
   9   9   0    1.49    0.24 
  10   9   0    0.10    0.14 
  11   9   0    0.17    0.14 
  -3  10   0    0.18    0.17 
  -2  10   0   -0.02    0.15 
  -1  10   0    1.12    0.25 
   0  10   0    1.21    0.25 
   1  10   0    1.32    0.24 
   2  10   0    0.07    0.07 
   2  10   0    0.11    0.12 
   3  10   0    5.75    0.42 
   3  10   0    5.75    0.32 
   4  10   0    0.35    0.10 
   4  10   0    0.20    0.13 
   5  10   0    2.47    0.24 
   5  10   0    2.89    0.35 
   6  10   0    0.48    0.13 
   6  10   0    0.41    0.14 
   7  10   0    0.07    0.10 
   7  10   0    0.31    0.15 
   8  10   0    0.91    0.22 
   8  10   0    0.79    0.18 
   9  10   0   -0.03    0.12 
   9  10   0    0.22    0.12 
  10  10   0    0.03    0.11 
  11  10   0    0.07    0.12 
  -2  11   0    0.15    0.17 
  -1  11   0    0.55    0.20 
   0  11   0    1.25    0.27 
   1  11   0    0.63    0.19 
   2  11   0    5.45    0.50 
   3  11   0    0.17    0.13 
   4  11   0   -0.08    0.09 
   5  11   0    0.01    0.11 
   6  11   0    0.12    0.11 
   7  11   0    0.02    0.12 
   8  11   0    0.10    0.13 
   0  12   0    0.34    0.19 
   1  12   0    0.24    0.17 
   2  12   0   -0.19    0.13 
   3  12   0    1.71    0.30 
   4  12   0    0.04    0.14 
   5  12   0    0.74    0.22 
   6  12   0   -0.22    0.10 
   7  12   0    0.02    0.13 
   8  12   0    0.23    0.18 
   3  13   0    0.70    0.24 
   4  13   0   -0.02    0.16 
   5  13   0    0.14    0.17 
   6  13   0   -0.08    0.13 
   7  13   0    0.31    0.20 
   5  13  -1    0.04    0.16 
   4  13  -1   -0.09    0.15 
   6  12  -1    0.28    0.16 
   5  12  -1   -0.07    0.13 
   4  12  -1    1.09    0.25 
   3  12  -1    0.54    0.21 
   2  12  -1    0.32    0.19 
   1  12  -1    0.17    0.16 
  10  11  -1   -0.03    0.13 
   9  11  -1    0.13    0.13 
   8  11  -1    0.56    0.18 
   7  11  -1    0.36    0.13 
   7  11  -1    0.24    0.15 
   6  11  -1    0.01    0.10 
   6  11  -1    0.05    0.12 
   5  11  -1    0.11    0.14 
   5  11  -1    0.17    0.10 
   4  11  -1    0.08    0.11 
   3  11  -1    0.29    0.17 
   2  11  -1    0.11    0.12 
   1  11  -1    1.46    0.26 
   0  11  -1    0.61    0.20 
  -1  11  -1   -0.03    0.13 
  11  10  -1    0.05    0.14 
  10  10  -1    0.19    0.15 
   9  10  -1    0.22    0.14 
   8  10  -1    0.21    0.15 
   8  10  -1    0.15    0.10 
   7  10  -1    2.14    0.30 
   7  10  -1    1.84    0.25 
   6  10  -1    0.33    0.11 
   6  10  -1    0.25    0.11 
   5  10  -1    0.34    0.11 
   5  10  -1    0.20    0.13 
   4  10  -1    0.95    0.21 
   4  10  -1    0.77    0.14 
   3  10  -1    0.30    0.14 
   3  10  -1    0.14    0.08 
   2  10  -1    0.64    0.13 
   2  10  -1    0.61    0.18 
   1  10  -1    0.12    0.08 
   1  10  -1    0.09    0.11 
   0  10  -1    0.94    0.17 
   0  10  -1    0.79    0.22 
  -1  10  -1    0.04    0.10 
  -1  10  -1   -0.05    0.12 
  -2  10  -1    0.60    0.21 
  -3  10  -1   -0.03    0.14 
  11   9  -1    0.08    0.13 
  10   9  -1   -0.18    0.09 
   9   9  -1    0.13    0.11 
   8   9  -1    0.25    0.12 
   8   9  -1    0.43    0.14 
   7   9  -1    1.10    0.19 
   7   9  -1    1.27    0.22 
   6   9  -1    0.58    0.15 
   6   9  -1    0.49    0.13 
   5   9  -1    0.83    0.18 
   5   9  -1    0.38    0.11 
   4   9  -1   -0.05    0.08 
   4   9  -1   -0.03    0.06 
   3   9  -1    0.06    0.06 
   3   9  -1   -0.02    0.09 
   2   9  -1    0.35    0.13 
   2   9  -1    0.15    0.09 
   1   9  -1   -0.08    0.10 
   1   9  -1   -0.09    0.05 
   0   9  -1    3.57    0.36 
   0   9  -1    3.85    0.30 
  -1   9  -1    0.83    0.20 
  -1   9  -1    0.97    0.18 
  -2   9  -1    0.04    0.13 
  -2   9  -1    0.25    0.14 
  -3   9  -1    0.06    0.17 
  -3   9  -1   -0.13    0.13 
  -4   9  -1    0.77    0.22 
  -4   9  -1    1.13    0.28 
  11   8  -1    0.42    0.17 
  10   8  -1    0.00    0.09 
   9   8  -1    1.40    0.24 
   9   8  -1    1.55    0.26 
   8   8  -1    0.32    0.14 
   8   8  -1    0.42    0.13 
   7   8  -1   16.97    0.76 
   7   8  -1   17.36    0.71 
   6   8  -1    0.37    0.11 
   6   8  -1    0.46    0.15 
   5   8  -1    4.34    0.27 
   5   8  -1    3.95    0.30 
   4   8  -1    0.03    0.08 
   4   8  -1    0.04    0.06 
   3   8  -1    6.17    0.31 
   3   8  -1    5.69    0.36 
   2   8  -1   -0.10    0.06 
   2   8  -1   -0.02    0.07 
   1   8  -1    4.70    0.28 
   1   8  -1    6.28    0.38 
   0   8  -1    1.80    0.25 
   0   8  -1    1.36    0.19 
  -1   8  -1    0.03    0.10 
  -1   8  -1   -0.03    0.11 
  -2   8  -1    0.18    0.15 
  -2   8  -1    0.15    0.11 
  -3   8  -1    3.07    0.35 
  -3   8  -1    2.32    0.31 
  -4   8  -1    1.20    0.25 
  -4   8  -1    1.18    0.27 
  -5   8  -1    0.10    0.23 
  12   7  -1    0.23    0.15 
  11   7  -1    0.28    0.14 
  10   7  -1    0.13    0.12 
   9   7  -1    0.93    0.19 
   9   7  -1    1.14    0.21 
   8   7  -1   -0.07    0.08 
   8   7  -1    0.01    0.08 
   7   7  -1    5.66    0.35 
   7   7  -1    6.15    0.39 
   6   7  -1    2.46    0.25 
   6   7  -1    2.44    0.27 
   5   7  -1    0.12    0.10 
   5   7  -1    0.12    0.10 
   4   7  -1    1.16    0.18 
   4   7  -1    1.14    0.16 
   3   7  -1    2.45    0.20 
   3   7  -1    2.84    0.26 
   2   7  -1    0.17    0.08 
   2   7  -1    0.12    0.09 
   1   7  -1    6.05    0.30 
   1   7  -1    5.86    0.35 
   0   7  -1    0.01    0.09 
   0   7  -1   -0.01    0.11 
  -1   7  -1   16.15    0.66 
  -1   7  -1   18.09    0.72 
  -2   7  -1    8.35    0.46 
  -2   7  -1    7.16    0.43 
  -3   7  -1    3.78    0.36 
  -4   7  -1    1.79    0.30 
  -5   7  -1    1.51    0.32 
  -6   7  -1    0.43    0.26 
  12   6  -1   -0.05    0.12 
  11   6  -1    0.06    0.13 
  10   6  -1    0.15    0.13 
  10   6  -1    0.02    0.10 
   9   6  -1    0.65    0.16 
   9   6  -1    0.85    0.19 
   8   6  -1    0.75    0.17 
   8   6  -1    1.03    0.19 
   7   6  -1    5.48    0.35 
   7   6  -1    5.84    0.38 
   6   6  -1    1.26    0.19 
   6   6  -1    1.02    0.17 
   5   6  -1    3.56    0.26 
   5   6  -1    3.74    0.25 
   4   6  -1   21.57    0.78 
   4   6  -1   20.80    0.71 
   3   6  -1    1.69    0.19 
   3   6  -1    1.58    0.16 
   2   6  -1    0.05    0.07 
   2   6  -1   -0.04    0.05 
   1   6  -1   10.96    0.41 
   1   6  -1   10.35    0.46 
   0   6  -1    2.99    0.23 
   0   6  -1    2.73    0.22 
  -1   6  -1   37.75    1.18 
  -1   6  -1   38.10    1.25 
  -2   6  -1    3.74    0.32 
  -3   6  -1    8.36    0.47 
  -4   6  -1    3.48    0.35 
  -5   6  -1    5.22    0.44 
  -6   6  -1    0.20    0.20 
  -7   6  -1    0.82    0.29 
  12   5  -1    0.08    0.14 
  11   5  -1   -0.01    0.10 
  10   5  -1    0.19    0.12 
  10   5  -1    0.10    0.12 
   9   5  -1    0.15    0.11 
   9   5  -1    0.13    0.11 
   8   5  -1    0.71    0.16 
   8   5  -1    0.72    0.17 
   7   5  -1    0.01    0.07 
   7   5  -1    0.10    0.11 
   6   5  -1   -0.03    0.07 
   6   5  -1   -0.05    0.08 
   5   5  -1    8.60    0.42 
   5   5  -1    8.44    0.39 
   4   5  -1    6.87    0.34 
   4   5  -1    6.70    0.32 
   3   5  -1   18.82    0.66 
   3   5  -1   18.29    0.60 
   2   5  -1   73.31    1.96 
   2   5  -1   73.27    2.14 
   1   5  -1   83.49    2.40 
   1   5  -1   82.35    2.20 
   0   5  -1   75.69    2.05 
   0   5  -1   75.20    2.21 
  -1   5  -1   14.51    0.55 
  -2   5  -1    1.03    0.20 
  -3   5  -1    2.13    0.25 
  -4   5  -1    4.20    0.34 
  -5   5  -1    4.49    0.38 
  -6   5  -1    1.86    0.30 
  -7   5  -1    1.79    0.33 
  -8   5  -1    0.59    0.25 
  12   4  -1   -0.12    0.12 
  11   4  -1    0.21    0.15 
  10   4  -1    0.34    0.15 
  10   4  -1    0.47    0.17 
   9   4  -1   -0.04    0.08 
   9   4  -1    0.11    0.12 
   8   4  -1    2.59    0.30 
   8   4  -1    2.08    0.27 
   7   4  -1    5.81    0.38 
   7   4  -1    5.62    0.35 
   6   4  -1    1.93    0.22 
   6   4  -1    2.64    0.26 
   5   4  -1    4.52    0.27 
   5   4  -1    4.47    0.28 
   4   4  -1    0.69    0.12 
   4   4  -1    0.62    0.12 
   3   4  -1   18.72    0.59 
   3   4  -1   17.80    0.63 
   2   4  -1   55.46    1.49 
   2   4  -1   54.93    1.62 
   1   4  -1   64.66    1.70 
   1   4  -1   63.42    1.85 
   0   4  -1    3.85    0.21 
   0   4  -1    3.98    0.22 
  -1   4  -1    2.42    0.21 
  -2   4  -1   44.82    1.31 
  -3   4  -1    3.16    0.27 
  -4   4  -1    1.39    0.21 
  -5   4  -1    0.16    0.15 
  -6   4  -1    0.34    0.18 
  -7   4  -1    1.57    0.28 
  -8   4  -1    0.24    0.23 
  -9   4  -1    0.05    0.21 
  12   3  -1    0.03    0.14 
  11   3  -1   -0.14    0.13 
  10   3  -1    0.43    0.17 
   9   3  -1    1.55    0.26 
   9   3  -1    1.82    0.26 
   8   3  -1    0.98    0.19 
   8   3  -1    1.08    0.19 
   7   3  -1    0.68    0.15 
   7   3  -1    0.88    0.19 
   6   3  -1    1.17    0.18 
   6   3  -1    1.34    0.20 
   5   3  -1   19.06    0.72 
   5   3  -1   19.61    0.69 
   4   3  -1    0.05    0.07 
   4   3  -1   -0.01    0.05 
   2   3  -1   47.24    1.28 
   1   3  -1    0.52    0.07 
   0   3  -1   11.15    0.39 
  -1   3  -1   23.62    0.73 
  -2   3  -1    4.47    0.25 
  -3   3  -1    0.48    0.13 
  -4   3  -1   -0.14    0.10 
  -5   3  -1    5.76    0.36 
  -6   3  -1   -0.20    0.12 
  -7   3  -1    0.47    0.18 
  -8   3  -1   -0.01    0.16 
  -9   3  -1    0.95    0.28 
  11   2  -1   -0.12    0.14 
  10   2  -1    0.00    0.13 
   9   2  -1    0.33    0.14 
   8   2  -1    9.52    0.50 
   7   2  -1    1.78    0.24 
   7   2  -1    1.61    0.24 
   6   2  -1    0.81    0.16 
   6   2  -1    0.39    0.13 
  -6  -2   1    0.79    0.08 
   5   2  -1    0.41    0.11 
   5   2  -1    0.55    0.13 
  -5  -2   1    0.58    0.07 
   4   2  -1    8.60    0.37 
   4   2  -1    8.18    0.35 
  -4  -2   1    8.35    0.29 
   3   2  -1    0.40    0.08 
  -3  -2   1    0.28    0.05 
   2   2  -1   29.08    0.87 
   2   2  -1   29.69    0.83 
   1   2  -1  116.09    2.96 
   0   2  -1   20.53    0.60 
  -1   2  -1   63.51    1.69 
  -2   2  -1   83.49    2.21 
  -3   2  -1   58.79    1.64 
  -4   2  -1    2.47    0.23 
  -5   2  -1    1.01    0.18 
  -6   2  -1    4.28    0.35 
  -7   2  -1    1.26    0.25 
  -8   2  -1    0.55    0.20 
  -9   2  -1    0.06    0.20 
 -10   2  -1    0.36    0.23 
 -11  -1   1   -0.15    0.16 
  10   1  -1    0.25    0.17 
   9   1  -1    0.43    0.17 
   8   1  -1   -0.10    0.10 
   7   1  -1    1.11    0.20 
   6   1  -1   -0.01    0.07 
  -6  -1   1    0.10    0.05 
   5   1  -1    6.04    0.33 
   5   1  -1    6.00    0.32 
  -5  -1   1    5.62    0.23 
   4   1  -1   15.67    0.56 
   4   1  -1   15.94    0.59 
  -4  -1   1   15.85    0.50 
   3   1  -1   15.71    0.55 
   3   1  -1   15.84    0.53 
  -3  -1   1   16.73    0.50 
   2   1  -1   14.39    0.46 
   2   1  -1   15.42    0.49 
  -2  -1   1   15.83    0.47 
   1   1  -1  433.11   10.94 
   1   1  -1  433.91   11.93 
  -1  -1   1  441.18   11.54 
   0   1  -1    1.67    0.09 
  -1   1  -1    1.41    0.11 
  -2   1  -1   77.81    2.05 
  -3   1  -1   86.88    2.32 
  -4   1  -1    7.45    0.36 
  -5   1  -1   13.94    0.58 
  -6   1  -1    3.04    0.30 
  -7   1  -1    6.54    0.42 
  -8   1  -1    3.23    0.37 
  -9   1  -1    0.38    0.21 
 -10   1  -1    0.95    0.30 
 -11   0   1   -0.11    0.17 
 -10   0   1    0.39    0.19 
   9   0  -1    0.74    0.20 
   8   0  -1    1.18    0.23 
   7   0  -1    9.15    0.50 
   6   0  -1    1.31    0.19 
   5   0  -1   -0.09    0.07 
   4   0  -1   -0.01    0.07 
   3   0  -1   14.28    0.49 
   2   0  -1   60.72    1.62 
   1   0  -1  482.30   12.15 
  -1   0   1  485.84   12.82 
   0   0  -1   13.82    0.42 
   0   0   1   14.51    0.42 
  -1   0  -1  172.54    4.36 
  -2   0  -1  971.88   24.66 
   2   0   1 1000.00   26.69 
   3   0   1  127.89    3.34 
   3   0   1  129.21    3.64 
   4   0   1    0.06    0.08 
   4   0   1    0.08    0.07 
   5   0   1    0.15    0.09 
  -6   0  -1    0.43    0.15 
  -7   0  -1    3.24    0.32 
  -8   0  -1    0.80    0.20 
  -9   0  -1    0.53    0.20 
 -10   0  -1    0.49    0.23 
 -11   0  -1   -0.25    0.19 
 -10   1   1    0.09    0.19 
  -9   1   1    0.63    0.22 
  -8   1   1    2.38    0.31 
   7  -1  -1    0.04    0.10 
   6  -1  -1   29.78    1.04 
   5  -1  -1   11.70    0.51 
   4  -1  -1  112.77    3.02 
   3  -1  -1    2.24    0.17 
   2  -1  -1   55.71    1.50 
   1  -1  -1   20.29    0.57 
   0  -1  -1   43.65    1.19 
   0   1   1   46.16    1.19 
   0   1   1   45.16    1.26 
   1   1   1   81.72    2.07 
   1   1   1   80.39    2.25 
   2   1   1  343.68    9.43 
   2   1   1  347.50    8.70 
   3   1   1    8.23    0.36 
   3   1   1    7.61    0.30 
   4   1   1   31.79    0.97 
   4   1   1   32.61    1.08 
   5   1   1    0.03    0.07 
   5   1   1    0.00    0.09 
   6   1   1    0.21    0.12 
   6   1   1    0.19    0.08 
   7   1   1   24.58    0.91 
   8   1   1    0.82    0.18 
  -9  -1  -1    0.48    0.19 
 -10  -1  -1    0.08    0.17 
 -11  -1  -1    0.08    0.21 
 -10   2   1    1.12    0.29 
  -9   2   1    0.23    0.21 
  -8   2   1   -0.08    0.14 
  -7   2   1    0.29    0.16 
  -6   2   1   -0.03    0.11 
  -5   2   1   15.71    0.63 
  -4   2   1   40.02    1.21 
  -3   2   1    5.94    0.29 
  -2   2   1  247.66    6.29 
  -1   2   1  157.08    3.99 
   0   2   1    1.47    0.08 
   0   2   1    1.39    0.09 
   1   2   1  114.72    2.89 
   1   2   1  112.63    3.15 
   2   2   1  205.96    5.73 
   2   2   1  211.00    5.28 
   3   2   1  111.59    2.90 
   3   2   1  111.51    3.16 
   4   2   1   17.75    0.67 
   4   2   1   18.00    0.60 
   5   2   1    0.55    0.14 
   5   2   1    0.76    0.13 
   6   2   1    2.83    0.30 
   6   2   1    3.20    0.26 
   7   2   1    5.90    0.35 
   7   2   1    6.24    0.41 
   8   2   1    0.32    0.12 
   8   2   1    0.39    0.14 
   9   2   1    0.34    0.13 
 -10  -2  -1    0.03    0.18 
 -11  -2  -1    0.04    0.18 
  -9   3   1    0.73    0.26 
  -8   3   1    0.08    0.18 
  -7   3   1    0.53    0.19 
  -6   3   1    2.16    0.27 
  -5   3   1    4.02    0.32 
  -4   3   1    9.86    0.45 
  -3   3   1    3.64    0.24 
  -2   3   1    2.46    0.18 
  -1   3   1   22.05    0.64 
   0   3   1    1.97    0.13 
   0   3   1    2.24    0.14 
   1   3   1   21.17    0.57 
   1   3   1   20.62    0.67 
   2   3   1   69.08    1.82 
   2   3   1   71.19    2.02 
   3   3   1    0.06    0.06 
   3   3   1   -0.01    0.04 
   4   3   1   11.85    0.44 
   4   3   1   11.86    0.50 
   5   3   1    2.63    0.22 
   5   3   1    3.03    0.27 
   6   3   1    2.58    0.28 
   6   3   1    2.65    0.24 
   7   3   1    2.15    0.27 
   7   3   1    2.72    0.26 
   8   3   1    4.22    0.35 
   8   3   1    4.53    0.42 
   9   3   1    2.42    0.33 
   9   3   1    2.19    0.28 
  10   3   1    0.32    0.15 
  10   3   1    0.10    0.12 
  11   3   1   -0.11    0.11 
 -12  -3  -1    0.17    0.21 
  -9   4   1    0.37    0.22 
  -8   4   1   -0.03    0.18 
  -7   4   1    0.75    0.21 
  -6   4   1    0.01    0.12 
  -5   4   1    0.00    0.11 
  -4   4   1    0.65    0.16 
  -3   4   1    5.51    0.30 
  -2   4   1    7.47    0.32 
  -1   4   1   66.39    1.78 
   0   4   1    1.70    0.13 
   0   4   1    1.47    0.14 
   1   4   1   59.73    1.55 
   1   4   1   59.52    1.75 
   2   4   1    9.42    0.31 
   2   4   1    9.79    0.40 
   3   4   1   58.72    1.55 
   3   4   1   56.35    1.72 
   4   4   1    0.52    0.09 
   4   4   1    0.85    0.14 
   5   4   1    1.43    0.20 
   5   4   1    1.29    0.16 
   6   4   1   12.64    0.59 
   6   4   1   13.18    0.53 
   7   4   1    0.46    0.14 
   7   4   1    0.11    0.07 
   8   4   1    0.69    0.14 
   8   4   1    0.47    0.16 
   9   4   1    1.82    0.29 
   9   4   1    1.43    0.23 
  10   4   1   -0.05    0.08 
  10   4   1   -0.06    0.11 
  11   4   1    0.20    0.14 
  11   4   1    0.18    0.15 
  12   4   1   -0.05    0.12 
  -8   5   1    0.09    0.20 
  -7   5   1    0.07    0.16 
  -6   5   1    0.15    0.14 
  -5   5   1    0.99    0.20 
  -4   5   1    0.80    0.18 
  -3   5   1    0.02    0.11 
  -2   5   1    7.35    0.35 
  -1   5   1    7.89    0.35 
  -1   5   1    7.39    0.37 
   0   5   1    1.02    0.15 
   0   5   1    1.56    0.14 
   1   5   1    2.22    0.13 
   1   5   1    2.40    0.18 
   2   5   1   98.85    2.86 
   2   5   1   99.68    2.57 
   3   5   1    5.13    0.29 
   3   5   1    5.21    0.23 
   4   5   1    6.76    0.36 
   4   5   1    6.26    0.28 
   5   5   1    9.73    0.40 
   5   5   1    9.40    0.47 
   6   5   1    8.61    0.41 
   6   5   1    8.76    0.46 
   7   5   1    0.11    0.10 
   7   5   1    0.14    0.08 
   8   5   1    0.22    0.09 
   8   5   1    0.18    0.12 
   9   5   1    2.18    0.32 
   9   5   1    2.56    0.29 
  10   5   1   -0.11    0.08 
  10   5   1    0.22    0.13 
  11   5   1    0.01    0.15 
  11   5   1   -0.05    0.10 
  12   5   1    0.09    0.15 
  12   5   1   -0.05    0.11 
  -7   6   1    0.09    0.20 
  -6   6   1   -0.05    0.16 
  -5   6   1    0.80    0.20 
  -4   6   1    6.58    0.40 
  -3   6   1    0.39    0.16 
  -2   6   1   19.20    0.69 
  -2   6   1   18.25    0.74 
  -1   6   1   44.84    1.30 
  -1   6   1   43.98    1.43 
   0   6   1    1.53    0.15 
   0   6   1    1.24    0.18 
   1   6   1    5.85    0.25 
   1   6   1    5.23    0.31 
   2   6   1   13.02    0.53 
   2   6   1   12.13    0.41 
   3   6   1    1.24    0.12 
   3   6   1    1.48    0.19 
   4   6   1   25.83    0.95 
   4   6   1   28.15    0.83 
   5   6   1    0.37    0.10 
   5   6   1    0.32    0.12 
   6   6   1    7.56    0.37 
   6   6   1    7.62    0.44 
   7   6   1    1.86    0.25 
   7   6   1    1.37    0.19 
   8   6   1    0.24    0.11 
   8   6   1    0.13    0.11 
   9   6   1    2.01    0.30 
   9   6   1    1.47    0.22 
  10   6   1    0.53    0.19 
  10   6   1    0.57    0.16 
  11   6   1    0.41    0.18 
  11   6   1    0.06    0.12 
  12   6   1    0.32    0.20 
  12   6   1    0.29    0.15 
  -6   7   1    0.13    0.22 
  -5   7   1    0.21    0.19 
  -4   7   1    0.46    0.19 
  -3   7   1    2.76    0.30 
  -3   7   1    1.97    0.26 
  -2   7   1   11.71    0.57 
  -2   7   1   11.99    0.53 
  -1   7   1   36.37    1.12 
  -1   7   1   35.93    1.25 
   0   7   1    2.58    0.21 
   0   7   1    2.62    0.27 
   1   7   1   21.54    0.84 
   1   7   1   22.70    0.69 
   2   7   1    9.10    0.46 
   2   7   1    9.35    0.36 
   3   7   1   17.38    0.70 
   3   7   1   17.31    0.57 
   4   7   1   13.76    0.49 
   4   7   1   12.87    0.60 
   5   7   1    4.49    0.26 
   5   7   1    4.08    0.34 
   6   7   1    2.79    0.30 
   6   7   1    2.31    0.23 
   7   7   1    1.51    0.23 
   7   7   1    1.56    0.21 
   8   7   1    1.84    0.28 
   8   7   1    1.87    0.23 
   9   7   1    2.53    0.29 
   9   7   1    3.28    0.38 
  10   7   1    0.04    0.10 
  10   7   1    0.01    0.12 
  11   7   1    0.20    0.13 
  11   7   1    0.34    0.17 
  12   7   1    0.73    0.22 
  12   7   1    0.84    0.22 
  -5   8   1    0.58    0.19 
  -4   8   1    0.22    0.13 
  -4   8   1    0.12    0.20 
  -3   8   1    0.09    0.16 
  -3   8   1   -0.02    0.10 
  -2   8   1    0.01    0.11 
  -2   8   1   -0.05    0.12 
  -1   8   1    1.96    0.22 
  -1   8   1    1.91    0.27 
   0   8   1    3.20    0.24 
   0   8   1    3.04    0.32 
   1   8   1    0.08    0.08 
   1   8   1    0.10    0.10 
   2   8   1    1.24    0.14 
   2   8   1    1.29    0.21 
   3   8   1    2.90    0.19 
   3   8   1    2.84    0.29 
   4   8   1    1.35    0.16 
   4   8   1    1.26    0.21 
   5   8   1    0.81    0.17 
   5   8   1    0.77    0.13 
   6   8   1    3.16    0.26 
   6   8   1    3.37    0.34 
   7   8   1    5.02    0.32 
   7   8   1    5.60    0.40 
   8   8   1    1.17    0.19 
   8   8   1    0.94    0.21 
   9   8   1    1.27    0.21 
   9   8   1    1.73    0.28 
  10   8   1    0.24    0.12 
  10   8   1    0.27    0.15 
  11   8   1    1.29    0.25 
  11   8   1    1.28    0.27 
  12   8   1    0.03    0.13 
  12   8   1    0.14    0.18 
  -4   9   1    0.09    0.14 
  -3   9   1    0.16    0.14 
  -2   9   1    0.89    0.22 
  -1   9   1    0.58    0.18 
   0   9   1    1.60    0.18 
   0   9   1    1.52    0.25 
   1   9   1   15.76    0.57 
   1   9   1   15.11    0.71 
   2   9   1    1.73    0.26 
   2   9   1    1.53    0.17 
   3   9   1    0.02    0.07 
   3   9   1    0.13    0.10 
   4   9   1    0.09    0.08 
   4   9   1    0.07    0.09 
   5   9   1    4.62    0.36 
   5   9   1    4.67    0.28 
   6   9   1    4.58    0.40 
   6   9   1    3.97    0.27 
   7   9   1    0.72    0.15 
   7   9   1    0.78    0.20 
   8   9   1    0.19    0.10 
   8   9   1    0.24    0.13 
   9   9   1   -0.07    0.08 
   9   9   1    0.14    0.13 
  10   9   1    0.90    0.19 
  10   9   1    1.72    0.30 
  11   9   1    0.66    0.18 
  11   9   1    0.13    0.17 
  -3  10   1   -0.14    0.13 
  -2  10   1    0.05    0.14 
  -1  10   1    0.58    0.20 
   0  10   1    1.14    0.25 
   1  10   1    2.52    0.33 
   2  10   1    1.26    0.24 
   3  10   1    0.02    0.11 
   4  10   1    2.06    0.29 
   5  10   1    2.37    0.31 
   6  10   1    1.11    0.18 
   6  10   1    1.23    0.23 
   7  10   1    0.09    0.12 
   7  10   1    0.03    0.08 
   8  10   1    4.69    0.33 
   8  10   1    4.49    0.46 
   9  10   1    0.19    0.11 
   9  10   1    0.11    0.13 
  10  10   1    0.43    0.19 
  10  10   1    0.02    0.12 
  11  10   1   -0.15    0.11 
  -2  11   1    0.06    0.16 
  -1  11   1    0.10    0.16 
   0  11   1   -0.26    0.10 
   1  11   1    1.33    0.26 
   2  11   1    1.26    0.27 
   3  11   1    0.13    0.13 
   4  11   1    0.38    0.16 
   5  11   1   -0.24    0.08 
   6  11   1    0.15    0.12 
   7  11   1    0.41    0.16 
   8  11   1    0.05    0.12 
   9  11   1   -0.04    0.12 
  10  11   1    0.30    0.18 
   0  12   1    0.11    0.16 
   1  12   1   -0.14    0.14 
   2  12   1    0.03    0.13 
   3  12   1    0.21    0.14 
   4  12   1    0.55    0.19 
   5  12   1    0.44    0.19 
   6  12   1    0.48    0.17 
   7  12   1    0.26    0.16 
   8  12   1   -0.03    0.14 
   9  12   1    0.55    0.22 
   2  13   1    0.21    0.20 
   3  13   1   -0.01    0.16 
   4  13   1   -0.07    0.15 
   5  13   1    0.15    0.19 
   6  13   1   -0.12    0.12 
   7  13   1   -0.05    0.13 
   8  13   1    0.47    0.20 
   4  12  -2    0.00    0.13 
   3  12  -2    1.27    0.26 
   2  12  -2    0.19    0.18 
   1  12  -2    0.07    0.15 
  10  11  -2    0.30    0.15 
   9  11  -2    0.18    0.13 
   8  11  -2    0.03    0.12 
   7  11  -2    0.22    0.13 
   6  11  -2    0.16    0.11 
   5  11  -2    0.41    0.13 
   5  11  -2    0.15    0.14 
   4  11  -2    1.41    0.21 
   4  11  -2    0.98    0.22 
   3  11  -2    0.24    0.15 
   3  11  -2    0.25    0.11 
   2  11  -2    0.30    0.16 
   2  11  -2    0.64    0.15 
   1  11  -2    1.23    0.24 
   0  11  -2    0.16    0.15 
  -1  11  -2    0.18    0.17 
  10  10  -2    0.13    0.14 
   9  10  -2    0.49    0.17 
   8  10  -2    0.52    0.15 
   7  10  -2    0.05    0.09 
   6  10  -2    1.08    0.21 
   6  10  -2    1.02    0.19 
   5  10  -2    1.42    0.24 
   5  10  -2    1.11    0.18 
   4  10  -2    1.40    0.20 
   4  10  -2    1.39    0.24 
   3  10  -2    0.05    0.07 
   3  10  -2    0.05    0.11 
   2  10  -2    1.31    0.19 
   2  10  -2    1.17    0.22 
   1  10  -2    0.06    0.11 
   1  10  -2    0.36    0.11 
   0  10  -2    0.10    0.13 
   0  10  -2    0.12    0.09 
  -1  10  -2    0.07    0.10 
  -1  10  -2    0.08    0.12 
  -2  10  -2    0.18    0.15 
  -2  10  -2    0.33    0.18 
  11   9  -2   -0.02    0.13 
  10   9  -2   -0.04    0.10 
   9   9  -2    0.08    0.11 
   8   9  -2   -0.12    0.09 
   7   9  -2    1.37    0.22 
   7   9  -2    1.11    0.21 
   6   9  -2    0.20    0.10 
   6   9  -2    0.09    0.09 
   5   9  -2    0.13    0.11 
   5   9  -2    0.25    0.09 
   4   9  -2   -0.03    0.06 
   4   9  -2   -0.09    0.08 
   3   9  -2    0.58    0.16 
   3   9  -2    0.43    0.12 
   2   9  -2    0.11    0.08 
   2   9  -2    0.15    0.11 
   1   9  -2    0.16    0.08 
   1   9  -2    0.24    0.13 
   0   9  -2    0.06    0.12 
   0   9  -2    0.07    0.08 
  -1   9  -2    0.85    0.17 
  -1   9  -2    1.04    0.22 
  -2   9  -2    1.45    0.27 
  -2   9  -2    1.68    0.25 
  -3   9  -2    1.54    0.28 
  -3   9  -2    1.34    0.27 
  -4   9  -2    0.13    0.20 
  -4   9  -2   -0.11    0.14 
  11   8  -2    0.25    0.14 
  10   8  -2    0.30    0.15 
   9   8  -2    1.80    0.26 
   8   8  -2    0.36    0.13 
   7   8  -2    0.19    0.10 
   7   8  -2    0.05    0.08 
   6   8  -2    0.21    0.09 
   6   8  -2    0.19    0.09 
   5   8  -2    1.35    0.20 
   5   8  -2    1.17    0.17 
   4   8  -2    0.80    0.14 
   4   8  -2    0.65    0.15 
   3   8  -2    0.51    0.11 
   3   8  -2    0.51    0.14 
   2   8  -2   -0.04    0.07 
   2   8  -2    0.04    0.07 
   1   8  -2    0.17    0.11 
   1   8  -2    0.49    0.12 
   0   8  -2    0.52    0.13 
   0   8  -2    0.40    0.13 
  -1   8  -2    0.25    0.13 
  -1   8  -2    0.08    0.10 
  -2   8  -2    2.31    0.29 
  -2   8  -2    2.66    0.31 
  -3   8  -2   -0.07    0.16 
  -3   8  -2    0.05    0.10 
  -4   8  -2   -0.09    0.18 
  -5   8  -2    0.27    0.25 
  11   7  -2    0.60    0.17 
  10   7  -2    1.24    0.23 
   9   7  -2    1.00    0.21 
   8   7  -2    1.27    0.22 
   8   7  -2    0.91    0.18 
   7   7  -2    5.21    0.34 
   7   7  -2    3.34    0.31 
   6   7  -2    0.14    0.08 
   6   7  -2   -0.06    0.07 
   5   7  -2    0.37    0.11 
   5   7  -2    0.14    0.08 
   4   7  -2    0.41    0.12 
   4   7  -2    0.38    0.09 
   3   7  -2    0.00    0.07 
   3   7  -2    0.05    0.08 
   2   7  -2    7.22    0.34 
   2   7  -2    6.69    0.37 
   1   7  -2    6.23    0.33 
   1   7  -2    7.77    0.39 
   0   7  -2   17.45    0.65 
   0   7  -2   16.92    0.69 
  -1   7  -2    2.32    0.25 
  -1   7  -2    1.94    0.24 
  -2   7  -2    1.61    0.25 
  -3   7  -2    1.04    0.23 
  -4   7  -2    1.41    0.30 
  -5   7  -2    0.85    0.28 
  -6   7  -2    0.10    0.24 
  12   6  -2    0.09    0.16 
  11   6  -2    0.12    0.14 
  10   6  -2    0.49    0.16 
   9   6  -2   -0.02    0.09 
   9   6  -2    0.14    0.10 
   8   6  -2    2.83    0.31 
   7   6  -2    0.80    0.17 
   7   6  -2    1.29    0.20 
   6   6  -2    9.46    0.46 
   6   6  -2    9.28    0.46 
   5   6  -2   14.41    0.57 
   5   6  -2   13.67    0.57 
   4   6  -2   -0.04    0.05 
   4   6  -2    0.05    0.07 
   3   6  -2   20.49    0.69 
   3   6  -2   20.41    0.74 
   2   6  -2    5.19    0.27 
   2   6  -2    5.32    0.30 
   1   6  -2    8.27    0.39 
   1   6  -2    8.33    0.36 
   0   6  -2    0.66    0.13 
   0   6  -2    0.72    0.14 
  -1   6  -2    5.98    0.36 
  -2   6  -2    3.19    0.31 
  -3   6  -2    2.26    0.29 
  -4   6  -2    2.45    0.33 
  -5   6  -2    1.61    0.31 
  -6   6  -2    0.53    0.26 
  -7   6  -2    0.71    0.30 
  12   5  -2   -0.04    0.12 
  11   5  -2    0.12    0.13 
  10   5  -2    0.18    0.14 
   9   5  -2    0.37    0.13 
   9   5  -2    0.66    0.17 
   8   5  -2    1.33    0.21 
   7   5  -2    2.33    0.26 
   7   5  -2    2.77    0.29 
   6   5  -2    0.20    0.11 
   6   5  -2    0.21    0.10 
   5   5  -2    8.00    0.38 
   5   5  -2    7.39    0.37 
   4   5  -2    4.98    0.27 
   4   5  -2    5.16    0.28 
   2   5  -2    1.04    0.13 
   2   5  -2    0.88    0.12 
   1   5  -2    0.14    0.07 
   1   5  -2    0.06    0.07 
   0   5  -2    1.06    0.15 
   0   5  -2    1.02    0.14 
  -1   5  -2   40.77    1.24 
  -2   5  -2    4.19    0.33 
  -3   5  -2    0.03    0.16 
  -4   5  -2    0.99    0.22 
  -5   5  -2    0.03    0.16 
  -6   5  -2    4.12    0.41 
  -7   5  -2    0.95    0.27 
  -8   5  -2    0.60    0.28 
  12   4  -2   -0.13    0.11 
  11   4  -2   -0.10    0.10 
  10   4  -2    0.66    0.19 
   9   4  -2    4.80    0.42 
   9   4  -2    4.63    0.36 
   8   4  -2    5.96    0.40 
   8   4  -2    6.07    0.39 
   7   4  -2    0.16    0.09 
   7   4  -2    0.10    0.09 
   6   4  -2    1.06    0.17 
   6   4  -2    1.21    0.19 
   5   4  -2   35.74    1.11 
   5   4  -2   34.53    1.13 
   4   4  -2    6.79    0.31 
   4   4  -2    6.48    0.32 
   3   4  -2   13.89    0.49 
   3   4  -2   13.32    0.49 
   2   4  -2    6.14    0.27 
   1   4  -2   14.54    0.48 
   1   4  -2   14.81    0.51 
   0   4  -2    3.27    0.21 
  -1   4  -2   15.60    0.57 
  -2   4  -2   14.20    0.56 
  -3   4  -2    3.98    0.31 
  -4   4  -2    5.72    0.36 
  -5   4  -2    0.79    0.21 
  -6   4  -2    1.24    0.25 
  -7   4  -2   -0.08    0.18 
  -8   4  -2    0.56    0.26 
  11   3  -2    0.18    0.16 
  10   3  -2    1.32    0.25 
   9   3  -2    0.20    0.10 
   8   3  -2    3.28    0.33 
   8   3  -2    3.27    0.34 
   7   3  -2    7.64    0.42 
   7   3  -2    7.31    0.42 
   6   3  -2   16.20    0.64 
  -6  -3   2   15.47    0.53 
   5   3  -2    0.55    0.13 
   5   3  -2    0.43    0.11 
  -5  -3   2    0.38    0.08 
   4   3  -2    0.40    0.10 
   4   3  -2    0.42    0.09 
   3   3  -2    7.70    0.31 
   3   3  -2    7.71    0.32 
   2   3  -2   45.61    1.33 
   2   3  -2   45.93    1.26 
   1   3  -2   38.68    1.07 
   0   3  -2    1.19    0.12 
  -1   3  -2    0.77    0.15 
  -2   3  -2   98.62    2.65 
  -3   3  -2    8.35    0.39 
  -4   3  -2    0.10    0.13 
  -5   3  -2    0.26    0.15 
  -6   3  -2    1.97    0.28 
  -7   3  -2    0.28    0.19 
  -8   3  -2    0.23    0.21 
  -9   3  -2    0.10    0.23 
  11   2  -2    0.18    0.18 
  10   2  -2    0.09    0.13 
   9   2  -2    0.57    0.18 
   8   2  -2    4.66    0.40 
   7   2  -2    8.72    0.46 
   7   2  -2    8.26    0.46 
   6   2  -2    5.34    0.33 
   6   2  -2    5.33    0.33 
  -6  -2   2    5.81    0.25 
   5   2  -2    0.20    0.09 
   5   2  -2    0.08    0.06 
  -5  -2   2    0.15    0.06 
   4   2  -2    0.93    0.14 
   4   2  -2    1.01    0.13 
  -4  -2   2    1.01    0.11 
   3   2  -2   18.17    0.58 
   3   2  -2   18.15    0.59 
  -3  -2   2   17.69    0.58 
   2   2  -2   22.40    0.68 
   2   2  -2   23.99    0.68 
  -2  -2   2   22.35    0.72 
   1   2  -2  390.46    9.96 
   1   2  -2  402.74   10.76 
   0   2  -2  197.58    5.02 
  -1   2  -2   96.41    2.54 
  -2   2  -2  126.73    3.31 
  -3   2  -2   11.42    0.45 
  -4   2  -2    2.33    0.23 
  -5   2  -2   10.71    0.50 
  -6   2  -2    0.21    0.15 
  -7   2  -2    1.84    0.28 
  -8   2  -2    0.01    0.17 
  -9   2  -2    0.02    0.19 
 -10   2  -2   -0.20    0.20 
  11   1  -2    0.16    0.18 
  10   1  -2    0.89    0.24 
   9   1  -2    0.13    0.15 
   8   1  -2    1.06    0.20 
   7   1  -2    5.11    0.35 
   6   1  -2    0.40    0.12 
  -6  -1   2    0.26    0.08 
   5   1  -2    1.28    0.18 
  -5  -1   2    1.36    0.13 
   4   1  -2   23.62    0.77 
  -4  -1   2   23.58    0.74 
   3   1  -2   49.17    1.37 
   3   1  -2   48.40    1.43 
  -3  -1   2   49.91    1.40 
   2   1  -2   76.71    2.13 
   2   1  -2   74.47    2.01 
  -2  -1   2   78.66    2.13 
   1   1  -2  646.38   16.35 
   1   1  -2  666.55   18.24 
  -1  -1   2  648.20   17.25 
   0   1  -2   32.63    0.87 
   0  -1   2   31.40    0.94 
  -1   1  -2   55.13    1.47 
  -2   1  -2   47.65    1.31 
  -3   1  -2    0.78    0.14 
  -4   1  -2    1.68    0.19 
  -5   1  -2    0.55    0.15 
  -6   1  -2   18.73    0.75 
  -7   1  -2    0.19    0.16 
  -8   1  -2    0.35    0.19 
  -9   1  -2    1.65    0.31 
 -10   1  -2   -0.11    0.22 
 -11   0   2    0.35    0.22 
  10   0  -2    1.34    0.28 
   9   0  -2   -0.02    0.14 
   8   0  -2    0.07    0.12 
   7   0  -2    1.63    0.24 
   6   0  -2   30.23    1.02 
  -6   0   2   30.36    0.98 
   5   0  -2   18.11    0.66 
  -5   0   2   17.55    0.62 
   4   0  -2    2.89    0.21 
  -4   0   2    3.07    0.18 
   3   0  -2    0.65    0.11 
  -3   0   2    0.56    0.09 
   2   0  -2   98.72    2.59 
  -2   0   2  100.43    2.72 
   1   0  -2   12.46    0.38 
  -1   0   2   12.73    0.42 
   0   0  -2   57.32    1.50 
   0   0   2   58.75    1.63 
   0   0   2   59.32    1.62 
  -1   0  -2   12.03    0.37 
   1   0   2   12.15    0.39 
   1   0   2   11.73    0.41 
  -2   0  -2   88.53    2.28 
   2   0   2   86.67    2.50 
  -3   0  -2    0.17    0.09 
   3   0   2    0.11    0.08 
  -4   0  -2   98.89    2.69 
   4   0   2  101.24    2.95 
  -5   0  -2    1.56    0.20 
   5   0   2    1.70    0.23 
  -6   0  -2    6.67    0.39 
  -7   0  -2   23.54    0.90 
  -8   0  -2    0.54    0.19 
  -9   0  -2    1.50    0.29 
 -10   0  -2   -0.18    0.18 
 -11   0  -2    0.21    0.22 
 -10   1   2   -0.24    0.15 
  -9   1   2   -0.03    0.14 
   8  -1  -2    0.97    0.22 
   7  -1  -2   -0.10    0.10 
   6  -1  -2   44.42    1.41 
   5  -1  -2    7.25    0.38 
   4  -1  -2    0.01    0.08 
   3  -1  -2    7.24    0.32 
   2  -1  -2   64.11    1.72 
   0  -1  -2  189.63    4.75 
   0   1   2  184.87    5.11 
  -1  -1  -2   33.16    0.87 
   1   1   2   32.97    0.98 
  -2  -1  -2   52.49    1.44 
   2   1   2   56.84    1.50 
   2   1   2   54.02    1.60 
  -3  -1  -2  207.26    5.35 
   3   1   2  209.30    5.83 
   3   1   2  212.90    5.36 
   4   1   2   16.49    0.57 
   4   1   2   16.80    0.66 
   5   1   2   28.46    1.05 
   5   1   2   29.20    0.93 
  -6  -1  -2    9.34    0.45 
   6   1   2    7.76    0.47 
  -7  -1  -2    3.74    0.34 
   7   1   2    4.42    0.41 
  -8  -1  -2    4.34    0.38 
  -9  -1  -2    0.34    0.18 
 -10  -1  -2    0.21    0.19 
 -11  -1  -2    0.16    0.23 
 -10   2   2    0.05    0.21 
  -9   2   2    2.15    0.33 
  -8   2   2    2.15    0.30 
  -7   2   2    0.72    0.18 
   6  -2  -2    0.18    0.13 
  -6   2   2    0.43    0.14 
   5  -2  -2   -0.06    0.10 
   4  -2  -2    5.21    0.30 
   3  -2  -2   13.61    0.50 
   2  -2  -2   66.13    1.77 
   1  -2  -2    0.20    0.05 
   0   2   2   34.68    0.89 
   0   2   2   33.64    1.00 
  -1  -2  -2  555.82   13.78 
   1   2   2  516.50   13.78 
   1   2   2  534.20   14.53 
   2   2   2    7.85    0.33 
   2   2   2    8.57    0.27 
   3   2   2    9.88    0.42 
   3   2   2   10.41    0.31 
   3   2   2   10.18    0.35 
   4   2   2    7.11    0.31 
   4   2   2    6.95    0.37 
   5   2   2   36.71    1.11 
   5   2   2   36.19    1.25 
   6   2   2    0.66    0.14 
   6   2   2    0.79    0.17 
   7   2   2    5.79    0.35 
   7   2   2    5.71    0.40 
   8   2   2    0.22    0.11 
   8   2   2    0.59    0.18 
  -9  -2  -2    2.57    0.34 
   9   2   2    3.19    0.39 
 -10  -2  -2    0.06    0.17 
 -11  -2  -2    0.19    0.21 
  -9   3   2    0.97    0.26 
  -8   3   2    1.77    0.30 
  -7   3   2    0.01    0.13 
  -6   3   2    0.19    0.13 
  -5   3   2    0.08    0.13 
  -4   3   2    3.74    0.26 
  -3   3   2    3.16    0.22 
  -2   3   2    0.71    0.12 
  -1   3   2    7.88    0.32 
  -1   3   2    8.12    0.28 
   0   3   2    5.89    0.20 
   0   3   2    5.75    0.25 
   1   3   2   33.05    1.01 
   1   3   2   33.28    0.86 
   2   3   2   80.03    2.05 
   2   3   2   79.41    2.29 
   3   3   2    0.03    0.04 
   3   3   2    0.02    0.06 
   4   3   2    2.81    0.17 
   4   3   2    2.69    0.24 
   5   3   2    1.14    0.19 
   5   3   2    1.16    0.15 
   6   3   2   -0.01    0.07 
   6   3   2   -0.06    0.09 
   7   3   2    1.08    0.20 
   7   3   2    1.06    0.17 
   8   3   2    5.90    0.44 
   8   3   2    6.01    0.38 
   9   3   2    0.10    0.12 
   9   3   2    0.06    0.09 
  10   3   2    1.05    0.25 
  10   3   2    0.34    0.14 
 -11  -3  -2    0.17    0.21 
 -12  -3  -2    0.25    0.21 
  -9   4   2    0.07    0.20 
  -8   4   2    0.50    0.22 
  -7   4   2    0.39    0.18 
  -6   4   2    1.97    0.27 
  -5   4   2    0.11    0.12 
  -4   4   2    0.44    0.15 
  -3   4   2    1.74    0.19 
  -2   4   2   24.31    0.75 
  -1   4   2    9.02    0.38 
  -1   4   2    9.10    0.33 
   0   4   2   28.97    0.80 
   0   4   2   28.03    0.91 
   1   4   2   35.14    0.92 
   1   4   2   34.79    1.09 
   2   4   2   17.42    0.50 
   2   4   2   18.01    0.63 
   3   4   2    6.44    0.25 
   3   4   2    6.32    0.32 
   4   4   2    0.25    0.07 
   4   4   2    0.32    0.11 
   5   4   2    2.20    0.19 
   5   4   2    2.73    0.27 
   6   4   2    0.97    0.15 
   6   4   2    1.16    0.21 
   7   4   2    0.22    0.08 
   7   4   2    0.16    0.11 
   8   4   2    0.66    0.14 
   8   4   2    0.93    0.21 
   9   4   2   -0.07    0.10 
   9   4   2    0.01    0.09 
  10   4   2    0.19    0.14 
  10   4   2    0.13    0.10 
  11   4   2   -0.03    0.11 
  11   4   2    0.13    0.16 
 -12  -4  -2   -0.08    0.20 
  -8   5   2    0.57    0.25 
  -7   5   2    0.68    0.22 
  -6   5   2    0.17    0.14 
  -5   5   2    2.19    0.26 
  -4   5   2    1.87    0.22 
  -3   5   2    1.06    0.17 
  -2   5   2    3.89    0.24 
  -1   5   2    9.76    0.43 
  -1   5   2    9.62    0.37 
   0   5   2    7.39    0.35 
   0   5   2    7.30    0.29 
   1   5   2   14.30    0.55 
   1   5   2   14.25    0.42 
   2   5   2    2.87    0.13 
   2   5   2    2.92    0.21 
   3   5   2    6.50    0.25 
   3   5   2    6.32    0.34 
   4   5   2    8.06    0.41 
   4   5   2    7.65    0.31 
   5   5   2    3.94    0.29 
   5   5   2    3.99    0.23 
   6   5   2    2.14    0.27 
   6   5   2    1.51    0.19 
   7   5   2    0.31    0.13 
   7   5   2    0.20    0.08 
   8   5   2    6.46    0.38 
   8   5   2    7.81    0.49 
   9   5   2    0.88    0.22 
   9   5   2    0.99    0.18 
  10   5   2    0.12    0.14 
  10   5   2    0.24    0.12 
  11   5   2    0.77    0.22 
  11   5   2    0.62    0.18 
  12   5   2    0.44    0.20 
  12   5   2    0.05    0.14 
  -7   6   2    0.03    0.19 
  -6   6   2    0.46    0.20 
  -5   6   2    1.72    0.25 
  -4   6   2    0.19    0.13 
  -3   6   2   -0.08    0.12 
  -2   6   2    1.98    0.23 
  -2   6   2    2.12    0.21 
  -1   6   2    1.46    0.18 
  -1   6   2    1.66    0.20 
   0   6   2   17.20    0.67 
   0   6   2   16.82    0.56 
   1   6   2   17.72    0.69 
   1   6   2   18.01    0.54 
   2   6   2    3.12    0.23 
   2   6   2    2.42    0.14 
   3   6   2   10.17    0.48 
   3   6   2   10.07    0.35 
   4   6   2    7.59    0.32 
   4   6   2    8.83    0.43 
   5   6   2    4.17    0.24 
   5   6   2    4.23    0.32 
   6   6   2    3.41    0.32 
   6   6   2    3.80    0.25 
   7   6   2    0.37    0.11 
   7   6   2    0.46    0.14 
   8   6   2    5.38    0.40 
   8   6   2    5.78    0.34 
   9   6   2    0.69    0.17 
   9   6   2    1.20    0.25 
  10   6   2    0.93    0.23 
  10   6   2    1.10    0.20 
  11   6   2    1.22    0.24 
  11   6   2    0.86    0.25 
  12   6   2    0.25    0.17 
  12   6   2    0.31    0.16 
  -6   7   2    0.86    0.27 
  -5   7   2    0.94    0.24 
  -4   7   2   -0.02    0.08 
  -4   7   2   -0.26    0.13 
  -3   7   2    2.48    0.27 
  -3   7   2    3.03    0.31 
  -2   7   2    4.12    0.31 
  -2   7   2    4.43    0.32 
  -1   7   2   14.39    0.64 
  -1   7   2   13.76    0.54 
   0   7   2   15.22    0.53 
   0   7   2   15.14    0.66 
   1   7   2    4.72    0.22 
   1   7   2    4.64    0.31 
   2   7   2    1.79    0.13 
   2   7   2    1.36    0.20 
   3   7   2    6.67    0.27 
   3   7   2    6.45    0.38 
   4   7   2    2.43    0.17 
   4   7   2    2.59    0.28 
   5   7   2    3.38    0.21 
   5   7   2    2.75    0.29 
   6   7   2    0.57    0.15 
   6   7   2    0.59    0.13 
   7   7   2    0.81    0.18 
   7   7   2    0.68    0.14 
   8   7   2    0.00    0.07 
   8   7   2    0.04    0.10 
   9   7   2    0.73    0.17 
   9   7   2    1.13    0.24 
  10   7   2    0.87    0.22 
  10   7   2    0.62    0.16 
  11   7   2    0.63    0.22 
  11   7   2    0.42    0.15 
  12   7   2   -0.06    0.10 
  12   7   2    0.27    0.18 
  -5   8   2    0.59    0.19 
  -4   8   2    0.86    0.20 
  -3   8   2    0.29    0.13 
  -2   8   2    1.30    0.22 
  -2   8   2    1.30    0.22 
  -1   8   2    0.01    0.12 
  -1   8   2    0.13    0.12 
   0   8   2   22.02    0.72 
   0   8   2   21.85    0.89 
   1   8   2    0.78    0.12 
   1   8   2    0.94    0.18 
   2   8   2    2.20    0.16 
   2   8   2    2.14    0.27 
   3   8   2    0.23    0.11 
   3   8   2    0.16    0.07 
   4   8   2   10.93    0.57 
   4   8   2   12.48    0.45 
   5   8   2    4.53    0.34 
   5   8   2    5.20    0.27 
   6   8   2    0.93    0.16 
   6   8   2    1.22    0.22 
   7   8   2    0.29    0.10 
   7   8   2    0.42    0.15 
   8   8   2    3.82    0.41 
   8   8   2    3.66    0.31 
   9   8   2    0.50    0.14 
   9   8   2    0.29    0.16 
  10   8   2    0.67    0.16 
  10   8   2    0.77    0.23 
  11   8   2    0.04    0.14 
  11   8   2    0.13    0.12 
  12   8   2   -0.11    0.11 
  12   8   2    0.11    0.17 
  -4   9   2    0.09    0.13 
  -3   9   2    0.13    0.13 
  -2   9   2    0.08    0.12 
  -1   9   2    0.56    0.17 
   0   9   2    0.50    0.17 
   1   9   2    9.67    0.55 
   2   9   2    6.08    0.41 
   3   9   2    4.18    0.38 
   4   9   2    0.49    0.11 
   4   9   2    0.42    0.14 
   5   9   2    0.97    0.20 
   5   9   2    0.70    0.13 
   6   9   2    0.24    0.12 
   6   9   2    0.33    0.10 
   7   9   2    9.62    0.57 
   7   9   2    9.55    0.45 
   8   9   2    0.11    0.13 
   8   9   2   -0.01    0.08 
   9   9   2    0.26    0.15 
   9   9   2    0.28    0.12 
  10   9   2    0.04    0.10 
  10   9   2    0.11    0.14 
  11   9   2    0.19    0.14 
  11   9   2    0.07    0.16 
  -3  10   2    1.50    0.29 
  -2  10   2    0.10    0.15 
  -1  10   2   -0.01    0.12 
   0  10   2    1.36    0.25 
   1  10   2    7.00    0.48 
   2  10   2    0.35    0.15 
   3  10   2    2.17    0.31 
   4  10   2    0.06    0.12 
   5  10   2    0.02    0.10 
   6  10   2    0.02    0.10 
   7  10   2    3.85    0.42 
   8  10   2    0.46    0.17 
   9  10   2    0.28    0.16 
  10  10   2    0.44    0.19 
  11  10   2    0.03    0.17 
  -2  11   2   -0.10    0.14 
  -1  11   2    1.12    0.28 
   0  11   2    0.64    0.21 
   1  11   2    0.49    0.18 
   2  11   2    2.54    0.36 
   3  11   2    0.23    0.14 
   4  11   2    0.40    0.17 
   5  11   2    0.41    0.16 
   6  11   2   -0.01    0.10 
   7  11   2   -0.17    0.10 
   8  11   2    2.15    0.34 
   9  11   2    0.02    0.14 
  10  11   2    0.05    0.15 
   0  12   2    0.48    0.22 
   1  12   2    0.36    0.19 
   2  12   2    1.06    0.26 
   3  12   2    0.08    0.13 
   4  12   2    0.21    0.15 
   5  12   2    0.96    0.24 
   6  12   2    0.07    0.12 
   7  12   2    0.69    0.21 
   8  12   2    1.56    0.31 
   9  12   2    0.44    0.21 
  10  12   2    0.41    0.21 
   2  13   2    0.34    0.21 
   3  13   2    0.10    0.17 
   4  13   2   -0.10    0.14 
   5  13   2    0.18    0.16 
   6  13   2   -0.01    0.15 
   7  13   2    0.63    0.23 
   8  13   2    0.38    0.21 
   7  12  -3   -0.01    0.16 
   6  12  -3    0.23    0.13 
   2  12  -3    1.23    0.29 
   9  11  -3    0.08    0.15 
   8  11  -3    1.65    0.28 
   7  11  -3    1.15    0.24 
   6  11  -3    0.07    0.10 
   5  11  -3    0.02    0.09 
   4  11  -3    0.13    0.10 
   3  11  -3    0.97    0.19 
   3  11  -3    1.10    0.24 
   2  11  -3    0.14    0.11 
   2  11  -3   -0.01    0.12 
   1  11  -3    0.60    0.20 
   1  11  -3    0.28    0.13 
   0  11  -3    0.24    0.13 
   0  11  -3   -0.01    0.14 
  10  10  -3   -0.15    0.12 
   9  10  -3   -0.01    0.13 
   8  10  -3    0.06    0.10 
   7  10  -3    1.02    0.20 
   6  10  -3    0.72    0.16 
   5  10  -3    0.02    0.08 
   4  10  -3    0.39    0.14 
   4  10  -3    0.09    0.08 
   3  10  -3    0.51    0.17 
   3  10  -3    0.45    0.12 
   2  10  -3    1.31    0.24 
   2  10  -3    1.16    0.19 
   1  10  -3    0.50    0.13 
   1  10  -3    0.29    0.14 
   0  10  -3    0.35    0.12 
   0  10  -3    0.31    0.16 
  -1  10  -3   -0.05    0.13 
  -1  10  -3    0.03    0.11 
  -2  10  -3    0.13    0.14 
  -2  10  -3    0.10    0.16 
  11   9  -3    0.23    0.15 
  10   9  -3   -0.04    0.13 
   9   9  -3    0.05    0.12 
   8   9  -3    0.61    0.16 
   7   9  -3    0.24    0.11 
   6   9  -3    1.76    0.25 
   5   9  -3    0.09    0.08 
   5   9  -3   -0.09    0.06 
   4   9  -3    3.06    0.28 
   4   9  -3    2.75    0.29 
   3   9  -3    0.09    0.07 
   3   9  -3    0.23    0.11 
   2   9  -3    1.33    0.22 
   2   9  -3    1.67    0.21 
   1   9  -3    0.49    0.15 
   1   9  -3    0.38    0.11 
   0   9  -3    0.27    0.10 
   0   9  -3    0.10    0.12 
  -1   9  -3    0.16    0.11 
  -1   9  -3    0.17    0.14 
  -2   9  -3    0.38    0.16 
  -2   9  -3    0.63    0.18 
  -3   9  -3    0.37    0.17 
  -3   9  -3    0.59    0.22 
  -4   9  -3    0.58    0.24 
  -4   9  -3    0.32    0.19 
  11   8  -3    0.22    0.13 
  10   8  -3    0.00    0.13 
   9   8  -3    1.04    0.23 
   8   8  -3    0.02    0.08 
   7   8  -3    4.14    0.36 
   6   8  -3    1.73    0.24 
   6   8  -3    1.63    0.23 
   5   8  -3    1.16    0.18 
   5   8  -3    1.25    0.20 
   4   8  -3   -0.06    0.05 
   4   8  -3   -0.02    0.06 
   3   8  -3    0.46    0.13 
   3   8  -3    0.46    0.11 
   2   8  -3   13.01    0.58 
   2   8  -3   12.24    0.53 
   1   8  -3    0.00    0.06 
   1   8  -3    0.07    0.10 
   0   8  -3    5.25    0.33 
   0   8  -3    5.18    0.36 
  -1   8  -3    0.80    0.17 
  -1   8  -3    0.97    0.19 
  -2   8  -3    0.17    0.15 
  -2   8  -3    0.07    0.12 
  -3   8  -3    1.08    0.23 
  -3   8  -3    1.47    0.28 
  -4   8  -3    0.02    0.20 
  -5   8  -3    0.32    0.24 
  11   7  -3   -0.13    0.13 
  10   7  -3    0.21    0.14 
   9   7  -3    0.13    0.12 
   8   7  -3    4.33    0.39 
   7   7  -3    5.08    0.35 
   6   7  -3    0.66    0.16 
   6   7  -3    0.72    0.16 
   5   7  -3   16.79    0.66 
   5   7  -3   16.83    0.67 
   4   7  -3    0.20    0.10 
   4   7  -3    0.14    0.08 
   3   7  -3    7.10    0.35 
   3   7  -3    7.35    0.38 
   2   7  -3    6.22    0.32 
   2   7  -3    6.49    0.36 
   1   7  -3    0.63    0.14 
   1   7  -3    0.16    0.09 
   0   7  -3   32.69    1.13 
  -1   7  -3    3.38    0.29 
  -1   7  -3    3.79    0.32 
  -2   7  -3    3.62    0.35 
  -3   7  -3    0.45    0.19 
  -4   7  -3    0.16    0.20 
  -5   7  -3    0.26    0.22 
  -6   7  -3   -0.27    0.23 
  11   6  -3    1.00    0.24 
  10   6  -3    0.10    0.12 
   9   6  -3    0.49    0.15 
   8   6  -3    2.89    0.32 
   7   6  -3    0.40    0.14 
   7   6  -3    0.39    0.14 
   6   6  -3    3.87    0.27 
   6   6  -3    3.62    0.31 
   5   6  -3   31.19    1.03 
   5   6  -3   31.12    1.05 
   4   6  -3    3.20    0.23 
   4   6  -3    2.94    0.22 
   3   6  -3    1.18    0.16 
   3   6  -3    0.98    0.15 
   2   6  -3    0.98    0.14 
   2   6  -3    1.00    0.15 
   1   6  -3    8.19    0.39 
   1   6  -3    8.87    0.39 
   0   6  -3    0.94    0.16 
   0   6  -3    1.14    0.17 
  -1   6  -3    3.77    0.30 
  -2   6  -3    0.42    0.17 
  -3   6  -3    0.11    0.16 
  -4   6  -3    1.21    0.27 
  -5   6  -3    0.09    0.19 
  -6   6  -3    0.58    0.29 
  -7   6  -3   -0.12    0.25 
  11   5  -3    0.66    0.21 
  10   5  -3    1.60    0.28 
   9   5  -3   -0.13    0.07 
   8   5  -3    1.37    0.22 
   7   5  -3    7.29    0.40 
   7   5  -3    7.19    0.42 
   6   5  -3    2.23    0.25 
   6   5  -3    2.68    0.24 
   5   5  -3   10.53    0.46 
   5   5  -3    9.78    0.43 
   4   5  -3    0.20    0.08 
   4   5  -3    0.37    0.10 
   3   5  -3    4.61    0.26 
   3   5  -3    4.84    0.25 
   2   5  -3    2.82    0.19 
   2   5  -3    3.06    0.20 
   1   5  -3    0.00    0.05 
   1   5  -3    0.03    0.07 
   0   5  -3    0.55    0.13 
   0   5  -3    0.43    0.10 
  -1   5  -3    4.15    0.29 
  -2   5  -3    2.55    0.28 
  -3   5  -3    0.17    0.18 
  -4   5  -3   -0.19    0.14 
  -5   5  -3    0.31    0.20 
  -6   5  -3    0.38    0.24 
  -7   5  -3    0.28    0.25 
  11   4  -3    1.01    0.25 
  10   4  -3    0.00    0.12 
   9   4  -3    0.88    0.20 
   8   4  -3    7.90    0.45 
   8   4  -3    8.30    0.48 
   7   4  -3   11.55    0.53 
   7   4  -3   11.67    0.56 
   6   4  -3    8.70    0.44 
   6   4  -3    8.40    0.41 
   5   4  -3    1.57    0.20 
   5   4  -3    1.67    0.17 
   4   4  -3    6.00    0.31 
   4   4  -3    5.62    0.28 
   3   4  -3   10.55    0.42 
   3   4  -3   10.82    0.40 
   2   4  -3    2.58    0.16 
   2   4  -3    2.32    0.16 
   0   4  -3    1.64    0.17 
  -1   4  -3    6.12    0.33 
  -2   4  -3   10.35    0.48 
  -3   4  -3    0.55    0.18 
  -4   4  -3    2.13    0.28 
  -5   4  -3    0.05    0.16 
  -6   4  -3    0.23    0.18 
  -7   4  -3   -0.13    0.19 
  -8   4  -3    0.03    0.24 
  11   3  -3    0.08    0.18 
  10   3  -3    0.12    0.15 
   9   3  -3    0.41    0.15 
   8   3  -3    0.49    0.17 
   7   3  -3    2.96    0.31 
   7   3  -3    3.26    0.29 
   6   3  -3    2.70    0.24 
   6   3  -3    1.91    0.23 
  -6  -3   3    2.32    0.19 
   5   3  -3    2.84    0.25 
   5   3  -3    3.13    0.21 
  -5  -3   3    2.81    0.19 
   4   3  -3   14.29    0.51 
   4   3  -3   14.90    0.55 
  -4  -3   3   14.26    0.54 
   3   3  -3    0.27    0.06 
   3   3  -3    0.23    0.07 
  -3  -3   3    0.30    0.09 
   2   3  -3   10.77    0.38 
   2   3  -3    9.87    0.35 
   1   3  -3   60.62    1.70 
   1   3  -3   59.66    1.62 
   0   3  -3   -0.02    0.06 
  -1   3  -3    2.75    0.23 
  -2   3  -3    0.03    0.12 
  -3   3  -3    0.43    0.15 
  -4   3  -3    4.81    0.34 
  -5   3  -3    7.63    0.45 
  -6   3  -3    0.11    0.16 
  -7   3  -3    0.35    0.20 
  -8   3  -3    0.25    0.21 
  -9   3  -3    0.24    0.25 
  11   2  -3    0.27    0.19 
  10   2  -3    1.11    0.25 
   9   2  -3    0.61    0.20 
   8   2  -3    1.90    0.27 
   7   2  -3    1.01    0.20 
   6   2  -3   11.27    0.52 
   6   2  -3   11.81    0.50 
  -6  -2   3   11.12    0.44 
   5   2  -3   15.00    0.59 
   5   2  -3   14.76    0.55 
  -5  -2   3   13.78    0.52 
   4   2  -3   38.01    1.15 
   4   2  -3   38.26    1.15 
  -4  -2   3   38.24    1.16 
   3   2  -3    5.81    0.23 
   3   2  -3    5.41    0.27 
  -3  -2   3    5.48    0.27 
   2   2  -3    1.71    0.14 
   2   2  -3    1.61    0.08 
  -2  -2   3    1.41    0.15 
   1   2  -3    0.10    0.05 
   1   2  -3    0.29    0.04 
  -1  -2   3    0.13    0.06 
   0   2  -3    1.72    0.13 
  -1   2  -3   32.25    0.96 
  -2   2  -3    0.10    0.11 
  -3   2  -3    8.89    0.40 
  -4   2  -3   29.01    0.95 
  -5   2  -3    4.83    0.33 
  -6   2  -3    0.22    0.16 
  -7   2  -3    0.84    0.22 
  -8   2  -3   -0.04    0.18 
  -9   2  -3    0.27    0.24 
  11   1  -3    0.78    0.26 
  10   1  -3    0.81    0.23 
   9   1  -3    0.70    0.20 
   8   1  -3    7.09    0.45 
   7   1  -3    0.84    0.18 
   6   1  -3    8.48    0.43 
  -6  -1   3    8.12    0.37 
   5   1  -3   10.87    0.48 
  -5  -1   3   10.76    0.43 
   4   1  -3   -0.05    0.06 
  -4  -1   3    0.08    0.06 
   3   1  -3   88.25    2.37 
  -3  -1   3   88.93    2.48 
   2   1  -3   27.63    0.82 
  -2  -1   3   28.72    0.89 
   1   1  -3    9.41    0.32 
  -1  -1   3    9.86    0.38 
   0   1  -3   75.04    1.94 
   0  -1   3   73.62    2.09 
  -1   1  -3   29.64    0.87 
  -2   1  -3    9.18    0.36 
  -3   1  -3   11.61    0.45 
  -4   1  -3    0.19    0.13 
  -5   1  -3    1.25    0.21 
  -6   1  -3    0.42    0.16 
  -7   1  -3    0.59    0.18 
  -8   1  -3    0.38    0.19 
  -9   1  -3   -0.03    0.19 
 -10   1  -3   -0.09    0.18 
  10   0  -3    0.16    0.17 
   9   0  -3    4.44    0.44 
   8   0  -3    3.32    0.35 
   7   0  -3   17.09    0.72 
   6   0  -3    0.89    0.18 
  -6   0   3    0.70    0.14 
   5   0  -3   16.27    0.64 
  -5   0   3   17.53    0.63 
   4   0  -3   11.89    0.48 
  -4   0   3   12.39    0.48 
   3   0  -3  125.35    3.32 
  -3   0   3  127.65    3.48 
   2   0  -3   11.33    0.39 
  -2   0   3   10.80    0.41 
   1   0  -3   21.76    0.62 
  -1   0   3   22.51    0.63 
  -1   0   3   20.99    0.69 
   0   0  -3   15.82    0.46 
   0   0   3   15.38    0.54 
   0   0   3   17.00    0.49 
  -1   0  -3  179.02    4.47 
   1   0   3  173.91    4.72 
   1   0   3  172.56    4.83 
  -2   0  -3    6.64    0.28 
   2   0   3    7.26    0.33 
  -3   0  -3    3.02    0.19 
   3   0   3    2.87    0.22 
  -4   0  -3   11.34    0.46 
   4   0   3   11.60    0.54 
  -5   0  -3    0.13    0.13 
   5   0   3    0.01    0.09 
  -6   0  -3    7.06    0.40 
  -7   0  -3    1.70    0.27 
  -8   0  -3    0.09    0.18 
  -9   0  -3    2.15    0.36 
 -10   0  -3   -0.24    0.19 
 -10   1   3    0.49    0.23 
   9  -1  -3    1.24    0.26 
   8  -1  -3    0.05    0.12 
   7  -1  -3    1.25    0.22 
   6  -1  -3    4.32    0.31 
   5  -1  -3    4.88    0.30 
   4  -1  -3   59.18    1.69 
   3  -1  -3    0.10    0.07 
   2  -1  -3   16.57    0.53 
   1  -1  -3    0.02    0.02 
  -1   1   3    0.12    0.03 
  -1   1   3    0.19    0.07 
   0  -1  -3  227.28    5.61 
   0   1   3  227.62    6.08 
   0   1   3  212.83    5.96 
   1   1   3  474.02   12.71 
   1   1   3  461.45   12.38 
  -2  -1  -3   83.00    2.15 
   2   1   3   83.03    2.38 
  -3  -1  -3   47.43    1.31 
   3   1   3   47.37    1.34 
   3   1   3   48.70    1.49 
  -4  -1  -3    2.14    0.19 
   4   1   3    2.27    0.24 
  -5  -1  -3    2.24    0.22 
   5   1   3    2.54    0.29 
  -6  -1  -3   -0.06    0.10 
   6   1   3   -0.11    0.07 
  -7  -1  -3    9.29    0.49 
   7   1   3    8.53    0.53 
  -8  -1  -3    0.66    0.21 
  -9  -1  -3    1.80    0.31 
 -10  -1  -3    1.15    0.28 
 -11  -1  -3    0.27    0.23 
 -10   2   3    1.49    0.31 
  -9   2   3    0.11    0.17 
  -8   2   3    0.80    0.21 
   7  -2  -3    3.85    0.37 
   6  -2  -3    8.73    0.47 
   5  -2  -3    2.68    0.26 
   4  -2  -3    5.66    0.31 
   3  -2  -3   18.83    0.63 
   2  -2  -3    1.45    0.13 
   1  -2  -3   17.01    0.50 
  -1   2   3   16.79    0.54 
   0  -2  -3   80.55    2.08 
   0   2   3   82.59    2.29 
  -1  -2  -3  679.65   17.34 
   1   2   3  696.28   18.65 
  -2  -2  -3   49.07    1.29 
   2   2   3   48.85    1.47 
  -3  -2  -3   30.56    0.90 
   3   2   3   32.86    0.92 
   3   2   3   31.77    1.04 
  -4  -2  -3    3.20    0.21 
   4   2   3    2.98    0.27 
   4   2   3    3.14    0.14 
  -5  -2  -3   59.65    1.71 
   5   2   3   61.16    1.92 
  -6  -2  -3    1.28    0.21 
   6   2   3    1.02    0.20 
  -7  -2  -3    3.89    0.34 
   7   2   3    4.69    0.43 
  -8  -2  -3    0.33    0.16 
   8   2   3    0.45    0.18 
  -9  -2  -3    0.18    0.18 
   9   2   3    0.08    0.12 
 -10  -2  -3    0.57    0.23 
 -11  -2  -3    0.26    0.25 
  -9   3   3   -0.11    0.20 
  -8   3   3    0.64    0.20 
  -7   3   3    1.35    0.23 
  -6   3   3    3.58    0.32 
  -5   3   3   -0.03    0.10 
   4  -3  -3    5.80    0.32 
   3  -3  -3    0.65    0.12 
   1  -3  -3    9.15    0.31 
  -1   3   3    9.30    0.36 
   0   3   3    0.07    0.05 
   0   3   3    0.13    0.04 
   1   3   3    5.55    0.26 
   2   3   3   37.67    1.00 
   2   3   3   38.50    1.18 
   3   3   3   29.76    0.83 
   3   3   3   28.93    0.98 
   4   3   3    2.39    0.12 
   4   3   3    2.23    0.16 
   4   3   3    2.29    0.23 
   5   3   3    0.79    0.13 
   5   3   3    0.80    0.16 
   6   3   3    0.63    0.13 
   6   3   3    1.02    0.20 
   7   3   3   -0.03    0.07 
   7   3   3   -0.18    0.07 
   8   3   3    4.22    0.44 
   8   3   3    4.50    0.32 
  -9  -3  -3    0.62    0.21 
   9   3   3    0.76    0.22 
 -10  -3  -3    0.80    0.23 
  10   3   3    1.09    0.25 
 -11  -3  -3    0.23    0.21 
  -9   4   3    0.18    0.21 
  -8   4   3    0.54    0.22 
  -7   4   3   -0.02    0.14 
  -6   4   3    1.93    0.27 
  -5   4   3    0.18    0.12 
  -4   4   3    5.02    0.32 
  -3   4   3    0.25    0.11 
  -2   4   3   12.14    0.44 
  -2   4   3   12.09    0.49 
  -1   4   3    1.27    0.15 
  -1   4   3    1.25    0.11 
   0   4   3    0.79    0.08 
   0   4   3    0.56    0.11 
   1   4   3   48.25    1.46 
   2   4   3   17.36    0.47 
   2   4   3   16.75    0.63 
   3   4   3    6.18    0.23 
   3   4   3    5.99    0.33 
   4   4   3   36.68    1.23 
   4   4   3   36.62    1.04 
   5   4   3    1.36    0.15 
   5   4   3    1.53    0.21 
   6   4   3    0.48    0.11 
   6   4   3    0.71    0.18 
   7   4   3    1.51    0.19 
   7   4   3    1.69    0.26 
   8   4   3   -0.05    0.06 
   8   4   3    0.26    0.14 
   9   4   3    1.20    0.21 
   9   4   3    1.10    0.25 
 -10  -4  -3    0.02    0.15 
  10   4   3    0.13    0.11 
  10   4   3    0.16    0.14 
 -11  -4  -3    0.11    0.19 
  11   4   3   -0.14    0.13 
 -12  -4  -3    0.08    0.22 
  -8   5   3    0.27    0.21 
  -7   5   3    0.93    0.23 
  -6   5   3    1.14    0.22 
  -5   5   3    1.78    0.24 
  -4   5   3    0.15    0.12 
  -3   5   3    0.65    0.14 
  -2   5   3    0.01    0.07 
  -2   5   3    0.11    0.10 
  -1   5   3    0.16    0.08 
  -1   5   3    0.25    0.09 
   0   5   3    0.85    0.10 
   0   5   3    0.90    0.14 
   1   5   3    1.21    0.16 
   1   5   3    0.92    0.06 
   2   5   3    1.64    0.08 
   2   5   3    1.46    0.18 
   3   5   3   21.38    0.62 
   3   5   3   21.29    0.79 
   4   5   3    4.10    0.20 
   4   5   3    4.38    0.30 
   5   5   3    3.56    0.32 
   5   5   3    3.59    0.21 
   6   5   3    0.25    0.11 
   6   5   3    0.31    0.10 
   6   5   3    0.47    0.07 
   7   5   3    0.96    0.15 
   7   5   3    1.10    0.21 
   8   5   3    0.02    0.07 
   8   5   3   -0.07    0.10 
   9   5   3    4.23    0.46 
   9   5   3    3.55    0.33 
  10   5   3    0.24    0.13 
  10   5   3    0.42    0.17 
  11   5   3    0.30    0.15 
  11   5   3    0.12    0.15 
 -12  -5  -3    0.30    0.22 
  12   5   3    0.24    0.18 
  -7   6   3    1.19    0.27 
  -6   6   3    0.19    0.17 
  -5   6   3    0.21    0.15 
  -4   6   3    1.05    0.19 
  -3   6   3    1.22    0.19 
  -3   6   3    0.99    0.17 
  -2   6   3    1.64    0.21 
  -2   6   3    1.37    0.17 
  -1   6   3    1.51    0.17 
  -1   6   3    1.56    0.20 
   0   6   3    3.69    0.20 
   0   6   3    3.39    0.26 
   1   6   3    2.04    0.22 
   1   6   3    2.16    0.11 
   2   6   3   29.31    0.81 
   2   6   3   29.70    1.03 
   3   6   3   21.06    0.62 
   3   6   3   22.31    0.83 
   4   6   3    2.19    0.25 
   4   6   3    2.28    0.15 
   5   6   3    0.91    0.20 
   5   6   3    0.88    0.12 
   6   6   3    8.57    0.39 
   6   6   3    9.36    0.50 
   7   6   3    0.02    0.08 
   7   6   3    0.21    0.12 
   8   6   3    0.25    0.10 
   8   6   3    0.15    0.12 
   9   6   3    0.50    0.14 
   9   6   3    0.59    0.20 
  10   6   3    1.90    0.26 
  10   6   3    2.02    0.34 
  11   6   3    0.13    0.14 
  11   6   3    0.00    0.11 
  12   6   3    0.29    0.17 
  12   6   3    0.51    0.22 
  -6   7   3    0.20    0.15 
  -5   7   3    0.89    0.20 
  -4   7   3    2.74    0.31 
  -4   7   3    2.62    0.28 
  -3   7   3    0.49    0.16 
  -3   7   3    0.44    0.13 
  -2   7   3    9.00    0.47 
  -2   7   3    8.00    0.40 
  -1   7   3    4.23    0.27 
  -1   7   3    4.09    0.31 
   0   7   3    0.20    0.09 
   0   7   3    0.26    0.10 
   1   7   3    9.45    0.48 
   1   7   3   10.13    0.34 
   2   7   3   -0.01    0.06 
   2   7   3    0.05    0.04 
   3   7   3    8.36    0.30 
   3   7   3    8.20    0.44 
   4   7   3   11.87    0.57 
   4   7   3   11.56    0.41 
   5   7   3    0.39    0.13 
   5   7   3    0.41    0.10 
   6   7   3   33.85    1.04 
   6   7   3   32.79    1.24 
   7   7   3    2.10    0.30 
   7   7   3    1.89    0.21 
   8   7   3   -0.05    0.10 
   8   7   3    0.09    0.09 
   9   7   3   -0.06    0.11 
   9   7   3    0.06    0.09 
  10   7   3    0.34    0.17 
  10   7   3    0.27    0.12 
  11   7   3    0.10    0.11 
  11   7   3    0.08    0.15 
  12   7   3    0.39    0.21 
  12   7   3    0.00    0.15 
  -5   8   3    0.04    0.13 
  -4   8   3    0.70    0.19 
  -3   8   3    0.13    0.09 
  -2   8   3    8.87    0.51 
  -1   8   3    4.75    0.35 
   0   8   3   23.98    0.96 
   1   8   3   20.66    0.85 
   2   8   3    1.13    0.11 
   2   8   3    0.93    0.19 
   3   8   3    4.89    0.35 
   3   8   3    5.37    0.23 
   4   8   3    2.01    0.16 
   4   8   3    1.82    0.26 
   5   8   3    1.62    0.16 
   5   8   3    1.37    0.22 
   6   8   3    3.85    0.38 
   6   8   3    3.95    0.25 
   7   8   3    6.49    0.35 
   7   8   3    6.64    0.46 
   8   8   3    0.20    0.14 
   8   8   3    0.23    0.09 
   9   8   3    0.45    0.12 
   9   8   3    0.58    0.17 
  10   8   3    0.62    0.21 
  10   8   3    0.58    0.15 
  11   8   3    0.23    0.17 
  11   8   3   -0.06    0.10 
  12   8   3    0.08    0.17 
  12   8   3    0.09    0.13 
  -4   9   3   -0.04    0.12 
  -3   9   3    0.99    0.23 
  -2   9   3    0.22    0.11 
  -1   9   3    0.42    0.14 
   0   9   3    8.95    0.54 
   1   9   3    1.17    0.23 
   2   9   3    0.06    0.11 
   3   9   3    0.06    0.10 
   4   9   3    0.35    0.14 
   5   9   3    0.74    0.18 
   6   9   3    1.17    0.23 
   7   9   3    1.66    0.21 
   7   9   3    2.09    0.31 
   8   9   3    0.44    0.16 
   8   9   3    0.71    0.15 
   9   9   3    0.80    0.17 
   9   9   3    0.92    0.22 
  10   9   3    0.55    0.15 
  10   9   3    0.86    0.23 
  11   9   3    0.24    0.17 
  11   9   3    0.12    0.12 
  -3  10   3   -0.03    0.11 
  -2  10   3    3.13    0.41 
  -1  10   3    2.49    0.37 
   0  10   3    0.44    0.17 
   1  10   3    0.95    0.22 
   2  10   3    1.98    0.30 
   3  10   3    0.77    0.20 
   4  10   3    1.08    0.22 
   5  10   3    0.22    0.12 
   6  10   3    0.15    0.13 
   7  10   3    0.04    0.11 
   8  10   3   -0.01    0.11 
   9  10   3    0.24    0.17 
  10  10   3    0.12    0.16 
  11  10   3   -0.11    0.16 
  -2  11   3    0.13    0.14 
  -1  11   3    1.19    0.27 
   0  11   3    0.10    0.15 
   1  11   3    0.20    0.15 
   2  11   3    0.54    0.18 
   3  11   3    0.62    0.20 
   4  11   3    0.11    0.12 
   5  11   3    0.48    0.19 
   6  11   3    0.09    0.12 
   7  11   3    0.47    0.18 
   8  11   3    0.57    0.20 
   9  11   3    0.59    0.23 
  10  11   3    0.15    0.18 
   0  12   3    0.25    0.19 
   1  12   3    1.82    0.34 
   2  12   3    0.63    0.23 
   3  12   3    0.56    0.19 
   4  12   3    0.14    0.15 
   5  12   3    0.48    0.18 
   6  12   3    0.59    0.18 
   7  12   3    1.03    0.25 
   8  12   3   -0.01    0.13 
   9  12   3    1.35    0.32 
  10  12   3    1.18    0.30 
   2  13   3    0.07    0.17 
   3  13   3    1.72    0.35 
   4  13   3    0.77    0.25 
   5  13   3    0.16    0.18 
   6  13   3    0.18    0.17 
   7  13   3   -0.13    0.12 
   8  13   3    0.26    0.19 
   6  12  -4    0.15    0.14 
   5  12  -4    0.11    0.13 
   4  12  -4    0.30    0.16 
   3  12  -4    2.36    0.30 
   8  11  -4    0.34    0.17 
   7  11  -4    0.82    0.21 
   6  11  -4    1.92    0.29 
   5  11  -4    0.46    0.14 
   4  11  -4    0.27    0.12 
   3  11  -4    0.11    0.10 
   2  11  -4    0.09    0.10 
   1  11  -4    0.47    0.18 
   1  11  -4    0.78    0.18 
   0  11  -4    0.43    0.16 
   0  11  -4    0.10    0.16 
   9  10  -4    0.02    0.14 
   8  10  -4   -0.09    0.11 
   7  10  -4    0.37    0.16 
   6  10  -4    0.19    0.10 
   5  10  -4    0.03    0.09 
   4  10  -4    0.07    0.09 
   3  10  -4    0.13    0.09 
   2  10  -4    0.00    0.10 
   2  10  -4    0.07    0.09 
   1  10  -4    0.05    0.09 
   1  10  -4    0.19    0.13 
   0  10  -4    0.05    0.10 
   0  10  -4   -0.14    0.11 
  -1  10  -4    0.32    0.13 
  -1  10  -4    0.05    0.13 
  -2  10  -4    0.24    0.17 
  -2  10  -4    0.57    0.19 
  10   9  -4   -0.01    0.13 
   9   9  -4   -0.06    0.11 
   8   9  -4    0.26    0.14 
   7   9  -4    0.46    0.14 
   6   9  -4    0.02    0.07 
   5   9  -4    0.26    0.10 
   4   9  -4    0.37    0.12 
   3   9  -4    2.11    0.25 
   3   9  -4    2.75    0.29 
   2   9  -4    0.10    0.07 
   2   9  -4    0.04    0.10 
   1   9  -4   -0.03    0.10 
   1   9  -4    0.11    0.09 
   0   9  -4    2.01    0.25 
   0   9  -4    1.47    0.24 
  -1   9  -4    0.58    0.16 
  -1   9  -4    0.89    0.21 
  -2   9  -4    0.22    0.15 
  -2   9  -4   -0.01    0.11 
  -3   9  -4   -0.02    0.15 
  -3   9  -4    0.04    0.14 
  11   8  -4    0.21    0.16 
  10   8  -4    0.19    0.14 
   9   8  -4    0.27    0.13 
   8   8  -4   -0.05    0.08 
   7   8  -4    1.59    0.23 
   6   8  -4    0.08    0.09 
   5   8  -4    1.22    0.19 
   4   8  -4    5.76    0.35 
   4   8  -4    6.06    0.36 
   2   8  -4   -0.01    0.07 
   2   8  -4    0.08    0.09 
   1   8  -4    8.08    0.42 
   1   8  -4    8.91    0.47 
   0   8  -4    4.25    0.32 
   0   8  -4    4.18    0.33 
  -1   8  -4    0.03    0.11 
  -1   8  -4    0.00    0.10 
  -2   8  -4    1.35    0.23 
  -2   8  -4    0.88    0.20 
  -3   8  -4    0.63    0.21 
  -4   8  -4    0.18    0.21 
  11   7  -4    0.09    0.13 
  10   7  -4    0.02    0.13 
   9   7  -4    0.01    0.10 
   8   7  -4    0.97    0.20 
   7   7  -4    1.08    0.20 
   6   7  -4   21.12    0.82 
   5   7  -4    3.40    0.29 
   4   7  -4    0.37    0.11 
   4   7  -4    0.56    0.14 
   3   7  -4    0.99    0.16 
   3   7  -4    1.49    0.20 
   2   7  -4    4.70    0.30 
   2   7  -4    3.96    0.27 
   1   7  -4    5.42    0.32 
   1   7  -4    6.15    0.35 
   0   7  -4    6.43    0.36 
   0   7  -4    6.15    0.36 
  -1   7  -4    0.75    0.16 
  -1   7  -4    0.45    0.13 
  -2   7  -4    7.58    0.46 
  -3   7  -4    1.05    0.24 
  -4   7  -4    0.15    0.20 
  -5   7  -4    0.07    0.23 
  11   6  -4    0.20    0.15 
  10   6  -4    0.02    0.13 
   9   6  -4    0.14    0.11 
   8   6  -4    0.27    0.12 
   7   6  -4    1.56    0.24 
   6   6  -4   49.53    1.56 
   5   6  -4    1.02    0.16 
   5   6  -4    0.74    0.16 
   4   6  -4   37.96    1.19 
   4   6  -4   36.17    1.17 
   3   6  -4   10.73    0.45 
   3   6  -4    9.75    0.44 
   2   6  -4    0.03    0.06 
   2   6  -4    0.19    0.09 
   1   6  -4    0.35    0.11 
   1   6  -4    0.27    0.10 
   0   6  -4    2.08    0.21 
   0   6  -4    2.41    0.23 
  -1   6  -4    0.02    0.11 
  -2   6  -4    0.13    0.15 
  -3   6  -4    2.00    0.30 
  -4   6  -4    0.22    0.21 
  -5   6  -4    0.15    0.23 
  -6   6  -4    0.13    0.25 
  11   5  -4    1.31    0.28 
  10   5  -4    0.68    0.20 
   9   5  -4    3.69    0.40 
   8   5  -4    0.57    0.15 
   7   5  -4    0.75    0.17 
   6   5  -4    0.25    0.10 
   5   5  -4   28.70    0.95 
   5   5  -4   27.07    0.91 
   4   5  -4    8.08    0.39 
   4   5  -4    8.40    0.36 
   3   5  -4   15.26    0.58 
   3   5  -4   16.02    0.56 
   2   5  -4    6.29    0.29 
   2   5  -4    6.21    0.31 
   0   5  -4    2.12    0.21 
  -1   5  -4    4.62    0.31 
  -2   5  -4   22.19    0.83 
  -3   5  -4    2.93    0.33 
  -4   5  -4    0.01    0.18 
  -5   5  -4    0.06    0.20 
  -6   5  -4    0.60    0.27 
  -7   5  -4   -0.22    0.22 
  11   4  -4   -0.09    0.16 
  10   4  -4    0.18    0.16 
   9   4  -4    6.07    0.50 
   8   4  -4    0.12    0.10 
   7   4  -4    1.39    0.22 
   6   4  -4    2.64    0.22 
   6   4  -4    2.54    0.27 
   5   4  -4   20.22    0.67 
   5   4  -4   17.36    0.70 
   4   4  -4   16.81    0.62 
   4   4  -4   16.56    0.56 
   3   4  -4    8.62    0.37 
   3   4  -4    8.27    0.32 
   2   4  -4   11.67    0.42 
   2   4  -4   11.88    0.45 
   1   4  -4    2.01    0.14 
   1   4  -4    2.11    0.18 
   0   4  -4    2.73    0.21 
  -1   4  -4   13.15    0.54 
  -2   4  -4    9.87    0.48 
  -3   4  -4    3.70    0.35 
  -4   4  -4    3.64    0.36 
  -5   4  -4    0.91    0.23 
  -6   4  -4    0.63    0.23 
  -7   4  -4    0.08    0.21 
  -8   4  -4    0.69    0.29 
  11   3  -4   -0.06    0.16 
  10   3  -4    0.21    0.17 
   9   3  -4   -0.03    0.12 
   8   3  -4    0.12    0.11 
   7   3  -4    0.68    0.17 
   6   3  -4    0.40    0.12 
   6   3  -4    0.23    0.11 
  -6  -3   4    0.26    0.09 
   5   3  -4    0.43    0.09 
   5   3  -4    0.30    0.11 
  -5  -3   4    0.37    0.10 
   4   3  -4    0.11    0.06 
   4   3  -4    0.27    0.10 
  -4  -3   4    0.10    0.08 
   3   3  -4   10.79    0.37 
   3   3  -4   10.48    0.43 
  -3  -3   4   11.13    0.47 
   2   3  -4   69.42    1.89 
   2   3  -4   70.10    1.95 
  -2  -3   4   68.62    2.05 
   1   3  -4   73.66    2.07 
   1   3  -4   74.25    1.99 
   0   3  -4   -0.08    0.06 
  -1   3  -4    2.30    0.22 
  -2   3  -4    0.38    0.15 
  -3   3  -4   -0.09    0.13 
  -4   3  -4    0.35    0.18 
  -5   3  -4    4.21    0.37 
  -6   3  -4    4.61    0.41 
  -7   3  -4    0.93    0.26 
  -8   3  -4    0.02    0.22 
  -9   3  -4    0.08    0.25 
  11   2  -4    0.57    0.24 
  10   2  -4    0.18    0.17 
   9   2  -4    0.09    0.13 
   8   2  -4    2.07    0.29 
   7   2  -4    1.07    0.21 
   6   2  -4   -0.17    0.07 
  -6  -2   4   -0.08    0.06 
   5   2  -4    1.43    0.20 
  -5  -2   4    1.57    0.18 
   4   2  -4   52.75    1.53 
   4   2  -4   52.59    1.52 
  -4  -2   4   52.30    1.58 
   3   2  -4   65.91    1.85 
   3   2  -4   66.67    1.86 
  -3  -2   4   68.33    1.96 
   2   2  -4    8.34    0.32 
  -2  -2   4    7.28    0.36 
   1   2  -4    0.60    0.05 
   1   2  -4    0.49    0.08 
  -1  -2   4    0.50    0.12 
   0   2  -4   -0.02    0.06 
   0  -2   4   -0.09    0.05 
  -1   2  -4    0.55    0.14 
  -2   2  -4    1.75    0.22 
  -3   2  -4    3.98    0.28 
  -4   2  -4    4.83    0.33 
  -5   2  -4    8.14    0.44 
  -6   2  -4    1.31    0.24 
  -7   2  -4    1.70    0.28 
  -8   2  -4    0.26    0.21 
  -9   2  -4   -0.01    0.22 
  11   1  -4   -0.04    0.20 
  10   1  -4    0.17    0.17 
   9   1  -4    2.75    0.35 
   8   1  -4    0.59    0.17 
   7   1  -4    1.07    0.21 
   6   1  -4    4.52    0.31 
  -6  -1   4    4.16    0.27 
   5   1  -4    4.07    0.28 
  -5  -1   4    4.37    0.26 
   4   1  -4   79.85    2.22 
  -4  -1   4   80.91    2.31 
   3   1  -4   23.71    0.77 
  -3  -1   4   24.76    0.82 
   2   1  -4    0.00    0.06 
  -2  -1   4    0.01    0.06 
   1   1  -4  191.74    4.82 
  -1  -1   4  186.27    5.14 
   0   1  -4    0.55    0.09 
   0  -1   4    0.59    0.12 
  -1   1  -4    6.04    0.29 
   1  -1   4    6.63    0.32 
  -2   1  -4    2.60    0.21 
  -3   1  -4   67.58    1.88 
  -4   1  -4    0.10    0.13 
  -5   1  -4    2.42    0.26 
  -6   1  -4    1.14    0.24 
  -7   1  -4    0.51    0.19 
  -8   1  -4   -0.22    0.17 
  -9   1  -4    0.14    0.21 
 -10   1  -4    0.19    0.25 
  10   0  -4    0.33    0.21 
   9   0  -4    3.81    0.40 
   8   0  -4    0.01    0.11 
   7   0  -4   24.87    0.94 
   6   0  -4   14.93    0.63 
  -6   0   4   14.71    0.60 
   5   0  -4    7.04    0.38 
  -5   0   4    7.39    0.37 
   4   0  -4   12.36    0.49 
  -4   0   4   11.78    0.49 
   3   0  -4    0.57    0.11 
  -3   0   4    0.62    0.12 
   2   0  -4   28.97    0.85 
  -2   0   4   28.15    0.92 
  -2   0   4   29.75    0.82 
   1   0  -4   45.49    1.23 
  -1   0   4   46.32    1.28 
  -1   0   4   44.23    1.35 
   0   0  -4   48.92    1.32 
   0   0   4   51.24    1.43 
   0   0   4   49.70    1.47 
  -1   0  -4    1.37    0.13 
   1   0   4    1.29    0.13 
   1   0   4    1.21    0.14 
  -2   0  -4   91.23    2.41 
   2   0   4   91.60    2.54 
   2   0   4   90.48    2.63 
  -3   0  -4   47.65    1.35 
   3   0   4   47.40    1.50 
  -4   0  -4   12.78    0.50 
   4   0   4   13.50    0.60 
  -5   0  -4    1.00    0.19 
   5   0   4    1.17    0.21 
  -6   0  -4    2.39    0.27 
  -7   0  -4    2.73    0.32 
  -8   0  -4    1.27    0.28 
  -9   0  -4    1.04    0.29 
 -10   0  -4   -0.04    0.23 
  10  -1  -4   -0.07    0.16 
   9  -1  -4    0.25    0.17 
   8  -1  -4    1.88    0.28 
   7  -1  -4    6.53    0.40 
   6  -1  -4    0.92    0.18 
  -6   1   4    0.91    0.18 
   5  -1  -4    0.75    0.16 
  -5   1   4    0.52    0.13 
   4  -1  -4    1.99    0.20 
  -4   1   4    2.06    0.22 
   3  -1  -4   10.29    0.41 
  -3   1   4   10.60    0.46 
   2  -1  -4    7.67    0.30 
  -2   1   4    7.26    0.35 
  -2   1   4    7.23    0.27 
  -1   1   4   20.19    0.62 
  -1   1   4   21.00    0.71 
   0  -1  -4  127.42    3.25 
   0   1   4  128.66    3.51 
   0   1   4  127.26    3.53 
   1   1   4   48.69    1.42 
   1   1   4   48.85    1.43 
  -2  -1  -4   14.45    0.46 
   2   1   4   13.76    0.53 
   2   1   4   14.02    0.50 
  -3  -1  -4   32.34    0.96 
   3   1   4   34.36    1.01 
   3   1   4   33.59    1.11 
  -4  -1  -4   59.58    1.69 
   4   1   4   61.69    1.91 
  -5  -1  -4   11.24    0.48 
   5   1   4   10.80    0.56 
  -6  -1  -4    1.74    0.24 
   6   1   4    1.34    0.23 
  -7  -1  -4    1.68    0.25 
   7   1   4    1.97    0.31 
  -8  -1  -4    3.09    0.36 
  -9  -1  -4    3.71    0.41 
 -10  -1  -4   -0.40    0.18 
 -11  -1  -4    0.15    0.24 
 -10   2   4    0.00    0.19 
  -9   2   4    1.18    0.26 
   8  -2  -4    1.07    0.23 
   7  -2  -4    0.31    0.14 
   6  -2  -4    2.90    0.30 
   5  -2  -4   13.18    0.55 
   4  -2  -4   12.23    0.50 
   3  -2  -4    0.35    0.10 
  -2   2   4    4.21    0.20 
   1  -2  -4   19.70    0.58 
  -1   2   4   19.69    0.63 
   0  -2  -4   13.15    0.38 
   0   2   4   13.24    0.46 
  -1  -2  -4  291.24    7.43 
   1   2   4  298.70    7.92 
   1   2   4  297.37    8.10 
  -2  -2  -4   34.20    0.92 
   2   2   4   34.72    1.02 
   2   2   4   32.65    1.07 
  -3  -2  -4  148.80    3.86 
   3   2   4  153.13    4.08 
   3   2   4  149.63    4.27 
  -4  -2  -4    6.15    0.30 
   4   2   4    6.54    0.27 
   4   2   4    6.25    0.37 
  -5  -2  -4   56.92    1.63 
   5   2   4   56.86    1.84 
  -6  -2  -4    2.85    0.27 
   6   2   4    3.16    0.34 
  -7  -2  -4    1.98    0.26 
   7   2   4    1.54    0.27 
  -8  -2  -4    4.14    0.38 
   8   2   4    3.88    0.44 
  -9  -2  -4    1.63    0.28 
   9   2   4    1.46    0.29 
 -10  -2  -4    0.14    0.18 
 -11  -2  -4    1.00    0.30 
  -9   3   4    0.08    0.18 
  -8   3   4    0.45    0.18 
  -7   3   4    0.71    0.18 
   6  -3  -4    0.29    0.14 
   5  -3  -4   16.57    0.67 
   4  -3  -4    0.39    0.12 
   3  -3  -4   12.93    0.48 
   2  -3  -4    4.42    0.22 
  -2   3   4    4.56    0.24 
   1  -3  -4   51.44    1.38 
  -1   3   4   52.48    1.53 
   0  -3  -4   81.02    2.04 
   0   3   4   77.82    2.27 
   1   3   4  110.09    3.13 
  -2  -3  -4    6.82    0.22 
   2   3   4    6.64    0.33 
  -3  -3  -4   10.18    0.34 
   3   3   4    9.44    0.44 
   3   3   4    9.85    0.38 
  -4  -3  -4    6.77    0.29 
   4   3   4    5.97    0.36 
   4   3   4    7.12    0.28 
  -5  -3  -4   27.22    0.84 
   5   3   4   26.34    0.77 
   5   3   4   23.50    0.96 
  -6  -3  -4    1.62    0.21 
   6   3   4    1.54    0.25 
  -7  -3  -4    0.24    0.14 
   7   3   4   -0.17    0.08 
  -8  -3  -4    4.71    0.38 
   8   3   4    4.78    0.47 
  -9  -3  -4    0.66    0.20 
   9   3   4    0.35    0.16 
 -10  -3  -4   -0.17    0.17 
  10   3   4    0.20    0.16 
 -11  -3  -4   -0.12    0.20 
  -8   4   4    0.18    0.19 
  -7   4   4   -0.11    0.12 
  -6   4   4    0.45    0.16 
  -5   4   4    0.27    0.13 
  -4   4   4    2.63    0.24 
  -3   4   4    2.70    0.21 
  -2   4   4    2.62    0.18 
  -2   4   4    2.62    0.20 
  -1   4   4   12.26    0.48 
  -1   4   4   12.29    0.40 
   0   4   4    2.40    0.19 
   0   4   4    1.93    0.10 
   1   4   4   11.95    0.48 
   2   4   4   38.63    1.24 
   3   4   4   -0.03    0.07 
   4   4   4    0.13    0.08 
   4   4   4    0.23    0.07 
   4   4   4    0.15    0.06 
   5   4   4    2.10    0.14 
   5   4   4    2.54    0.28 
   5   4   4    2.49    0.18 
   6   4   4    2.78    0.31 
   6   4   4    3.24    0.25 
   7   4   4    0.13    0.08 
   7   4   4    0.26    0.13 
  -8  -4  -4    1.76    0.25 
   8   4   4    1.61    0.28 
  -9  -4  -4    0.06    0.16 
   9   4   4    0.11    0.14 
 -10  -4  -4    0.18    0.15 
  10   4   4    0.06    0.13 
 -11  -4  -4   -0.04    0.17 
  11   4   4    0.24    0.18 
 -12  -4  -4   -0.02    0.18 
  -8   5   4    0.21    0.21 
  -7   5   4    0.14    0.17 
  -6   5   4    0.39    0.16 
  -5   5   4    0.53    0.16 
  -4   5   4    3.48    0.28 
  -3   5   4    0.35    0.13 
  -3   5   4    0.27    0.10 
  -2   5   4    7.96    0.33 
  -2   5   4    6.95    0.38 
  -1   5   4   -0.02    0.06 
  -1   5   4   -0.11    0.06 
   0   5   4    8.63    0.41 
   0   5   4    8.83    0.29 
   1   5   4    2.61    0.23 
   2   5   4    3.32    0.24 
   3   5   4    0.37    0.05 
   3   5   4    0.32    0.10 
   4   5   4    0.23    0.06 
   4   5   4    0.11    0.09 
   5   5   4    0.91    0.18 
   5   5   4    0.97    0.13 
   6   5   4    0.21    0.06 
   6   5   4    0.13    0.08 
   6   5   4    0.11    0.09 
   7   5   4    0.09    0.10 
   7   5   4    0.14    0.10 
   8   5   4    1.52    0.27 
   8   5   4    1.55    0.20 
   9   5   4    0.00    0.12 
   9   5   4   -0.16    0.07 
 -10  -5  -4    0.59    0.19 
  10   5   4    0.24    0.16 
 -11  -5  -4    0.35    0.22 
  11   5   4    0.13    0.16 
 -12  -5  -4   -0.26    0.17 
  12   5   4    0.10    0.19 
  -6   6   4    0.93    0.22 
  -5   6   4    4.67    0.34 
  -5   6   4    5.44    0.38 
  -4   6   4    0.69    0.16 
  -4   6   4    0.66    0.16 
  -3   6   4    0.27    0.12 
  -3   6   4    0.18    0.09 
  -2   6   4    0.78    0.14 
  -2   6   4    0.68    0.14 
  -1   6   4   34.60    1.17 
  -1   6   4   33.61    0.98 
   0   6   4    5.90    0.34 
   0   6   4    5.91    0.24 
   1   6   4    6.87    0.21 
   1   6   4    6.91    0.37 
   2   6   4   21.44    0.81 
   3   6   4   24.19    0.67 
   3   6   4   23.68    0.90 
   4   6   4   -0.03    0.04 
   4   6   4   -0.10    0.08 
   5   6   4   21.02    0.85 
   5   6   4   19.71    0.64 
   6   6   4    2.36    0.30 
   6   6   4    2.51    0.20 
   7   6   4    0.03    0.08 
   7   6   4   -0.04    0.10 
   8   6   4    2.17    0.23 
   8   6   4    2.21    0.32 
   9   6   4    0.28    0.16 
   9   6   4    0.31    0.12 
  10   6   4    0.06    0.14 
  10   6   4   -0.22    0.08 
 -11  -6  -4    0.58    0.22 
  11   6   4    0.51    0.21 
 -12  -6  -4    0.46    0.23 
  12   6   4    0.02    0.17 
  -6   7   4    0.27    0.17 
  -5   7   4    0.26    0.14 
  -4   7   4    0.62    0.16 
  -3   7   4    1.68    0.23 
  -2   7   4    5.75    0.38 
  -1   7   4    8.90    0.38 
  -1   7   4    8.48    0.47 
   0   7   4    2.63    0.16 
   0   7   4    2.84    0.29 
   1   7   4   18.55    0.77 
   1   7   4   20.16    0.56 
   2   7   4    4.42    0.16 
   2   7   4    5.13    0.33 
   3   7   4    3.51    0.15 
   3   7   4    3.64    0.32 
   4   7   4    2.37    0.14 
   4   7   4    2.43    0.28 
   5   7   4   25.25    0.78 
   5   7   4   25.64    1.01 
   6   7   4   19.34    0.67 
   6   7   4   21.47    0.90 
   7   7   4    9.58    0.43 
   7   7   4    9.70    0.57 
   8   7   4    6.91    0.49 
   8   7   4    6.79    0.36 
   9   7   4    1.82    0.23 
   9   7   4    1.79    0.31 
  10   7   4    0.31    0.16 
  10   7   4    0.20    0.11 
  11   7   4   -0.06    0.11 
  11   7   4    0.12    0.15 
 -12  -7  -4    0.13    0.21 
  12   7   4   -0.01    0.17 
  -5   8   4    0.49    0.17 
  -4   8   4    0.20    0.12 
  -3   8   4    0.02    0.09 
  -2   8   4    0.47    0.14 
  -1   8   4    2.64    0.31 
   0   8   4   63.80    2.06 
   1   8   4    1.94    0.27 
   2   8   4   23.64    0.94 
   3   8   4   10.75    0.55 
   4   8   4    3.53    0.35 
   5   8   4    0.86    0.19 
   6   8   4    0.13    0.09 
   6   8   4    0.04    0.10 
   7   8   4    0.16    0.10 
   7   8   4    0.24    0.14 
   8   8   4    3.83    0.27 
   8   8   4    3.31    0.40 
   9   8   4    0.63    0.20 
   9   8   4    0.67    0.14 
  10   8   4    0.03    0.10 
  10   8   4    0.29    0.17 
  11   8   4   -0.12    0.09 
  11   8   4    0.07    0.16 
  12   8   4   -0.18    0.14 
  12   8   4   -0.28    0.10 
  -4   9   4    1.08    0.26 
  -3   9   4    2.10    0.32 
  -2   9   4    1.12    0.23 
  -1   9   4    2.56    0.33 
   0   9   4    2.39    0.31 
   1   9   4    4.39    0.40 
   2   9   4   27.56    1.09 
   3   9   4    1.66    0.26 
   4   9   4    2.53    0.32 
   5   9   4    4.37    0.41 
   6   9   4    0.51    0.16 
   7   9   4    0.21    0.13 
   8   9   4    1.80    0.30 
   9   9   4    0.10    0.13 
  10   9   4   -0.10    0.12 
  11   9   4    0.35    0.20 
  -3  10   4    3.65    0.46 
  -2  10   4    0.05    0.13 
  -1  10   4    0.82    0.22 
   0  10   4    1.64    0.28 
   1  10   4   13.58    0.72 
   2  10   4   -0.04    0.11 
   3  10   4    0.36    0.16 
   4  10   4    0.17    0.11 
   5  10   4    2.54    0.34 
   6  10   4    0.64    0.20 
   7  10   4    2.08    0.32 
   8  10   4    0.30    0.16 
   9  10   4    0.36    0.17 
  10  10   4    0.04    0.15 
  11  10   4   -0.04    0.16 
  -2  11   4    0.01    0.12 
  -1  11   4    0.26    0.15 
   0  11   4    0.08    0.13 
   1  11   4    0.58    0.21 
   2  11   4    0.47    0.19 
   3  11   4   -0.08    0.10 
   4  11   4    0.37    0.17 
   5  11   4   -0.03    0.11 
   6  11   4    0.03    0.11 
   7  11   4    0.95    0.23 
   8  11   4    1.30    0.28 
   9  11   4    0.20    0.15 
  10  11   4   -0.09    0.14 
   0  12   4    0.39    0.19 
   1  12   4   -0.21    0.11 
   2  12   4    2.23    0.37 
   3  12   4    1.09    0.26 
   4  12   4    0.21    0.16 
   5  12   4   -0.04    0.13 
   6  12   4   -0.15    0.12 
   7  12   4    0.39    0.16 
   8  12   4    0.47    0.19 
   9  12   4    0.21    0.17 
  10  12   4    0.21    0.18 
   2  13   4    1.96    0.36 
   3  13   4    0.75    0.26 
   4  13   4    1.06    0.30 
   5  13   4    2.32    0.39 
   6  13   4   -0.08    0.12 
   7  13   4    0.15    0.18 
   8  13   4   -0.05    0.14 
   7  11  -5    0.91    0.22 
   6  11  -5    0.09    0.13 
   5  11  -5    0.38    0.16 
   4  11  -5    1.69    0.26 
   3  11  -5    0.11    0.11 
   2  11  -5    0.08    0.12 
   1  11  -5    0.54    0.17 
   9  10  -5    0.06    0.13 
   8  10  -5    0.11    0.15 
   7  10  -5    0.34    0.13 
   6  10  -5   -0.01    0.09 
   5  10  -5    2.02    0.28 
   4  10  -5    0.34    0.12 
   3  10  -5    0.31    0.11 
   2  10  -5    0.40    0.14 
   1  10  -5    0.37    0.13 
   0  10  -5    0.04    0.11 
   0  10  -5    0.24    0.15 
  -1  10  -5    0.33    0.14 
  -1  10  -5    0.11    0.15 
  10   9  -5    0.09    0.15 
   9   9  -5    0.04    0.13 
   8   9  -5    0.06    0.11 
   7   9  -5    0.42    0.14 
   6   9  -5    0.80    0.18 
   5   9  -5    0.06    0.08 
   4   9  -5    0.41    0.12 
   3   9  -5    1.61    0.22 
   2   9  -5    0.51    0.15 
   1   9  -5    1.24    0.22 
   1   9  -5    1.51    0.22 
   0   9  -5   -0.01    0.11 
   0   9  -5    0.13    0.10 
  -1   9  -5    0.09    0.13 
  -1   9  -5    0.06    0.12 
  -2   9  -5    1.00    0.22 
  -2   9  -5    0.72    0.21 
  -3   9  -5    0.01    0.14 
  -3   9  -5    0.11    0.15 
  10   8  -5    0.13    0.14 
   9   8  -5    0.04    0.12 
   8   8  -5    0.12    0.12 
   7   8  -5    0.12    0.11 
   6   8  -5    0.04    0.07 
   5   8  -5    0.47    0.12 
   4   8  -5    0.06    0.08 
   3   8  -5    1.12    0.19 
   2   8  -5    3.11    0.29 
   1   8  -5    1.08    0.18 
   1   8  -5    1.03    0.19 
   0   8  -5    0.18    0.11 
   0   8  -5    0.21    0.12 
  -1   8  -5    1.35    0.23 
  -1   8  -5    2.18    0.27 
  -2   8  -5    0.92    0.20 
  -2   8  -5    1.01    0.22 
  -3   8  -5    0.28    0.17 
  -4   8  -5    0.49    0.22 
  11   7  -5   -0.01    0.13 
  10   7  -5   -0.15    0.11 
   9   7  -5    0.05    0.12 
   8   7  -5    0.26    0.13 
   7   7  -5    0.31    0.12 
   6   7  -5    1.01    0.19 
   5   7  -5    1.41    0.21 
   4   7  -5    8.94    0.45 
   3   7  -5    6.24    0.36 
   3   7  -5    6.57    0.36 
   2   7  -5    0.46    0.12 
   2   7  -5    0.64    0.14 
   1   7  -5   -0.07    0.07 
   1   7  -5    0.00    0.09 
   0   7  -5    1.28    0.19 
   0   7  -5    1.31    0.20 
  -1   7  -5    3.75    0.32 
  -1   7  -5    3.56    0.31 
  -2   7  -5    1.54    0.24 
  -3   7  -5    1.20    0.26 
  -4   7  -5    0.83    0.26 
  -5   7  -5   -0.35    0.19 
  11   6  -5    0.72    0.21 
  10   6  -5    0.29    0.17 
   9   6  -5    0.54    0.17 
   8   6  -5   -0.02    0.10 
   7   6  -5    0.48    0.14 
   6   6  -5    1.83    0.25 
   5   6  -5    9.40    0.47 
   4   6  -5   38.49    1.23 
   3   6  -5    0.01    0.06 
   3   6  -5    0.07    0.08 
   2   6  -5   24.75    0.86 
   2   6  -5   25.80    0.87 
   0   6  -5    1.89    0.23 
   0   6  -5    1.88    0.21 
  -1   6  -5    1.55    0.22 
  -2   6  -5    0.04    0.13 
  -3   6  -5    0.53    0.20 
  -4   6  -5   -0.14    0.16 
  -5   6  -5    0.22    0.24 
  -6   6  -5    0.21    0.25 
  11   5  -5    0.22    0.15 
   9   5  -5    0.07    0.12 
   8   5  -5    1.78    0.28 
   7   5  -5    1.04    0.20 
   6   5  -5    2.92    0.30 
   5   5  -5    2.19    0.24 
   4   5  -5    0.01    0.07 
   3   5  -5    5.50    0.31 
   3   5  -5    6.50    0.28 
   2   5  -5   29.10    0.92 
   2   5  -5   28.33    0.93 
   1   5  -5    1.95    0.20 
   1   5  -5    2.11    0.17 
   0   5  -5    2.23    0.22 
  -1   5  -5   21.23    0.77 
  -2   5  -5    0.01    0.14 
  -3   5  -5    0.20    0.17 
  -4   5  -5    1.39    0.29 
  -5   5  -5    0.81    0.27 
  -6   5  -5    0.13    0.26 
  -7   5  -5    0.03    0.24 
  11   4  -5    0.38    0.24 
  10   4  -5    0.08    0.17 
   9   4  -5    0.42    0.18 
   8   4  -5    3.81    0.40 
   7   4  -5    2.48    0.31 
  -7  -4   5    2.92    0.28 
   6   4  -5    0.29    0.13 
  -6  -4   5    0.24    0.11 
   5   4  -5    0.92    0.17 
  -5  -4   5    1.43    0.21 
   4   4  -5    9.74    0.44 
   4   4  -5    9.61    0.35 
   3   4  -5    5.02    0.22 
   3   4  -5    5.03    0.28 
   2   4  -5    9.71    0.35 
   2   4  -5    9.23    0.40 
   1   4  -5    2.87    0.20 
   1   4  -5    2.80    0.16 
   0   4  -5    0.53    0.13 
  -1   4  -5    0.69    0.16 
  -2   4  -5    3.46    0.32 
  -3   4  -5    0.98    0.23 
  -4   4  -5    1.01    0.25 
  -5   4  -5   -0.04    0.19 
  -6   4  -5    0.04    0.21 
  -7   4  -5    0.17    0.22 
  -8   4  -5    1.13    0.34 
  11   3  -5    0.17    0.21 
  10   3  -5    0.34    0.18 
   9   3  -5    1.19    0.25 
   8   3  -5    0.03    0.13 
   7   3  -5    1.55    0.24 
  -7  -3   5    1.40    0.19 
   6   3  -5    1.30    0.21 
  -6  -3   5    1.48    0.20 
   5   3  -5    3.47    0.30 
   5   3  -5    3.75    0.19 
  -5  -3   5    3.93    0.27 
   4   3  -5    3.90    0.17 
   4   3  -5    3.92    0.26 
  -4  -3   5    4.33    0.28 
   3   3  -5   23.74    0.78 
   3   3  -5   23.07    0.69 
  -3  -3   5   24.06    0.86 
   2   3  -5    0.63    0.11 
   2   3  -5    0.72    0.07 
  -2  -3   5    0.83    0.16 
   1   3  -5    0.90    0.08 
   1   3  -5    0.74    0.12 
   0   3  -5    1.21    0.15 
  -1   3  -5    2.56    0.23 
  -2   3  -5    6.16    0.36 
  -3   3  -5    6.65    0.41 
  -4   3  -5    0.97    0.24 
  -5   3  -5    1.05    0.24 
  -6   3  -5    0.11    0.18 
  -7   3  -5    0.02    0.21 
  -8   3  -5    0.01    0.22 
  11   2  -5   -0.18    0.16 
  10   2  -5    0.42    0.22 
   9   2  -5    0.45    0.18 
   8   2  -5    0.47    0.17 
   7   2  -5    4.64    0.40 
  -7  -2   5    4.11    0.28 
   6   2  -5    4.79    0.33 
  -6  -2   5    3.68    0.27 
   5   2  -5    0.18    0.10 
  -5  -2   5    0.13    0.08 
   4   2  -5    2.21    0.22 
  -4  -2   5    2.77    0.25 
   3   2  -5    2.60    0.21 
  -3  -2   5    2.61    0.25 
   2   2  -5   65.46    1.78 
  -2  -2   5   64.32    1.94 
   1   2  -5   -0.01    0.05 
  -1  -2   5    0.04    0.07 
   0   2  -5    3.11    0.19 
   0  -2   5    3.26    0.28 
  -1   2  -5    0.00    0.10 
  -2   2  -5   11.09    0.49 
  -3   2  -5   -0.05    0.14 
  -4   2  -5    5.16    0.35 
  -5   2  -5    1.00    0.22 
  -6   2  -5    1.38    0.26 
  -7   2  -5   -0.03    0.19 
  -8   2  -5    0.10    0.23 
  -9   2  -5    0.02    0.24 
  10   1  -5   -0.01    0.15 
   9   1  -5    0.21    0.15 
   8   1  -5    0.70    0.18 
   7   1  -5    0.96    0.20 
  -7  -1   5    0.54    0.15 
   6   1  -5    1.40    0.22 
  -6  -1   5    1.65    0.22 
   5   1  -5    0.80    0.16 
  -5  -1   5    1.02    0.17 
   4   1  -5    2.42    0.23 
  -4  -1   5    2.34    0.24 
   3   1  -5   -0.05    0.06 
  -3  -1   5    0.15    0.09 
   2   1  -5   73.20    1.97 
  -2  -1   5   71.73    2.12 
   1   1  -5  160.74    4.10 
  -1  -1   5  157.97    4.40 
   0   1  -5   63.20    1.66 
   0  -1   5   59.67    1.83 
  -1   1  -5   33.49    0.98 
   1  -1   5   31.78    1.06 
  -2   1  -5    0.00    0.11 
  -3   1  -5    8.45    0.41 
  -4   1  -5    3.54    0.29 
  -5   1  -5    0.94    0.20 
  -6   1  -5    0.22    0.17 
  -7   1  -5   -0.05    0.16 
  -8   1  -5    0.25    0.22 
  -9   1  -5    0.21    0.22 
 -10   1  -5    0.03    0.22 
  10   0  -5   -0.05    0.17 
   9   0  -5    0.10    0.14 
   8   0  -5    1.60    0.27 
   7   0  -5    5.01    0.36 
  -7   0   5    5.06    0.33 
   6   0  -5    2.31    0.28 
  -6   0   5    2.83    0.28 
   5   0  -5   40.70    1.29 
  -5   0   5   40.73    1.32 
   4   0  -5    2.59    0.23 
  -4   0   5    1.96    0.22 
   3   0  -5   37.07    1.11 
  -3   0   5   37.63    1.21 
   2   0  -5    5.68    0.26 
  -2   0   5    5.71    0.20 
  -2   0   5    5.68    0.31 
   1   0  -5    6.73    0.28 
  -1   0   5    7.45    0.24 
  -1   0   5    6.92    0.35 
   0   0  -5    5.75    0.23 
   0   0   5    5.32    0.30 
   0   0   5    5.23    0.22 
  -1   0  -5    4.87    0.23 
   1   0   5    4.41    0.27 
   1   0   5    4.71    0.24 
  -2   0  -5    4.56    0.26 
   2   0   5    4.09    0.25 
   2   0   5    4.28    0.26 
  -3   0  -5   24.33    0.78 
   3   0   5   24.48    0.83 
   3   0   5   24.19    0.88 
  -4   0  -5    1.31    0.19 
   4   0   5    1.34    0.21 
  -5   0  -5    1.75    0.23 
   5   0   5    1.73    0.25 
  -6   0  -5    2.01    0.27 
  -7   0  -5    0.92    0.22 
  -8   0  -5    0.39    0.21 
  -9   0  -5   -0.08    0.21 
 -10   0  -5    0.00    0.25 
  10  -1  -5   -0.10    0.17 
   9  -1  -5    0.24    0.17 
   8  -1  -5    0.45    0.17 
   7  -1  -5    2.24    0.29 
  -7   1   5    2.01    0.26 
   6  -1  -5    6.78    0.40 
  -6   1   5    6.67    0.40 
   5  -1  -5   10.50    0.49 
  -5   1   5   10.89    0.52 
   4  -1  -5    7.46    0.37 
  -4   1   5    7.64    0.41 
   3  -1  -5    5.63    0.29 
  -3   1   5    5.77    0.33 
   2  -1  -5   40.02    1.14 
  -2   1   5   39.56    1.27 
  -2   1   5   40.40    1.16 
  -1   1   5    2.32    0.13 
  -1   1   5    2.50    0.22 
   0   1   5  198.99    5.44 
   0   1   5  201.17    5.50 
   1   1   5   56.66    1.68 
   1   1   5   58.00    1.68 
  -2  -1  -5   38.77    1.09 
   2   1   5   37.39    1.21 
   2   1   5   38.92    1.18 
  -3  -1  -5    4.25    0.24 
   3   1   5    4.16    0.28 
  -4  -1  -5    0.45    0.14 
   4   1   5    0.67    0.13 
   4   1   5    0.48    0.15 
  -5  -1  -5   25.03    0.84 
   5   1   5   24.13    0.98 
  -6  -1  -5    8.17    0.43 
   6   1   5    7.77    0.49 
  -7  -1  -5    0.09    0.16 
   7   1   5   -0.09    0.08 
  -8  -1  -5    0.54    0.21 
  -9  -1  -5    0.27    0.20 
 -10  -1  -5    1.18    0.32 
 -11  -1  -5   -0.25    0.20 
   9  -2  -5    0.00    0.15 
   8  -2  -5    0.06    0.13 
   7  -2  -5    0.84    0.20 
  -7   2   5    0.78    0.18 
   6  -2  -5    4.79    0.34 
  -6   2   5    5.47    0.37 
   5  -2  -5    3.00    0.28 
  -5   2   5    3.15    0.31 
   4  -2  -5    8.45    0.40 
   3  -2  -5    0.34    0.10 
  -3   2   5    0.23    0.07 
  -2   2   5   27.32    0.96 
  -2   2   5   27.71    0.85 
   1  -2  -5    9.53    0.33 
  -1   2   5    9.58    0.35 
  -1   2   5    8.69    0.43 
   0  -2  -5   45.77    1.21 
   0   2   5   44.71    1.40 
   0   2   5   46.04    1.36 
  -1  -2  -5   27.98    0.76 
   1   2   5   28.18    0.92 
   1   2   5   28.32    0.91 
  -2  -2  -5    0.10    0.08 
   2   2   5    0.05    0.07 
   2   2   5    0.04    0.06 
  -3  -2  -5    0.39    0.10 
   3   2   5    0.05    0.05 
   3   2   5    0.39    0.11 
  -4  -2  -5   85.78    2.31 
   4   2   5   86.37    2.61 
   4   2   5   86.99    2.42 
  -5  -2  -5   63.12    1.78 
   5   2   5   64.10    2.03 
   5   2   5   61.82    1.79 
  -6  -2  -5    0.30    0.15 
   6   2   5    0.10    0.10 
  -7  -2  -5   28.85    1.03 
   7   2   5   30.91    1.22 
  -8  -2  -5    0.02    0.16 
   8   2   5   -0.03    0.10 
  -9  -2  -5    0.06    0.18 
   9   2   5    0.42    0.17 
 -10  -2  -5    0.04    0.20 
 -11  -2  -5   -0.11    0.21 
  -9   3   5    0.25    0.20 
  -8   3   5    0.06    0.16 
   7  -3  -5    0.62    0.18 
   6  -3  -5    0.40    0.16 
   5  -3  -5   15.56    0.64 
   4  -3  -5   -0.19    0.08 
  -3   3   5    1.61    0.17 
   2  -3  -5    2.37    0.16 
  -2   3   5    2.19    0.16 
   1  -3  -5    3.75    0.18 
  -1   3   5    3.58    0.20 
   0  -3  -5   11.48    0.34 
   0   3   5   10.93    0.44 
  -1  -3  -5   55.04    1.40 
   1   3   5   53.40    1.63 
  -2  -3  -5   86.77    2.23 
   2   3   5   85.94    2.53 
   2   3   5   86.82    2.46 
  -3  -3  -5    6.22    0.25 
   3   3   5    5.91    0.34 
   4   3   5   10.84    0.42 
   4   3   5   11.11    0.52 
  -5  -3  -5   26.02    0.82 
   5   3   5   24.26    0.97 
   5   3   5   25.77    0.80 
  -6  -3  -5    9.97    0.45 
   6   3   5    8.78    0.51 
  -7  -3  -5   12.47    0.56 
   7   3   5   11.66    0.66 
  -8  -3  -5    0.69    0.20 
   8   3   5   -0.02    0.12 
  -9  -3  -5    0.48    0.19 
   9   3   5    0.37    0.18 
 -10  -3  -5    0.14    0.20 
  10   3   5   -0.04    0.13 
 -11  -3  -5   -0.10    0.21 
  -8   4   5    1.11    0.27 
  -7   4   5    1.45    0.25 
  -6   4   5    1.15    0.20 
  -5   4   5    2.31    0.25 
   4  -4  -5    1.57    0.21 
  -4   4   5    1.47    0.19 
   3  -4  -5    1.46    0.17 
  -3   4   5    1.28    0.17 
   2  -4  -5    5.93    0.27 
  -2   4   5    5.30    0.30 
   1  -4  -5    0.35    0.07 
  -1   4   5    0.20    0.08 
   0   4   5   20.33    0.55 
   0   4   5   19.99    0.71 
   1   4   5    1.62    0.18 
   2   4   5  124.23    3.56 
  -3  -4  -5   41.45    1.14 
   3   4   5   44.78    1.41 
  -4  -4  -5    7.86    0.31 
   4   4   5    7.85    0.43 
   4   4   5    8.20    0.36 
   5   4   5    1.49    0.15 
   5   4   5    0.99    0.19 
  -6  -4  -5    0.13    0.12 
   6   4   5    0.13    0.09 
  -7  -4  -5    0.06    0.12 
   7   4   5   -0.11    0.08 
  -8  -4  -5    2.79    0.30 
   8   4   5    3.52    0.42 
  -9  -4  -5   -0.09    0.15 
   9   4   5    0.11    0.14 
 -10  -4  -5   -0.14    0.16 
  10   4   5    0.00    0.13 
 -11  -4  -5    0.08    0.20 
  11   4   5    0.11    0.17 
  -7   5   5   -0.07    0.15 
  -6   5   5    0.08    0.14 
  -5   5   5    0.35    0.12 
  -5   5   5    0.26    0.14 
  -4   5   5    0.11    0.12 
  -4   5   5    0.21    0.10 
  -3   5   5    5.34    0.30 
  -3   5   5    5.81    0.34 
  -2   5   5    3.66    0.26 
  -2   5   5    3.97    0.24 
  -1   5   5    4.49    0.20 
  -1   5   5    4.52    0.28 
   0   5   5   13.06    0.38 
   0   5   5   14.03    0.56 
   1   5   5    6.49    0.35 
   2   5   5    0.32    0.11 
  -3  -5  -5   34.12    0.90 
   3   5   5   33.97    1.17 
  -4  -5  -5    4.48    0.20 
   4   5   5    4.20    0.31 
  -5  -5  -5    2.69    0.20 
   5   5   5    2.40    0.29 
   5   5   5    2.99    0.20 
  -6  -5  -5   -0.01    0.08 
   6   5   5    0.10    0.09 
   6   5   5    0.14    0.06 
  -7  -5  -5    0.66    0.17 
   7   5   5    0.49    0.17 
  -8  -5  -5    0.90    0.20 
   8   5   5    0.69    0.19 
  -9  -5  -5    2.64    0.32 
   9   5   5    2.53    0.37 
 -10  -5  -5   -0.06    0.15 
  10   5   5    0.09    0.14 
 -11  -5  -5   -0.13    0.17 
  11   5   5    0.10    0.17 
 -12  -5  -5   -0.04    0.20 
  12   5   5    0.01    0.19 
  -7   6   5    0.01    0.14 
  -6   6   5    0.57    0.17 
  -5   6   5   -0.06    0.07 
  -4   6   5    0.73    0.16 
  -4   6   5    0.58    0.16 
  -3   6   5    3.72    0.28 
  -3   6   5    3.47    0.25 
  -2   6   5    4.01    0.28 
  -2   6   5    3.26    0.21 
  -1   6   5    2.60    0.17 
  -1   6   5    2.45    0.25 
   0   6   5    0.14    0.09 
   0   6   5    0.29    0.07 
   1   6   5    2.26    0.24 
   2   6   5    0.03    0.08 
   3   6   5   13.50    0.61 
   4   6   5   22.44    0.64 
   4   6   5   21.78    0.89 
   5   6   5    3.77    0.36 
   5   6   5    3.72    0.21 
   6   6   5    0.03    0.09 
   6   6   5    0.12    0.08 
   6   6   5   -0.09    0.07 
   7   6   5    3.69    0.40 
   7   6   5    3.59    0.26 
   8   6   5    3.77    0.27 
   8   6   5    2.76    0.37 
  -9  -6  -5    0.26    0.15 
   9   6   5    0.17    0.14 
 -10  -6  -5    0.01    0.15 
  10   6   5   -0.27    0.10 
 -11  -6  -5   -0.13    0.16 
  11   6   5    0.00    0.14 
 -12  -6  -5    0.23    0.23 
  12   6   5    0.03    0.18 
  -6   7   5    0.69    0.20 
  -5   7   5    0.64    0.18 
  -4   7   5    0.13    0.10 
  -3   7   5    0.40    0.12 
  -2   7   5   -0.04    0.07 
  -1   7   5    1.33    0.20 
   0   7   5    6.00    0.37 
   1   7   5    1.56    0.22 
   2   7   5   12.40    0.58 
   3   7   5   10.26    0.53 
   4   7   5    1.77    0.24 
   5   7   5    1.65    0.14 
   5   7   5    1.80    0.27 
   6   7   5   11.65    0.44 
   6   7   5   11.13    0.62 
   7   7   5    6.64    0.35 
   7   7   5    6.64    0.47 
   8   7   5    3.57    0.29 
   8   7   5    3.06    0.40 
   9   7   5    1.18    0.19 
   9   7   5    1.31    0.29 
  10   7   5    1.16    0.20 
  10   7   5    1.09    0.27 
 -11  -7  -5    0.02    0.17 
  11   7   5   -0.01    0.17 
 -12  -7  -5    0.07    0.20 
  12   7   5    0.02    0.17 
  -5   8   5    0.09    0.15 
  -4   8   5    0.01    0.11 
  -3   8   5    3.66    0.39 
  -2   8   5    1.41    0.23 
  -1   8   5    0.35    0.11 
   0   8   5    1.61    0.25 
   1   8   5   42.60    1.48 
   2   8   5   23.28    0.93 
   3   8   5    0.02    0.09 
   4   8   5   25.07    1.01 
   5   8   5    5.06    0.40 
   6   8   5    0.28    0.15 
   7   8   5    0.46    0.17 
   8   8   5    0.86    0.21 
   9   8   5    1.29    0.27 
   9   8   5    1.45    0.21 
  10   8   5    0.09    0.12 
  10   8   5    0.31    0.18 
  11   8   5   -0.01    0.12 
  11   8   5    0.06    0.18 
  -4   9   5    2.93    0.39 
  -3   9   5   -0.12    0.11 
  -2   9   5    0.68    0.18 
  -1   9   5    1.60    0.26 
   0   9   5    8.75    0.53 
   1   9   5    2.11    0.29 
   2   9   5    1.88    0.28 
   3   9   5   12.51    0.65 
   4   9   5   35.81    1.36 
   5   9   5    0.05    0.10 
   6   9   5    3.63    0.42 
   7   9   5    3.93    0.44 
   8   9   5   -0.02    0.11 
   9   9   5    0.25    0.15 
  10   9   5    0.14    0.14 
  11   9   5    0.26    0.23 
  -3  10   5    0.17    0.14 
  -2  10   5    5.63    0.55 
  -1  10   5    2.63    0.37 
   0  10   5    0.12    0.11 
   1  10   5    0.82    0.19 
   2  10   5    4.19    0.42 
   3  10   5    2.58    0.34 
   4  10   5    1.31    0.26 
   5  10   5    0.14    0.14 
   6  10   5    1.32    0.26 
   7  10   5    0.16    0.15 
   8  10   5    0.00    0.13 
   9  10   5    0.16    0.16 
  10  10   5    0.55    0.22 
  11  10   5   -0.30    0.13 
  -2  11   5   -0.02    0.12 
  -1  11   5   -0.04    0.12 
   0  11   5    0.56    0.21 
   1  11   5    2.14    0.34 
   2  11   5    0.05    0.13 
   3  11   5    0.96    0.23 
   4  11   5    0.52    0.19 
   5  11   5    0.34    0.15 
   6  11   5   -0.06    0.11 
   7  11   5    0.08    0.13 
   8  11   5    1.03    0.27 
   9  11   5   -0.09    0.13 
  10  11   5   -0.05    0.15 
   0  12   5   -0.05    0.13 
   1  12   5    0.72    0.24 
   2  12   5    0.08    0.15 
   3  12   5    0.62    0.23 
   4  12   5    1.38    0.29 
   5  12   5    0.02    0.16 
   6  12   5    0.04    0.12 
   7  12   5   -0.09    0.14 
   8  12   5    0.54    0.19 
   9  12   5    0.13    0.17 
  10  12   5    0.14    0.17 
   2  13   5    0.08    0.19 
   3  13   5    1.58    0.34 
   4  13   5    1.73    0.35 
   5  13   5    0.37    0.21 
   6  13   5    0.48    0.22 
   7  13   5    1.17    0.29 
   8  13   5    0.07    0.18 
   6  11  -6    0.32    0.15 
   5  11  -6    0.88    0.21 
   4  11  -6    0.39    0.15 
   3  11  -6    0.64    0.18 
   2  11  -6    0.01    0.14 
   8  10  -6    0.01    0.11 
   7  10  -6    0.06    0.13 
   6  10  -6    0.06    0.12 
   5  10  -6    1.02    0.21 
   4  10  -6    0.47    0.14 
   3  10  -6    0.86    0.18 
   2  10  -6    0.67    0.18 
   1  10  -6    0.24    0.12 
   0  10  -6    0.42    0.15 
   9   9  -6    0.01    0.13 
   8   9  -6    0.16    0.13 
   7   9  -6   -0.10    0.09 
   6   9  -6    0.18    0.11 
   5   9  -6    0.27    0.12 
   4   9  -6    0.49    0.13 
   3   9  -6    0.61    0.15 
   2   9  -6    0.16    0.11 
   1   9  -6    0.55    0.15 
   0   9  -6    0.13    0.12 
  -1   9  -6    0.09    0.13 
  -1   9  -6    0.27    0.15 
  -2   9  -6    0.18    0.14 
  -2   9  -6    0.01    0.14 
  10   8  -6   -0.04    0.12 
   9   8  -6    0.47    0.18 
   8   8  -6    0.21    0.14 
   7   8  -6    0.20    0.12 
   6   8  -6    0.70    0.16 
   5   8  -6    0.24    0.10 
   4   8  -6    0.07    0.07 
   3   8  -6    0.73    0.16 
   2   8  -6    0.13    0.08 
   1   8  -6    0.97    0.18 
   0   8  -6    0.00    0.10 
   0   8  -6    0.05    0.09 
  -1   8  -6   -0.09    0.10 
  -1   8  -6   -0.02    0.09 
  -2   8  -6    0.13    0.14 
  -2   8  -6    0.00    0.13 
  -3   8  -6    0.07    0.16 
  10   7  -6   -0.01    0.13 
   9   7  -6    0.07    0.13 
   8   7  -6    0.17    0.12 
   7   7  -6    2.82    0.33 
   6   7  -6    0.93    0.19 
   5   7  -6    1.11    0.19 
   4   7  -6   -0.03    0.06 
   3   7  -6    2.39    0.25 
   2   7  -6    4.21    0.29 
   1   7  -6    0.02    0.07 
   1   7  -6    0.02    0.08 
   0   7  -6    0.67    0.15 
   0   7  -6    0.78    0.16 
  -1   7  -6    0.01    0.10 
  -1   7  -6    0.06    0.11 
  -2   7  -6    0.65    0.18 
  -3   7  -6    0.29    0.17 
  -4   7  -6    0.14    0.20 
  -5   7  -6    0.08    0.22 
  10   6  -6    0.11    0.14 
   9   6  -6    0.00    0.13 
   8   6  -6    1.28    0.23 
   7   6  -6    0.19    0.12 
   6   6  -6    0.00    0.07 
   5   6  -6    1.73    0.23 
   4   6  -6    0.25    0.10 
   3   6  -6    4.91    0.31 
   2   6  -6   18.37    0.67 
   2   6  -6   18.12    0.70 
   1   6  -6    0.11    0.08 
   1   6  -6    0.20    0.09 
   0   6  -6   10.51    0.49 
   0   6  -6    9.68    0.45 
  -1   6  -6    1.49    0.22 
  -2   6  -6    0.85    0.19 
  -3   6  -6    0.65    0.22 
  -4   6  -6    0.49    0.23 
  -5   6  -6    0.13    0.23 
  -6   6  -6   -0.15    0.23 
  11   5  -6    0.07    0.18 
  10   5  -6    0.38    0.22 
   9   5  -6    0.31    0.17 
   8   5  -6    0.77    0.22 
   7   5  -6   -0.13    0.08 
   6   5  -6    4.68    0.39 
   5   5  -6    1.12    0.18 
   4   5  -6   13.61    0.58 
   3   5  -6   19.84    0.73 
   2   5  -6    1.23    0.14 
   2   5  -6    1.26    0.18 
   1   5  -6    9.56    0.40 
   1   5  -6    9.47    0.43 
   0   5  -6    3.50    0.28 
  -1   5  -6    2.18    0.25 
  -2   5  -6    0.00    0.11 
  -3   5  -6    4.98    0.42 
  -4   5  -6    0.58    0.24 
  -5   5  -6    0.16    0.22 
  -6   5  -6    0.18    0.26 
  -7   5  -6    0.23    0.29 
  11   4  -6    0.48    0.24 
  10   4  -6   -0.15    0.17 
   9   4  -6    0.32    0.18 
   8   4  -6    0.69    0.20 
   7   4  -6    0.25    0.13 
  -7  -4   6    0.16    0.12 
   6   4  -6    1.40    0.24 
  -6  -4   6    1.62    0.23 
   5   4  -6    4.22    0.30 
  -5  -4   6    4.27    0.36 
   4   4  -6    7.92    0.40 
  -4  -4   6    7.46    0.43 
   3   4  -6   10.66    0.46 
   2   4  -6    3.43    0.18 
   2   4  -6    3.46    0.23 
   1   4  -6    1.19    0.12 
   1   4  -6    1.19    0.16 
   0   4  -6    0.53    0.13 
  -1   4  -6    4.92    0.31 
  -2   4  -6    0.06    0.14 
  -3   4  -6    1.49    0.27 
  -4   4  -6    0.61    0.22 
  -5   4  -6    4.90    0.48 
  -6   4  -6    0.02    0.23 
  -7   4  -6    0.11    0.26 
  10   3  -6   -0.02    0.16 
   9   3  -6    0.05    0.15 
   8   3  -6    0.16    0.13 
   7   3  -6    0.21    0.14 
  -7  -3   6    0.20    0.11 
   6   3  -6    0.23    0.12 
  -6  -3   6    0.35    0.13 
   5   3  -6    0.32    0.12 
  -5  -3   6    0.20    0.10 
   4   3  -6   24.42    0.85 
  -4  -3   6   24.65    0.92 
   3   3  -6    0.38    0.10 
  -3  -3   6    0.39    0.13 
   2   3  -6    4.37    0.17 
   2   3  -6    4.36    0.25 
  -2  -3   6    4.10    0.35 
   1   3  -6    6.04    0.30 
   1   3  -6    6.14    0.24 
  -1  -3   6    6.29    0.38 
   0   3  -6    5.73    0.31 
  -1   3  -6    0.01    0.09 
  -2   3  -6    1.42    0.22 
  -3   3  -6    4.23    0.37 
  -4   3  -6   11.46    0.61 
  -5   3  -6    0.08    0.18 
  -6   3  -6   -0.01    0.21 
  -7   3  -6   -0.07    0.23 
  -8   3  -6   -0.25    0.24 
  10   2  -6    0.15    0.18 
   9   2  -6    0.04    0.16 
   8   2  -6    0.56    0.18 
   7   2  -6    1.58    0.26 
  -7  -2   6    2.06    0.25 
   6   2  -6    1.22    0.21 
  -6  -2   6    1.54    0.22 
   5   2  -6    1.61    0.22 
  -5  -2   6    1.67    0.23 
   4   2  -6    3.09    0.27 
  -4  -2   6    3.26    0.30 
   3   2  -6    2.85    0.23 
  -3  -2   6    2.72    0.28 
   2   2  -6    0.49    0.11 
  -2  -2   6    0.42    0.13 
   1   2  -6    2.58    0.18 
  -1  -2   6    2.72    0.27 
   0   2  -6    0.11    0.08 
   0  -2   6    0.09    0.11 
  -1   2  -6    4.21    0.26 
  -2   2  -6   -0.07    0.13 
  -3   2  -6    4.29    0.34 
  -4   2  -6   -0.02    0.16 
  -5   2  -6    1.50    0.28 
  -6   2  -6    2.54    0.36 
  -7   2  -6    0.60    0.25 
  -8   2  -6   -0.26    0.21 
  -9   2  -6   -0.22    0.22 
  10   1  -6    0.05    0.17 
   9   1  -6    0.04    0.14 
   8   1  -6   -0.11    0.11 
   7   1  -6    2.26    0.30 
  -7  -1   6    2.25    0.27 
   6   1  -6    1.22    0.21 
  -6  -1   6    1.07    0.20 
   5   1  -6    0.42    0.14 
  -5  -1   6    0.26    0.13 
   4   1  -6    1.54    0.20 
  -4  -1   6    1.32    0.21 
   3   1  -6    1.55    0.18 
  -3  -1   6    1.84    0.24 
   2   1  -6   11.74    0.44 
  -2  -1   6   11.15    0.51 
   1   1  -6    2.58    0.18 
  -1  -1   6    3.15    0.28 
   0   1  -6    0.09    0.07 
   0  -1   6    0.15    0.10 
  -1   1  -6    3.74    0.23 
   1  -1   6    3.94    0.32 
  -2   1  -6    3.46    0.27 
   2  -1   6    3.35    0.30 
  -3   1  -6    0.70    0.18 
  -4   1  -6    0.80    0.19 
  -5   1  -6    2.94    0.31 
  -6   1  -6    0.31    0.19 
  -7   1  -6    0.22    0.20 
  -8   1  -6    0.16    0.23 
  -9   1  -6    0.22    0.25 
  10   0  -6    0.11    0.17 
   9   0  -6    0.65    0.21 
   8   0  -6    0.24    0.15 
   7   0  -6    0.04    0.12 
  -7   0   6   -0.06    0.10 
   6   0  -6    2.01    0.26 
  -6   0   6    2.06    0.27 
   5   0  -6    2.18    0.25 
  -5   0   6    2.66    0.29 
   4   0  -6    8.66    0.42 
  -4   0   6    8.82    0.45 
   3   0  -6   43.61    1.31 
  -3   0   6   45.67    1.26 
  -3   0   6   44.06    1.43 
   2   0  -6    2.85    0.19 
  -2   0   6    2.64    0.26 
   1   0  -6   -0.03    0.04 
  -1   0   6    0.00    0.03 
  -1   0   6   -0.04    0.07 
   0   0  -6    1.83    0.14 
   0   0   6    1.89    0.22 
   0   0   6    1.73    0.12 
  -1   0  -6   12.47    0.43 
   1   0   6   11.72    0.46 
   1   0   6   12.05    0.52 
  -2   0  -6    2.86    0.23 
   2   0   6    2.97    0.26 
   2   0   6    2.76    0.24 
  -3   0  -6   12.63    0.53 
   3   0   6   13.02    0.55 
   3   0   6   13.12    0.58 
  -4   0  -6    5.35    0.34 
   4   0   6    4.94    0.35 
  -5   0  -6    2.71    0.28 
   5   0   6    3.34    0.35 
  -6   0  -6    0.27    0.19 
  -7   0  -6    4.45    0.39 
  -8   0  -6    1.27    0.29 
  -9   0  -6    0.05    0.22 
 -10   0  -6   -0.34    0.21 
  10  -1  -6    0.02    0.19 
   9  -1  -6    0.18    0.16 
   8  -1  -6    0.27    0.14 
   7  -1  -6    3.13    0.34 
  -7   1   6    3.66    0.35 
   6  -1  -6    0.91    0.19 
  -6   1   6    0.68    0.16 
   5  -1  -6    0.73    0.16 
  -5   1   6    0.85    0.18 
   4  -1  -6    2.64    0.25 
  -4   1   6    2.46    0.28 
   3  -1  -6   52.49    1.52 
  -3   1   6   53.10    1.52 
  -3   1   6   52.15    1.66 
   2  -1  -6   20.42    0.66 
  -2   1   6   19.12    0.76 
  -2   1   6   20.84    0.63 
   1  -1  -6    5.53    0.27 
  -1   1   6    7.81    0.27 
  -1   1   6    7.09    0.37 
   0   1   6    8.32    0.41 
   0   1   6    8.94    0.34 
  -1  -1  -6    2.27    0.15 
   1   1   6    2.41    0.17 
   1   1   6    2.69    0.24 
  -2  -1  -6   35.12    1.01 
   2   1   6   34.56    1.12 
   2   1   6   33.79    1.13 
  -3  -1  -6   41.13    1.19 
   3   1   6   40.37    1.27 
   3   1   6   39.93    1.34 
  -4  -1  -6   20.51    0.71 
   4   1   6   20.17    0.74 
   4   1   6   21.57    0.85 
  -5  -1  -6    0.14    0.14 
   5   1   6    0.06    0.08 
  -6  -1  -6    0.42    0.18 
   6   1   6    0.32    0.12 
  -7  -1  -6    4.07    0.36 
   7   1   6    3.73    0.43 
  -8  -1  -6    1.74    0.30 
  -9  -1  -6    0.52    0.24 
 -10  -1  -6    0.32    0.25 
   9  -2  -6    0.28    0.19 
   8  -2  -6    0.21    0.15 
   7  -2  -6    0.11    0.13 
  -7   2   6    0.12    0.11 
   6  -2  -6    4.78    0.34 
  -6   2   6    4.59    0.40 
   5  -2  -6    1.41    0.22 
  -5   2   6    1.42    0.24 
   4  -2  -6    0.45    0.12 
  -4   2   6    0.39    0.10 
  -4   2   6    0.64    0.17 
   3  -2  -6    0.99    0.15 
  -3   2   6    0.86    0.18 
  -3   2   6    0.91    0.11 
   2  -2  -6    2.61    0.18 
  -2   2   6    2.59    0.16 
  -2   2   6    2.61    0.28 
   1  -2  -6    0.42    0.08 
  -1   2   6    0.48    0.09 
  -1   2   6    0.69    0.16 
   0  -2  -6    0.58    0.07 
   0   2   6    0.70    0.14 
   0   2   6    0.66    0.10 
  -1  -2  -6    1.77    0.11 
   1   2   6    1.76    0.17 
   1   2   6    1.66    0.20 
  -2  -2  -6   21.44    0.64 
   2   2   6   19.89    0.74 
   2   2   6   21.22    0.75 
  -3  -2  -6    7.13    0.31 
   3   2   6    7.41    0.35 
   3   2   6    5.93    0.36 
  -4  -2  -6    2.80    0.22 
   4   2   6    2.87    0.29 
   4   2   6    2.84    0.21 
  -5  -2  -6    4.27    0.28 
   5   2   6    3.87    0.25 
   5   2   6    3.86    0.37 
  -6  -2  -6    4.39    0.30 
   6   2   6    5.00    0.38 
  -7  -2  -6    5.13    0.37 
   7   2   6    5.00    0.48 
  -8  -2  -6   -0.08    0.15 
   8   2   6    0.11    0.10 
  -9  -2  -6    1.21    0.26 
   9   2   6    0.80    0.23 
 -10  -2  -6    0.09    0.22 
 -11  -2  -6   -0.15    0.23 
  -9   3   6    0.07    0.17 
   8  -3  -6    0.23    0.17 
   7  -3  -6   -0.14    0.12 
  -7   3   6   -0.02    0.10 
   6  -3  -6    0.12    0.12 
  -6   3   6   -0.01    0.09 
   5  -3  -6    5.30    0.33 
  -5   3   6    5.02    0.37 
   4  -3  -6    6.59    0.36 
  -4   3   6    7.60    0.36 
   3  -3  -6   14.02    0.55 
  -3   3   6   16.31    0.57 
   2  -3  -6    1.69    0.16 
  -2   3   6    1.71    0.16 
   1  -3  -6   15.31    0.48 
  -1   3   6   14.45    0.54 
   0  -3  -6    0.88    0.08 
   0   3   6    1.12    0.18 
   0   3   6    0.79    0.12 
  -1  -3  -6  101.82    2.56 
   1   3   6   98.39    2.88 
   1   3   6  100.01    2.88 
  -2  -3  -6   41.23    1.10 
   2   3   6   40.82    1.32 
   2   3   6   40.97    1.29 
  -3  -3  -6   17.49    0.54 
   3   3   6   17.34    0.69 
   3   3   6   16.20    0.62 
   4   3   6    2.63    0.28 
   4   3   6    2.98    0.21 
  -5  -3  -6    3.46    0.24 
   5   3   6    2.86    0.32 
   5   3   6    4.12    0.24 
  -6  -3  -6    3.36    0.29 
   6   3   6    4.05    0.39 
  -7  -3  -6    2.33    0.27 
   7   3   6    2.03    0.31 
  -8  -3  -6    1.61    0.26 
   8   3   6    1.25    0.26 
  -9  -3  -6    2.72    0.35 
   9   3   6    2.12    0.35 
 -10  -3  -6    0.18    0.21 
  10   3   6   -0.07    0.14 
 -11  -3  -6    0.41    0.26 
  -8   4   6   -0.03    0.17 
  -7   4   6    1.27    0.24 
  -6   4   6    0.27    0.14 
  -6   4   6    0.29    0.11 
   5  -4  -6    7.38    0.42 
  -5   4   6    6.71    0.39 
  -4   4   6   10.68    0.48 
   3  -4  -6   -0.02    0.08 
  -3   4   6   -0.05    0.06 
   2  -4  -6    0.62    0.11 
  -2   4   6    0.47    0.11 
   1  -4  -6    2.13    0.13 
  -1   4   6    2.11    0.20 
   0  -4  -6    5.64    0.19 
   0   4   6    4.82    0.29 
   1   4   6   14.32    0.58 
  -2  -4  -6   65.97    1.66 
   2   4   6   64.34    1.95 
   2   4   6   64.07    1.98 
  -3  -4  -6   14.68    0.46 
   3   4   6   14.96    0.64 
   3   4   6   15.17    0.60 
  -4  -4  -6   13.04    0.44 
   4   4   6   12.30    0.59 
   4   4   6   12.53    0.51 
  -5  -4  -6    1.87    0.18 
   5   4   6    2.54    0.19 
   5   4   6    2.06    0.26 
  -6  -4  -6    0.53    0.16 
   6   4   6    0.74    0.18 
   6   4   6    0.62    0.11 
  -7  -4  -6    1.47    0.22 
   7   4   6    1.05    0.22 
  -8  -4  -6    2.25    0.28 
   8   4   6    2.10    0.35 
  -9  -4  -6    0.78    0.22 
   9   4   6    0.25    0.16 
 -10  -4  -6    0.42    0.22 
  10   4   6    0.96    0.27 
 -11  -4  -6    0.23    0.23 
  11   4   6    0.01    0.17 
  -7   5   6    1.75    0.26 
  -6   5   6    1.24    0.21 
  -5   5   6    0.40    0.12 
  -5   5   6    0.44    0.16 
  -4   5   6    0.43    0.15 
  -4   5   6    0.43    0.12 
  -3   5   6    1.60    0.18 
  -3   5   6    1.39    0.20 
  -2   5   6   13.18    0.45 
  -2   5   6   11.06    0.52 
  -1   5   6    6.04    0.34 
  -1   5   6    6.12    0.25 
   0   5   6    1.28    0.18 
   1   5   6    0.90    0.15 
   2   5   6   74.80    2.28 
  -3  -5  -6    0.98    0.09 
   3   5   6    1.20    0.21 
  -4  -5  -6    0.22    0.08 
   4   5   6   -0.07    0.05 
   4   5   6    0.03    0.10 
  -5  -5  -6    0.45    0.12 
   5   5   6    0.60    0.13 
   5   5   6    0.23    0.11 
  -6  -5  -6    8.15    0.38 
   6   5   6    8.41    0.36 
   6   5   6    7.74    0.49 
  -7  -5  -6    1.64    0.22 
   7   5   6    1.96    0.29 
  -8  -5  -6    0.47    0.18 
   8   5   6    0.67    0.21 
  -9  -5  -6    1.30    0.25 
   9   5   6    1.74    0.32 
 -10  -5  -6   -0.13    0.15 
  10   5   6    0.05    0.15 
 -11  -5  -6    0.65    0.24 
  11   5   6    0.45    0.23 
  -7   6   6    0.59    0.19 
  -6   6   6    0.20    0.12 
  -5   6   6    0.62    0.17 
  -4   6   6    1.68    0.23 
  -3   6   6    1.64    0.23 
  -2   6   6    2.39    0.26 
  -1   6   6    2.48    0.26 
   0   6   6    1.04    0.17 
   1   6   6    1.58    0.21 
   2   6   6    1.83    0.24 
   3   6   6    0.33    0.12 
  -4  -6  -6    1.67    0.12 
   4   6   6    1.48    0.22 
  -5  -6  -6   11.18    0.42 
   5   6   6   11.64    0.61 
   5   6   6   12.36    0.52 
  -6  -6  -6    1.07    0.17 
   6   6   6    1.22    0.17 
   6   6   6    0.60    0.16 
  -7  -6  -6    2.46    0.24 
   7   6   6    2.53    0.35 
  -8  -6  -6   -0.10    0.11 
   8   6   6    0.03    0.12 
  -9  -6  -6    0.94    0.21 
   9   6   6    1.04    0.28 
 -10  -6  -6    0.03    0.16 
  10   6   6    0.09    0.16 
 -11  -6  -6   -0.08    0.17 
  11   6   6    0.20    0.18 
  -6   7   6    0.00    0.13 
  -5   7   6    0.83    0.21 
  -4   7   6    1.09    0.20 
  -3   7   6    0.14    0.10 
  -2   7   6    0.07    0.08 
  -1   7   6   23.93    0.93 
   0   7   6    0.05    0.07 
   1   7   6   -0.09    0.06 
   2   7   6    1.03    0.19 
   3   7   6   14.00    0.66 
   4   7   6   11.10    0.58 
   5   7   6    1.15    0.22 
   6   7   6    0.89    0.21 
  -7  -7  -6    0.22    0.13 
   7   7   6    0.28    0.14 
  -8  -7  -6    0.85    0.17 
   8   7   6    1.02    0.23 
  -9  -7  -6    1.55    0.24 
   9   7   6    1.62    0.31 
 -10  -7  -6   -0.01    0.16 
  10   7   6   -0.10    0.13 
 -11  -7  -6    0.16    0.20 
  11   7   6    0.35    0.20 
  -5   8   6    0.26    0.15 
  -4   8   6    0.22    0.13 
  -3   8   6    0.21    0.14 
  -2   8   6    2.39    0.31 
  -1   8   6    2.50    0.31 
   0   8   6    7.79    0.47 
   1   8   6    2.31    0.29 
   2   8   6    5.63    0.38 
   3   8   6   20.89    0.89 
   4   8   6    8.37    0.49 
   5   8   6    0.08    0.11 
   6   8   6   10.55    0.63 
   7   8   6    1.17    0.25 
   8   8   6    0.64    0.20 
   9   8   6    0.71    0.21 
  10   8   6    0.05    0.17 
  11   8   6    0.64    0.25 
  -4   9   6    0.47    0.20 
  -3   9   6    0.98    0.23 
  -2   9   6    2.44    0.34 
  -1   9   6    0.16    0.11 
   0   9   6    2.43    0.32 
   1   9   6    0.29    0.12 
   2   9   6    0.30    0.12 
   3   9   6   12.79    0.67 
   4   9   6    0.13    0.12 
   5   9   6    6.39    0.47 
   6   9   6    7.50    0.53 
   7   9   6    0.09    0.12 
   8   9   6    2.14    0.35 
   9   9   6    0.32    0.18 
  10   9   6    0.14    0.16 
  11   9   6    0.14    0.19 
  -3  10   6    0.83    0.24 
  -2  10   6    0.82    0.22 
  -1  10   6    0.49    0.18 
   0  10   6    5.18    0.49 
   1  10   6    0.10    0.11 
   2  10   6    0.29    0.14 
   3  10   6    0.40    0.15 
   4  10   6    0.14    0.10 
   5  10   6    1.38    0.26 
   6  10   6    0.24    0.16 
   7  10   6    0.84    0.24 
   8  10   6    0.09    0.13 
   9  10   6   -0.02    0.12 
  10  10   6    0.20    0.17 
  11  10   6    0.41    0.25 
  -2  11   6   -0.11    0.13 
  -1  11   6    0.11    0.16 
   0  11   6    0.47    0.20 
   1  11   6    0.35    0.17 
   2  11   6    2.63    0.37 
   3  11   6    0.59    0.21 
   4  11   6    0.59    0.20 
   5  11   6    0.58    0.20 
   6  11   6    1.60    0.30 
   7  11   6    0.76    0.24 
   8  11   6    0.20    0.19 
   9  11   6   -0.10    0.14 
  10  11   6    0.33    0.20 
   0  12   6    0.10    0.16 
   1  12   6    0.82    0.25 
   2  12   6    1.10    0.27 
   3  12   6    0.17    0.16 
   4  12   6   -0.13    0.12 
   5  12   6    0.12    0.14 
   6  12   6    0.93    0.26 
   7  12   6    0.11    0.17 
   8  12   6    0.16    0.18 
   9  12   6   -0.09    0.15 
   2  13   6   -0.15    0.13 
   3  13   6    0.32    0.20 
   4  13   6    0.15    0.18 
   5  13   6    0.17    0.16 
   6  13   6    0.25    0.18 
   7  13   6   -0.08    0.16 
   8  13   6    0.32    0.22 
   7  10  -7    0.16    0.14 
   6  10  -7    0.27    0.14 
   5  10  -7    0.09    0.13 
   4  10  -7    0.14    0.13 
   3  10  -7    0.15    0.13 
   2  10  -7    0.16    0.12 
   1  10  -7    0.45    0.17 
   8   9  -7    0.09    0.12 
   7   9  -7    0.29    0.14 
   6   9  -7    0.15    0.11 
   5   9  -7    0.15    0.11 
   4   9  -7    0.09    0.11 
   3   9  -7    0.26    0.13 
   2   9  -7    0.25    0.13 
   1   9  -7    0.41    0.14 
   0   9  -7    0.07    0.12 
  -1   9  -7    0.08    0.11 
   9   8  -7    0.13    0.14 
   8   8  -7    0.29    0.15 
   7   8  -7    0.09    0.12 
   6   8  -7    0.22    0.11 
   5   8  -7   -0.17    0.08 
   4   8  -7    1.48    0.23 
   3   8  -7    0.14    0.08 
   2   8  -7    0.13    0.09 
   1   8  -7    0.25    0.11 
   0   8  -7    0.45    0.15 
  -1   8  -7    0.07    0.12 
  -2   8  -7    0.07    0.12 
  -2   8  -7    0.06    0.14 
  -3   8  -7    0.13    0.16 
  -3   8  -7    0.02    0.14 
  10   7  -7    0.03    0.14 
   9   7  -7    0.77    0.22 
   8   7  -7    0.29    0.16 
   7   7  -7    0.03    0.10 
   6   7  -7    0.55    0.15 
   5   7  -7    3.25    0.33 
   4   7  -7    0.38    0.11 
   3   7  -7    0.04    0.07 
   2   7  -7    1.26    0.20 
   1   7  -7    0.07    0.06 
   0   7  -7    0.23    0.11 
  -1   7  -7    0.07    0.11 
  -1   7  -7   -0.02    0.11 
  -2   7  -7    0.03    0.12 
  -3   7  -7    0.33    0.18 
  -4   7  -7   -0.16    0.16 
  10   6  -7    0.14    0.17 
   9   6  -7    0.02    0.14 
   8   6  -7    0.17    0.14 
   7   6  -7    0.40    0.13 
   6   6  -7    0.19    0.10 
   5   6  -7    0.59    0.14 
   4   6  -7    0.09    0.08 
   3   6  -7    0.29    0.10 
   2   6  -7    0.02    0.06 
   1   6  -7    0.09    0.08 
   0   6  -7    0.09    0.09 
   0   6  -7    0.13    0.09 
  -1   6  -7   -0.11    0.09 
  -2   6  -7   -0.17    0.10 
  -3   6  -7    1.50    0.28 
  -4   6  -7    0.06    0.18 
  -5   6  -7    0.30    0.23 
  10   5  -7    0.25    0.21 
   9   5  -7    0.09    0.15 
   8   5  -7    0.02    0.13 
   7   5  -7    0.32    0.16 
   6   5  -7    0.23    0.13 
   5   5  -7    8.85    0.48 
   4   5  -7    4.15    0.30 
   3   5  -7    8.58    0.43 
   2   5  -7    1.65    0.21 
   1   5  -7    1.11    0.17 
   0   5  -7    0.35    0.12 
  -1   5  -7    0.29    0.13 
  -2   5  -7    0.45    0.16 
  -3   5  -7    2.10    0.31 
  -4   5  -7    1.37    0.30 
  -5   5  -7    0.03    0.22 
  -6   5  -7    0.33    0.27 
  10   4  -7    0.65    0.25 
   9   4  -7    0.08    0.17 
   8   4  -7    0.17    0.15 
   7   4  -7    0.73    0.19 
  -7  -4   7    1.03    0.21 
   6   4  -7    0.82    0.18 
  -6  -4   7    0.80    0.19 
   5   4  -7    8.84    0.48 
  -5  -4   7    9.66    0.52 
   4   4  -7    2.66    0.27 
  -4  -4   7    2.74    0.32 
   3   4  -7    0.09    0.08 
  -3  -4   7    0.19    0.11 
   2   4  -7    9.26    0.43 
   1   4  -7    0.50    0.12 
   1   4  -7    0.45    0.08 
   0   4  -7    0.18    0.10 
  -1   4  -7    0.67    0.16 
  -2   4  -7    1.79    0.25 
  -3   4  -7    0.70    0.20 
  -4   4  -7    0.30    0.21 
  -5   4  -7    0.05    0.22 
  -6   4  -7    0.29    0.24 
  -7   4  -7    0.15    0.28 
  10   3  -7   -0.01    0.19 
   9   3  -7    0.16    0.15 
   8   3  -7    2.50    0.34 
   7   3  -7   -0.02    0.13 
  -7  -3   7    0.03    0.10 
   6   3  -7    3.97    0.37 
  -6  -3   7    3.93    0.35 
   5   3  -7    0.63    0.16 
  -5  -3   7    0.63    0.16 
   4   3  -7    2.99    0.27 
  -4  -3   7    3.62    0.34 
   3   3  -7    4.88    0.29 
  -3  -3   7    4.62    0.34 
   2   3  -7    0.18    0.07 
  -2  -3   7    0.01    0.08 
   1   3  -7    5.33    0.29 
   1   3  -7    5.66    0.22 
  -1  -3   7    4.73    0.35 
   0   3  -7    2.09    0.21 
  -1   3  -7    1.57    0.20 
  -2   3  -7    4.64    0.34 
  -3   3  -7    1.91    0.28 
  -4   3  -7    0.87    0.25 
  -5   3  -7   -0.06    0.20 
  -6   3  -7    0.49    0.26 
  -7   3  -7    0.00    0.24 
  -8   3  -7    0.13    0.27 
  10   2  -7    0.13    0.19 
   9   2  -7    0.37    0.19 
   8   2  -7    0.25    0.16 
   7   2  -7   -0.13    0.13 
  -7  -2   7   -0.01    0.10 
   6   2  -7   -0.02    0.11 
  -6  -2   7   -0.05    0.07 
   5   2  -7    3.94    0.33 
  -5  -2   7    3.90    0.34 
   4   2  -7    1.47    0.20 
  -4  -2   7    1.14    0.20 
   3   2  -7    3.26    0.26 
  -3  -2   7    2.77    0.30 
   2   2  -7    2.98    0.23 
  -2  -2   7    2.79    0.30 
   1   2  -7    5.10    0.27 
  -1  -2   7    4.45    0.32 
   0   2  -7    1.52    0.17 
   0  -2   7    1.17    0.22 
  -1   2  -7    2.92    0.24 
   1  -2   7    3.49    0.34 
  -2   2  -7   -0.14    0.12 
  -3   2  -7    8.27    0.47 
  -4   2  -7    2.27    0.31 
  -5   2  -7   -0.04    0.17 
  -6   2  -7    1.04    0.28 
  -7   2  -7    0.04    0.21 
  -8   2  -7    0.07    0.25 
  10   1  -7    0.09    0.17 
   9   1  -7    0.19    0.17 
   8   1  -7    0.52    0.19 
   7   1  -7    0.09    0.13 
  -7  -1   7    0.02    0.09 
   6   1  -7    4.32    0.38 
  -6  -1   7    3.83    0.36 
   5   1  -7    0.88    0.18 
  -5  -1   7    0.94    0.19 
   4   1  -7    8.55    0.42 
  -4  -1   7    8.06    0.46 
   3   1  -7    0.53    0.12 
  -3  -1   7    0.22    0.12 
   2   1  -7    7.50    0.34 
  -2  -1   7    7.71    0.43 
   1   1  -7   14.41    0.51 
  -1  -1   7   13.09    0.60 
   0   1  -7   16.70    0.57 
   0  -1   7   16.23    0.69 
  -1   1  -7    0.33    0.11 
   1  -1   7    0.49    0.14 
  -2   1  -7    8.63    0.43 
   2  -1   7    9.21    0.48 
  -3   1  -7    0.31    0.17 
  -4   1  -7    2.28    0.29 
  -5   1  -7    0.02    0.16 
  -6   1  -7    1.28    0.26 
  -7   1  -7    0.74    0.26 
  -8   1  -7    0.03    0.23 
  -9   1  -7   -0.04    0.24 
  10   0  -7    0.38    0.22 
   9   0  -7    0.20    0.17 
   8   0  -7    0.09    0.13 
   7   0  -7    0.27    0.16 
  -7   0   7    0.15    0.14 
   6   0  -7    0.32    0.13 
  -6   0   7   -0.03    0.09 
   5   0  -7   -0.09    0.08 
  -5   0   7    0.20    0.11 
   4   0  -7    0.75    0.16 
  -4   0   7    0.77    0.18 
   3   0  -7    3.48    0.26 
  -3   0   7    3.31    0.32 
   2   0  -7   18.58    0.64 
  -2   0   7   18.28    0.75 
   1   0  -7    0.91    0.12 
  -1   0   7    0.88    0.08 
  -1   0   7    0.79    0.16 
   0   0  -7   21.83    0.67 
   0   0   7   20.94    0.81 
   0   0   7   21.14    0.69 
  -1   0  -7    0.28    0.10 
   1   0   7    0.51    0.14 
   1   0   7    0.33    0.09 
  -2   0  -7    5.07    0.30 
   2   0   7    5.07    0.33 
   2   0   7    4.96    0.30 
  -3   0  -7    7.50    0.40 
   3   0   7    7.86    0.43 
   3   0   7    7.98    0.43 
  -4   0  -7    0.05    0.14 
   4   0   7    0.08    0.10 
  -5   0  -7    2.11    0.28 
   5   0   7    2.92    0.33 
  -6   0  -7   11.69    0.58 
  -7   0  -7    0.36    0.21 
  -8   0  -7    0.05    0.20 
  -9   0  -7    0.46    0.29 
 -10   0  -7    0.14    0.28 
   9  -1  -7    0.20    0.17 
   8  -1  -7    1.26    0.25 
   7  -1  -7    0.33    0.17 
  -7   1   7    0.82    0.19 
   6  -1  -7    9.13    0.49 
  -6   1   7    8.20    0.48 
   5  -1  -7   19.24    0.76 
  -5   1   7   19.36    0.81 
   4  -1  -7    1.07    0.18 
  -4   1   7    0.72    0.16 
  -4   1   7    0.69    0.10 
   3  -1  -7    2.75    0.23 
  -3   1   7    2.26    0.27 
  -3   1   7    2.47    0.15 
   2  -1  -7    0.06    0.06 
  -2   1   7   -0.03    0.08 
  -2   1   7    0.02    0.05 
   1  -1  -7    5.81    0.27 
  -1   1   7    5.87    0.35 
  -1   1   7    5.86    0.25 
   0  -1  -7   30.51    0.90 
   0   1   7   32.48    0.98 
   0   1   7   30.53    1.07 
  -1  -1  -7    3.97    0.21 
   1   1   7    4.28    0.29 
   1   1   7    3.69    0.23 
  -2  -1  -7    0.14    0.11 
   2   1   7    0.14    0.09 
   2   1   7    0.12    0.09 
  -3  -1  -7    3.08    0.26 
   3   1   7    2.39    0.25 
   3   1   7    2.50    0.27 
  -4  -1  -7    9.16    0.45 
   4   1   7    8.82    0.45 
   4   1   7    9.97    0.52 
  -5  -1  -7    2.59    0.27 
   5   1   7    2.24    0.29 
  -6  -1  -7    1.16    0.23 
   6   1   7    1.01    0.21 
  -7  -1  -7    1.38    0.26 
   7   1   7    1.44    0.28 
  -8  -1  -7   -0.05    0.17 
  -9  -1  -7    0.48    0.25 
 -10  -1  -7    0.47    0.28 
   9  -2  -7    0.65    0.23 
   8  -2  -7    0.46    0.19 
   7  -2  -7    0.09    0.13 
  -7   2   7    0.01    0.12 
   6  -2  -7   13.13    0.62 
  -6   2   7   14.03    0.68 
   5  -2  -7   10.95    0.51 
  -5   2   7    9.75    0.54 
  -5   2   7   10.19    0.44 
   4  -2  -7    0.05    0.10 
  -4   2   7    0.41    0.14 
  -4   2   7    0.08    0.07 
   3  -2  -7    2.01    0.20 
  -3   2   7    2.20    0.27 
  -3   2   7    2.22    0.16 
   2  -2  -7    2.45    0.20 
  -2   2   7    2.93    0.31 
  -2   2   7    2.55    0.17 
   1  -2  -7   10.69    0.39 
  -1   2   7   10.51    0.41 
  -1   2   7   10.05    0.51 
   0  -2  -7    0.27    0.07 
   0   2   7    0.15    0.11 
   0   2   7    0.46    0.10 
  -1  -2  -7    0.89    0.10 
   1   2   7    0.87    0.14 
   1   2   7    0.98    0.18 
  -2  -2  -7   12.13    0.43 
   2   2   7   12.52    0.53 
   2   2   7   12.73    0.54 
  -3  -2  -7    6.05    0.32 
   3   2   7    5.86    0.36 
   3   2   7    6.50    0.36 
  -4  -2  -7   14.58    0.57 
   4   2   7   15.89    0.69 
  -5  -2  -7    5.88    0.34 
   5   2   7    5.76    0.40 
   5   2   7    6.53    0.35 
  -6  -2  -7    0.14    0.15 
   6   2   7    0.58    0.16 
  -7  -2  -7    0.13    0.16 
   7   2   7    0.17    0.12 
  -8  -2  -7   -0.05    0.15 
   8   2   7    0.11    0.11 
  -9  -2  -7    0.66    0.25 
   9   2   7    0.60    0.23 
 -10  -2  -7    0.13    0.22 
   8  -3  -7    0.14    0.17 
   7  -3  -7    0.03    0.14 
  -7   3   7    0.05    0.16 
   6  -3  -7    2.20    0.27 
  -6   3   7    1.87    0.30 
   5  -3  -7   -0.04    0.10 
  -5   3   7    0.18    0.11 
  -5   3   7    0.05    0.08 
   4  -3  -7    0.64    0.15 
  -4   3   7    0.91    0.14 
  -4   3   7    0.91    0.20 
   3  -3  -7    7.50    0.36 
  -3   3   7    7.49    0.46 
  -3   3   7    7.22    0.35 
   2  -3  -7   16.95    0.59 
  -2   3   7   18.02    0.63 
  -2   3   7   16.89    0.75 
   1  -3  -7   18.54    0.59 
  -1   3   7   19.19    0.67 
  -1   3   7   18.29    0.78 
   0  -3  -7    0.05    0.05 
   0   3   7    0.06    0.06 
   0   3   7    0.17    0.12 
  -1  -3  -7   87.97    2.29 
   1   3   7   89.30    2.61 
   1   3   7   88.94    2.60 
  -2  -3  -7    0.28    0.07 
   2   3   7    0.35    0.11 
   2   3   7    0.46    0.13 
  -3  -3  -7    7.68    0.33 
   3   3   7    7.36    0.38 
   3   3   7    7.34    0.41 
  -4  -3  -7    0.05    0.08 
   4   3   7    0.22    0.12 
   4   3   7    0.07    0.06 
  -5  -3  -7    7.64    0.37 
   5   3   7    6.62    0.43 
   5   3   7    7.36    0.37 
  -6  -3  -7    0.10    0.13 
   6   3   7    0.03    0.09 
  -7  -3  -7   -0.16    0.12 
   7   3   7    0.05    0.10 
  -8  -3  -7    2.10    0.29 
   8   3   7    1.91    0.33 
  -9  -3  -7    0.04    0.18 
   9   3   7   -0.05    0.11 
 -10  -3  -7    0.79    0.26 
  10   3   7    0.67    0.25 
 -11  -3  -7    0.08    0.23 
  -7   4   7    0.64    0.20 
   6  -4  -7    0.07    0.14 
  -6   4   7    0.19    0.12 
  -6   4   7    0.08    0.10 
   5  -4  -7    0.52    0.16 
  -5   4   7    0.75    0.15 
  -5   4   7    0.38    0.16 
   4  -4  -7    6.29    0.34 
  -4   4   7    5.29    0.33 
   3  -4  -7    5.09    0.28 
  -3   4   7    4.57    0.29 
   2  -4  -7    2.07    0.18 
  -2   4   7    2.14    0.21 
   1  -4  -7    2.19    0.14 
  -1   4   7    1.94    0.20 
   0  -4  -7    0.62    0.07 
   0   4   7    0.54    0.15 
   0   4   7    0.39    0.11 
  -1  -4  -7    3.24    0.13 
   1   4   7    3.29    0.24 
   1   4   7    3.30    0.32 
  -2  -4  -7   13.33    0.39 
   2   4   7   13.54    0.59 
   2   4   7   13.07    0.58 
  -3  -4  -7   15.87    0.50 
   3   4   7   16.19    0.69 
   3   4   7   15.48    0.64 
  -4  -4  -7    3.01    0.21 
   4   4   7    2.84    0.31 
  -5  -4  -7    7.31    0.34 
   5   4   7    6.74    0.43 
   5   4   7    7.40    0.37 
  -6  -4  -7    1.39    0.20 
   6   4   7    1.61    0.18 
   6   4   7    0.85    0.19 
  -7  -4  -7   -0.04    0.13 
   7   4   7    0.07    0.09 
  -8  -4  -7    0.84    0.21 
   8   4   7    1.01    0.23 
  -9  -4  -7    0.05    0.16 
   9   4   7    0.35    0.16 
 -10  -4  -7    1.25    0.28 
  10   4   7    1.68    0.35 
 -11  -4  -7    0.39    0.23 
  11   4   7    0.08    0.19 
  -6   5   7    1.00    0.19 
  -5   5   7    2.74    0.29 
  -4   5   7    7.79    0.43 
  -3   5   7    1.58    0.20 
  -2   5   7    0.50    0.12 
  -1   5   7    0.74    0.15 
   0   5   7    0.76    0.15 
   1   5   7    0.25    0.11 
   2   5   7    3.39    0.26 
  -3  -5  -7    1.05    0.08 
   3   5   7    1.23    0.21 
   3   5   7    0.79    0.17 
  -4  -5  -7    1.76    0.15 
   4   5   7    1.65    0.23 
   4   5   7    1.72    0.26 
  -5  -5  -7    5.07    0.27 
   5   5   7    4.85    0.30 
   5   5   7    4.12    0.39 
  -6  -5  -7    0.35    0.15 
   6   5   7    0.40    0.12 
   6   5   7    0.42    0.15 
  -7  -5  -7    0.43    0.16 
   7   5   7    0.45    0.17 
  -8  -5  -7    1.15    0.21 
   8   5   7    0.64    0.19 
  -9  -5  -7   -0.02    0.15 
   9   5   7   -0.05    0.11 
 -10  -5  -7    1.33    0.28 
  10   5   7    1.30    0.27 
 -11  -5  -7    0.01    0.21 
  11   5   7   -0.19    0.14 
  -6   6   7    1.65    0.26 
  -5   6   7    1.79    0.26 
  -4   6   7    0.40    0.12 
  -3   6   7    4.43    0.32 
  -2   6   7    9.75    0.49 
  -1   6   7    2.26    0.25 
   0   6   7    0.61    0.13 
   1   6   7    0.10    0.07 
   2   6   7    2.61    0.28 
   3   6   7   16.18    0.71 
   4   6   7    0.39    0.13 
   4   6   7    0.62    0.16 
   5   6   7    4.57    0.43 
   5   6   7    4.61    0.31 
  -6  -6  -7    1.16    0.17 
   6   6   7    1.11    0.18 
   6   6   7    0.98    0.22 
  -7  -6  -7    0.61    0.16 
   7   6   7    0.80    0.20 
  -8  -6  -7   -0.16    0.11 
   8   6   7   -0.03    0.11 
  -9  -6  -7    0.50    0.18 
   9   6   7    0.39    0.19 
 -10  -6  -7    0.10    0.19 
  10   6   7    0.29    0.19 
 -11  -6  -7    0.01    0.19 
  11   6   7   -0.02    0.15 
  -6   7   7    0.09    0.14 
  -5   7   7    0.38    0.15 
  -4   7   7    1.74    0.27 
  -3   7   7    6.49    0.42 
  -2   7   7    1.53    0.23 
  -1   7   7    1.45    0.22 
   0   7   7   11.06    0.55 
   1   7   7    2.91    0.30 
   2   7   7    5.26    0.36 
   3   7   7    3.31    0.33 
   4   7   7    5.03    0.38 
   5   7   7    5.50    0.41 
   6   7   7    3.26    0.29 
   6   7   7    3.05    0.38 
   7   7   7    1.99    0.30 
   8   7   7   -0.02    0.12 
   9   7   7    0.33    0.16 
  10   7   7   -0.02    0.15 
  11   7   7    0.32    0.20 
  -5   8   7    2.69    0.37 
  -4   8   7    0.03    0.12 
  -3   8   7    1.66    0.27 
  -2   8   7    0.39    0.13 
  -1   8   7    1.24    0.22 
   0   8   7    2.06    0.27 
   1   8   7    4.41    0.39 
   2   8   7    0.44    0.14 
   3   8   7    2.64    0.32 
   4   8   7    0.57    0.16 
   5   8   7    4.00    0.42 
   6   8   7    0.66    0.18 
   7   8   7    0.19    0.12 
   8   8   7    0.15    0.14 
   9   8   7    0.10    0.14 
  10   8   7   -0.12    0.17 
  11   8   7    0.08    0.18 
  -4   9   7    0.55    0.21 
  -3   9   7    1.31    0.27 
  -2   9   7    1.24    0.25 
  -1   9   7    1.22    0.24 
   0   9   7    0.48    0.15 
   1   9   7    3.33    0.37 
   2   9   7    1.62    0.26 
   3   9   7    0.04    0.10 
   4   9   7   -0.13    0.07 
   5   9   7    0.88    0.21 
   6   9   7    0.27    0.13 
   7   9   7    1.11    0.25 
   8   9   7    0.15    0.16 
   9   9   7    0.68    0.24 
  10   9   7    0.16    0.19 
  11   9   7    0.36    0.22 
  -3  10   7    0.24    0.17 
  -2  10   7    2.33    0.38 
  -1  10   7    0.33    0.17 
   0  10   7    0.12    0.12 
   1  10   7    1.85    0.31 
   2  10   7    0.60    0.17 
   3  10   7    0.13    0.10 
   4  10   7    2.06    0.31 
   5  10   7    0.09    0.10 
   6  10   7    0.06    0.12 
   7  10   7    0.14    0.13 
   8  10   7    0.30    0.16 
   9  10   7    0.53    0.22 
  10  10   7    0.19    0.20 
  -1  11   7    0.03    0.14 
   0  11   7   -0.04    0.13 
   1  11   7    0.05    0.13 
   2  11   7    0.19    0.14 
   3  11   7    0.44    0.18 
   4  11   7    0.37    0.16 
   5  11   7    1.35    0.27 
   6  11   7    0.16    0.14 
   7  11   7   -0.02    0.12 
   8  11   7    0.46    0.21 
   9  11   7   -0.10    0.16 
  10  11   7    0.09    0.20 
   0  12   7    0.06    0.15 
   1  12   7    0.35    0.19 
   2  12   7    0.96    0.25 
   3  12   7   -0.13    0.13 
   4  12   7    0.24    0.19 
   5  12   7   -0.08    0.13 
   6  12   7    0.20    0.16 
   7  12   7   -0.03    0.14 
   8  12   7   -0.14    0.15 
   9  12   7    0.36    0.23 
   3  13   7    0.01    0.17 
   4  13   7   -0.22    0.14 
   5  13   7    0.02    0.16 
   6  13   7    0.03    0.16 
   7  13   7    0.20    0.20 
   5  10  -8   -0.06    0.10 
   4  10  -8    0.28    0.14 
   3  10  -8    0.85    0.19 
   7   9  -8   -0.03    0.12 
   6   9  -8    0.41    0.17 
   5   9  -8    0.21    0.15 
   4   9  -8   -0.09    0.08 
   3   9  -8    0.16    0.11 
   2   9  -8    0.14    0.11 
   1   9  -8    0.12    0.13 
   0   9  -8    0.16    0.11 
   8   8  -8    0.18    0.16 
   7   8  -8    0.71    0.20 
   6   8  -8   -0.06    0.09 
   5   8  -8   -0.01    0.09 
   4   8  -8    0.06    0.10 
   3   8  -8   -0.06    0.08 
   2   8  -8   -0.06    0.08 
   1   8  -8    0.80    0.19 
   0   8  -8    0.03    0.11 
  -1   8  -8    0.08    0.12 
  -2   8  -8    0.17    0.14 
   9   7  -8    0.13    0.15 
   8   7  -8    0.20    0.14 
   7   7  -8    0.63    0.18 
   6   7  -8    0.19    0.10 
   5   7  -8    0.91    0.19 
   4   7  -8   -0.06    0.06 
   3   7  -8    1.51    0.23 
   2   7  -8    0.04    0.09 
   1   7  -8    0.53    0.14 
   0   7  -8    0.00    0.10 
  -1   7  -8    0.44    0.16 
  -2   7  -8    0.27    0.16 
  -3   7  -8    0.22    0.17 
   9   6  -8    0.47    0.20 
   8   6  -8    0.72    0.22 
   7   6  -8    0.00    0.12 
   6   6  -8    0.47    0.15 
   5   6  -8    0.13    0.08 
   4   6  -8    0.86    0.17 
   3   6  -8    0.28    0.11 
   2   6  -8    4.60    0.32 
   1   6  -8    0.03    0.07 
   0   6  -8    0.00    0.08 
  -1   6  -8    0.62    0.17 
  -2   6  -8    2.30    0.31 
  -3   6  -8    0.22    0.16 
  -4   6  -8    0.05    0.16 
  -5   6  -8    1.22    0.30 
  10   5  -8    0.12    0.21 
   9   5  -8    0.43    0.22 
   8   5  -8    0.26    0.16 
   7   5  -8    0.40    0.16 
   6   5  -8    0.74    0.19 
   5   5  -8    0.67    0.17 
   4   5  -8    1.99    0.25 
   3   5  -8    4.10    0.33 
   2   5  -8    5.53    0.35 
   1   5  -8    3.34    0.30 
   0   5  -8    4.36    0.32 
  -1   5  -8    0.46    0.14 
  -2   5  -8    0.08    0.12 
  -3   5  -8    3.36    0.36 
  -4   5  -8    1.61    0.30 
  -5   5  -8    1.13    0.29 
  -6   5  -8   -0.06    0.21 
  10   4  -8   -0.02    0.20 
   9   4  -8    0.09    0.17 
   8   4  -8    0.07    0.14 
   7   4  -8    0.08    0.13 
  -7  -4   8    0.06    0.12 
   6   4  -8    0.02    0.11 
  -6  -4   8    0.22    0.12 
   5   4  -8    3.80    0.36 
  -5  -4   8    4.54    0.43 
   4   4  -8    0.20    0.11 
  -4  -4   8    0.04    0.11 
   3   4  -8    4.25    0.30 
  -3  -4   8    4.45    0.43 
   2   4  -8    1.34    0.20 
   1   4  -8   10.99    0.49 
   0   4  -8    0.81    0.17 
  -1   4  -8    1.62    0.22 
  -2   4  -8    2.27    0.27 
  -3   4  -8    0.03    0.16 
  -4   4  -8    0.71    0.23 
  -5   4  -8    1.11    0.28 
  -6   4  -8    0.17    0.24 
  -7   4  -8    0.07    0.24 
  10   3  -8    0.18    0.20 
   9   3  -8    0.40    0.21 
   8   3  -8    0.23    0.17 
   7   3  -8    1.12    0.24 
  -7  -3   8    1.98    0.29 
   6   3  -8    3.90    0.38 
  -6  -3   8    4.13    0.39 
   5   3  -8    1.35    0.23 
  -5  -3   8    1.55    0.25 
   4   3  -8    0.84    0.17 
  -4  -3   8    0.84    0.18 
   3   3  -8    5.01    0.30 
  -3  -3   8    4.47    0.41 
   2   3  -8    1.21    0.17 
  -2  -3   8    0.64    0.17 
   1   3  -8    1.90    0.21 
  -1  -3   8    1.63    0.25 
   0   3  -8    0.02    0.08 
  -1   3  -8    0.89    0.17 
  -2   3  -8    2.69    0.27 
  -3   3  -8    3.58    0.35 
  -4   3  -8    0.97    0.24 
  -5   3  -8    0.25    0.22 
  -6   3  -8    0.14    0.23 
  -7   3  -8   -0.26    0.23 
  10   2  -8    0.52    0.25 
   9   2  -8    0.14    0.16 
   8   2  -8    0.07    0.14 
   7   2  -8    0.40    0.16 
  -7  -2   8    0.67    0.17 
   6   2  -8    0.24    0.13 
  -6  -2   8   -0.03    0.10 
   5   2  -8   -0.03    0.10 
  -5  -2   8    0.13    0.10 
   4   2  -8    0.34    0.13 
  -4  -2   8    0.33    0.13 
   3   2  -8    7.77    0.40 
  -3  -2   8    7.80    0.46 
   2   2  -8    1.61    0.19 
  -2  -2   8    1.37    0.22 
   1   2  -8    0.34    0.10 
  -1  -2   8    0.31    0.11 
   0   2  -8    0.22    0.09 
   0  -2   8    0.16    0.10 
  -1   2  -8    0.91    0.16 
   1  -2   8    0.96    0.21 
  -2   2  -8    1.59    0.21 
  -3   2  -8    1.42    0.25 
  -4   2  -8    1.20    0.26 
  -5   2  -8    0.03    0.20 
  -6   2  -8   -0.17    0.20 
  -7   2  -8    0.22    0.26 
  -8   2  -8   -0.05    0.23 
   9   1  -8   -0.06    0.16 
   8   1  -8    0.58    0.21 
   7   1  -8    0.20    0.14 
  -7  -1   8    0.21    0.13 
   6   1  -8    0.07    0.13 
  -6  -1   8    0.19    0.12 
   5   1  -8    1.60    0.23 
  -5  -1   8    1.39    0.23 
   4   1  -8    0.48    0.14 
  -4  -1   8    0.65    0.17 
   3   1  -8   10.10    0.46 
  -3  -1   8   10.57    0.54 
   2   1  -8    0.03    0.07 
  -2  -1   8    0.04    0.08 
   1   1  -8    0.40    0.09 
  -1  -1   8    0.40    0.13 
   0   1  -8   -0.01    0.06 
   0  -1   8   -0.03    0.07 
  -1   1  -8    5.39    0.29 
   1  -1   8    5.33    0.36 
  -2   1  -8    0.82    0.16 
   2  -1   8    0.53    0.15 
  -3   1  -8    0.26    0.17 
  -4   1  -8    4.67    0.39 
  -5   1  -8    2.85    0.36 
  -6   1  -8    0.14    0.19 
  -7   1  -8   -0.27    0.21 
  -8   1  -8   -0.10    0.26 
  -9   1  -8    0.11    0.26 
   9   0  -8    0.59    0.24 
   8   0  -8    0.12    0.16 
   7   0  -8    0.59    0.19 
  -7   0   8    0.80    0.19 
   6   0  -8    1.49    0.25 
  -6   0   8    1.50    0.25 
   5   0  -8    0.32    0.13 
  -5   0   8    0.47    0.15 
   4   0  -8    2.41    0.26 
  -4   0   8    2.14    0.29 
   3   0  -8    1.55    0.20 
  -3   0   8    1.53    0.23 
   2   0  -8   -0.05    0.07 
  -2   0   8   -0.04    0.06 
   1   0  -8   15.66    0.54 
  -1   0   8   12.87    0.65 
  -1   0   8   15.37    0.47 
   0   0  -8    2.48    0.19 
   0   0   8    2.21    0.16 
   0   0   8    2.78    0.31 
  -1   0  -8    1.67    0.17 
   1   0   8    1.89    0.26 
   1   0   8    1.78    0.18 
  -2   0  -8    8.19    0.38 
   2   0   8    8.24    0.41 
   2   0   8    8.15    0.46 
  -3   0  -8    0.82    0.19 
   3   0   8    1.20    0.20 
   3   0   8    1.03    0.21 
  -4   0  -8    0.22    0.17 
   4   0   8   -0.06    0.08 
  -5   0  -8    0.06    0.18 
   5   0   8    0.10    0.10 
  -6   0  -8    0.59    0.23 
  -7   0  -8   -0.32    0.17 
  -8   0  -8    1.46    0.32 
  -9   0  -8   -0.47    0.23 
   9  -1  -8    0.11    0.18 
   8  -1  -8    0.27    0.17 
   7  -1  -8    1.44    0.25 
  -7   1   8    1.46    0.25 
   6  -1  -8    5.48    0.39 
  -6   1   8    5.25    0.46 
   5  -1  -8    0.11    0.11 
  -5   1   8    0.10    0.11 
   4  -1  -8   11.59    0.52 
  -4   1   8   10.45    0.58 
   3  -1  -8   25.51    0.85 
  -3   1   8   23.72    0.97 
   2  -1  -8   10.07    0.42 
  -2   1   8   10.27    0.37 
  -2   1   8    9.58    0.52 
   1  -1  -8    2.52    0.18 
  -1   1   8    2.77    0.16 
  -1   1   8    2.89    0.31 
   0  -1  -8    9.43    0.36 
   0   1   8    9.58    0.38 
   0   1   8    8.65    0.48 
  -1  -1  -8   44.15    1.24 
   1   1   8   42.98    1.37 
   1   1   8   44.59    1.47 
  -2  -1  -8   23.51    0.74 
   2   1   8   23.33    0.88 
   2   1   8   22.15    0.83 
  -3  -1  -8    0.56    0.17 
   3   1   8    0.53    0.15 
   3   1   8    0.47    0.14 
  -4  -1  -8   11.44    0.51 
   4   1   8    8.53    0.52 
   4   1   8   11.28    0.53 
  -5  -1  -8    0.33    0.19 
   5   1   8    0.31    0.12 
  -6  -1  -8    0.10    0.16 
   6   1   8    0.14    0.12 
  -7  -1  -8    0.12    0.17 
   7   1   8    0.10    0.12 
  -8  -1  -8    1.37    0.29 
  -9  -1  -8    0.78    0.27 
 -10  -1  -8   -0.12    0.22 
   8  -2  -8   -0.10    0.14 
   7  -2  -8    0.10    0.14 
  -7   2   8    0.01    0.13 
   6  -2  -8    1.94    0.27 
  -6   2   8    1.74    0.27 
   5  -2  -8    1.25    0.21 
  -5   2   8    1.28    0.24 
   4  -2  -8   48.59    1.51 
  -4   2   8   50.38    1.69 
   3  -2  -8   10.73    0.51 
  -3   2   8   15.06    0.51 
  -3   2   8   14.55    0.67 
   2  -2  -8    0.71    0.13 
  -2   2   8    0.85    0.18 
  -2   2   8    1.01    0.13 
   1  -2  -8    2.44    0.17 
  -1   2   8    2.64    0.18 
  -1   2   8    2.44    0.29 
   0  -2  -8   10.85    0.39 
   0   2   8   10.78    0.44 
   0   2   8   10.71    0.54 
  -1  -2  -8    4.34    0.21 
   1   2   8    4.14    0.26 
   1   2   8    4.17    0.30 
  -2  -2  -8    0.29    0.09 
   2   2   8    0.46    0.12 
   2   2   8    0.61    0.15 
  -3  -2  -8    0.00    0.13 
   3   2   8    0.20    0.12 
   3   2   8    0.13    0.10 
  -4  -2  -8   16.79    0.63 
   4   2   8   15.78    0.71 
   4   2   8   15.06    0.65 
  -5  -2  -8    1.19    0.22 
   5   2   8    1.69    0.23 
   5   2   8    1.36    0.24 
  -6  -2  -8    0.93    0.21 
   6   2   8    1.32    0.25 
  -7  -2  -8    0.41    0.20 
   7   2   8    0.66    0.18 
  -8  -2  -8    0.40    0.21 
   8   2   8    0.26    0.15 
  -9  -2  -8   -0.11    0.17 
   9   2   8   -0.11    0.13 
 -10  -2  -8   -0.20    0.21 
   7  -3  -8    0.76    0.20 
  -7   3   8    0.73    0.20 
   6  -3  -8    1.67    0.25 
  -6   3   8    2.32    0.33 
   5  -3  -8    7.72    0.43 
  -5   3   8    6.88    0.48 
  -4   3   8    2.33    0.22 
  -4   3   8    2.61    0.34 
   3  -3  -8    2.66    0.24 
  -3   3   8    2.25    0.31 
  -3   3   8    2.57    0.22 
   2  -3  -8    3.79    0.24 
  -2   3   8    4.16    0.25 
  -2   3   8    3.75    0.38 
   1  -3  -8   23.71    0.73 
  -1   3   8   23.03    0.92 
  -1   3   8   22.72    0.80 
   0  -3  -8    1.74    0.13 
   0   3   8    1.12    0.22 
   0   3   8    1.76    0.19 
  -1  -3  -8    0.17    0.06 
   1   3   8    0.23    0.12 
   1   3   8    0.26    0.10 
  -2  -3  -8    0.84    0.10 
   2   3   8    0.86    0.16 
   2   3   8    0.75    0.17 
  -3  -3  -8    4.20    0.24 
   3   3   8    3.99    0.30 
   3   3   8    4.13    0.30 
  -4  -3  -8    0.09    0.11 
   4   3   8    0.23    0.13 
   4   3   8    0.29    0.13 
  -5  -3  -8    3.89    0.30 
   5   3   8    3.70    0.28 
   5   3   8    3.57    0.37 
  -6  -3  -8   -0.18    0.12 
   6   3   8   -0.11    0.07 
  -7  -3  -8    0.89    0.20 
   7   3   8    1.01    0.22 
  -8  -3  -8    0.26    0.17 
   8   3   8    0.12    0.13 
  -9  -3  -8    0.00    0.18 
   9   3   8   -0.23    0.11 
 -10  -3  -8    0.25    0.23 
  10   3   8    0.48    0.24 
  -6   4   8    0.75    0.22 
  -5   4   8    3.66    0.43 
   4  -4  -8    0.80    0.17 
  -4   4   8    1.07    0.17 
  -4   4   8    1.19    0.24 
   3  -4  -8   14.85    0.56 
  -3   4   8   14.55    0.73 
  -3   4   8   15.02    0.61 
   2  -4  -8    0.18    0.09 
  -2   4   8    0.33    0.11 
  -2   4   8    0.35    0.14 
   1  -4  -8    4.73    0.23 
  -1   4   8    4.40    0.28 
  -1   4   8    4.38    0.41 
   0  -4  -8    0.06    0.05 
   0   4   8   -0.04    0.07 
   0   4   8    0.03    0.08 
  -1  -4  -8   16.12    0.46 
   1   4   8   12.86    0.65 
   1   4   8   15.50    0.63 
  -2  -4  -8    1.27    0.09 
   2   4   8    0.82    0.18 
   2   4   8    1.29    0.21 
  -3  -4  -8    6.00    0.25 
   3   4   8    5.54    0.37 
   3   4   8    6.08    0.37 
  -4  -4  -8   -0.03    0.13 
   4   4   8    0.07    0.08 
   4   4   8   -0.02    0.09 
  -5  -4  -8   -0.10    0.13 
   5   4   8    0.27    0.13 
   5   4   8    0.13    0.09 
  -6  -4  -8    0.38    0.15 
   6   4   8    0.19    0.11 
  -7  -4  -8    0.17    0.15 
   7   4   8    0.19    0.10 
  -8  -4  -8    0.72    0.21 
   8   4   8    1.19    0.25 
  -9  -4  -8    0.35    0.20 
   9   4   8    0.30    0.17 
 -10  -4  -8    0.41    0.23 
  10   4   8    0.33    0.19 
 -11  -4  -8    0.11    0.23 
  11   4   8   -0.08    0.19 
  -6   5   8    0.05    0.15 
  -5   5   8    0.07    0.13 
  -5   5   8    0.08    0.09 
  -4   5   8   11.06    0.54 
  -3   5   8    0.74    0.14 
  -2   5   8    5.62    0.33 
  -1   5   8    1.93    0.23 
   0   5   8    1.46    0.20 
   1   5   8    2.44    0.26 
   1   5   8    2.36    0.30 
   2   5   8    1.65    0.23 
   2   5   8    1.83    0.25 
   3   5   8   13.57    0.63 
   3   5   8   14.12    0.66 
  -4  -5  -8    4.22    0.23 
   4   5   8    3.84    0.36 
   4   5   8    4.05    0.31 
  -5  -5  -8    2.09    0.20 
   5   5   8    1.81    0.23 
   5   5   8    1.75    0.26 
  -6  -5  -8    4.15    0.29 
   6   5   8    4.65    0.44 
   6   5   8    4.47    0.29 
  -7  -5  -8   -0.09    0.12 
   7   5   8   -0.11    0.08 
  -8  -5  -8    0.27    0.16 
   8   5   8    0.31    0.15 
  -9  -5  -8    0.36    0.19 
   9   5   8    0.89    0.24 
 -10  -5  -8   -0.03    0.17 
  10   5   8    0.09    0.15 
 -11  -5  -8    0.07    0.22 
  11   5   8    0.28    0.20 
  -6   6   8   -0.01    0.15 
  -5   6   8    0.01    0.09 
  -4   6   8    6.26    0.40 
  -3   6   8    4.10    0.31 
  -2   6   8    2.29    0.27 
  -1   6   8    0.39    0.12 
   0   6   8    1.17    0.18 
   1   6   8    0.74    0.15 
   2   6   8    1.97    0.26 
   3   6   8    9.14    0.50 
   3   6   8    9.27    0.51 
   4   6   8    0.01    0.12 
   4   6   8    0.11    0.11 
   5   6   8    9.49    0.56 
   6   6   8    0.16    0.12 
   6   6   8    0.21    0.12 
   7   6   8    0.22    0.13 
  -8  -6  -8   -0.15    0.08 
   8   6   8    0.99    0.25 
  -9  -6  -8   -0.16    0.16 
   9   6   8   -0.11    0.12 
 -10  -6  -8   -0.06    0.19 
  10   6   8    0.18    0.17 
 -11  -6  -8   -0.08    0.20 
  11   6   8    0.05    0.19 
  -5   7   8   -0.06    0.11 
  -4   7   8    0.19    0.11 
  -3   7   8    0.08    0.11 
  -2   7   8    4.22    0.33 
  -1   7   8   16.36    0.73 
   0   7   8   -0.06    0.06 
   1   7   8    0.69    0.16 
   2   7   8    0.15    0.09 
   3   7   8    4.42    0.34 
   4   7   8    0.60    0.17 
   5   7   8    0.56    0.16 
   5   7   8    0.51    0.15 
   6   7   8    1.89    0.31 
   6   7   8    2.19    0.27 
   7   7   8    2.30    0.34 
   8   7   8    1.22    0.26 
   9   7   8    0.11    0.14 
  10   7   8    0.19    0.16 
  11   7   8   -0.52    0.16 
  -4   8   8    1.69    0.30 
  -3   8   8    2.82    0.36 
  -2   8   8    3.76    0.40 
  -1   8   8    2.58    0.33 
   0   8   8    0.94    0.19 
   1   8   8    0.83    0.18 
   2   8   8    3.56    0.37 
   3   8   8    0.01    0.07 
   4   8   8    2.21    0.31 
   5   8   8    0.14    0.12 
   6   8   8    0.12    0.11 
   6   8   8    0.19    0.11 
   7   8   8    1.32    0.27 
   8   8   8    0.01    0.12 
   9   8   8    0.12    0.16 
  10   8   8    0.21    0.19 
  11   8   8    0.07    0.19 
  -3   9   8    2.15    0.34 
  -2   9   8    0.25    0.14 
  -1   9   8    1.06    0.22 
   0   9   8    2.34    0.33 
   1   9   8    0.42    0.14 
   2   9   8    0.35    0.14 
   3   9   8    2.04    0.30 
   4   9   8    3.99    0.42 
   5   9   8    0.21    0.11 
   6   9   8    1.70    0.30 
   7   9   8    0.04    0.12 
   8   9   8    0.11    0.14 
   9   9   8    0.18    0.18 
  10   9   8    0.57    0.24 
  11   9   8    0.25    0.23 
  -2  10   8    0.18    0.16 
  -1  10   8    0.79    0.22 
   0  10   8    0.23    0.13 
   1  10   8    0.12    0.12 
   2  10   8    0.59    0.19 
   3  10   8    1.00    0.23 
   4  10   8    0.10    0.11 
   5  10   8    4.49    0.49 
   6  10   8    0.36    0.16 
   7  10   8    0.39    0.18 
   8  10   8    0.11    0.16 
   9  10   8    0.05    0.18 
  10  10   8   -0.10    0.16 
  -1  11   8    0.24    0.17 
   0  11   8    0.61    0.23 
   1  11   8    0.47    0.19 
   2  11   8    0.16    0.15 
   3  11   8    0.40    0.16 
   4  11   8    0.12    0.12 
   5  11   8    0.50    0.18 
   6  11   8    0.03    0.13 
   7  11   8    0.06    0.15 
   8  11   8    0.11    0.18 
   9  11   8    0.46    0.21 
  10  11   8   -0.02    0.21 
   1  12   8   -0.06    0.14 
   2  12   8    0.02    0.14 
   3  12   8    0.39    0.18 
   4  12   8   -0.14    0.13 
   5  12   8    0.10    0.15 
   6  12   8   -0.09    0.13 
   7  12   8    0.11    0.15 
   8  12   8   -0.15    0.16 
   9  12   8    0.01    0.18 
   4  13   8    0.09    0.18 
   5  13   8    0.34    0.18 
   6  13   8    0.00    0.17 
   7  13   8    0.26    0.20 
   6   9  -9   -0.04    0.11 
   5   9  -9    0.14    0.14 
   4   9  -9    0.33    0.14 
   3   9  -9    0.20    0.14 
   2   9  -9    0.24    0.14 
   1   9  -9    0.04    0.13 
   7   8  -9   -0.15    0.11 
   6   8  -9   -0.03    0.10 
   5   8  -9    0.00    0.10 
   4   8  -9    0.15    0.11 
   3   8  -9    0.11    0.11 
   2   8  -9    0.11    0.12 
   1   8  -9   -0.06    0.10 
   0   8  -9    0.32    0.13 
  -1   8  -9    0.09    0.11 
   8   7  -9   -0.09    0.12 
   7   7  -9    0.10    0.14 
   6   7  -9    0.36    0.15 
   5   7  -9    0.71    0.18 
   4   7  -9    0.31    0.13 
   3   7  -9    0.67    0.18 
   2   7  -9   -0.05    0.08 
   1   7  -9    0.07    0.11 
   0   7  -9    0.37    0.14 
  -1   7  -9   -0.03    0.11 
  -2   7  -9    0.01    0.13 
  -3   7  -9    0.26    0.16 
   9   6  -9    0.15    0.17 
   8   6  -9   -0.14    0.13 
   7   6  -9   -0.31    0.10 
   6   6  -9    0.23    0.15 
   5   6  -9    0.61    0.18 
   4   6  -9    0.33    0.15 
   3   6  -9    0.59    0.16 
   2   6  -9    0.01    0.08 
   1   6  -9    0.07    0.10 
   0   6  -9    1.88    0.26 
  -1   6  -9    0.73    0.18 
  -2   6  -9    0.27    0.15 
  -3   6  -9    1.04    0.25 
  -4   6  -9    0.60    0.21 
   9   5  -9   -0.18    0.16 
   8   5  -9    0.46    0.21 
   7   5  -9   -0.04    0.12 
   6   5  -9    0.16    0.13 
   5   5  -9    0.09    0.11 
   4   5  -9    0.32    0.13 
   3   5  -9    1.97    0.26 
   2   5  -9    0.71    0.17 
   1   5  -9    3.11    0.31 
   0   5  -9    1.44    0.22 
  -1   5  -9    0.96    0.20 
  -2   5  -9    1.27    0.24 
  -3   5  -9   -0.04    0.13 
  -4   5  -9    0.69    0.23 
  -5   5  -9    0.25    0.22 
   9   4  -9    0.05    0.19 
   8   4  -9    0.04    0.15 
   7   4  -9   -0.04    0.14 
  -7  -4   9    0.28    0.15 
   6   4  -9    1.13    0.23 
  -6  -4   9    1.16    0.23 
   5   4  -9    0.54    0.15 
  -5  -4   9    0.88    0.21 
   4   4  -9    3.80    0.35 
  -4  -4   9    4.66    0.46 
   3   4  -9    0.18    0.11 
  -3  -4   9    0.31    0.15 
   2   4  -9    6.24    0.37 
   1   4  -9    3.20    0.30 
   0   4  -9    7.86    0.43 
  -1   4  -9   10.58    0.52 
  -2   4  -9    0.02    0.13 
  -3   4  -9    1.75    0.27 
  -4   4  -9    0.49    0.24 
  -5   4  -9    0.52    0.24 
  -6   4  -9    0.55    0.25 
   9   3  -9    0.06    0.16 
   8   3  -9    0.03    0.15 
   7   3  -9    1.35    0.27 
  -7  -3   9    1.46    0.25 
   6   3  -9   -0.20    0.09 
  -6  -3   9    0.18    0.12 
   5   3  -9    1.86    0.27 
  -5  -3   9    2.00    0.30 
   4   3  -9   12.19    0.58 
  -4  -3   9   12.62    0.65 
   3   3  -9    0.14    0.09 
  -3  -3   9    0.12    0.10 
   2   3  -9    0.22    0.10 
  -2  -3   9    0.25    0.14 
   1   3  -9    0.22    0.10 
  -1  -3   9    0.47    0.17 
   0   3  -9    3.33    0.28 
  -1   3  -9    6.96    0.39 
  -2   3  -9    5.56    0.37 
  -3   3  -9    0.15    0.15 
  -4   3  -9    0.45    0.21 
  -5   3  -9    0.20    0.22 
  -6   3  -9    0.50    0.26 
  -7   3  -9    0.23    0.25 
   9   2  -9    0.18    0.20 
   8   2  -9    0.25    0.18 
   7   2  -9   -0.01    0.12 
  -7  -2   9   -0.02    0.11 
   6   2  -9    0.02    0.13 
  -6  -2   9    0.00    0.10 
   5   2  -9    1.27    0.22 
  -5  -2   9    1.18    0.23 
   4   2  -9    2.89    0.29 
  -4  -2   9    3.02    0.36 
   3   2  -9    6.55    0.38 
  -3  -2   9    6.94    0.46 
   2   2  -9    0.92    0.16 
  -2  -2   9    0.96    0.21 
   1   2  -9   -0.05    0.06 
  -1  -2   9    0.03    0.08 
   0   2  -9    1.41    0.18 
   0  -2   9    1.43    0.24 
  -1   2  -9    0.47    0.13 
   1  -2   9    0.75    0.18 
  -2   2  -9   -0.13    0.09 
  -3   2  -9    1.38    0.23 
  -4   2  -9    0.21    0.18 
  -5   2  -9   -0.04    0.19 
  -6   2  -9    0.89    0.27 
  -7   2  -9    0.39    0.28 
  -8   2  -9   -0.01    0.25 
   9   1  -9    0.19    0.19 
   8   1  -9    0.46    0.21 
   7   1  -9    1.04    0.23 
  -7  -1   9    1.14    0.25 
   6   1  -9    0.22    0.15 
  -6  -1   9    0.32    0.13 
   5   1  -9    0.55    0.17 
  -5  -1   9    0.72    0.19 
   4   1  -9    0.01    0.09 
  -4  -1   9    0.08    0.10 
   3   1  -9   12.83    0.56 
  -3  -1   9   13.94    0.67 
   2   1  -9    0.19    0.09 
  -2  -1   9   -0.07    0.07 
   1   1  -9    0.03    0.06 
  -1  -1   9   -0.07    0.07 
   0   1  -9    0.21    0.08 
   0  -1   9    0.25    0.13 
  -1   1  -9    0.46    0.13 
   1  -1   9    0.43    0.15 
  -2   1  -9    1.39    0.20 
   2  -1   9    1.31    0.24 
  -3   1  -9    0.85    0.20 
  -4   1  -9    0.22    0.18 
  -5   1  -9    0.13    0.20 
  -6   1  -9    0.25    0.24 
  -7   1  -9    0.42    0.27 
  -8   1  -9   -0.15    0.25 
   9   0  -9    0.19    0.21 
   8   0  -9    0.02    0.15 
   7   0  -9    0.49    0.18 
  -7   0   9    0.51    0.19 
   6   0  -9    0.57    0.18 
  -6   0   9    0.50    0.17 
   5   0  -9    0.14    0.12 
  -5   0   9    0.18    0.14 
   4   0  -9    2.18    0.26 
  -4   0   9    1.91    0.29 
   3   0  -9    4.34    0.29 
  -3   0   9    4.28    0.41 
   2   0  -9    2.75    0.24 
  -2   0   9    3.14    0.35 
   1   0  -9    1.67    0.18 
  -1   0   9    1.37    0.24 
   0   0  -9    5.39    0.29 
   0   0   9    5.56    0.27 
   0   0   9    5.89    0.39 
  -1   0  -9    5.42    0.29 
   1   0   9    4.75    0.35 
   1   0   9    5.29    0.30 
  -2   0  -9    0.70    0.15 
   2   0   9    0.81    0.16 
   2   0   9    0.78    0.18 
  -3   0  -9    1.51    0.23 
   3   0   9    1.74    0.27 
   3   0   9    1.58    0.24 
  -4   0  -9    8.95    0.49 
   4   0   9    8.61    0.50 
  -5   0  -9    0.62    0.22 
  -6   0  -9   -0.02    0.18 
  -7   0  -9    0.41    0.25 
  -8   0  -9    0.33    0.27 
  -9   0  -9    0.10    0.28 
   8  -1  -9   -0.11    0.15 
   7  -1  -9    0.26    0.16 
  -7   1   9    0.19    0.15 
   6  -1  -9    0.72    0.20 
  -6   1   9    0.93    0.21 
   5  -1  -9    2.42    0.29 
  -5   1   9    2.55    0.35 
   4  -1  -9    4.63    0.32 
  -4   1   9    3.85    0.41 
   3  -1  -9    2.23    0.24 
  -3   1   9    2.32    0.31 
   2  -1  -9    7.00    0.34 
  -2   1   9    6.41    0.44 
   1  -1  -9   10.51    0.42 
  -1   1   9    9.51    0.53 
   0  -1  -9   27.99    0.88 
   0   1   9   29.09    0.94 
   0   1   9   29.44    1.09 
  -1  -1  -9    2.68    0.19 
   1   1   9    3.18    0.23 
   1   1   9    2.35    0.29 
  -2  -1  -9    1.39    0.18 
   2   1   9    1.64    0.22 
   2   1   9    1.72    0.25 
  -3  -1  -9   20.04    0.76 
   3   1   9   23.75    0.90 
   3   1   9   23.18    0.89 
  -4  -1  -9    6.66    0.40 
   4   1   9    6.56    0.41 
   4   1   9    6.60    0.43 
  -5  -1  -9   -0.19    0.16 
   5   1   9    0.02    0.09 
  -6  -1  -9    1.71    0.28 
   6   1   9    1.70    0.28 
  -7  -1  -9    0.11    0.20 
   7   1   9   -0.09    0.11 
  -8  -1  -9    0.23    0.21 
  -9  -1  -9   -0.42    0.21 
   8  -2  -9   -0.26    0.12 
   7  -2  -9    0.00    0.14 
  -7   2   9    0.21    0.16 
   6  -2  -9    0.15    0.15 
  -6   2   9    0.27    0.14 
   5  -2  -9    1.49    0.23 
  -5   2   9    1.59    0.28 
   4  -2  -9    2.99    0.29 
  -4   2   9    2.64    0.35 
   3  -2  -9    2.99    0.26 
   2  -2  -9   50.31    1.53 
  -2   2   9   56.74    1.81 
   1  -2  -9    6.69    0.32 
  -1   2   9    6.67    0.43 
  -1   2   9    6.57    0.32 
   0  -2  -9    0.75    0.12 
   0   2   9    0.96    0.15 
   0   2   9    1.12    0.20 
  -1  -2  -9    2.47    0.17 
   1   2   9    3.02    0.25 
   1   2   9    2.68    0.30 
  -2  -2  -9    0.52    0.10 
   2   2   9    1.20    0.20 
   2   2   9    0.84    0.17 
  -3  -2  -9    5.58    0.30 
   3   2   9    5.53    0.36 
   3   2   9    4.89    0.35 
  -4  -2  -9    1.63    0.23 
   4   2   9    1.69    0.25 
   4   2   9    1.12    0.21 
  -5  -2  -9    0.51    0.19 
   5   2   9    0.00    0.09 
   5   2   9    0.49    0.15 
  -6  -2  -9    1.52    0.26 
   6   2   9    1.41    0.25 
  -7  -2  -9    1.39    0.27 
   7   2   9    1.69    0.30 
  -8  -2  -9    0.34    0.20 
   8   2   9    0.02    0.13 
  -9  -2  -9    0.08    0.22 
   9   2   9    0.24    0.18 
 -10  -2  -9   -0.33    0.22 
  -7   3   9    0.85    0.25 
  -6   3   9   -0.05    0.12 
   5  -3  -9    1.33    0.23 
  -5   3   9    1.51    0.27 
  -4   3   9    5.65    0.50 
   3  -3  -9    8.66    0.42 
  -3   3   9    7.90    0.52 
   2  -3  -9   31.43    0.97 
  -2   3   9   28.70    0.99 
  -2   3   9   31.09    1.19 
   1  -3  -9    7.36    0.33 
  -1   3   9    6.62    0.45 
  -1   3   9    7.08    0.36 
   0  -3  -9   10.95    0.40 
   0   3   9   11.01    0.57 
   0   3   9   10.90    0.49 
  -1  -3  -9    1.68    0.13 
   1   3   9    1.70    0.22 
   1   3   9    1.71    0.25 
  -2  -3  -9    0.18    0.07 
   2   3   9    0.07    0.10 
   2   3   9    0.32    0.12 
  -3  -3  -9    3.13    0.21 
   3   3   9    3.23    0.31 
   3   3   9    2.76    0.30 
  -4  -3  -9    0.83    0.17 
   4   3   9    0.72    0.18 
   4   3   9    1.13    0.21 
  -5  -3  -9    0.17    0.16 
   5   3   9   -0.07    0.08 
   5   3   9    0.05    0.10 
  -6  -3  -9    0.01    0.15 
   6   3   9    0.08    0.12 
  -7  -3  -9   -0.17    0.15 
   7   3   9   -0.09    0.09 
  -8  -3  -9    0.22    0.20 
   8   3   9    0.01    0.13 
  -9  -3  -9   -0.14    0.19 
   9   3   9   -0.17    0.16 
 -10  -3  -9   -0.02    0.23 
  10   3   9   -0.03    0.16 
  -6   4   9    0.33    0.18 
  -5   4   9    6.84    0.50 
  -4   4   9    0.51    0.18 
  -3   4   9    3.00    0.26 
  -3   4   9    2.76    0.36 
  -2   4   9    2.75    0.25 
  -2   4   9    3.52    0.40 
  -1   4   9    5.61    0.34 
  -1   4   9    6.85    0.45 
   0   4   9    2.00    0.29 
   0   4   9    1.43    0.20 
   1   4   9    0.03    0.08 
   1   4   9    0.09    0.09 
  -2  -4  -9    5.74    0.23 
   2   4   9    5.20    0.36 
   2   4   9    5.50    0.37 
  -3  -4  -9    5.04    0.23 
   3   4   9    5.61    0.38 
   3   4   9    5.21    0.35 
  -4  -4  -9    0.85    0.16 
   4   4   9    0.88    0.19 
   4   4   9    0.79    0.18 
  -5  -4  -9    0.70    0.19 
   5   4   9    0.10    0.09 
   5   4   9    0.53    0.15 
  -6  -4  -9    3.97    0.31 
   6   4   9    5.98    0.43 
  -7  -4  -9   -0.29    0.12 
   7   4   9    0.00    0.10 
  -8  -4  -9   -0.05    0.17 
   8   4   9   -0.06    0.11 
  -9  -4  -9   -0.19    0.16 
   9   4   9   -0.10    0.13 
 -10  -4  -9    0.27    0.23 
  10   4   9    0.27    0.18 
  -6   5   9    0.22    0.16 
  -5   5   9    2.01    0.34 
  -4   5   9    0.49    0.20 
  -3   5   9    4.01    0.45 
  -3   5   9    3.79    0.29 
  -2   5   9    0.60    0.14 
  -2   5   9    0.58    0.18 
  -1   5   9    5.83    0.44 
  -1   5   9    5.87    0.36 
   0   5   9    0.30    0.13 
   0   5   9    0.51    0.16 
   1   5   9    0.13    0.10 
   1   5   9   -0.03    0.09 
   2   5   9    9.99    0.53 
   2   5   9    8.99    0.50 
   3   5   9    0.06    0.08 
   3   5   9    0.18    0.10 
   4   5   9    0.13    0.10 
   4   5   9    0.31    0.11 
   5   5   9    1.56    0.25 
   5   5   9    0.47    0.16 
  -6  -5  -9    1.15    0.19 
   6   5   9    0.90    0.20 
  -7  -5  -9   -0.12    0.08 
   7   5   9    0.06    0.10 
  -8  -5  -9   -0.08    0.16 
   8   5   9    0.14    0.12 
  -9  -5  -9    0.00    0.18 
   9   5   9    0.15    0.17 
 -10  -5  -9   -0.16    0.19 
  10   5   9   -0.01    0.15 
  -6   6   9    0.12    0.16 
  -5   6   9    0.22    0.18 
  -4   6   9    0.54    0.16 
  -4   6   9    0.29    0.16 
  -3   6   9    1.46    0.23 
  -2   6   9    6.72    0.40 
  -1   6   9    0.64    0.15 
   0   6   9    0.09    0.08 
   0   6   9    0.06    0.10 
   1   6   9   -0.02    0.07 
   1   6   9    0.07    0.09 
   2   6   9    4.18    0.32 
   2   6   9    4.05    0.40 
   3   6   9    6.48    0.42 
   3   6   9    6.34    0.42 
   4   6   9    1.93    0.27 
   4   6   9    2.13    0.30 
   5   6   9    0.01    0.08 
   5   6   9    0.10    0.10 
   6   6   9    0.72    0.19 
   7   6   9   -0.04    0.09 
   8   6   9    0.25    0.15 
   9   6   9    0.13    0.16 
  10   6   9   -0.13    0.17 
  11   6   9    0.30    0.19 
  -4   7   9    1.65    0.28 
  -3   7   9    1.62    0.26 
  -2   7   9    0.43    0.13 
  -1   7   9    0.07    0.09 
   0   7   9    6.11    0.39 
   1   7   9    4.05    0.32 
   2   7   9    0.09    0.08 
   3   7   9    6.26    0.43 
   3   7   9    5.78    0.41 
   4   7   9   -0.08    0.08 
   4   7   9    0.04    0.10 
   5   7   9    0.11    0.10 
   5   7   9    0.31    0.13 
   6   7   9   -0.08    0.09 
   6   7   9    0.14    0.11 
   7   7   9    0.61    0.18 
   8   7   9    0.01    0.12 
   9   7   9    0.31    0.19 
  10   7   9    0.29    0.19 
  11   7   9    0.60    0.24 
  -4   8   9    0.25    0.16 
  -3   8   9    0.19    0.14 
  -2   8   9    1.19    0.24 
  -1   8   9    2.68    0.33 
   0   8   9    2.22    0.29 
   1   8   9    1.10    0.21 
   2   8   9    0.35    0.13 
   3   8   9    6.44    0.44 
   4   8   9    0.45    0.15 
   4   8   9    0.07    0.10 
   5   8   9    0.95    0.21 
   5   8   9    1.62    0.24 
   6   8   9    2.62    0.37 
   6   8   9    1.63    0.24 
   7   8   9    0.06    0.13 
   8   8   9    0.02    0.14 
   9   8   9    0.32    0.18 
  10   8   9    0.11    0.20 
  -3   9   9    3.62    0.45 
  -2   9   9    1.58    0.30 
  -1   9   9    1.27    0.25 
   0   9   9    1.17    0.23 
   1   9   9    0.53    0.16 
   2   9   9    0.67    0.19 
   3   9   9    0.09    0.10 
   4   9   9    0.05    0.10 
   5   9   9    3.35    0.42 
   6   9   9    1.78    0.31 
   7   9   9    0.19    0.16 
   8   9   9    0.21    0.17 
   9   9   9    0.32    0.18 
  10   9   9    0.27    0.21 
  -2  10   9    0.52    0.19 
  -1  10   9    0.83    0.23 
   0  10   9    0.40    0.16 
   1  10   9    0.69    0.21 
   2  10   9    2.36    0.35 
   3  10   9    0.62    0.19 
   4  10   9    1.68    0.29 
   5  10   9   -0.11    0.11 
   6  10   9   -0.07    0.11 
   7  10   9    2.68    0.43 
   8  10   9    0.06    0.17 
   9  10   9    0.16    0.20 
  10  10   9    0.16    0.20 
   0  11   9    0.34    0.19 
   1  11   9    1.95    0.34 
   2  11   9    1.38    0.30 
   3  11   9    0.15    0.15 
   4  11   9    0.07    0.12 
   5  11   9    0.92    0.26 
   6  11   9    1.11    0.29 
   7  11   9    0.33    0.20 
   8  11   9    0.50    0.22 
   9  11   9    0.38    0.23 
   1  12   9    0.44    0.20 
   2  12   9    0.15    0.15 
   3  12   9    0.13    0.18 
   4  12   9    0.53    0.19 
   5  12   9    0.46    0.21 
   6  12   9    0.14    0.16 
   7  12   9    0.03    0.14 
   8  12   9    0.34    0.22 
   6   8 -10   -0.05    0.11 
   5   8 -10    0.05    0.12 
   4   8 -10   -0.06    0.10 
   3   8 -10    0.24    0.13 
   2   8 -10    0.22    0.12 
   1   8 -10   -0.08    0.10 
   0   8 -10    0.17    0.12 
   7   7 -10    0.01    0.16 
   6   7 -10    0.22    0.15 
   5   7 -10   -0.12    0.11 
   4   7 -10    0.40    0.16 
   3   7 -10   -0.01    0.09 
   2   7 -10    0.02    0.10 
   1   7 -10    0.78    0.19 
   0   7 -10    0.08    0.11 
  -1   7 -10    0.37    0.15 
  -2   7 -10    0.07    0.11 
   8   6 -10   -0.11    0.18 
   7   6 -10    0.04    0.14 
   6   6 -10   -0.18    0.10 
   5   6 -10    0.39    0.15 
   4   6 -10   -0.01    0.11 
   3   6 -10    0.28    0.14 
   2   6 -10    0.01    0.10 
   1   6 -10   -0.02    0.11 
   0   6 -10   -0.01    0.09 
  -1   6 -10    0.19    0.13 
  -2   6 -10    0.85    0.21 
  -3   6 -10    0.15    0.15 
   8   5 -10    0.36    0.20 
   7   5 -10    0.26    0.18 
   6   5 -10   -0.18    0.13 
   5   5 -10    0.23    0.13 
   4   5 -10    1.32    0.24 
   3   5 -10    0.57    0.16 
   2   5 -10    0.07    0.10 
   1   5 -10    0.95    0.20 
   0   5 -10   -0.01    0.09 
  -1   5 -10    1.18    0.23 
  -2   5 -10   -0.02    0.12 
  -3   5 -10    0.13    0.13 
  -4   5 -10    0.12    0.15 
   8   4 -10   -0.04    0.15 
   7   4 -10    0.52    0.20 
  -7  -4  10    0.51    0.20 
   6   4 -10    0.07    0.12 
  -6  -4  10    0.02    0.13 
   5   4 -10    0.61    0.17 
  -5  -4  10    0.83    0.21 
   4   4 -10    0.14    0.11 
  -4  -4  10    0.09    0.11 
   3   4 -10   -0.06    0.08 
  -3  -4  10    0.00    0.11 
   2   4 -10    1.88    0.25 
   1   4 -10    3.45    0.33 
   0   4 -10    1.32    0.22 
  -1   4 -10    0.77    0.19 
  -2   4 -10    0.49    0.16 
  -3   4 -10    4.92    0.42 
  -4   4 -10    0.06    0.16 
  -5   4 -10    0.02    0.19 
   9   3 -10    0.01    0.18 
   8   3 -10   -0.17    0.15 
   7   3 -10    0.43    0.19 
  -7  -3  10    0.38    0.16 
   6   3 -10    0.93    0.21 
  -6  -3  10    1.24    0.25 
   5   3 -10    0.67    0.18 
  -5  -3  10    0.79    0.20 
   4   3 -10    1.59    0.24 
  -4  -3  10    1.51    0.27 
   3   3 -10    1.12    0.20 
  -3  -3  10    1.47    0.27 
   2   3 -10    2.15    0.25 
  -2  -3  10    2.20    0.34 
   1   3 -10    0.53    0.14 
  -1  -3  10    0.38    0.14 
   0   3 -10   -0.06    0.08 
  -1   3 -10    0.06    0.11 
  -2   3 -10    1.37    0.22 
  -3   3 -10    1.84    0.27 
  -4   3 -10    0.27    0.18 
  -5   3 -10    1.70    0.34 
  -6   3 -10    0.32    0.25 
   9   2 -10    0.35    0.22 
   8   2 -10    0.60    0.23 
   7   2 -10    0.12    0.15 
  -7  -2  10   -0.04    0.14 
   6   2 -10   -0.08    0.11 
  -6  -2  10    0.10    0.14 
   5   2 -10    0.82    0.19 
  -5  -2  10    0.85    0.21 
   4   2 -10    8.40    0.46 
  -4  -2  10    7.90    0.52 
   3   2 -10    0.40    0.13 
  -3  -2  10    0.68    0.19 
   2   2 -10    0.24    0.10 
  -2  -2  10    0.12    0.12 
   1   2 -10    2.23    0.23 
  -1  -2  10    1.55    0.27 
   0   2 -10    1.06    0.17 
   0  -2  10    1.18    0.24 
  -1   2 -10    0.12    0.11 
   1  -2  10    0.17    0.14 
  -2   2 -10    0.23    0.11 
  -3   2 -10    0.60    0.18 
  -4   2 -10    0.37    0.20 
  -5   2 -10    0.04    0.19 
  -6   2 -10   -0.04    0.22 
  -7   2 -10    0.24    0.27 
   8   1 -10    0.57    0.22 
   7   1 -10    0.12    0.16 
  -7  -1  10   -0.02    0.12 
   6   1 -10   -0.04    0.12 
  -6  -1  10   -0.05    0.11 
   5   1 -10    0.14    0.13 
  -5  -1  10    0.49    0.17 
   4   1 -10    2.66    0.29 
  -4  -1  10    2.06    0.31 
   3   1 -10    0.43    0.14 
  -3  -1  10    0.47    0.16 
   2   1 -10    5.43    0.32 
  -2  -1  10    5.71    0.42 
   1   1 -10    2.66    0.24 
  -1  -1  10    2.95    0.35 
   0   1 -10    1.38    0.18 
   0  -1  10    1.23    0.23 
  -1   1 -10   -0.12    0.06 
   1  -1  10   -0.03    0.10 
  -2   1 -10    0.41    0.13 
   2  -1  10    0.13    0.12 
  -3   1 -10    3.37    0.30 
  -4   1 -10    1.75    0.28 
  -5   1 -10    0.55    0.22 
  -6   1 -10    0.11    0.20 
  -7   1 -10    0.46    0.28 
  -8   1 -10   -0.46    0.24 
   8   0 -10    0.04    0.17 
   7   0 -10   -0.08    0.13 
  -7   0  10    0.01    0.12 
   6   0 -10    0.01    0.13 
  -6   0  10    0.07    0.14 
   5   0 -10    0.12    0.12 
  -5   0  10    0.12    0.13 
   4   0 -10    0.04    0.10 
  -4   0  10   -0.01    0.09 
   3   0 -10    1.76    0.22 
  -3   0  10    1.97    0.30 
   2   0 -10    5.28    0.31 
  -2   0  10    4.77    0.45 
   1   0 -10    8.85    0.41 
  -1   0  10    9.17    0.53 
   0   0 -10    0.59    0.12 
   0   0  10    0.58    0.18 
  -1   0 -10    0.00    0.07 
   1   0  10    0.01    0.08 
  -2   0 -10    2.35    0.23 
   2   0  10    2.63    0.33 
   2   0  10    2.20    0.25 
  -3   0 -10    3.74    0.29 
   3   0  10    2.87    0.31 
   3   0  10    3.97    0.40 
  -4   0 -10    0.35    0.17 
  -5   0 -10    0.13    0.18 
  -6   0 -10    0.17    0.21 
  -7   0 -10    0.35    0.24 
  -8   0 -10    0.20    0.27 
   8  -1 -10    0.19    0.19 
   7  -1 -10    0.86    0.23 
  -7   1  10    0.84    0.24 
   6  -1 -10    0.17    0.15 
  -6   1  10    0.20    0.15 
   5  -1 -10    3.09    0.33 
  -5   1  10    3.10    0.39 
   4  -1 -10    0.93    0.19 
  -4   1  10    1.01    0.22 
   3  -1 -10    3.80    0.31 
  -3   1  10    4.29    0.44 
   2  -1 -10    7.01    0.36 
  -2   1  10    5.99    0.44 
   1  -1 -10    0.04    0.08 
  -1   1  10   -0.08    0.09 
   0  -1 -10    1.54    0.17 
   0   1  10    1.65    0.28 
  -1  -1 -10    0.14    0.08 
   1   1  10    0.16    0.10 
   1   1  10    0.01    0.09 
  -2  -1 -10    8.75    0.39 
   2   1  10    7.89    0.48 
   2   1  10    8.35    0.44 
  -3  -1 -10    3.75    0.28 
   3   1  10    4.01    0.36 
   3   1  10    3.75    0.37 
  -4  -1 -10    0.27    0.16 
   4   1  10    0.45    0.14 
   4   1  10    0.26    0.12 
  -5  -1 -10    3.59    0.35 
   5   1  10    4.33    0.39 
   5   1  10    3.44    0.39 
  -6  -1 -10    1.04    0.27 
   6   1  10    1.57    0.29 
  -7  -1 -10    0.19    0.20 
  -8  -1 -10   -0.22    0.20 
  -9  -1 -10    0.29    0.28 
   7  -2 -10   -0.04    0.15 
  -7   2  10   -0.02    0.17 
   6  -2 -10   -0.02    0.14 
  -6   2  10    0.09    0.12 
   5  -2 -10    0.70    0.19 
  -5   2  10    0.91    0.22 
   4  -2 -10    2.08    0.26 
  -4   2  10    1.74    0.30 
  -3   2  10    2.34    0.34 
   2  -2 -10    0.13    0.09 
  -2   2  10   -0.05    0.09 
   1  -2 -10    2.90    0.23 
  -1   2  10    2.89    0.36 
   0  -2 -10   23.06    0.75 
   0   2  10   23.84    0.82 
   0   2  10   21.80    0.94 
  -1  -2 -10    0.74    0.12 
   1   2  10    0.41    0.13 
   1   2  10    0.50    0.16 
   2   2  10    1.73    0.24 
   2   2  10    1.61    0.25 
  -3  -2 -10    1.69    0.19 
   3   2  10    1.68    0.25 
   3   2  10    1.19    0.21 
  -4  -2 -10    0.11    0.14 
   4   2  10    0.04    0.11 
   4   2  10    0.16    0.11 
  -5  -2 -10    0.97    0.21 
   5   2  10    0.67    0.18 
   5   2  10    0.75    0.19 
  -6  -2 -10    0.44    0.21 
   6   2  10    0.05    0.11 
  -7  -2 -10    0.48    0.22 
   7   2  10    0.37    0.18 
  -8  -2 -10    0.08    0.21 
   8   2  10   -0.12    0.12 
  -9  -2 -10    0.15    0.25 
  -7   3  10   -0.04    0.16 
  -6   3  10    1.96    0.33 
  -5   3  10    1.10    0.26 
  -4   3  10    2.53    0.36 
  -3   3  10    1.53    0.28 
   2  -3 -10    6.15    0.33 
  -2   3  10    5.89    0.44 
   1  -3 -10   13.51    0.50 
  -1   3  10   12.04    0.65 
   0  -3 -10    9.91    0.40 
   0   3  10    9.39    0.56 
   0   3  10   10.53    0.48 
  -1  -3 -10    2.33    0.16 
   1   3  10    2.49    0.31 
   1   3  10    2.15    0.24 
  -2  -3 -10   10.62    0.39 
   2   3  10    9.89    0.51 
   2   3  10   10.43    0.56 
  -3  -3 -10    2.51    0.20 
   3   3  10    1.98    0.27 
   3   3  10    2.36    0.30 
  -4  -3 -10    2.92    0.26 
   4   3  10    3.20    0.33 
   4   3  10    2.95    0.34 
  -5  -3 -10    3.21    0.29 
   5   3  10    3.33    0.33 
   5   3  10    2.85    0.35 
  -6  -3 -10    0.05    0.16 
   6   3  10    0.20    0.14 
  -7  -3 -10   -0.14    0.17 
   7   3  10   -0.02    0.12 
  -8  -3 -10   -0.07    0.18 
   8   3  10    0.11    0.16 
  -9  -3 -10    0.22    0.24 
   9   3  10   -0.09    0.15 
 -10  -3 -10    0.02    0.26 
  10   3  10   -0.12    0.17 
  -6   4  10    1.57    0.30 
  -5   4  10    0.00    0.13 
  -4   4  10    0.71    0.20 
  -3   4  10    3.40    0.41 
  -2   4  10    0.49    0.16 
  -1   4  10    1.15    0.24 
  -1   4  10    1.59    0.21 
   0   4  10    0.33    0.13 
   0   4  10    0.34    0.15 
   1   4  10    6.69    0.45 
   1   4  10    6.79    0.40 
   2   4  10    0.43    0.14 
   2   4  10    0.51    0.16 
   3   4  10    1.37    0.22 
   3   4  10    1.33    0.22 
  -4  -4 -10   -0.02    0.10 
   4   4  10    0.05    0.10 
   4   4  10    0.12    0.09 
  -5  -4 -10   10.58    0.48 
   5   4  10   11.11    0.56 
   5   4  10   11.01    0.62 
  -6  -4 -10   -0.07    0.08 
   6   4  10    0.25    0.13 
  -7  -4 -10   -0.04    0.17 
   7   4  10    0.12    0.14 
  -8  -4 -10   -0.16    0.18 
   8   4  10   -0.03    0.12 
  -9  -4 -10    0.07    0.21 
   9   4  10    0.30    0.20 
 -10  -4 -10    0.49    0.26 
  10   4  10    0.41    0.21 
  -6   5  10    0.12    0.16 
  -5   5  10    0.82    0.25 
  -4   5  10    1.21    0.27 
  -3   5  10   -0.02    0.11 
  -2   5  10    0.33    0.13 
  -2   5  10    0.22    0.11 
  -1   5  10    1.93    0.30 
  -1   5  10    1.37    0.21 
   0   5  10    4.52    0.46 
   0   5  10    4.54    0.32 
   1   5  10    0.30    0.13 
   1   5  10   -0.08    0.08 
   2   5  10    5.34    0.37 
   2   5  10    5.69    0.41 
   3   5  10    3.08    0.34 
   3   5  10    2.98    0.34 
   4   5  10    2.06    0.29 
   4   5  10    1.93    0.26 
   5   5  10    0.17    0.12 
   5   5  10    0.42    0.14 
   6   5  10   -0.07    0.10 
   7   5  10    0.17    0.15 
   8   5  10    0.50    0.20 
   9   5  10    0.18    0.17 
  10   5  10   -0.17    0.18 
  -5   6  10    0.60    0.24 
  -4   6  10    0.09    0.15 
  -3   6  10    2.46    0.39 
  -2   6  10    1.74    0.33 
  -2   6  10    2.16    0.27 
  -1   6  10    1.24    0.20 
  -1   6  10    1.23    0.26 
   0   6  10    0.88    0.22 
   0   6  10    0.81    0.16 
   1   6  10    0.00    0.08 
   1   6  10   -0.10    0.11 
   2   6  10    4.85    0.36 
   2   6  10    4.47    0.44 
   3   6  10    1.91    0.28 
   3   6  10    2.10    0.30 
   4   6  10    0.13    0.10 
   4   6  10    0.08    0.10 
   5   6  10    0.22    0.12 
   5   6  10    0.18    0.11 
   6   6  10    1.37    0.26 
   7   6  10    0.04    0.12 
   8   6  10    0.27    0.16 
   9   6  10    0.01    0.17 
  10   6  10   -0.21    0.15 
  -5   7  10    0.24    0.17 
  -4   7  10   -0.08    0.14 
  -3   7  10    2.46    0.40 
  -2   7  10    0.73    0.18 
  -2   7  10    0.49    0.22 
  -1   7  10    0.10    0.12 
  -1   7  10    0.49    0.14 
   0   7  10    2.90    0.32 
   0   7  10    2.26    0.35 
   1   7  10    0.54    0.17 
   1   7  10    0.78    0.17 
   2   7  10    5.34    0.49 
   2   7  10    5.07    0.38 
   3   7  10    0.05    0.13 
   3   7  10    0.18    0.12 
   4   7  10    1.41    0.26 
   4   7  10    1.34    0.25 
   5   7  10    3.07    0.34 
   5   7  10    2.71    0.36 
   6   7  10    0.12    0.13 
   7   7  10    0.13    0.14 
   8   7  10    0.21    0.16 
   9   7  10    0.19    0.17 
  10   7  10   -0.04    0.17 
  -4   8  10    0.94    0.30 
  -3   8  10    2.08    0.32 
  -2   8  10    0.00    0.11 
  -1   8  10    0.32    0.14 
   0   8  10    0.39    0.13 
   1   8  10   -0.12    0.08 
   2   8  10    2.45    0.32 
   3   8  10    0.27    0.13 
   3   8  10    0.26    0.14 
   4   8  10    4.17    0.42 
   4   8  10    3.45    0.41 
   5   8  10    0.84    0.21 
   5   8  10    0.35    0.16 
   6   8  10    0.05    0.12 
   7   8  10    0.54    0.21 
   8   8  10    1.01    0.26 
   9   8  10   -0.02    0.19 
  10   8  10    0.09    0.19 
  -3   9  10    1.31    0.28 
  -2   9  10    0.70    0.21 
  -1   9  10    1.90    0.29 
   0   9  10    0.56    0.17 
   1   9  10    0.88    0.20 
   2   9  10    0.25    0.13 
   3   9  10    0.52    0.15 
   4   9  10    0.07    0.10 
   4   9  10    0.02    0.12 
   5   9  10    0.46    0.17 
   5   9  10    0.57    0.18 
   6   9  10    0.31    0.18 
   7   9  10    0.58    0.21 
   8   9  10    0.53    0.22 
   9   9  10   -0.05    0.16 
  10   9  10   -0.08    0.17 
  -1  10  10    0.84    0.24 
   0  10  10    0.15    0.15 
   1  10  10    1.12    0.27 
   2  10  10    0.73    0.21 
   3  10  10    0.08    0.12 
   4  10  10    2.92    0.40 
   5  10  10    1.97    0.31 
   5  10  10    1.27    0.29 
   6  10  10    0.62    0.23 
   7  10  10    0.14    0.16 
   8  10  10    0.04    0.16 
   9  10  10    0.73    0.28 
   0  11  10   -0.03    0.14 
   1  11  10    0.82    0.25 
   2  11  10    0.33    0.19 
   3  11  10    0.35    0.19 
   4  11  10    1.78    0.33 
   5  11  10    0.51    0.20 
   6  11  10    0.13    0.15 
   7  11  10    0.24    0.19 
   8  11  10    0.50    0.24 
   2  12  10    0.12    0.18 
   3  12  10    0.32    0.20 
   4  12  10    0.37    0.19 
   5  12  10    0.20    0.16 
   6  12  10    0.24    0.17 
   7  12  10   -0.12    0.16 
   6   7 -11    0.29    0.20 
   5   7 -11   -0.19    0.11 
   4   7 -11   -0.02    0.11 
   3   7 -11    0.12    0.14 
   2   7 -11   -0.07    0.11 
   1   7 -11   -0.06    0.12 
   0   7 -11    0.29    0.15 
   7   6 -11   -0.02    0.18 
   6   6 -11    0.71    0.22 
   5   6 -11    0.20    0.15 
   4   6 -11    0.79    0.21 
   3   6 -11    0.14    0.13 
   2   6 -11    0.00    0.11 
   1   6 -11    0.52    0.17 
   0   6 -11    0.22    0.14 
  -1   6 -11    0.02    0.11 
  -2   6 -11    0.03    0.12 
   7   5 -11    0.28    0.20 
   6   5 -11    0.01    0.14 
   5   5 -11   -0.02    0.12 
   4   5 -11   -0.11    0.11 
   3   5 -11    1.10    0.23 
   2   5 -11    1.46    0.24 
   1   5 -11   -0.04    0.10 
   0   5 -11   -0.09    0.11 
  -1   5 -11    0.29    0.15 
  -2   5 -11    0.00    0.13 
  -3   5 -11    0.15    0.15 
   8   4 -11   -0.02    0.17 
   7   4 -11   -0.10    0.15 
  -7  -4  11    0.17    0.17 
   6   4 -11    0.02    0.13 
  -6  -4  11   -0.01    0.12 
   5   4 -11    0.37    0.16 
  -5  -4  11    0.16    0.15 
   4   4 -11    0.04    0.11 
  -4  -4  11    0.26    0.18 
   3   4 -11   -0.12    0.09 
  -3  -4  11    0.02    0.14 
   2   4 -11    0.71    0.17 
   1   4 -11    0.31    0.14 
   0   4 -11    0.45    0.15 
  -1   4 -11    0.04    0.11 
  -2   4 -11    1.10    0.23 
  -3   4 -11    0.48    0.18 
  -4   4 -11    0.05    0.14 
  -5   4 -11    0.58    0.22 
   8   3 -11    0.20    0.19 
   7   3 -11    0.12    0.17 
  -7  -3  11    0.24    0.19 
   6   3 -11    0.75    0.20 
  -6  -3  11    1.06    0.25 
   5   3 -11    0.86    0.21 
  -5  -3  11    1.08    0.25 
   4   3 -11    0.42    0.15 
  -4  -3  11    0.35    0.17 
   3   3 -11    0.03    0.09 
  -3  -3  11    0.21    0.17 
   2   3 -11    0.25    0.12 
  -2  -3  11    0.11    0.12 
   1   3 -11    1.84    0.25 
  -1  -3  11    2.13    0.34 
   0   3 -11    0.18    0.11 
  -1   3 -11   -0.06    0.09 
  -2   3 -11    0.43    0.16 
  -3   3 -11    0.18    0.15 
  -4   3 -11    0.63    0.19 
  -5   3 -11    0.58    0.22 
  -6   3 -11    0.47    0.25 
   8   2 -11   -0.03    0.17 
   7   2 -11    0.16    0.18 
  -7  -2  11    0.09    0.15 
   6   2 -11    0.16    0.16 
  -6  -2  11    0.22    0.16 
   5   2 -11    0.34    0.15 
  -5  -2  11    0.56    0.18 
   4   2 -11    2.23    0.28 
  -4  -2  11    2.33    0.37 
   3   2 -11    0.18    0.12 
  -3  -2  11    0.10    0.12 
   2   2 -11    0.87    0.17 
  -2  -2  11    0.79    0.20 
   1   2 -11    1.39    0.21 
  -1  -2  11    0.83    0.20 
   0   2 -11    0.03    0.09 
   0  -2  11    0.14    0.13 
  -1   2 -11    2.77    0.28 
   1  -2  11    2.50    0.37 
  -2   2 -11    0.53    0.16 
  -3   2 -11    0.37    0.15 
  -4   2 -11    0.23    0.17 
  -5   2 -11    0.02    0.19 
  -6   2 -11    0.33    0.24 
   8   1 -11    0.20    0.21 
   7   1 -11   -0.06    0.16 
  -7  -1  11   -0.03    0.15 
   6   1 -11    0.14    0.14 
  -6  -1  11   -0.02    0.12 
   5   1 -11   -0.04    0.11 
  -5  -1  11    0.13    0.12 
   4   1 -11    0.48    0.15 
  -4  -1  11    0.47    0.17 
   3   1 -11    0.87    0.17 
  -3  -1  11    1.29    0.24 
   2   1 -11    0.25    0.11 
  -2  -1  11    0.05    0.09 
   1   1 -11    0.12    0.09 
  -1  -1  11   -0.12    0.08 
   0   1 -11    1.17    0.18 
   0  -1  11    1.49    0.28 
  -1   1 -11    2.76    0.26 
   1  -1  11    2.94    0.39 
  -2   1 -11    1.76    0.23 
   2  -1  11    1.72    0.29 
  -3   1 -11    1.95    0.25 
  -4   1 -11    0.85    0.20 
  -5   1 -11    1.07    0.25 
  -6   1 -11    0.20    0.21 
  -7   1 -11    0.14    0.27 
   8   0 -11    0.34    0.23 
   7   0 -11    0.13    0.17 
  -7   0  11    0.41    0.20 
   6   0 -11    0.42    0.17 
  -6   0  11    0.19    0.14 
   5   0 -11    0.17    0.14 
  -5   0  11    0.16    0.14 
   4   0 -11    0.12    0.11 
  -4   0  11    0.14    0.12 
   3   0 -11    0.80    0.17 
  -3   0  11    1.22    0.24 
   2   0 -11    2.55    0.25 
  -2   0  11    2.45    0.35 
   1   0 -11    1.44    0.19 
  -1   0  11    1.83    0.29 
   0   0 -11    0.94    0.15 
   0   0  11    0.79    0.20 
  -1   0 -11    2.32    0.22 
   1   0  11    3.03    0.37 
  -2   0 -11    0.03    0.09 
   2   0  11   -0.11    0.09 
  -3   0 -11    0.07    0.10 
   3   0  11    0.42    0.16 
  -4   0 -11    0.03    0.13 
  -5   0 -11    0.01    0.17 
  -6   0 -11    0.17    0.21 
  -7   0 -11    0.17    0.25 
  -8   0 -11    0.18    0.25 
   7  -1 -11    0.20    0.19 
  -7   1  11    0.59    0.25 
   6  -1 -11    1.31    0.27 
  -6   1  11    1.55    0.31 
   5  -1 -11    0.57    0.18 
  -5   1  11    0.93    0.24 
   4  -1 -11    0.45    0.16 
  -4   1  11    0.33    0.14 
   3  -1 -11    1.13    0.20 
  -3   1  11    1.08    0.24 
   2  -1 -11    6.18    0.35 
  -2   1  11    5.91    0.45 
   1  -1 -11    0.57    0.13 
  -1   1  11    0.90    0.21 
   0  -1 -11    0.04    0.06 
   0   1  11    0.06    0.10 
  -1  -1 -11    1.43    0.18 
   1   1  11    1.04    0.21 
  -2  -1 -11    0.11    0.09 
   2   1  11    0.08    0.10 
  -3  -1 -11    0.23    0.11 
   3   1  11    0.18    0.13 
   3   1  11   -0.11    0.08 
  -4  -1 -11    0.08    0.13 
   4   1  11    0.02    0.11 
   4   1  11    0.20    0.11 
  -5  -1 -11    0.26    0.18 
   5   1  11    0.28    0.13 
   5   1  11    0.04    0.13 
  -6  -1 -11   -0.15    0.16 
   6   1  11    0.10    0.11 
  -7  -1 -11   -0.34    0.18 
  -8  -1 -11   -0.11    0.25 
  -7   2  11    0.81    0.26 
  -6   2  11    1.04    0.27 
  -5   2  11    0.63    0.21 
   4  -2 -11   -0.05    0.11 
  -4   2  11   -0.05    0.11 
  -3   2  11    4.43    0.47 
   2  -2 -11    0.17    0.10 
  -2   2  11    0.18    0.12 
   1  -2 -11    0.35    0.11 
  -1   2  11    0.81    0.19 
   0  -2 -11    0.17    0.08 
   0   2  11    0.06    0.09 
  -1  -2 -11    2.87    0.21 
   1   2  11    3.25    0.39 
   2   2  11    1.40    0.23 
   2   2  11    1.35    0.23 
  -3  -2 -11    0.92    0.15 
   3   2  11    0.93    0.20 
   3   2  11    1.49    0.22 
  -4  -2 -11    0.53    0.15 
   4   2  11    0.73    0.17 
   4   2  11    0.74    0.19 
  -5  -2 -11    0.09    0.15 
   5   2  11   -0.14    0.10 
   5   2  11    0.14    0.12 
  -6  -2 -11    0.19    0.19 
   6   2  11    0.04    0.12 
  -7  -2 -11   -0.03    0.21 
   7   2  11   -0.01    0.14 
  -8  -2 -11   -0.10    0.22 
   8   2  11    0.04    0.16 
  -9  -2 -11    0.34    0.28 
  -6   3  11    0.04    0.16 
  -5   3  11    0.49    0.20 
  -4   3  11    1.67    0.31 
  -3   3  11    0.53    0.16 
  -2   3  11    0.03    0.09 
  -1   3  11    0.62    0.18 
   0   3  11    0.22    0.14 
   1   3  11    7.10    0.41 
   1   3  11    7.93    0.50 
  -2  -3 -11    0.68    0.12 
   2   3  11    0.76    0.19 
   2   3  11    0.96    0.21 
  -3  -3 -11    1.20    0.15 
   3   3  11    0.85    0.18 
   3   3  11    0.82    0.18 
  -4  -3 -11    4.60    0.28 
   4   3  11    5.10    0.38 
   4   3  11    5.04    0.37 
  -5  -3 -11    1.30    0.22 
   5   3  11    1.28    0.26 
   5   3  11    1.40    0.24 
  -6  -3 -11    0.27    0.18 
   6   3  11    0.01    0.11 
  -7  -3 -11   -0.13    0.18 
   7   3  11    0.04    0.15 
  -8  -3 -11   -0.06    0.21 
   8   3  11    0.01    0.16 
  -9  -3 -11    0.20    0.26 
   9   3  11    0.03    0.17 
  -6   4  11    0.15    0.16 
  -5   4  11    0.02    0.15 
  -4   4  11    0.13    0.14 
  -3   4  11    0.34    0.18 
  -2   4  11    4.48    0.49 
  -1   4  11    0.19    0.12 
   0   4  11    0.81    0.21 
   1   4  11    0.31    0.14 
   1   4  11    0.27    0.14 
   2   4  11    0.07    0.12 
   2   4  11   -0.03    0.09 
   3   4  11    0.21    0.12 
   3   4  11    0.25    0.12 
   4   4  11    0.16    0.11 
   4   4  11    0.20    0.12 
   5   4  11    0.26    0.12 
   5   4  11    0.57    0.17 
   6   4  11    0.41    0.16 
   7   4  11    0.68    0.22 
   8   4  11    0.19    0.17 
   9   4  11   -0.13    0.17 
  -6   5  11    0.26    0.19 
  -5   5  11   -0.04    0.15 
  -4   5  11    0.71    0.22 
  -3   5  11    2.57    0.39 
  -2   5  11    0.27    0.13 
  -1   5  11    1.08    0.25 
   0   5  11    2.67    0.29 
   0   5  11    2.17    0.33 
   1   5  11    3.26    0.32 
   1   5  11    2.80    0.37 
   2   5  11    0.19    0.12 
   2   5  11    0.23    0.13 
   3   5  11    0.21    0.12 
   3   5  11   -0.02    0.08 
   4   5  11    0.18    0.11 
   4   5  11    0.26    0.13 
   5   5  11    0.54    0.16 
   5   5  11    0.47    0.17 
   6   5  11   -0.28    0.09 
   7   5  11   -0.03    0.11 
   8   5  11    0.58    0.21 
   9   5  11    0.06    0.19 
  -5   6  11    0.06    0.16 
  -4   6  11    0.40    0.20 
  -3   6  11   -0.04    0.11 
  -2   6  11    0.06    0.14 
  -1   6  11    0.08    0.14 
   0   6  11    1.99    0.34 
   0   6  11    2.41    0.28 
   1   6  11    0.39    0.16 
   1   6  11    0.56    0.15 
   2   6  11    0.05    0.09 
   2   6  11    0.04    0.13 
   3   6  11    0.45    0.16 
   3   6  11    0.62    0.17 
   4   6  11    0.40    0.16 
   4   6  11    0.49    0.15 
   5   6  11    0.23    0.12 
   5   6  11    0.05    0.10 
   6   6  11    0.40    0.16 
   7   6  11    0.47    0.19 
   8   6  11    1.13    0.29 
   9   6  11   -0.16    0.16 
  10   6  11   -0.01    0.18 
  -4   7  11    0.57    0.22 
  -3   7  11    1.16    0.30 
  -2   7  11    0.23    0.16 
  -1   7  11    0.38    0.15 
  -1   7  11    0.15    0.16 
   0   7  11    0.21    0.15 
   0   7  11   -0.06    0.09 
   1   7  11    1.00    0.25 
   1   7  11    1.65    0.25 
   2   7  11   -0.08    0.08 
   2   7  11   -0.03    0.08 
   3   7  11    0.78    0.20 
   3   7  11    0.60    0.17 
   4   7  11    0.13    0.13 
   4   7  11    0.00    0.12 
   5   7  11   -0.01    0.10 
   5   7  11    0.14    0.11 
   6   7  11    0.21    0.15 
   7   7  11    0.50    0.20 
   8   7  11    0.05    0.17 
   9   7  11   -0.05    0.17 
  10   7  11   -0.04    0.18 
  -3   8  11    0.38    0.20 
  -2   8  11    1.06    0.29 
  -1   8  11    0.00    0.15 
  -1   8  11    0.20    0.13 
   0   8  11    0.60    0.20 
   0   8  11    0.67    0.17 
   1   8  11    0.01    0.10 
   1   8  11   -0.09    0.10 
   2   8  11    1.26    0.27 
   2   8  11    0.71    0.18 
   3   8  11    0.16    0.14 
   3   8  11    0.35    0.15 
   4   8  11    0.77    0.21 
   4   8  11    0.75    0.21 
   5   8  11    0.12    0.13 
   5   8  11    0.06    0.13 
   6   8  11    0.80    0.24 
   7   8  11    0.18    0.17 
   8   8  11    0.19    0.19 
   9   8  11    0.37    0.25 
  -2   9  11    0.25    0.21 
  -1   9  11    0.05    0.13 
   0   9  11    3.53    0.42 
   1   9  11    0.15    0.16 
   1   9  11    0.10    0.11 
   2   9  11    0.40    0.17 
   2   9  11    0.18    0.12 
   3   9  11    1.72    0.29 
   3   9  11    1.15    0.28 
   4   9  11    1.43    0.28 
   4   9  11    1.25    0.26 
   5   9  11    0.10    0.13 
   5   9  11    0.15    0.14 
   6   9  11    0.07    0.16 
   7   9  11    0.00    0.16 
   8   9  11    0.15    0.19 
   9   9  11    0.20    0.19 
  -1  10  11   -0.07    0.14 
   0  10  11   -0.01    0.15 
   1  10  11   -0.05    0.12 
   2  10  11   -0.04    0.13 
   3  10  11    1.51    0.29 
   3  10  11    1.27    0.28 
   4  10  11    0.35    0.17 
   4  10  11    0.72    0.22 
   5  10  11    0.26    0.18 
   5  10  11    0.51    0.20 
   6  10  11    0.64    0.25 
   7  10  11    0.60    0.23 
   8  10  11    0.12    0.18 
   9  10  11    0.07    0.20 
   1  11  11    0.35    0.19 
   2  11  11    0.07    0.16 
   3  11  11   -0.03    0.15 
   4  11  11   -0.01    0.14 
   5  11  11    0.76    0.24 
   5  11  11    0.13    0.16 
   6  11  11    0.26    0.20 
   7  11  11    0.18    0.18 
   8  11  11    0.31    0.22 
   4  12  11    0.12    0.18 
   5  12  11    0.15    0.18 
   5   6 -12    0.02    0.17 
   4   6 -12    0.56    0.22 
   3   6 -12    0.17    0.14 
   2   6 -12    0.37    0.16 
   1   6 -12    0.13    0.14 
   0   6 -12    0.21    0.14 
   6   5 -12    0.24    0.17 
   5   5 -12    0.33    0.17 
   4   5 -12    0.37    0.17 
   3   5 -12   -0.07    0.13 
   2   5 -12    0.98    0.23 
   1   5 -12   -0.07    0.12 
   0   5 -12    0.32    0.16 
  -1   5 -12    0.15    0.13 
  -2   5 -12   -0.05    0.15 
   7   4 -12    1.12    0.28 
  -7  -4  12    1.15    0.30 
   6   4 -12    0.03    0.15 
  -6  -4  12    0.08    0.19 
   5   4 -12    0.11    0.15 
  -5  -4  12    0.14    0.18 
   4   4 -12    0.17    0.13 
  -4  -4  12    0.47    0.23 
   3   4 -12    0.06    0.12 
   2   4 -12    0.07    0.12 
   1   4 -12   -0.01    0.11 
   0   4 -12    0.27    0.14 
  -1   4 -12    0.25    0.14 
  -2   4 -12    0.12    0.15 
  -3   4 -12    0.37    0.18 
  -4   4 -12    0.27    0.17 
   7   3 -12    0.62    0.24 
  -7  -3  12    1.09    0.30 
   6   3 -12    0.22    0.16 
  -6  -3  12    0.38    0.20 
   5   3 -12    0.04    0.14 
  -5  -3  12    0.03    0.14 
   4   3 -12    0.13    0.12 
  -4  -3  12    0.15    0.18 
   3   3 -12    0.68    0.19 
  -3  -3  12    0.64    0.22 
   2   3 -12    0.21    0.12 
  -2  -3  12    0.35    0.18 
   1   3 -12    0.09    0.10 
  -1  -3  12   -0.02    0.14 
   0   3 -12    0.46    0.15 
  -1   3 -12    0.24    0.13 
  -2   3 -12    0.09    0.12 
  -3   3 -12    0.69    0.18 
  -4   3 -12    0.66    0.21 
  -5   3 -12    0.13    0.18 
   7   2 -12    0.01    0.16 
  -7  -2  12   -0.11    0.18 
   6   2 -12    0.14    0.15 
  -6  -2  12   -0.01    0.15 
   5   2 -12    0.10    0.15 
  -5  -2  12    0.45    0.20 
   4   2 -12    0.14    0.13 
  -4  -2  12    0.31    0.18 
   3   2 -12    0.50    0.15 
  -3  -2  12    0.61    0.20 
   2   2 -12   -0.04    0.10 
  -2  -2  12    0.13    0.12 
   1   2 -12    0.07    0.10 
  -1  -2  12   -0.05    0.11 
   0   2 -12    0.93    0.18 
   0  -2  12    0.85    0.22 
  -1   2 -12    0.06    0.09 
   1  -2  12   -0.04    0.12 
  -2   2 -12    0.50    0.16 
  -3   2 -12    0.07    0.11 
  -4   2 -12    0.13    0.13 
  -5   2 -12    0.16    0.17 
  -6   2 -12    0.34    0.22 
   7   1 -12   -0.13    0.17 
  -7  -1  12    0.28    0.19 
   6   1 -12    0.31    0.18 
  -6  -1  12    0.29    0.19 
   5   1 -12    0.06    0.14 
  -5  -1  12    0.25    0.16 
   4   1 -12    0.10    0.13 
  -4  -1  12    0.17    0.15 
   3   1 -12    1.53    0.23 
  -3  -1  12    1.48    0.31 
   2   1 -12    0.13    0.10 
  -2  -1  12    0.09    0.12 
   1   1 -12    0.01    0.09 
  -1  -1  12   -0.04    0.11 
   0   1 -12    0.35    0.13 
   0  -1  12    0.31    0.15 
  -1   1 -12   -0.02    0.09 
   1  -1  12    0.19    0.15 
  -2   1 -12    0.40    0.14 
   2  -1  12    0.24    0.15 
  -3   1 -12    0.11    0.10 
  -4   1 -12    0.77    0.19 
  -5   1 -12    0.20    0.16 
  -6   1 -12    0.13    0.20 
   7   0 -12    0.89    0.25 
  -7   0  12    0.79    0.29 
   6   0 -12    0.23    0.17 
  -6   0  12    0.00    0.17 
   5   0 -12    0.18    0.16 
  -5   0  12    0.28    0.17 
   4   0 -12    0.29    0.14 
  -4   0  12    0.26    0.15 
   3   0 -12    2.93    0.30 
  -3   0  12    2.72    0.38 
   2   0 -12    1.86    0.24 
  -2   0  12    2.56    0.37 
   1   0 -12    0.29    0.12 
  -1   0  12    0.32    0.15 
   0   0 -12    0.03    0.08 
   0   0  12   -0.09    0.10 
  -1   0 -12    2.12    0.23 
   1   0  12    1.22    0.26 
  -2   0 -12    0.28    0.12 
   2   0  12    0.30    0.15 
  -3   0 -12    0.17    0.11 
   3   0  12    0.37    0.16 
  -4   0 -12    0.04    0.12 
  -5   0 -12   -0.04    0.14 
  -6   0 -12    0.08    0.19 
  -7   0 -12    0.12    0.22 
  -7   1  12    0.68    0.24 
  -6   1  12    0.14    0.16 
   5  -1 -12    0.93    0.22 
  -5   1  12    1.09    0.27 
   4  -1 -12    0.33    0.15 
  -4   1  12   -0.04    0.13 
   3  -1 -12    1.20    0.21 
  -3   1  12    1.14    0.26 
   2  -1 -12    1.00    0.17 
  -2   1  12    1.06    0.25 
   1  -1 -12    0.80    0.15 
  -1   1  12    0.67    0.21 
   0  -1 -12    0.52    0.12 
   0   1  12    0.55    0.19 
  -1  -1 -12    0.74    0.14 
   1   1  12    0.65    0.19 
  -2  -1 -12    0.75    0.14 
   2   1  12    0.97    0.23 
  -3  -1 -12    0.80    0.17 
   3   1  12    0.63    0.18 
  -4  -1 -12    0.62    0.17 
   4   1  12    0.53    0.18 
   4   1  12    0.88    0.21 
  -5  -1 -12    1.03    0.22 
   5   1  12    1.17    0.24 
   5   1  12    0.73    0.19 
  -6  -1 -12    0.22    0.20 
  -7  -1 -12   -0.15    0.21 
  -8  -1 -12    0.02    0.24 
  -6   2  12    0.42    0.22 
  -5   2  12   -0.08    0.12 
  -4   2  12    0.52    0.20 
  -3   2  12    0.22    0.16 
  -2   2  12    1.35    0.27 
   1  -2 -12    1.06    0.17 
  -1   2  12    0.88    0.23 
   0  -2 -12    0.10    0.09 
   0   2  12    0.08    0.11 
  -1  -2 -12    0.18    0.08 
   1   2  12    0.21    0.11 
  -2  -2 -12    0.22    0.07 
   2   2  12    0.35    0.14 
  -3  -2 -12    0.04    0.08 
   3   2  12    0.12    0.14 
  -4  -2 -12    0.39    0.12 
   4   2  12   -0.01    0.10 
   4   2  12   -0.05    0.11 
  -5  -2 -12    1.74    0.25 
   5   2  12    1.77    0.30 
   5   2  12    1.52    0.26 
  -6  -2 -12    0.33    0.20 
   6   2  12    0.16    0.15 
  -7  -2 -12   -0.27    0.17 
   7   2  12   -0.01    0.16 
  -8  -2 -12    0.37    0.25 
  -6   3  12    0.43    0.22 
  -5   3  12   -0.04    0.16 
  -4   3  12    0.07    0.15 
  -3   3  12    0.30    0.17 
  -2   3  12    0.78    0.22 
  -1   3  12    1.32    0.28 
   0   3  12    2.31    0.35 
   1   3  12   -0.09    0.09 
   2   3  12    3.82    0.43 
   3   3  12    2.64    0.35 
   3   3  12    2.74    0.32 
   4   3  12    0.70    0.18 
   4   3  12    0.78    0.19 
   5   3  12    0.08    0.13 
   5   3  12    0.27    0.14 
  -6  -3 -12   -0.06    0.18 
   6   3  12    0.43    0.17 
  -7  -3 -12   -0.26    0.19 
   7   3  12    0.28    0.17 
  -8  -3 -12   -0.11    0.22 
   8   3  12    0.08    0.19 
  -5   4  12    0.09    0.19 
  -4   4  12   -0.08    0.12 
  -3   4  12   -0.01    0.13 
  -2   4  12    0.18    0.15 
  -1   4  12    9.18    0.61 
   0   4  12    0.44    0.17 
   1   4  12    1.44    0.27 
   2   4  12    2.11    0.31 
   2   4  12    1.44    0.23 
   3   4  12    0.07    0.12 
   3   4  12   -0.08    0.10 
   4   4  12   -0.05    0.10 
   4   4  12    0.16    0.12 
   5   4  12    0.28    0.14 
   5   4  12    0.40    0.16 
   6   4  12    0.27    0.15 
   7   4  12    0.36    0.19 
   8   4  12   -0.13    0.17 
   9   4  12    0.00    0.18 
  -5   5  12    0.18    0.17 
  -4   5  12    0.45    0.21 
  -3   5  12    0.53    0.21 
  -2   5  12    0.25    0.17 
  -1   5  12    2.61    0.38 
   0   5  12    0.01    0.12 
   1   5  12    0.08    0.11 
   2   5  12    0.07    0.10 
   2   5  12    0.22    0.14 
   3   5  12    0.09    0.09 
   3   5  12    0.11    0.12 
   4   5  12    0.67    0.17 
   4   5  12    0.34    0.16 
   5   5  12    0.58    0.18 
   5   5  12    0.12    0.14 
   6   5  12    0.55    0.20 
   7   5  12   -0.03    0.14 
   8   5  12    0.15    0.17 
   9   5  12    0.13    0.19 
  -4   6  12    1.00    0.30 
  -3   6  12   -0.02    0.14 
  -2   6  12   -0.12    0.13 
  -1   6  12    0.41    0.17 
   0   6  12    0.31    0.17 
   1   6  12    0.17    0.14 
   1   6  12   -0.06    0.09 
   2   6  12    0.02    0.09 
   2   6  12   -0.13    0.10 
   3   6  12    0.10    0.10 
   3   6  12    0.18    0.12 
   4   6  12    0.03    0.11 
   4   6  12   -0.01    0.11 
   5   6  12   -0.15    0.11 
   5   6  12    0.12    0.12 
   6   6  12    0.32    0.16 
   7   6  12    0.01    0.14 
   8   6  12    0.11    0.19 
   9   6  12    0.22    0.19 
  -3   7  12   -0.15    0.18 
  -2   7  12   -0.02    0.15 
  -1   7  12    0.14    0.17 
   0   7  12    0.87    0.28 
   1   7  12    0.31    0.17 
   1   7  12    0.07    0.10 
   2   7  12   -0.09    0.09 
   2   7  12    0.03    0.11 
   3   7  12    1.62    0.27 
   3   7  12    1.15    0.25 
   4   7  12    0.73    0.20 
   4   7  12    0.44    0.18 
   5   7  12    0.05    0.13 
   5   7  12    0.13    0.14 
   6   7  12   -0.07    0.12 
   7   7  12    0.35    0.19 
   8   7  12    0.03    0.20 
   9   7  12    0.18    0.21 
  -2   8  12    0.09    0.19 
  -1   8  12    1.22    0.31 
   0   8  12    0.11    0.14 
   0   8  12   -0.19    0.12 
   1   8  12    0.16    0.16 
   1   8  12    0.12    0.12 
   2   8  12    1.36    0.25 
   2   8  12    1.31    0.27 
   3   8  12    0.76    0.21 
   3   8  12    1.21    0.28 
   4   8  12    1.80    0.31 
   4   8  12    1.60    0.30 
   5   8  12    0.03    0.12 
   5   8  12    0.06    0.13 
   6   8  12   -0.04    0.15 
   7   8  12    0.63    0.25 
   8   8  12    0.45    0.22 
   9   8  12    0.12    0.22 
  -1   9  12    0.15    0.18 
   0   9  12    0.09    0.18 
   0   9  12    0.18    0.16 
   1   9  12    0.72    0.20 
   1   9  12    0.41    0.21 
   2   9  12    2.18    0.33 
   2   9  12    1.41    0.30 
   3   9  12    0.22    0.15 
   3   9  12   -0.01    0.14 
   4   9  12    1.63    0.30 
   4   9  12    1.82    0.33 
   5   9  12    0.47    0.19 
   5   9  12    0.47    0.18 
   6   9  12   -0.01    0.17 
   7   9  12    0.17    0.19 
   8   9  12    0.41    0.20 
   0  10  12    0.74    0.28 
   0  10  12    0.64    0.23 
   1  10  12    0.15    0.17 
   1  10  12    0.04    0.15 
   2  10  12    0.10    0.14 
   2  10  12    0.18    0.19 
   3  10  12    0.06    0.15 
   3  10  12    0.20    0.16 
   4  10  12    1.14    0.28 
   4  10  12    1.06    0.28 
   5  10  12   -0.11    0.15 
   5  10  12    0.30    0.19 
   6  10  12    0.00    0.17 
   7  10  12    0.25    0.20 
   8  10  12   -0.03    0.16 
   2  11  12    0.34    0.21 
   2  11  12    0.25    0.18 
   3  11  12   -0.08    0.16 
   3  11  12    0.23    0.17 
   4  11  12    0.16    0.16 
   4  11  12   -0.14    0.15 
   5  11  12    0.02    0.16 
   5  11  12   -0.04    0.14 
   6  11  12   -0.04    0.15 
   4   5 -13   -0.05    0.15 
   3   5 -13    0.72    0.22 
   2   5 -13    0.26    0.16 
   1   5 -13    0.21    0.14 
   0   5 -13    0.25    0.16 
   5   4 -13    0.53    0.21 
  -5  -4  13    0.59    0.26 
   4   4 -13   -0.03    0.14 
  -4  -4  13   -0.17    0.16 
   3   4 -13    0.11    0.13 
   2   4 -13    0.09    0.12 
   1   4 -13    0.31    0.15 
   0   4 -13    0.51    0.17 
  -1   4 -13    0.12    0.14 
  -2   4 -13    0.28    0.15 
   6   3 -13    0.35    0.18 
  -6  -3  13    0.61    0.24 
   5   3 -13    0.30    0.18 
  -5  -3  13    0.07    0.21 
   4   3 -13    0.17    0.14 
  -4  -3  13    0.22    0.18 
   3   3 -13    0.17    0.14 
  -3  -3  13    0.36    0.21 
   2   3 -13    0.12    0.13 
  -2  -3  13    0.37    0.21 
   1   3 -13    0.12    0.12 
  -1  -3  13    0.03    0.14 
   0   3 -13    0.56    0.18 
  -1   3 -13    0.25    0.13 
  -2   3 -13    0.09    0.12 
  -3   3 -13    0.05    0.14 
  -4   3 -13    0.09    0.14 
   6   2 -13   -0.20    0.15 
  -6  -2  13   -0.05    0.16 
   5   2 -13   -0.17    0.13 
  -5  -2  13   -0.10    0.18 
   4   2 -13    0.21    0.15 
  -4  -2  13    0.31    0.20 
   3   2 -13    0.00    0.11 
  -3  -2  13    0.12    0.15 
   2   2 -13    0.14    0.11 
  -2  -2  13    0.08    0.16 
   1   2 -13    0.14    0.11 
  -1  -2  13    0.21    0.17 
   0   2 -13    0.59    0.17 
   0  -2  13    1.07    0.27 
  -1   2 -13    0.10    0.11 
   1  -2  13    0.09    0.14 
  -2   2 -13    0.09    0.10 
  -3   2 -13    0.51    0.17 
  -4   2 -13    0.33    0.17 
  -5   2 -13    0.30    0.17 
   6   1 -13    0.15    0.17 
  -6  -1  13    0.13    0.20 
   5   1 -13    0.23    0.16 
  -5  -1  13    0.66    0.25 
   4   1 -13    0.93    0.22 
  -4  -1  13    0.66    0.26 
   3   1 -13    0.73    0.20 
  -3  -1  13    0.87    0.25 
   2   1 -13   -0.04    0.10 
  -2  -1  13    0.06    0.14 
   1   1 -13    0.88    0.18 
  -1  -1  13    0.91    0.26 
   0   1 -13    0.16    0.10 
   0  -1  13    0.29    0.17 
  -1   1 -13    0.48    0.14 
   1  -1  13    0.74    0.22 
  -2   1 -13    0.07    0.10 
   2  -1  13    0.04    0.13 
  -3   1 -13    0.20    0.12 
  -4   1 -13    0.23    0.13 
  -5   1 -13    0.19    0.16 
   6   0 -13    0.48    0.23 
  -6   0  13    0.43    0.23 
   5   0 -13    0.12    0.16 
  -5   0  13    0.28    0.19 
   4   0 -13    0.93    0.22 
  -4   0  13    0.84    0.25 
   3   0 -13    2.42    0.30 
  -3   0  13    2.22    0.38 
   2   0 -13    0.02    0.10 
  -2   0  13    0.04    0.13 
   1   0 -13    0.06    0.10 
  -1   0  13    0.42    0.17 
   0   0 -13    0.31    0.12 
   0   0  13    0.22    0.13 
  -1   0 -13    0.18    0.11 
   1   0  13    0.29    0.16 
  -2   0 -13    0.21    0.11 
   2   0  13    0.30    0.16 
  -3   0 -13    0.16    0.11 
   3   0  13    0.31    0.18 
  -4   0 -13    0.15    0.13 
  -5   0 -13    0.05    0.14 
  -6   0 -13    0.02    0.18 
  -6   1  13    0.30    0.22 
  -5   1  13    1.84    0.41 
  -4   1  13    0.18    0.18 
  -3   1  13    1.26    0.30 
   2  -1 -13   -0.07    0.11 
  -2   1  13   -0.03    0.12 
   1  -1 -13    0.21    0.11 
  -1   1  13   -0.07    0.10 
   0  -1 -13    0.05    0.09 
   0   1  13    0.14    0.14 
  -1  -1 -13    0.12    0.10 
   1   1  13    0.02    0.13 
  -2  -1 -13   -0.01    0.08 
   2   1  13   -0.04    0.12 
  -3  -1 -13    0.42    0.13 
   3   1  13    0.52    0.19 
  -4  -1 -13    0.92    0.18 
   4   1  13    0.80    0.22 
  -5  -1 -13    0.67    0.19 
  -6  -1 -13    0.18    0.17 
  -7  -1 -13   -0.11    0.21 
  -6   2  13    0.24    0.20 
  -5   2  13   -0.09    0.16 
  -4   2  13    0.03    0.16 
  -3   2  13    0.62    0.20 
  -2   2  13    0.16    0.14 
  -1   2  13    1.84    0.33 
   0   2  13    1.24    0.28 
   1   2  13    0.28    0.15 
   2   2  13   -0.08    0.11 
   3   2  13    0.72    0.21 
  -4  -2 -13    0.18    0.11 
   4   2  13    0.11    0.13 
  -5  -2 -13    0.43    0.16 
   5   2  13    0.07    0.14 
  -6  -2 -13   -0.05    0.15 
   6   2  13    0.32    0.18 
  -7  -2 -13    0.23    0.21 
   7   2  13    0.07    0.15 
  -5   3  13    0.42    0.22 
  -4   3  13    0.13    0.17 
  -3   3  13    1.05    0.29 
  -2   3  13    0.57    0.22 
  -1   3  13    0.41    0.18 
   0   3  13    0.21    0.15 
   1   3  13    3.81    0.46 
   2   3  13    0.78    0.22 
   3   3  13   -0.04    0.09 
   4   3  13    0.00    0.11 
   5   3  13    0.03    0.13 
   5   3  13    0.22    0.15 
   6   3  13    0.70    0.22 
   7   3  13    0.15    0.18 
   8   3  13    0.04    0.19 
  -5   4  13    0.14    0.19 
  -4   4  13    0.89    0.28 
  -3   4  13    0.08    0.16 
  -2   4  13    0.63    0.21 
  -1   4  13    0.29    0.18 
   0   4  13    1.58    0.32 
   1   4  13    5.10    0.54 
   2   4  13    0.19    0.15 
   3   4  13    0.80    0.21 
   4   4  13    1.06    0.23 
   4   4  13    1.15    0.25 
   5   4  13    0.19    0.15 
   5   4  13    0.10    0.13 
   6   4  13    0.37    0.19 
   7   4  13   -0.01    0.16 
   8   4  13    0.21    0.20 
  -4   5  13    0.37    0.22 
  -3   5  13    0.23    0.19 
  -2   5  13    0.50    0.22 
  -1   5  13    1.44    0.32 
   0   5  13    0.29    0.16 
   1   5  13    0.71    0.21 
   2   5  13    0.19    0.13 
   3   5  13    0.56    0.18 
   4   5  13    0.19    0.15 
   4   5  13    0.08    0.13 
   5   5  13    0.19    0.13 
   5   5  13   -0.09    0.11 
   6   5  13    0.01    0.14 
   7   5  13   -0.06    0.16 
   8   5  13   -0.12    0.17 
  -3   6  13    0.26    0.22 
  -2   6  13    0.93    0.27 
  -1   6  13    0.13    0.16 
   0   6  13    0.20    0.15 
   1   6  13    0.72    0.22 
   2   6  13    0.55    0.19 
   3   6  13   -0.08    0.13 
   3   6  13   -0.14    0.11 
   4   6  13    0.30    0.14 
   4   6  13    0.43    0.17 
   5   6  13    0.02    0.13 
   5   6  13    0.05    0.12 
   6   6  13    0.19    0.17 
   7   6  13    0.02    0.16 
   8   6  13    0.03    0.17 
  -3   7  13    0.39    0.21 
  -2   7  13   -0.02    0.16 
  -1   7  13    0.10    0.18 
   0   7  13   -0.11    0.14 
   1   7  13    0.52    0.22 
   2   7  13    0.87    0.25 
   3   7  13    0.51    0.19 
   3   7  13    0.78    0.22 
   4   7  13   -0.02    0.12 
   4   7  13   -0.05    0.12 
   5   7  13    0.20    0.18 
   5   7  13    0.37    0.18 
   6   7  13    0.34    0.18 
   7   7  13   -0.23    0.17 
   8   7  13    0.49    0.24 
  -2   8  13    0.07    0.20 
  -1   8  13    0.34    0.20 
   0   8  13    0.05    0.16 
   1   8  13    0.97    0.27 
   2   8  13   -0.07    0.13 
   2   8  13    0.09    0.13 
   3   8  13    1.31    0.27 
   3   8  13    0.69    0.23 
   4   8  13    0.37    0.19 
   4   8  13    0.37    0.18 
   5   8  13    0.15    0.17 
   5   8  13    0.25    0.17 
   6   8  13   -0.07    0.14 
   7   8  13   -0.10    0.17 
   8   8  13    0.20    0.23 
   0   9  13    0.20    0.19 
   1   9  13   -0.09    0.14 
   2   9  13    0.26    0.18 
   2   9  13    0.33    0.20 
   3   9  13    1.42    0.30 
   3   9  13    1.20    0.30 
   4   9  13    0.14    0.17 
   4   9  13    0.02    0.18 
   5   9  13    0.05    0.17 
   5   9  13   -0.06    0.15 
   6   9  13    0.44    0.22 
   7   9  13   -0.15    0.17 
   1  10  13    1.05    0.31 
   2  10  13    0.10    0.17 
   2  10  13   -0.28    0.15 
   3  10  13    0.25    0.18 
   3  10  13   -0.16    0.16 
   4  10  13    0.15    0.16 
   4  10  13    0.17    0.17 
   5  10  13    0.81    0.26 
   5  10  13    0.83    0.27 
   6  10  13    0.10    0.18 
   3   4 -14    0.00    0.15 
   2   4 -14   -0.09    0.13 
   1   4 -14    0.31    0.18 
   0   4 -14    0.17    0.15 
   4   3 -14    0.33    0.18 
  -4  -3  14    0.13    0.19 
   3   3 -14    0.18    0.15 
  -3  -3  14   -0.02    0.15 
   2   3 -14    0.06    0.15 
  -2  -3  14   -0.02    0.17 
   1   3 -14    0.09    0.14 
   0   3 -14    0.11    0.13 
  -1   3 -14    0.22    0.15 
  -2   3 -14    0.26    0.13 
   5   2 -14    0.12    0.16 
  -5  -2  14    0.06    0.18 
   4   2 -14   -0.01    0.14 
  -4  -2  14   -0.04    0.17 
   3   2 -14    0.49    0.17 
  -3  -2  14    0.27    0.18 
   2   2 -14    0.01    0.12 
  -2  -2  14    0.17    0.19 
   1   2 -14    0.37    0.15 
  -1  -2  14    0.39    0.21 
   0   2 -14    0.19    0.15 
   0  -2  14    0.08    0.17 
  -1   2 -14    0.32    0.15 
  -2   2 -14    0.10    0.12 
  -3   2 -14    0.49    0.17 
   5   1 -14    0.07    0.15 
  -5  -1  14    0.00    0.18 
   4   1 -14    0.49    0.18 
  -4  -1  14    0.71    0.27 
   3   1 -14    0.34    0.15 
  -3  -1  14    0.59    0.25 
   2   1 -14    0.29    0.15 
  -2  -1  14    0.07    0.18 
   1   1 -14   -0.17    0.10 
  -1  -1  14    0.06    0.15 
   0   1 -14    0.47    0.15 
   0  -1  14    0.69    0.24 
  -1   1 -14    0.63    0.17 
   1  -1  14   -0.01    0.14 
  -2   1 -14   -0.01    0.09 
   2  -1  14   -0.04    0.15 
  -3   1 -14    0.04    0.11 
  -4   1 -14    0.53    0.19 
  -5   0  14   -0.11    0.18 
  -4   0  14    0.62    0.26 
   3   0 -14    0.07    0.15 
  -3   0  14    0.22    0.18 
   2   0 -14    0.02    0.12 
  -2   0  14   -0.05    0.14 
   1   0 -14    0.06    0.12 
  -1   0  14    0.09    0.14 
   0   0 -14    0.17    0.11 
   0   0  14    0.28    0.17 
  -1   0 -14    0.52    0.14 
   1   0  14    0.21    0.15 
  -2   0 -14    0.30    0.12 
   2   0  14    0.09    0.16 
  -3   0 -14    0.42    0.14 
   3   0  14    0.32    0.18 
  -4   0 -14    0.66    0.17 
  -5   0 -14    0.35    0.17 
  -5   1  14    0.26    0.23 
  -4   1  14    0.94    0.31 
  -3   1  14    0.15    0.16 
  -2   1  14    0.30    0.20 
  -1   1  14    0.02    0.12 
   0   1  14    0.21    0.16 
   1   1  14    0.56    0.22 
  -2  -1 -14    0.39    0.13 
   2   1  14    0.24    0.16 
  -3  -1 -14    0.03    0.11 
   3   1  14    0.10    0.16 
  -4  -1 -14    0.94    0.20 
   4   1  14    1.12    0.27 
  -5  -1 -14    0.34    0.16 
  -6  -1 -14    0.22    0.17 
  -5   2  14    0.06    0.18 
  -4   2  14    0.19    0.18 
  -3   2  14    0.11    0.17 
  -2   2  14    0.73    0.27 
  -1   2  14    0.66    0.22 
   0   2  14    0.56    0.21 
   1   2  14    0.34    0.16 
   2   2  14    0.93    0.26 
   3   2  14    0.20    0.16 
   4   2  14    0.10    0.17 
   5   2  14   -0.19    0.14 
  -4   3  14    0.06    0.17 
  -3   3  14    0.33    0.22 
  -2   3  14    0.09    0.17 
  -1   3  14    1.33    0.31 
   0   3  14    0.11    0.17 
   1   3  14    0.00    0.13 
   2   3  14    0.22    0.15 
   3   3  14    0.58    0.21 
   4   3  14    0.72    0.21 
   5   3  14   -0.05    0.15 
  -4   4  14    0.18    0.19 
  -3   4  14    0.00    0.17 
  -2   4  14    1.30    0.32 
  -1   4  14    0.36    0.20 
   0   4  14    0.11    0.16 
   1   4  14    0.23    0.16 
   2   4  14    0.48    0.19 
   3   4  14    1.93    0.33 
   4   4  14    0.00    0.12 
   5   4  14    0.43    0.19 
   7   4  14    0.19    0.20 
  -3   5  14    0.65    0.25 
  -2   5  14    0.46    0.20 
  -1   5  14    0.11    0.16 
   0   5  14    0.89    0.26 
   1   5  14    0.66    0.23 
   2   5  14    1.15    0.27 
   3   5  14    0.05    0.15 
   4   5  14    0.20    0.15 
   5   5  14    0.93    0.24 
   6   5  14    0.55    0.23 
   7   5  14    0.18    0.20 
  -2   6  14   -0.07    0.16 
  -1   6  14    0.78    0.28 
   0   6  14    1.31    0.30 
   1   6  14    0.12    0.16 
   2   6  14    0.01    0.14 
   3   6  14    0.28    0.17 
   4   6  14    0.44    0.18 
   5   6  14    0.14    0.18 
   5   6  14    0.09    0.16 
   6   6  14    0.42    0.21 
   7   6  14   -0.03    0.17 
  -1   7  14    0.00    0.19 
   0   7  14    0.37    0.21 
   1   7  14   -0.03    0.15 
   2   7  14    0.24    0.16 
   3   7  14    0.24    0.18 
   4   7  14    0.25    0.15 
   5   7  14   -0.01    0.15 
   5   7  14    0.15    0.15 
   6   7  14    0.04    0.19 
   7   7  14    0.08    0.23 
   0   8  14    0.60    0.25 
   1   8  14    0.50    0.24 
   2   8  14    0.37    0.20 
   3   8  14    0.36    0.21 
   4   8  14    0.03    0.16 
   4   8  14    0.23    0.18 
   5   8  14   -0.20    0.16 
   5   8  14    0.35    0.18 
   6   8  14    0.05    0.19 
   7   8  14    0.05    0.18 
   1   9  14    0.14    0.21 
   2   9  14    0.05    0.18 
   3   9  14    0.26    0.21 
   4   9  14    0.62    0.22 
   4   9  14    0.54    0.24 
   5   9  14    0.17    0.17 
   5   9  14    0.36    0.21 
   6   9  14    0.17    0.19 
   3   2 -15    0.01    0.14 
  -3  -2  15    0.14    0.18 
   2   2 -15    0.18    0.16 
  -2  -2  15    0.03    0.17 
   1   2 -15    0.02    0.13 
  -1  -2  15    0.11    0.17 
   0   2 -15   -0.07    0.12 
   0  -2  15    0.16    0.19 
  -1   2 -15    0.41    0.18 
   3   1 -15   -0.04    0.14 
  -3  -1  15   -0.03    0.17 
   2   1 -15    0.02    0.13 
  -2  -1  15   -0.09    0.17 
   1   1 -15   -0.11    0.11 
  -1  -1  15   -0.10    0.14 
   0   1 -15    0.12    0.12 
   0  -1  15    0.00    0.18 
  -1   1 -15    0.06    0.13 
   1  -1  15    0.22    0.18 
  -2   1 -15    0.24    0.15 
   2  -1  15    0.10    0.15 
  -3   1 -15    0.47    0.16 
  -3   0  15   -0.02    0.14 
  -2   0  15   -0.16    0.15 
  -1   0  15   -0.08    0.14 
   0   0  15    0.10    0.14 
  -1   0 -15    0.23    0.13 
   1   0  15   -0.03    0.17 
  -2   0 -15    0.31    0.13 
   2   0  15    0.01    0.17 
  -3   0 -15    0.43    0.15 
   3   0  15    0.15    0.17 
  -4   0 -15    0.10    0.14 
  -3   1  15    0.00    0.15 
  -2   1  15    0.31    0.23 
  -1   1  15    0.06    0.16 
   0   1  15    0.33    0.19 
   1   1  15    0.22    0.18 
   2   1  15    0.59    0.21 
   3   1  15    0.65    0.25 
   4   1  15   -0.07    0.16 
  -3   2  15    0.10    0.18 
  -2   2  15    0.04    0.17 
  -1   2  15    0.12    0.17 
   0   2  15    0.40    0.18 
   1   2  15    0.18    0.17 
   2   2  15    0.69    0.23 
   3   2  15    0.82    0.27 
   4   2  15    0.18    0.19 
   5   2  15   -0.13    0.15 
  -3   3  15    0.10    0.20 
  -2   3  15    0.02    0.18 
  -1   3  15    0.70    0.27 
   0   3  15    0.07    0.14 
   1   3  15    0.16    0.18 
   2   3  15    0.07    0.13 
   3   3  15    0.37    0.17 
   4   3  15    0.06    0.17 
   5   3  15    0.58    0.24 
  -3   4  15   -0.12    0.16 
  -2   4  15   -0.21    0.16 
  -1   4  15    0.45    0.21 
   0   4  15    1.34    0.30 
   1   4  15    0.15    0.17 
   2   4  15    0.15    0.17 
   3   4  15    0.34    0.16 
   4   4  15    0.42    0.17 
   5   4  15    0.23    0.17 
  -2   5  15    0.22    0.21 
  -1   5  15    0.27    0.19 
   0   5  15    0.10    0.17 
   1   5  15   -0.08    0.15 
   2   5  15    0.67    0.25 
   3   5  15    0.37    0.18 
   4   5  15    0.27    0.15 
   5   5  15    0.25    0.19 
  -1   6  15    0.00    0.16 
   0   6  15    0.43    0.22 
   1   6  15    0.06    0.18 
   2   6  15    0.37    0.19 
   3   6  15    0.05    0.13 
   4   6  15    0.21    0.18 
   5   6  15    0.27    0.17 
   0   7  15    0.73    0.26 
   1   7  15   -0.23    0.14 
   2   7  15    0.06    0.16 
   3   7  15    0.08    0.17 
   4   7  15   -0.12    0.14 
   5   7  15    0.00    0.16 
   2   8  15    0.23    0.21 
   3   8  15    0.63    0.25 
   4   8  15    0.06    0.17 
   5   8  15   -0.23    0.15 
  -1   0  16    0.19    0.18 
   0   0  16    0.13    0.17 
   1   0  16    0.23    0.21 
  -1   1  16   -0.11    0.17 
   0   1  16    0.12    0.16 
   1   1  16    0.37    0.22 
   2   1  16    0.02    0.22 
  -1   2  16    0.00    0.18 
   0   2  16    0.18    0.19 
   1   2  16    0.17    0.20 
   2   2  16    0.50    0.22 
   3   2  16    0.39    0.20 
  -1   3  16    0.22    0.20 
   0   3  16    0.40    0.22 
   1   3  16    0.13    0.16 
   2   3  16    0.09    0.23 
   3   3  16    0.19    0.19 
   4   3  16    0.38    0.19 
  -1   4  16    0.11    0.19 
   0   4  16    0.65    0.26 
   1   4  16    0.53    0.23 
   2   4  16    0.14    0.22 
   3   4  16    0.00    0.17 
   4   4  16    0.15    0.18 
   0   5  16    0.16    0.18 
   1   5  16    0.25    0.20 
   2   5  16    0.20    0.20 
   3   5  16    0.09    0.17 
   4   5  16    0.21    0.16 
   1   6  16   -0.08    0.19 
   2   6  16    0.06    0.20 
   3   6  16   -0.20    0.14 
   0   0   0    0.00    0.00 
;
_shelx_hkl_checksum              17409
loop_
_space_group_symop_operation_xyz
'x, y, z'
'-x, -y, -z'
loop_
_atom_site_label
_atom_site_type_symbol
_atom_site_fract_x
_atom_site_fract_y
_atom_site_fract_z
_atom_site_U_iso_or_equiv
_atom_site_adp_type
_atom_site_occupancy
_atom_site_site_symmetry_order
_atom_site_calc_flag
_atom_site_refinement_flags_posn
_atom_site_refinement_flags_adp
S1 S 0.12580(8) 1.15529(7) 0.32851(6) 0.0705(2) Uani 1 1 d . .
N1 N 0.0918(2) 1.11296(19) 0.21526(16) 0.0586(5) Uani 1 1 d . .
O1 O 0.1564(2) 0.87143(19) 0.01329(15) 0.0735(5) Uani 1 1 d . .
H1 H 0.0708 0.8840 0.0450 0.110 Uiso 1 1 calc DR U
O2 O 0.0064(2) 1.1440(2) 0.40628(16) 0.0903(6) Uani 1 1 d . .
O3 O 0.1387(3) 1.29140(19) 0.29493(16) 0.0919(6) Uani 1 1 d . .
C1 C 0.1624(3) 1.1495(2) 0.11077(19) 0.0541(5) Uani 1 1 d . .
C2 C 0.1421(3) 1.2942(3) 0.0667(2) 0.0702(7) Uani 1 1 d . .
H2 H 0.0835 1.3676 0.1060 0.084 Uiso 1 1 calc R U
C3 C 0.2078(3) 1.3289(3) -0.0340(2) 0.0770(8) Uani 1 1 d . .
H3 H 0.1967 1.4250 -0.0610 0.092 Uiso 1 1 calc R U
C4 C 0.2903(3) 1.2234(3) -0.0960(2) 0.0727(7) Uani 1 1 d . .
H4 H 0.3347 1.2475 -0.1643 0.087 Uiso 1 1 calc R U
C5 C 0.3055(3) 1.0826(3) -0.0551(2) 0.0641(6) Uani 1 1 d . .
H5 H 0.3595 1.0115 -0.0971 0.077 Uiso 1 1 calc R U
C6 C 0.2426(2) 1.0427(2) 0.04757(18) 0.0508(5) Uani 1 1 d . .
C7 C 0.2586(2) 0.8876(2) 0.08260(18) 0.0529(5) Uani 1 1 d . .
H7 H 0.3693 0.8207 0.0693 0.063 Uiso 1 1 calc R U
C8 C 0.2212(2) 0.8488(2) 0.20573(19) 0.0521(5) Uani 1 1 d . .
H8 H 0.3091 0.8412 0.2479 0.062 Uiso 1 1 calc R U
C9 C 0.0692(3) 0.9755(2) 0.2346(2) 0.0583(6) Uani 1 1 d . .
H9A H -0.0185 0.9913 0.1894 0.070 Uiso 1 1 calc R U
H9B H 0.0419 0.9496 0.3120 0.070 Uiso 1 1 calc R U
C10 C 0.2171(3) 0.6998(2) 0.2333(2) 0.0570(6) Uani 1 1 d . .
C11 C 0.0841(3) 0.6821(3) 0.2576(3) 0.0892(9) Uani 1 1 d . .
H11A H 0.0861 0.5889 0.2678 0.107 Uiso 1 1 calc R U
H11B H -0.0118 0.7627 0.2644 0.107 Uiso 1 1 calc R U
C12 C 0.3718(3) 0.5725(2) 0.2219(2) 0.0571(6) Uani 1 1 d . .
C13 C 0.3816(4) 0.4767(3) 0.1577(3) 0.0835(8) Uani 1 1 d . .
H13 H 0.2906 0.4906 0.1227 0.100 Uiso 1 1 calc R U
C14 C 0.5261(5) 0.3595(3) 0.1450(3) 0.1033(11) Uani 1 1 d . .
H14 H 0.5309 0.2948 0.1021 0.124 Uiso 1 1 calc R U
C15 C 0.6605(4) 0.3382(3) 0.1944(3) 0.0982(11) Uani 1 1 d . .
H15 H 0.7574 0.2603 0.1844 0.118 Uiso 1 1 calc R U
C16 C 0.6530(3) 0.4309(3) 0.2583(3) 0.0857(9) Uani 1 1 d . .
H16 H 0.7447 0.4155 0.2933 0.103 Uiso 1 1 calc R U
C17 C 0.5095(3) 0.5489(3) 0.2720(2) 0.0687(7) Uani 1 1 d . .
H17 H 0.5060 0.6126 0.3153 0.082 Uiso 1 1 calc R U
C18 C 0.3111(3) 1.0163(3) 0.37872(19) 0.0628(6) Uani 1 1 d . .
C19 C 0.3189(4) 0.8943(3) 0.4583(2) 0.0747(7) Uani 1 1 d . .
H19 H 0.2261 0.8897 0.4913 0.090 Uiso 1 1 calc R U
C20 C 0.4657(4) 0.7800(3) 0.4879(2) 0.0849(8) Uani 1 1 d . .
H20 H 0.4706 0.6986 0.5422 0.102 Uiso 1 1 calc R U
C21 C 0.6051(4) 0.7816(4) 0.4403(2) 0.0829(8) Uani 1 1 d . .
C22 C 0.5942(4) 0.9063(4) 0.3646(2) 0.0871(9) Uani 1 1 d . .
H22 H 0.6877 0.9117 0.3337 0.105 Uiso 1 1 calc R U
C23 C 0.4500(4) 1.0234(3) 0.3329(2) 0.0762(7) Uani 1 1 d . .
H23 H 0.4461 1.1065 0.2812 0.091 Uiso 1 1 calc R U
C24 C 0.7652(4) 0.6512(5) 0.4704(3) 0.1281(14) Uani 1 1 d . .
H24A H 0.7603 0.5980 0.5445 0.192 Uiso 1 1 calc R U
H24B H 0.8468 0.6858 0.4663 0.192 Uiso 1 1 calc R U
H24C H 0.7899 0.5871 0.4194 0.192 Uiso 1 1 calc R U
loop_
_atom_site_aniso_label
_atom_site_aniso_U_11
_atom_site_aniso_U_22
_atom_site_aniso_U_33
_atom_site_aniso_U_23
_atom_site_aniso_U_13
_atom_site_aniso_U_12
S1 0.0783(5) 0.0547(4) 0.0766(4) -0.0278(3) 0.0196(3) -0.0239(3)
N1 0.0535(11) 0.0411(10) 0.0766(13) -0.0186(9) 0.0101(10) -0.0149(9)
O1 0.0776(12) 0.0655(11) 0.0829(12) -0.0201(9) -0.0150(9) -0.0298(10)
O2 0.0829(14) 0.0806(12) 0.0948(13) -0.0362(11) 0.0378(11) -0.0225(11)
O3 0.1308(18) 0.0590(11) 0.0938(13) -0.0299(10) 0.0105(12) -0.0428(12)
C1 0.0451(12) 0.0419(11) 0.0691(14) -0.0092(10) -0.0015(10) -0.0136(10)
C2 0.0756(17) 0.0446(13) 0.0845(18) -0.0125(12) -0.0021(14) -0.0203(13)
C3 0.089(2) 0.0531(15) 0.0849(18) 0.0037(13) -0.0081(16) -0.0343(15)
C4 0.0749(18) 0.0693(17) 0.0699(16) 0.0003(13) -0.0015(13) -0.0343(15)
C5 0.0594(15) 0.0614(15) 0.0661(15) -0.0124(12) -0.0016(12) -0.0209(12)
C6 0.0387(11) 0.0434(11) 0.0630(13) -0.0075(10) -0.0060(10) -0.0114(9)
C7 0.0397(12) 0.0429(11) 0.0690(14) -0.0150(10) -0.0035(10) -0.0086(10)
C8 0.0401(12) 0.0382(11) 0.0716(14) -0.0125(10) -0.0002(10) -0.0104(9)
C9 0.0449(13) 0.0431(12) 0.0821(16) -0.0165(11) 0.0091(11) -0.0147(10)
C10 0.0487(13) 0.0422(11) 0.0757(15) -0.0108(11) -0.0010(11) -0.0158(10)
C11 0.0607(17) 0.0510(15) 0.150(3) -0.0166(16) 0.0122(17) -0.0232(13)
C12 0.0546(14) 0.0345(11) 0.0734(15) -0.0048(10) 0.0038(11) -0.0149(10)
C13 0.088(2) 0.0556(15) 0.109(2) -0.0304(15) 0.0033(17) -0.0269(15)
C14 0.117(3) 0.0586(18) 0.126(3) -0.0418(18) 0.030(2) -0.025(2)
C15 0.081(2) 0.0485(16) 0.127(3) -0.0138(17) 0.033(2) -0.0018(16)
C16 0.0587(17) 0.0600(16) 0.107(2) 0.0001(16) 0.0002(15) -0.0062(14)
C17 0.0605(16) 0.0492(13) 0.0820(17) -0.0103(12) -0.0020(13) -0.0114(12)
C18 0.0716(16) 0.0696(15) 0.0546(13) -0.0244(12) 0.0119(12) -0.0337(14)
C19 0.083(2) 0.0840(19) 0.0588(15) -0.0176(14) 0.0133(14) -0.0383(17)
C20 0.099(2) 0.088(2) 0.0533(14) -0.0083(14) 0.0010(15) -0.0297(19)
C21 0.081(2) 0.107(2) 0.0523(15) -0.0254(15) -0.0115(14) -0.0248(18)
C22 0.073(2) 0.128(3) 0.0697(18) -0.0349(19) 0.0090(15) -0.046(2)
C23 0.086(2) 0.090(2) 0.0635(15) -0.0210(14) 0.0107(15) -0.0467(18)
C24 0.099(3) 0.158(4) 0.085(2) -0.026(2) -0.026(2) -0.010(3)
loop_
_atom_type_symbol
_atom_type_description
_atom_type_scat_dispersion_real
_atom_type_scat_dispersion_imag
_atom_type_scat_source
C C 0.0033 0.0016 'International Tables Vol C Tables 4.2.6.8 and 6.1.1.4'
H H 0.0000 0.0000 'International Tables Vol C Tables 4.2.6.8 and 6.1.1.4'
N N 0.0061 0.0033 'International Tables Vol C Tables 4.2.6.8 and 6.1.1.4'
O O 0.0106 0.0060 'International Tables Vol C Tables 4.2.6.8 and 6.1.1.4'
S S 0.1246 0.1234 'International Tables Vol C Tables 4.2.6.8 and 6.1.1.4'
loop_
_geom_angle_atom_site_label_1
_geom_angle_atom_site_label_2
_geom_angle_atom_site_label_3
_geom_angle
O2 S1 O3 119.45(12)
O2 S1 N1 106.15(11)
O3 S1 N1 107.40(11)
O2 S1 C18 108.33(12)
O3 S1 C18 108.98(13)
N1 S1 C18 105.69(10)
C1 N1 C9 115.68(17)
C1 N1 S1 120.97(15)
C9 N1 S1 115.18(15)
C7 O1 H1 109.5
C6 C1 C2 118.9(2)
C6 C1 N1 120.24(18)
C2 C1 N1 120.7(2)
C3 C2 C1 120.5(2)
C3 C2 H2 119.8
C1 C2 H2 119.8
C2 C3 C4 121.0(2)
C2 C3 H3 119.5
C4 C3 H3 119.5
C5 C4 C3 118.8(2)
C5 C4 H4 120.6
C3 C4 H4 120.6
C4 C5 C6 121.9(2)
C4 C5 H5 119.0
C6 C5 H5 119.0
C5 C6 C1 118.9(2)
C5 C6 C7 117.9(2)
C1 C6 C7 123.17(19)
O1 C7 C6 107.65(18)
O1 C7 C8 112.20(17)
C6 C7 C8 112.01(17)
O1 C7 H7 108.3
C6 C7 H7 108.3
C8 C7 H7 108.3
C10 C8 C7 109.90(18)
C10 C8 C9 115.26(17)
C7 C8 C9 109.01(18)
C10 C8 H8 107.5
C7 C8 H8 107.5
C9 C8 H8 107.5
N1 C9 C8 110.87(16)
N1 C9 H9A 109.5
C8 C9 H9A 109.5
N1 C9 H9B 109.5
C8 C9 H9B 109.5
H9A C9 H9B 108.1
C11 C10 C12 121.0(2)
C11 C10 C8 123.1(2)
C12 C10 C8 115.63(17)
C10 C11 H11A 120.0
C10 C11 H11B 120.0
H11A C11 H11B 120.0
C13 C12 C17 118.1(2)
C13 C12 C10 120.1(2)
C17 C12 C10 121.8(2)
C12 C13 C14 120.5(3)
C12 C13 H13 119.8
C14 C13 H13 119.8
C15 C14 C13 120.7(3)
C15 C14 H14 119.7
C13 C14 H14 119.7
C16 C15 C14 119.7(3)
C16 C15 H15 120.2
C14 C15 H15 120.2
C15 C16 C17 120.4(3)
C15 C16 H16 119.8
C17 C16 H16 119.8
C12 C17 C16 120.6(3)
C12 C17 H17 119.7
C16 C17 H17 119.7
C23 C18 C19 119.8(3)
C23 C18 S1 119.8(2)
C19 C18 S1 120.3(2)
C20 C19 C18 119.1(3)
C20 C19 H19 120.5
C18 C19 H19 120.5
C21 C20 C19 122.3(3)
C21 C20 H20 118.9
C19 C20 H20 118.8
C20 C21 C22 117.3(3)
C20 C21 C24 121.5(3)
C22 C21 C24 121.2(3)
C21 C22 C23 122.2(3)
C21 C22 H22 118.9
C23 C22 H22 118.9
C22 C23 C18 119.2(3)
C22 C23 H23 120.4
C18 C23 H23 120.4
C21 C24 H24A 109.5
C21 C24 H24B 109.5
H24A C24 H24B 109.5
C21 C24 H24C 109.5
H24A C24 H24C 109.5
H24B C24 H24C 109.5
loop_
_geom_bond_atom_site_label_1
_geom_bond_atom_site_label_2
_geom_bond_distance
S1 O2 1.4167(18)
S1 O3 1.4194(19)
S1 N1 1.661(2)
S1 C18 1.750(3)
N1 C1 1.433(3)
N1 C9 1.482(3)
O1 C7 1.428(3)
O1 H1 0.8200
C1 C6 1.396(3)
C1 C2 1.397(3)
C2 C3 1.370(4)
C2 H2 0.9300
C3 C4 1.380(4)
C3 H3 0.9300
C4 C5 1.368(3)
C4 H4 0.9300
C5 C6 1.391(3)
C5 H5 0.9300
C6 C7 1.498(3)
C7 C8 1.527(3)
C7 H7 0.9800
C8 C10 1.509(3)
C8 C9 1.528(3)
C8 H8 0.9800
C9 H9A 0.9700
C9 H9B 0.9700
C10 C11 1.319(3)
C10 C12 1.487(3)
C11 H11A 0.9300
C11 H11B 0.9300
C12 C13 1.376(3)
C12 C17 1.379(3)
C13 C14 1.386(4)
C13 H13 0.9300
C14 C15 1.356(5)
C14 H14 0.9300
C15 C16 1.353(5)
C15 H15 0.9300
C16 C17 1.387(4)
C16 H16 0.9300
C17 H17 0.9300
C18 C23 1.377(4)
C18 C19 1.382(4)
C19 C20 1.374(4)
C19 H19 0.9300
C20 C21 1.370(4)
C20 H20 0.9300
C21 C22 1.371(4)
C21 C24 1.516(4)
C22 C23 1.374(4)
C22 H22 0.9300
C23 H23 0.9300
C24 H24A 0.9600
C24 H24B 0.9600
C24 H24C 0.9600
loop_
_geom_hbond_atom_site_label_D
_geom_hbond_atom_site_label_H
_geom_hbond_atom_site_label_A
_geom_hbond_distance_DH
_geom_hbond_distance_HA
_geom_hbond_distance_DA
_geom_hbond_angle_DHA
_geom_hbond_site_symmetry_A
C19 H19 O2 0.93 2.50 3.428(3) 174.4 2_576
C2 H2 O3 0.93 2.32 2.818(3) 112.9 .
C2 H2 O3 0.93 2.32 2.818(3) 112.9 .
C19 H19 O2 0.93 2.50 3.428(3) 174.4 2_576
loop_
_geom_torsion_atom_site_label_1
_geom_torsion_atom_site_label_2
_geom_torsion_atom_site_label_3
_geom_torsion_atom_site_label_4
_geom_torsion
O2 S1 N1 C1 163.61(16)
O3 S1 N1 C1 34.8(2)
C18 S1 N1 C1 -81.46(17)
O2 S1 N1 C9 -49.18(17)
O3 S1 N1 C9 -178.02(15)
C18 S1 N1 C9 65.74(17)
C9 N1 C1 C6 -16.7(3)
S1 N1 C1 C6 130.34(19)
C9 N1 C1 C2 158.5(2)
S1 N1 C1 C2 -54.4(3)
C6 C1 C2 C3 -3.7(4)
N1 C1 C2 C3 -179.0(2)
C1 C2 C3 C4 2.4(4)
C2 C3 C4 C5 0.0(4)
C3 C4 C5 C6 -1.0(4)
C4 C5 C6 C1 -0.4(4)
C4 C5 C6 C7 177.1(2)
C2 C1 C6 C5 2.7(3)
N1 C1 C6 C5 178.0(2)
C2 C1 C6 C7 -174.6(2)
N1 C1 C6 C7 0.7(3)
C5 C6 C7 O1 -69.7(2)
C1 C6 C7 O1 107.6(2)
C5 C6 C7 C8 166.47(19)
C1 C6 C7 C8 -16.2(3)
O1 C7 C8 C10 51.2(2)
C6 C7 C8 C10 172.37(17)
O1 C7 C8 C9 -76.1(2)
C6 C7 C8 C9 45.2(2)
C1 N1 C9 C8 47.6(3)
S1 N1 C9 C8 -101.4(2)
C10 C8 C9 N1 174.07(19)
C7 C8 C9 N1 -61.8(2)
C7 C8 C10 C11 -109.3(3)
C9 C8 C10 C11 14.3(4)
C7 C8 C10 C12 65.4(3)
C9 C8 C10 C12 -170.9(2)
C11 C10 C12 C13 48.5(4)
C8 C10 C12 C13 -126.4(3)
C11 C10 C12 C17 -133.2(3)
C8 C10 C12 C17 51.9(3)
C17 C12 C13 C14 0.4(4)
C10 C12 C13 C14 178.8(3)
C12 C13 C14 C15 -0.8(5)
C13 C14 C15 C16 1.1(5)
C14 C15 C16 C17 -1.2(5)
C13 C12 C17 C16 -0.5(4)
C10 C12 C17 C16 -178.8(2)
C15 C16 C17 C12 0.8(4)
O2 S1 C18 C23 -164.83(19)
O3 S1 C18 C23 -33.4(2)
N1 S1 C18 C23 81.8(2)
O2 S1 C18 C19 19.9(2)
O3 S1 C18 C19 151.4(2)
N1 S1 C18 C19 -93.5(2)
C23 C18 C19 C20 -1.9(4)
S1 C18 C19 C20 173.3(2)
C18 C19 C20 C21 -0.8(4)
C19 C20 C21 C22 3.1(4)
C19 C20 C21 C24 -177.1(3)
C20 C21 C22 C23 -2.8(4)
C24 C21 C22 C23 177.4(3)
C21 C22 C23 C18 0.2(4)
C19 C18 C23 C22 2.2(4)
S1 C18 C23 C22 -173.1(2)
