#------------------------------------------------------------------------------
#$Date: 2015-08-05 23:33:25 +0300 (Wed, 05 Aug 2015) $
#$Revision: 152922 $
#$URL: svn://www.crystallography.net/cod/cif/1/52/93/1529353.cif $
#------------------------------------------------------------------------------
#
# This file is available in the Crystallography Open Database (COD),
# http://www.crystallography.net/
#
# All data on this site have been placed in the public domain by the
# contributors.
#
data_1529353
loop_
_publ_author_name
'Salmer\'on-Valverde, Amparo'
'Bern\`es, Sylvain'
_publ_section_title
;
 Two Closely Related Organic Charge-Transfer Complexes Based on
 Tetrathiafulvalene and 9H-fluorenone Derivatives. Competition between
 Hydrogen Bonding and Stacking Interactions
;
_journal_issue                   3
_journal_name_full               Crystals
_journal_page_first              283
_journal_paper_doi               10.3390/cryst5030283
_journal_volume                  5
_journal_year                    2015
_chemical_formula_moiety         'C15 H7 N3 O9, C6 H4 S4'
_chemical_formula_sum            'C21 H11 N3 O9 S4'
_chemical_formula_weight         577.57
_chemical_melting_point          443
_chemical_name_systematic
;
2,2'-bis(1,3-Dithiolylidene) 4,5,7-trinitro-9-fluorenone-2-carboxylic acid methyl ester
;
_space_group_crystal_system      monoclinic
_space_group_IT_number           14
_space_group_name_Hall           '-P 2yn'
_space_group_name_H-M_alt        'P 1 21/n 1'
_symmetry_space_group_name_Hall  '-P 2yn'
_symmetry_space_group_name_H-M   'P 1 21/n 1'
_atom_sites_solution_hydrogens   geom
_atom_sites_solution_primary     direct
_atom_sites_solution_secondary   difmap
_audit_creation_date             2014-07-24
_audit_creation_method           SHELXTL-2014
_cell_angle_alpha                90
_cell_angle_beta                 117.833(12)
_cell_angle_gamma                90
_cell_formula_units_Z            4
_cell_length_a                   19.078(5)
_cell_length_b                   7.2068(14)
_cell_length_c                   19.443(4)
_cell_measurement_reflns_used    62
_cell_measurement_temperature    296(2)
_cell_measurement_theta_max      11.94
_cell_measurement_theta_min      3.68
_cell_volume                     2364.0(9)
_computing_cell_refinement       'Bruker XSCANS'
_computing_data_collection       'Bruker XSCANS'
_computing_data_reduction        'Bruker SHELXTL'
_computing_molecular_graphics    'Bruker SHELXTL'
_computing_publication_material  SHELXL2014
_computing_structure_refinement  'SHELXL2014 (Sheldrick, 2008)'
_computing_structure_solution    'SHELXS2014 (Sheldrick, 2008)'
_diffrn_ambient_temperature      296(2)
_diffrn_measured_fraction_theta_full 0.973
_diffrn_measured_fraction_theta_max 0.996
_diffrn_measurement_device_type  'Bruker P4'
_diffrn_measurement_method       '\w scans'
_diffrn_radiation_monochromator  graphite
_diffrn_radiation_source         'fine-focus sealed tube'
_diffrn_radiation_type           MoK\a
_diffrn_radiation_wavelength     0.71073
_diffrn_reflns_av_R_equivalents  0.0329
_diffrn_reflns_av_unetI/netI     0.0677
_diffrn_reflns_laue_measured_fraction_full 0.973
_diffrn_reflns_laue_measured_fraction_max 0.996
_diffrn_reflns_limit_h_max       3
_diffrn_reflns_limit_h_min       -22
_diffrn_reflns_limit_k_max       1
_diffrn_reflns_limit_k_min       -8
_diffrn_reflns_limit_l_max       23
_diffrn_reflns_limit_l_min       -20
_diffrn_reflns_number            5681
_diffrn_reflns_point_group_measured_fraction_full 0.973
_diffrn_reflns_point_group_measured_fraction_max 0.996
_diffrn_reflns_theta_full        25.242
_diffrn_reflns_theta_max         25.022
_diffrn_reflns_theta_min         2.048
_diffrn_source_current           30
_diffrn_source_power             1.5
_diffrn_source_type              FN4
_diffrn_source_voltage           50
_diffrn_standards_decay_%        0.5
_diffrn_standards_interval_count 97
_diffrn_standards_number         2
_exptl_absorpt_coefficient_mu    0.462
_exptl_absorpt_correction_T_max  0.703
_exptl_absorpt_correction_T_min  0.656
_exptl_absorpt_correction_type   psi-scan
_exptl_absorpt_process_details   'XSCANS (Bruker, 1996)'
_exptl_crystal_colour            dark_brown
_exptl_crystal_density_diffrn    1.623
_exptl_crystal_description       plate
_exptl_crystal_F_000             1176
_exptl_crystal_size_max          0.60
_exptl_crystal_size_mid          0.32
_exptl_crystal_size_min          0.04
_refine_diff_density_max         0.230
_refine_diff_density_min         -0.235
_refine_diff_density_rms         0.049
_refine_ls_extinction_coef       0.0030(5)
_refine_ls_extinction_expression Fc^*^=kFc[1+0.001xFc^2^\l^3^/sin(2\q)]^-1/4^
_refine_ls_extinction_method     SHELXL2014
_refine_ls_goodness_of_fit_ref   1.002
_refine_ls_hydrogen_treatment    constr
_refine_ls_matrix_type           full
_refine_ls_number_constraints    0
_refine_ls_number_parameters     336
_refine_ls_number_reflns         4165
_refine_ls_number_restraints     0
_refine_ls_restrained_S_all      1.002
_refine_ls_R_factor_all          0.1057
_refine_ls_R_factor_gt           0.0482
_refine_ls_shift/su_max          0.000
_refine_ls_shift/su_mean         0.000
_refine_ls_structure_factor_coef Fsqd
_refine_ls_weighting_details
'w=1/[\s^2^(Fo^2^)+(0.0482P)^2^+0.0273P] where P=(Fo^2^+2Fc^2^)/3'
_refine_ls_weighting_scheme      calc
_refine_ls_wR_factor_gt          0.0971
_refine_ls_wR_factor_ref         0.1161
_reflns_Friedel_coverage         0.000
_reflns_number_gt                2393
_reflns_number_total             4165
_reflns_threshold_expression     'I > 2\s(I)'
_cod_data_source_file            ASV_Crystals.cif
_cod_data_source_block           2
_cod_database_code               1529353
_shelx_space_group_comment
;
The symmetry employed for this shelxl refinement is uniquely defined
by the following loop, which should always be used as a source of
symmetry information in preference to the above space-group names.
They are only intended as comments.
;
_shelxl_version_number           2014-3
_shelx_res_file
;
TITL tmec2tnf in P2(1)/n LAST... corr: [E], Mu*R=0.25
CELL 0.71073  19.0776   7.2068  19.4432  90.000 117.833  90.000
ZERR    4.00   0.0045   0.0014   0.0042   0.000   0.012   0.000
LATT  1
SYMM 0.5-X, 0.5+Y, 0.5-Z
SFAC C H N O S
UNIT 84 44 12 36 16
TEMP 23

L.S. 12
OMIT 12 3 7
ACTA
CONF

EQIV $1 -x+1/2, y+1/2, -z+3/2
EQIV $2 -x+1/2, y+1/2, -z+1/2
HTAB C14 O19_$1
HTAB C31 O23_$2

BOND $H
FMAP 2
PLAN 10

MPLA S24 C25 C26 S27 C28 C29 S30 C31 C32 S33
MPLA C1 C2 C3 C4 C4A C4B C5 C6 C7 C8 C8A C9 C9A

WGHT    0.048200    0.027300
EXTI    0.003029
FVAR       0.12245
C1    1    0.491297    0.473779    0.735781    11.00000    0.03632    0.04986 =
         0.05677    0.00272    0.02065    0.00462
AFIX  43
H1B   2    0.544865    0.476141    0.749063    11.00000   -1.20000
AFIX   0
C2    1    0.466533    0.513953    0.791458    11.00000    0.03653    0.03748 =
         0.04819    0.00447    0.01433    0.00381
C3    1    0.385743    0.509306    0.769166    11.00000    0.04146    0.05028 =
         0.04938    0.00580    0.02354    0.00272
AFIX  43
H3B   2    0.368267    0.535057    0.805509    11.00000   -1.20000
AFIX   0
C4    1    0.331115    0.466565    0.693168    11.00000    0.03511    0.04081 =
         0.04920    0.00143    0.01908   -0.00268
C4A   1    0.353934    0.421979    0.636372    11.00000    0.03741    0.03588 =
         0.04755    0.00507    0.02075    0.00180
C4B   1    0.313899    0.368783    0.552673    11.00000    0.03776    0.03203 =
         0.04678    0.00236    0.01915   -0.00049
C5    1    0.237262    0.319731    0.498045    11.00000    0.03822    0.03626 =
         0.05403    0.00225    0.02304   -0.00122
C6    1    0.218127    0.287251    0.420877    11.00000    0.04303    0.04632 =
         0.05230    0.00309    0.01620   -0.00272
AFIX  43
H6A   2    0.166388    0.258358    0.384614    11.00000   -1.20000
AFIX   0
C7    1    0.276744    0.298431    0.398903    11.00000    0.04973    0.04883 =
         0.04625    0.00481    0.02023   -0.00112
C8    1    0.354373    0.334660    0.450824    11.00000    0.04737    0.05484 =
         0.05977    0.00690    0.03037    0.00232
AFIX  43
H8A   2    0.393744    0.336008    0.435385    11.00000   -1.20000
AFIX   0
C8A   1    0.371462    0.368895    0.526678    11.00000    0.03664    0.04673 =
         0.04825    0.00059    0.02049   -0.00052
C9    1    0.450558    0.402598    0.593463    11.00000    0.04020    0.05797 =
         0.05691    0.00066    0.02528    0.00254
C9A   1    0.435853    0.431000    0.661612    11.00000    0.03360    0.04386 =
         0.04823    0.00342    0.01760    0.00195
O10   4    0.514185    0.406612    0.593660    11.00000    0.03823    0.12369 =
         0.06546   -0.00505    0.02951   -0.00025
C11   1    0.527533    0.572767    0.870164    11.00000    0.04566    0.05355 =
         0.04990    0.00852    0.01969    0.00450
O12   4    0.597662    0.570509    0.889848    11.00000    0.03659    0.10933 =
         0.05830   -0.00918    0.01225    0.00488
O13   4    0.496486    0.630994    0.914740    11.00000    0.04798    0.07368 =
         0.04807   -0.00864    0.02072   -0.00465
C14   1    0.552260    0.703995    0.990052    11.00000    0.06346    0.08859 =
         0.04994   -0.01272    0.02260   -0.00396
AFIX 137
H14A  2    0.523870    0.752236    1.015921    11.00000   -1.50000
H14B  2    0.582765    0.801510    0.983271    11.00000   -1.50000
H14C  2    0.587110    0.606620    1.020876    11.00000   -1.50000
AFIX   0
N15   3    0.247038    0.494668    0.673928    11.00000    0.04033    0.08072 =
         0.05611   -0.00467    0.02413    0.00009
O16   4    0.204715    0.575071    0.613544    11.00000    0.04002    0.07668 =
         0.06555   -0.00177    0.01579    0.01002
O17   4    0.226960    0.439400    0.721539    11.00000    0.05851    0.19999 =
         0.06888    0.00225    0.04387   -0.01284
N18   3    0.172754    0.279556    0.517584    11.00000    0.04000    0.05509 =
         0.06408   -0.01101    0.02476   -0.00889
O19   4    0.105448    0.324402    0.470387    11.00000    0.03494    0.10776 =
         0.07677   -0.00851    0.01914   -0.00126
O20   4    0.190980    0.199455    0.579189    11.00000    0.06134    0.06876 =
         0.07381    0.00289    0.03935   -0.01212
N21   3    0.254188    0.261527    0.315857    11.00000    0.06156    0.09961 =
         0.04881    0.00012    0.02216   -0.00738
O22   4    0.306398    0.259270    0.296893    11.00000    0.07771    0.19065 =
         0.06246   -0.01019    0.04108   -0.00722
O23   4    0.184542    0.236999    0.270952    11.00000    0.06685    0.19164 =
         0.05048   -0.00842    0.01714   -0.02124
S24   5    0.517512    0.937124    0.685900    11.00000    0.05073    0.08651 =
         0.09595   -0.00024    0.02196   -0.00749
C25   1    0.518044    0.982559    0.774127    11.00000    0.09171    0.05905 =
         0.06213   -0.00243    0.00123   -0.01745
AFIX  43
H25A  2    0.565221    1.002153    0.819393    11.00000   -1.20000
AFIX   0
C26   1    0.448950    0.988149    0.774348    11.00000    0.10434    0.05513 =
         0.06694   -0.00378    0.02954   -0.00949
AFIX  43
H26A  2    0.446354    1.011370    0.820156    11.00000   -1.20000
AFIX   0
S27   5    0.363533    0.951652    0.688228    11.00000    0.07154    0.05836 =
         0.05661    0.00899    0.03321    0.00851
C28   1    0.413771    0.917559    0.632710    11.00000    0.04776    0.04488 =
         0.06316    0.01024    0.02683    0.00419
C29   1    0.375718    0.876030    0.556681    11.00000    0.04446    0.04792 =
         0.05838    0.00772    0.02851    0.00249
S30   5    0.424900    0.846591    0.500399    11.00000    0.06414    0.09430 =
         0.08504   -0.00292    0.05160   -0.00095
C31   1    0.339750    0.810479    0.414078    11.00000    0.08897    0.06615 =
         0.06633    0.00247    0.04709    0.01338
AFIX  43
H31A  2    0.342332    0.789275    0.368132    11.00000   -1.20000
AFIX   0
C32   1    0.270485    0.813634    0.414704    11.00000    0.07128    0.05972 =
         0.05715   -0.00207    0.02595    0.01041
AFIX  43
H32A  2    0.223091    0.797106    0.369343    11.00000   -1.20000
AFIX   0
S33   5    0.271966    0.849979    0.503916    11.00000    0.04827    0.05569 =
         0.05866    0.00568    0.02773    0.00212

HKLF 4

REM  tmec2tnf in P2(1)/n LAST... corr: [E], Mu*R=0.25
REM R1 =  0.0482 for    2393 Fo > 4sig(Fo)  and  0.1057 for all    4165 data
REM    336 parameters refined using      0 restraints

END

WGHT      0.0473      0.0749

REM Highest difference peak  0.230,  deepest hole -0.235,  1-sigma level  0.049
Q1    1   0.3939  0.3550  0.6559  11.00000  0.05    0.23
Q2    1   0.4181  0.9917  0.7139  11.00000  0.05    0.21
Q3    1   0.5392  1.0014  0.6560  11.00000  0.05    0.21
Q4    1   0.3403  1.1226  0.6470  11.00000  0.05    0.20
Q5    1   0.2983  0.0832  0.2500  11.00000  0.05    0.18
Q6    1   0.3223  0.8831  0.4456  11.00000  0.05    0.18
Q7    1   0.4609  0.4112  0.7051  11.00000  0.05    0.17
Q8    1   0.3262  0.3413  0.5981  11.00000  0.05    0.17
Q9    1   0.5647  0.6349  0.8681  11.00000  0.05    0.17
Q10   1   0.4180  0.4080  0.5519  11.00000  0.05    0.17
;
_shelx_res_checksum              19001
_shelx_hkl_file
;
 -22   1   6   -0.18    0.43
 -22   1   7    0.96    0.49
 -22   1   8    0.19    0.43
 -22   1   9   -0.01    0.47
 -22   1  10    0.35    0.46
 -22   1  11    0.29    0.52
 -22   1  12    0.17    0.43
 -22   1  13    0.61    0.56
 -22   1  14    0.60    0.40
 -22   0  15    0.60    0.49
 -22   0  14    0.12    0.48
 -22   0  13   -0.02    0.38
 -22   0  12    0.32    0.42
 -22   0  11    0.04    0.39
 -22   0  10    1.99    0.50
 -22   0   9    0.16    0.40
 -22   0   8    0.15    0.41
 -22   0   7    0.35    0.48
 -22   0   6   -0.13    0.45
 -22  -1   7    0.25    0.58
 -22  -1   8    0.51    0.46
 -22  -1   9    0.47    0.62
 -22  -1  10   -0.07    0.41
 -22  -1  11    0.41    0.64
 -22  -1  12    0.64    0.45
 -22  -1  13    0.45    0.56
 -22  -1  14    0.81    0.45
 -22  -2  11    0.13    0.53
 -22  -2  10    0.17    0.58
 -22  -2   9   -0.27    0.45
 -21  -3   8   -0.11    0.54
 -21  -3   9   -0.03    0.50
 -21  -3  10   -0.13    0.37
 -21  -3  11    0.56    0.48
 -21  -3  12    0.13    0.54
 -21  -2  16    0.71    0.57
 -21  -2  15   -0.10    0.37
 -21  -2  14    0.58    0.56
 -21  -2  13    0.65    0.44
 -21  -2  12    0.75    0.60
 -21  -2  11    0.76    0.51
 -21  -2  10    4.93    0.68
 -21  -2   9    0.84    0.46
 -21  -2   8    1.84    0.55
 -21  -2   7    0.22    0.49
 -21  -2   6    1.64    0.62
 -21  -2   5   -0.10    0.45
 -21  -2   4    0.27    0.55
 -21  -1   3    0.26    0.52
 -21  -1   4    1.75    0.60
 -21  -1   5    2.68    0.65
 -21  -1   6    0.52    0.70
 -21  -1   7    1.51    0.56
 -21  -1   8   -0.21    0.44
 -21  -1   9    1.79    0.55
 -21  -1  10    0.00    0.52
 -21  -1  11    2.08    0.63
 -21  -1  12   -0.09    0.45
 -21  -1  13   -0.36    0.50
 -21  -1  14    2.08    0.56
 -21  -1  15    1.91    0.68
 -21  -1  16    0.33    0.47
 -21  -1  17   -0.36    0.62
 -21   0  17    0.75    0.56
 -21   0  16    0.35    0.53
 -21   0  15   -0.24    0.41
 -21   0  14    0.17    0.49
 -21   0  13    1.99    0.55
 -21   0  12    0.17    0.51
 -21   0  11   -0.46    0.37
 -21   0  10    0.21    0.45
 -21   0   9    0.50    0.61
 -21   0   8    0.33    0.46
 -21   0   7    3.24    0.62
 -21   0   6    0.61    0.59
 -21   0   5   -0.46    0.39
 -21   0   4    0.11    0.48
 -21   0   3    0.20    0.55
 -21   1   3    0.31    0.45
 -21   1   4    1.28    0.58
 -21   1   5    0.90    0.80
 -21   1   6    2.23    0.48
 -21   1   7    1.58    0.55
 -21   1   8    0.39    0.44
 -21   1   9    1.16    0.48
 -21   1  10    0.19    0.48
 -21   1  11    0.91    0.61
 -21   1  12   -0.09    0.47
 -21   1  13   -0.09    0.43
 -21   1  14    1.22    0.56
 -21   1  15    2.70    0.83
 -21   1  16    0.14    0.46
 -21   1  17    1.15    0.48
 -20   1   1    0.19    0.54
 -20   1   2    0.01    0.39
 -20   1   3    2.10    0.61
 -20   1   4    0.47    0.48
 -20   1   5    3.55    0.61
 -20   1   6   -0.13    0.37
 -20   1   7    0.34    0.54
 -20   1   8   -0.30    0.38
 -20   1   9    0.86    0.62
 -20   1  10    0.23    0.50
 -20   1  11    0.67    0.58
 -20   1  12    0.24    0.48
 -20   1  13    0.17    0.47
 -20   1  14    1.53    0.61
 -20   1  15    7.20    0.83
 -20   1  16    2.29    0.55
 -20   1  17    0.41    0.51
 -20   1  18    1.32    0.52
 -20   0  19    0.65    0.47
 -20   0  18    0.22    0.54
 -20   0  17   -0.25    0.40
 -20   0  16    5.46    0.73
 -20   0  15   -0.07    0.41
 -20   0  14   14.39    1.00
 -20   0  13   -0.25    0.41
 -20   0  12    0.07    0.43
 -20   0  11    0.49    0.47
 -20   0  10    5.09    0.77
 -20   0   9    0.38    0.43
 -20   0   8    5.72    0.64
 -20   0   7    0.03    0.43
 -20   0   6    9.64    0.89
 -20   0   5    0.59    0.60
 -20   0   4   10.46    0.84
 -20   0   3   -0.02    0.51
 -20   0   2    0.25    0.52
 -20   0   1    0.46    0.45
 -20   0   0    2.94    0.64
 -20  -1   1    0.09    0.55
 -20  -1   2    0.19    0.53
 -20  -1   3    1.84    0.55
 -20  -1   4   -0.46    0.48
 -20  -1   5    5.32    0.70
 -20  -1   6    0.01    0.44
 -20  -1   7    0.06    0.51
 -20  -1   8    0.27    0.41
 -20  -1   9    0.99    0.59
 -20  -1  10   -0.19    0.42
 -20  -1  11    0.72    0.52
 -20  -1  12    0.26    0.66
 -20  -1  13    0.73    0.49
 -20  -1  14    2.41    0.56
 -20  -1  15    8.31    0.86
 -20  -1  16    0.48    0.68
 -20  -1  17    1.86    0.61
 -20  -1  18    1.43    0.50
 -20  -2  17   -0.03    0.46
 -20  -2  16    0.51    0.53
 -20  -2  15    1.50    0.80
 -20  -2  14    0.98    0.51
 -20  -2  13   -0.25    0.44
 -20  -2  12    6.32    0.74
 -20  -2  11    1.11    0.74
 -20  -2  10    0.15    0.51
 -20  -2   9    0.56    0.55
 -20  -2   8    2.58    0.60
 -20  -2   7    1.23    0.48
 -20  -2   6   -0.58    0.43
 -20  -2   5    2.62    0.86
 -20  -2   4    0.55    0.51
 -20  -2   3    0.98    0.55
 -20  -2   2    4.32    0.78
 -20  -3   4    0.07    0.51
 -20  -3   5    1.41    0.65
 -20  -3   6    3.17    0.72
 -20  -3   7    4.47    0.73
 -20  -3   8    0.92    0.58
 -20  -3   9    0.83    0.56
 -20  -3  10    0.20    0.44
 -20  -3  11    0.33    0.72
 -20  -3  12   -0.24    0.48
 -20  -3  13    2.49    0.66
 -20  -3  14    1.09    0.52
 -20  -3  15    1.29    0.66
 -20  -4  10    0.05    0.49
 -20  -4   9    1.82    0.65
 -19  -4  14    0.10    0.49
 -19  -4  13    1.03    0.53
 -19  -4  12    2.62    0.69
 -19  -4  11    0.26    0.55
 -19  -4  10    2.47    0.59
 -19  -4   9    0.05    0.52
 -19  -4   8    1.17    0.52
 -19  -4   7    1.30    0.60
 -19  -4   6    2.07    0.57
 -19  -4   5    0.74    0.58
 -19  -4   4    0.98    0.65
 -19  -3   1    1.64    0.69
 -19  -3   2    2.57    0.85
 -19  -3   3    8.14    0.83
 -19  -3   4   -0.47    0.56
 -19  -3   5    0.23    0.66
 -19  -3   6    3.00    0.66
 -19  -3   7   -0.43    0.60
 -19  -3   8    2.32    0.68
 -19  -3   9   -0.13    0.58
 -19  -3  10    4.53    0.84
 -19  -3  11    0.70    0.53
 -19  -3  12    4.93    0.73
 -19  -3  13    1.85    0.72
 -19  -3  14    4.08    0.68
 -19  -3  15    0.09    0.61
 -19  -3  16    3.52    0.92
 -19  -3  17    0.13    0.71
 -19  -2  19    0.42    0.51
 -19  -2  18    0.97    0.55
 -19  -2  17    1.19    0.60
 -19  -2  16    0.66    0.48
 -19  -2  15    0.79    0.57
 -19  -2  14   12.02    0.97
 -19  -2  13    0.51    0.76
 -19  -2  12    4.44    0.72
 -19  -2  11    1.95    0.55
 -19  -2  10    1.20    0.66
 -19  -2   9   -0.15    0.60
 -19  -2   8    0.45    0.70
 -19  -2   7    9.35    0.81
 -19  -2   6    0.25    0.54
 -19  -2   5    0.30    0.52
 -19  -2   4    7.35    0.81
 -19  -2   3    0.11    0.46
 -19  -2   2    2.30    0.60
 -19  -2   1    1.70    0.79
 -19  -2   0   -0.06    0.46
 -19  -2  -1   -0.12    0.62
 -19  -1  -1    2.12    0.67
 -19  -1   0    2.11    0.72
 -19  -1   1    0.01    0.45
 -19  -1   2    0.24    0.66
 -19  -1   3    0.66    0.57
 -19  -1   4   12.79    0.99
 -19  -1   5    0.30    0.55
 -19  -1   6    1.32    0.48
 -19  -1   7    0.31    0.60
 -19  -1   8    0.18    0.58
 -19  -1   9    1.17    0.49
 -19  -1  10    8.60    0.79
 -19  -1  11    0.95    0.39
 -19  -1  12    4.73    0.66
 -19  -1  13    3.68    0.73
 -19  -1  14    4.27    0.65
 -19  -1  15    2.59    0.67
 -19  -1  16    1.50    0.49
 -19  -1  17    0.47    0.41
 -19  -1  18    0.18    0.58
 -19  -1  19    1.83    0.62
 -19   0  20   -0.07    0.53
 -19   0  19    6.23    0.81
 -19   0  18   -0.51    0.37
 -19   0  17    1.31    0.75
 -19   0  16   -0.05    0.41
 -19   0  15    7.75    0.76
 -19   0  14   -0.04    0.45
 -19   0  13    0.96    0.50
 -19   0  12   -0.04    0.40
 -19   0  11    7.40    0.79
 -19   0  10    0.33    0.45
 -19   0   9   12.60    0.81
 -19   0   8   -0.27    0.51
 -19   0   7    4.71    0.76
 -19   0   6    0.35    0.57
 -19   0   5   17.77    1.06
 -19   0   4   -0.35    0.41
 -19   0   3    0.56    0.49
 -19   0   2    0.31    0.50
 -19   0   1    4.15    0.61
 -19   0   0    0.56    0.53
 -19   0  -1    9.57    0.87
 -19   1  -1    1.14    0.74
 -19   1   0    3.25    0.58
 -19   1   1   -0.05    0.49
 -19   1   2   -0.23    0.49
 -19   1   3    2.01    0.51
 -19   1   4   10.39    0.79
 -19   1   5    1.02    0.53
 -19   1   6    1.31    0.51
 -19   1   7   -0.17    0.38
 -19   1   8    0.86    0.55
 -19   1   9    0.72    0.55
 -19   1  10    8.32    0.83
 -19   1  11   -0.12    0.56
 -19   1  12    4.46    0.67
 -19   1  13    1.72    0.78
 -19   1  14    4.38    0.64
 -19   1  15    2.87    0.62
 -19   1  16    2.19    0.54
 -19   1  17   -0.36    0.42
 -19   1  18    0.75    0.49
 -19   1  19    2.54    0.66
 -19   0  -2   -0.27    0.46
 -18   1  -1    2.21    0.59
 -18   1   0    2.88    0.62
 -18   1   1    0.08    0.53
 -18   1   2    3.31    0.53
 -18   1   3    2.30    0.54
 -18   1   4    8.68    0.82
 -18   1   5    3.95    0.64
 -18   1   6   -0.14    0.32
 -18   1   7    2.79    0.52
 -18   1   8   13.84    0.91
 -18   1   9   -0.06    0.37
 -18   1  10    8.92    0.83
 -18   1  11    0.05    0.39
 -18   1  12    1.68    0.56
 -18   1  13    2.43    0.59
 -18   1  14    8.09    0.80
 -18   1  15    4.96    0.65
 -18   1  16    2.49    0.66
 -18   1  17    0.34    0.57
 -18   1  18    3.62    0.61
 -18   1  19    0.53    0.48
 -18   1  20    4.34    0.71
 -18   0  21    0.61    0.66
 -18   0  20    3.18    0.63
 -18   0  19   -0.72    0.40
 -18   0  18    0.17    0.49
 -18   0  17   -0.37    0.39
 -18   0  16    4.68    0.76
 -18   0  15    0.59    0.50
 -18   0  14    3.20    0.61
 -18   0  13    0.22    0.51
 -18   0  12   16.97    0.97
 -18   0  11    0.18    0.54
 -18   0  10    0.00    0.56
 -18   0   9    0.15    0.42
 -18   0   8    1.11    0.47
 -18   0   7    0.17    0.35
 -18   0   6   11.93    0.80
 -18   0   5   -0.48    0.37
 -18   0   4    1.52    0.49
 -18   0   3    0.05    0.41
 -18   0   2   13.05    0.93
 -18   0   1   -0.03    0.55
 -18   0   0    0.34    0.38
 -18   0  -1    0.10    0.40
 -18  -1  -1    2.14    0.54
 -18  -1   0    3.73    0.64
 -18  -1   1    1.07    0.48
 -18  -1   2    2.73    0.62
 -18  -1   3    3.61    0.61
 -18  -1   4    9.51    0.82
 -18  -1   5    4.26    0.59
 -18  -1   6    0.01    0.41
 -18  -1   7    2.39    0.56
 -18  -1   8   14.55    0.85
 -18  -1   9    0.65    0.43
 -18  -1  10   10.15    0.77
 -18  -1  11    0.25    0.51
 -18  -1  12    2.39    0.62
 -18  -1  13    3.41    0.72
 -18  -1  14    6.23    0.73
 -18  -1  15    6.22    0.74
 -18  -1  16    3.22    0.58
 -18  -1  17    0.22    0.48
 -18  -1  18    4.17    0.73
 -18  -1  19    0.86    0.59
 -18  -1  20    4.20    0.78
 -18  -2  20   -0.33    0.51
 -18  -2  19    3.94    0.80
 -18  -2  18    0.83    0.54
 -18  -2  17    0.70    0.58
 -18  -2  16    2.24    0.57
 -18  -2  15    2.48    0.55
 -18  -2  14   -0.06    0.63
 -18  -2  13    2.89    0.62
 -18  -2  12   -0.21    0.51
 -18  -2  11    0.31    0.47
 -18  -2  10    1.54    0.49
 -18  -2   9    1.66    0.55
 -18  -2   8   -0.02    0.49
 -18  -2   7    1.26    0.55
 -18  -2   6    4.94    0.60
 -18  -2   5    3.25    0.58
 -18  -2   4   -0.25    0.56
 -18  -2   3    5.53    0.67
 -18  -2   2    1.11    0.54
 -18  -2   1    0.72    0.54
 -18  -2   0    1.71    0.75
 -18  -2  -1    2.68    0.63
 -18  -3  -1    1.11    0.55
 -18  -3   0   -0.80    0.37
 -18  -3   1    0.40    0.53
 -18  -3   2    1.01    0.48
 -18  -3   3    0.82    0.42
 -18  -3   4    0.20    0.60
 -18  -3   5    1.50    0.63
 -18  -3   6    3.09    0.60
 -18  -3   7    0.15    0.51
 -18  -3   8    7.38    0.75
 -18  -3   9   -0.65    0.52
 -18  -3  10    7.37    0.79
 -18  -3  11    0.01    0.50
 -18  -3  12    0.18    0.63
 -18  -3  13    1.15    0.53
 -18  -3  14    0.45    0.45
 -18  -3  15    1.43    0.53
 -18  -3  16    0.60    0.51
 -18  -3  17    0.00    0.53
 -18  -3  18   -0.05    0.51
 -18  -4  16    0.34    0.54
 -18  -4  15   -0.06    0.53
 -18  -4  14    0.24    0.37
 -18  -4  13    0.12    0.52
 -18  -4  12    0.04    0.58
 -18  -4  11    0.90    0.67
 -18  -4  10    2.10    0.64
 -18  -4   9    0.70    0.51
 -18  -4   8    4.71    0.71
 -18  -4   7    2.02    0.86
 -18  -4   6   -0.48    0.55
 -18  -4   5    0.25    0.60
 -18  -4   4    1.11    0.80
 -18  -4   3   -0.10    0.58
 -18  -4   2   -0.19    0.56
 -18  -4   1   -0.33    0.59
 -18  -5   6    8.31    0.90
 -18  -5   7    0.25    0.51
 -18  -5   8    0.33    0.64
 -18  -5   9    0.81    0.51
 -18  -5  10    0.42    0.63
 -18  -5  11    0.23    0.59
 -18  -5  12    7.97    0.85
 -18  -2  -2    0.44    0.81
 -18  -1  -3    4.04    0.69
 -18  -1  -2    4.60    0.69
 -18   0  -2    0.39    0.64
 -18   0  -3   -0.27    0.44
 -18   1  -3    2.40    0.75
 -18   1  -2    2.85    0.77
 -17  -5   2    0.10    0.58
 -17  -5   3    1.31    0.56
 -17  -5   4   -0.15    0.61
 -17  -5   5   -0.48    0.56
 -17  -5   6    0.16    0.65
 -17  -5   7    0.38    0.67
 -17  -5   8    0.51    0.90
 -17  -5   9    1.68    0.81
 -17  -5  10    1.10    0.58
 -17  -5  11    0.17    0.48
 -17  -5  12   -0.92    0.42
 -17  -5  13    0.83    0.57
 -17  -5  14    0.22    0.59
 -17  -4  17    2.04    0.79
 -17  -4  16    0.13    0.58
 -17  -4  15   -0.48    0.45
 -17  -4  14    1.78    0.87
 -17  -4  13    4.17    0.88
 -17  -4  12    0.09    0.65
 -17  -4  11    0.84    0.56
 -17  -4  10    2.72    0.64
 -17  -4   9   -0.36    0.47
 -17  -4   8   -0.22    0.54
 -17  -4   7   -0.25    0.44
 -17  -4   6    0.64    0.67
 -17  -4   5   -0.25    0.55
 -17  -4   4    0.51    0.52
 -17  -4   3    0.58    0.54
 -17  -4   2    0.49    0.63
 -17  -4   1    0.75    0.55
 -17  -4   0    0.77    0.52
 -17  -4  -1    1.15    0.59
 -17  -3  -1    0.81    0.58
 -17  -3   0    2.57    0.60
 -17  -3   1    0.95    0.56
 -17  -3   2    0.02    0.42
 -17  -3   3    0.35    0.50
 -17  -3   4    5.08    0.75
 -17  -3   5    1.00    0.51
 -17  -3   6    4.24    0.62
 -17  -3   7    6.49    0.71
 -17  -3   8    2.90    0.65
 -17  -3   9    1.91    0.63
 -17  -3  10    2.35    0.70
 -17  -3  11   -0.32    0.52
 -17  -3  12    3.45    0.59
 -17  -3  13    0.18    0.52
 -17  -3  14   -0.39    0.47
 -17  -3  15    1.46    0.46
 -17  -3  16    4.08    0.77
 -17  -3  17    2.35    0.56
 -17  -3  18    0.66    0.49
 -17  -3  19    0.10    0.57
 -17  -2  20    0.58    0.82
 -17  -2  19    0.26    0.52
 -17  -2  18    1.09    0.50
 -17  -2  17   -0.04    0.54
 -17  -2  16    3.48    0.61
 -17  -2  15    4.02    0.70
 -17  -2  14    4.52    0.65
 -17  -2  13    0.09    0.65
 -17  -2  12    1.60    0.61
 -17  -2  11   -0.33    0.47
 -17  -2  10   12.03    0.78
 -17  -2   9   -0.29    0.40
 -17  -2   8    0.94    0.49
 -17  -2   7    0.95    0.47
 -17  -2   6   15.69    0.90
 -17  -2   5    1.83    0.67
 -17  -2   4   10.63    0.82
 -17  -2   3    3.43    0.58
 -17  -2   2    0.69    0.65
 -17  -2   1    0.83    0.47
 -17  -2   0    2.12    0.63
 -17  -2  -1    0.30    0.42
 -17  -1  -1    0.17    0.42
 -17  -1   0    0.50    0.44
 -17  -1   1    0.29    0.50
 -17  -1   2    2.23    0.65
 -17  -1   3    1.81    0.60
 -17  -1   4    0.22    0.51
 -17  -1   5    0.12    0.38
 -17  -1   6    3.62    0.64
 -17  -1   7    0.89    0.41
 -17  -1   8   17.27    0.89
 -17  -1   9    1.31    0.61
 -17  -1  10    0.02    0.49
 -17  -1  11    0.26    0.44
 -17  -1  12    2.14    0.63
 -17  -1  13    0.20    0.49
 -17  -1  14    4.41    0.60
 -17  -1  15    0.40    0.72
 -17  -1  16    0.13    0.61
 -17  -1  17    1.28    0.49
 -17  -1  18    3.41    0.64
 -17  -1  19    2.09    0.61
 -17  -1  20    0.06    0.47
 -17  -1  21    1.32    0.63
 -17   0  21   -0.50    0.40
 -17   0  20   -0.21    0.53
 -17   0  19    2.09    0.59
 -17   0  18    0.12    0.42
 -17   0  17   -0.28    0.39
 -17   0  16   -0.62    0.37
 -17   0  15    1.60    0.48
 -17   0  14   -0.05    0.46
 -17   0  13    2.94    0.56
 -17   0  12   -0.69    0.38
 -17   0  11    7.18    0.70
 -17   0  10    0.15    0.40
 -17   0   9    0.99    0.44
 -17   0   8   -0.07    0.43
 -17   0   7    0.24    0.47
 -17   0   6    0.32    0.51
 -17   0   5    8.27    0.77
 -17   0   4   -0.54    0.36
 -17   0   3    9.90    0.76
 -17   0   2   -0.26    0.36
 -17   0   1    0.26    0.51
 -17   0   0   -0.18    0.31
 -17   0  -1   -0.31    0.41
 -17   1  -1    0.40    0.42
 -17   1   0    0.35    0.46
 -17   1   1    0.24    0.42
 -17   1   2    0.62    0.49
 -17   1   3    2.40    0.46
 -17   1   4   -0.32    0.36
 -17   1   5   -0.12    0.45
 -17   1   6    1.52    0.46
 -17   1   7   -0.12    0.41
 -17   1   8   18.29    0.96
 -17   1   9    0.83    0.48
 -17   1  10   -0.03    0.45
 -17   1  11    0.94    0.44
 -17   1  12    1.92    0.52
 -17   1  13    1.45    0.49
 -17   1  14    5.04    0.69
 -17   1  15    0.68    0.58
 -17   1  16    0.39    0.56
 -17   1  17    1.15    0.46
 -17   1  18    4.39    0.78
 -17   1  19    2.50    0.66
 -17   1  20    0.87    0.62
 -17   1  21    0.72    0.49
 -17   1  -5    0.87    0.56
 -17   1  -4    0.23    0.63
 -17   1  -3    0.23    0.45
 -17   1  -2    2.35    0.60
 -17   0  -2    0.31    0.55
 -17   0  -3    3.58    0.67
 -17   0  -4   -0.25    0.42
 -17   0  -5   -0.22    0.56
 -17  -1  -5    0.10    0.57
 -17  -1  -4    1.24    0.52
 -17  -1  -3    0.41    0.57
 -17  -1  -2    0.96    0.56
 -17  -2  -2   -0.74    0.37
 -17  -2  -3    0.03    0.56
 -17  -2  -4    0.58    0.47
 -17  -3  -3    0.43    0.52
 -17  -3  -2    0.30    0.61
 -16   1  -1    0.02    0.46
 -16   1   0    1.87    0.55
 -16   1   1    1.60    0.44
 -16   1   2    2.80    0.53
 -16   1   3    0.55    0.43
 -16   1   4   19.24    0.90
 -16   1   5    0.42    0.23
 -16   1   6    2.04    0.34
 -16   1   7    1.83    0.34
 -16   1   8    1.96    0.30
 -16   1   9    1.87    0.29
 -16   1  10    2.69    0.32
 -16   1  11    2.25    0.49
 -16   1  12    1.08    0.44
 -16   1  13   -0.05    0.37
 -16   1  14    3.79    0.58
 -16   1  15    4.29    0.71
 -16   1  16    0.69    0.41
 -16   1  17    0.58    0.44
 -16   1  18    0.05    0.42
 -16   1  19    0.15    0.49
 -16   1  20   -0.03    0.42
 -16   1  21   -0.11    0.45
 -16   0  22    0.17    0.63
 -16   0  21    0.88    0.69
 -16   0  20    0.34    0.66
 -16   0  19   -0.24    0.38
 -16   0  18    1.47    0.56
 -16   0  17   -0.01    0.40
 -16   0  16    0.24    0.44
 -16   0  15    0.51    0.42
 -16   0  14    2.06    0.69
 -16   0  13   -1.09    0.37
 -16   0  12   33.03    1.13
 -16   0  11    0.34    0.26
 -16   0  10    9.04    0.49
 -16   0   9    0.38    0.32
 -16   0   8   15.34    0.63
 -16   0   7    0.27    0.25
 -16   0   6    0.10    0.24
 -16   0   5   -0.31    0.34
 -16   0   4   15.86    0.55
 -16   0   3   -0.42    0.41
 -16   0   2    1.38    0.47
 -16   0   1   -0.17    0.38
 -16   0   0    0.82    0.43
 -16   0  -1    0.16    0.42
 -16  -1  -1    0.91    0.60
 -16  -1   0    2.19    0.58
 -16  -1   1    1.73    0.54
 -16  -1   2    2.15    0.55
 -16  -1   3    0.18    0.53
 -16  -1   4   21.34    0.93
 -16  -1   5    0.05    0.24
 -16  -1   6    2.06    0.34
 -16  -1   7    1.22    0.29
 -16  -1   8    1.40    0.28
 -16  -1   9    1.34    0.28
 -16  -1  10    2.91    0.32
 -16  -1  11    1.95    0.50
 -16  -1  12    1.46    0.53
 -16  -1  13    0.17    0.56
 -16  -1  14    3.52    0.63
 -16  -1  15    2.71    0.60
 -16  -1  16    0.11    0.44
 -16  -1  17    0.42    0.42
 -16  -1  18   -0.10    0.48
 -16  -1  19    1.10    0.47
 -16  -1  20   -0.26    0.47
 -16  -1  21   -0.31    0.56
 -16  -2  21    0.16    0.50
 -16  -2  20   -0.44    0.48
 -16  -2  19   -0.12    0.53
 -16  -2  18    0.59    0.46
 -16  -2  17    0.71    0.44
 -16  -2  16   -0.43    0.41
 -16  -2  15    0.43    0.47
 -16  -2  14    2.80    0.57
 -16  -2  13   -0.31    0.49
 -16  -2  12   17.94    0.96
 -16  -2  11    2.54    0.51
 -16  -2  10    8.16    0.68
 -16  -2   9    3.37    0.52
 -16  -2   8    0.75    0.45
 -16  -2   7    6.39    0.60
 -16  -2   6    2.02    0.45
 -16  -2   5    4.98    0.60
 -16  -2   4    1.12    0.52
 -16  -2   3    7.69    0.79
 -16  -2   2   -0.18    0.57
 -16  -2   1    3.52    0.65
 -16  -2   0   -0.45    0.47
 -16  -2  -1   -0.01    0.40
 -16  -3  -1    0.47    0.44
 -16  -3   0    0.19    0.55
 -16  -3   1    0.07    0.49
 -16  -3   2    2.03    0.52
 -16  -3   3    0.59    0.57
 -16  -3   4    0.89    0.52
 -16  -3   5    3.69    0.63
 -16  -3   6    2.18    0.65
 -16  -3   7    0.65    0.43
 -16  -3   8    3.59    0.54
 -16  -3   9    1.75    0.52
 -16  -3  10    4.13    0.61
 -16  -3  11    1.45    0.48
 -16  -3  12   -0.02    0.49
 -16  -3  13    1.09    0.51
 -16  -3  14    0.58    0.60
 -16  -3  15   -0.21    0.55
 -16  -3  16    0.47    0.41
 -16  -3  17    1.87    0.75
 -16  -3  18   -0.19    0.51
 -16  -3  19   -0.49    0.45
 -16  -3  20    0.27    0.62
 -16  -4  18    0.17    0.54
 -16  -4  17    0.46    0.61
 -16  -4  16    1.41    0.68
 -16  -4  15    0.54    0.49
 -16  -4  14    3.33    0.70
 -16  -4  13    1.11    0.52
 -16  -4  12   -0.49    0.56
 -16  -4  11    0.94    0.44
 -16  -4  10    0.63    0.53
 -16  -4   9   -0.32    0.58
 -16  -4   8    3.79    0.80
 -16  -4   7    0.34    0.52
 -16  -4   6    0.75    0.49
 -16  -4   5    4.56    0.57
 -16  -4   4   -0.02    0.52
 -16  -4   3    3.47    0.63
 -16  -4   2    5.46    0.67
 -16  -4   1    0.26    0.46
 -16  -4   0   -0.31    0.55
 -16  -4  -1    0.17    0.58
 -16  -5   0   -1.08    0.42
 -16  -5   1    0.88    0.58
 -16  -5   2    1.78    0.76
 -16  -5   3    0.27    0.82
 -16  -5   4    0.69    0.55
 -16  -5   5    0.75    0.51
 -16  -5   6    2.13    0.60
 -16  -5   7    0.36    0.65
 -16  -5   8    0.16    0.63
 -16  -5   9    0.43    0.53
 -16  -5  10    0.67    0.75
 -16  -5  11   -0.17    0.51
 -16  -5  12    0.35    0.53
 -16  -5  13    1.35    0.52
 -16  -5  14    1.21    0.57
 -16  -5  15    0.28    0.60
 -16  -6   9    0.28    0.61
 -16  -6   8    3.93    0.82
 -16  -6   7   -0.53    0.55
 -16  -6   6    0.69    0.76
 -16  -4  -2    0.30    0.44
 -16  -4  -3   -0.13    0.59
 -16  -3  -4    0.13    0.56
 -16  -3  -3    0.11    0.67
 -16  -3  -2    1.01    0.50
 -16  -2  -2    0.29    0.44
 -16  -2  -3   -0.01    0.59
 -16  -2  -4    0.15    0.63
 -16  -2  -5    0.00    0.53
 -16  -2  -6    0.00    0.54
 -16  -1  -6    0.33    0.62
 -16  -1  -5    0.54    0.62
 -16  -1  -4    0.02    0.40
 -16  -1  -3    4.20    0.63
 -16  -1  -2    0.08    0.40
 -16   0  -2    2.81    0.58
 -16   0  -3   -0.24    0.41
 -16   0  -4    0.01    0.37
 -16   0  -5   -0.03    0.38
 -16   0  -6    0.22    0.41
 -16   1  -6    0.35    0.48
 -16   1  -5    0.07    0.48
 -16   1  -4    0.22    0.44
 -16   1  -3    2.55    0.55
 -16   1  -2   -0.51    0.32
 -15  -6  12    0.40    0.61
 -15  -6  11    2.60    0.75
 -15  -6  10    1.65    0.60
 -15  -6   9    0.95    0.56
 -15  -6   8    0.31    0.55
 -15  -6   7   -0.48    0.72
 -15  -6   6    2.97    0.65
 -15  -6   5    0.43    0.61
 -15  -6   4    2.58    0.64
 -15  -6   3   -0.18    0.58
 -15  -6   2    0.09    0.52
 -15  -5  -1    0.91    0.53
 -15  -5   0   -0.23    0.51
 -15  -5   1    0.27    0.73
 -15  -5   2    1.63    0.65
 -15  -5   3    5.40    0.74
 -15  -5   4    0.71    0.58
 -15  -5   5    1.93    0.63
 -15  -5   6   -0.20    0.43
 -15  -5   7    0.31    0.49
 -15  -5   8    2.72    0.66
 -15  -5   9    3.35    0.62
 -15  -5  10    0.03    0.47
 -15  -5  11    0.47    0.46
 -15  -5  12    0.84    0.57
 -15  -5  13    0.07    0.77
 -15  -5  14    0.42    0.75
 -15  -5  15    2.11    0.69
 -15  -5  16    0.02    0.57
 -15  -4  19   -0.05    0.52
 -15  -4  18    0.61    0.50
 -15  -4  17    0.20    0.52
 -15  -4  16    0.88    0.55
 -15  -4  15    1.34    0.74
 -15  -4  14   -0.09    0.69
 -15  -4  13    1.82    0.77
 -15  -4  12    3.50    0.63
 -15  -4  11    1.75    0.59
 -15  -4  10    4.52    0.70
 -15  -4   9    2.03    0.51
 -15  -4   8    7.35    0.86
 -15  -4   7    0.82    0.50
 -15  -4   6    2.44    0.62
 -15  -4   5    0.18    0.63
 -15  -4   4    1.99    0.70
 -15  -4   3    0.79    0.51
 -15  -4   2    0.91    0.56
 -15  -4   1    0.57    0.47
 -15  -4   0    2.02    0.75
 -15  -4  -1   -0.77    0.39
 -15  -3  -1    3.31    0.65
 -15  -3   0   14.40    1.03
 -15  -3   1   -0.62    0.54
 -15  -3   2    5.57    0.61
 -15  -3   3    0.21    0.40
 -15  -3   4    5.20    0.62
 -15  -3   5    3.58    0.63
 -15  -3   6    2.96    0.62
 -15  -3   7   10.00    0.78
 -15  -3   8    1.88    0.52
 -15  -3   9   -0.17    0.44
 -15  -3  10   18.21    0.85
 -15  -3  11    0.23    0.45
 -15  -3  12   -0.02    0.58
 -15  -3  13    1.70    0.53
 -15  -3  14    0.98    0.54
 -15  -3  15    1.92    0.53
 -15  -3  16    0.51    0.53
 -15  -3  17    1.33    0.58
 -15  -3  18    2.30    0.67
 -15  -3  19   -0.32    0.44
 -15  -3  20    0.48    0.69
 -15  -2  21    0.32    0.56
 -15  -2  20    0.33    0.53
 -15  -2  19    0.01    0.41
 -15  -2  18    0.57    0.47
 -15  -2  17    0.13    0.44
 -15  -2  16    3.54    0.72
 -15  -2  15    1.47    0.51
 -15  -2  14   18.10    0.91
 -15  -2  13    3.22    0.63
 -15  -2  12    0.66    0.44
 -15  -2  11    2.50    0.32
 -15  -2  10    1.82    0.30
 -15  -2   9    1.22    0.30
 -15  -2   8    5.28    0.40
 -15  -2   7   -0.01    0.29
 -15  -2   6    6.08    0.40
 -15  -2   5    1.11    0.32
 -15  -2   4    4.05    0.35
 -15  -2   3   25.39    0.94
 -15  -2   2    6.70    0.62
 -15  -2   1    5.06    0.61
 -15  -2   0    0.24    0.46
 -15  -2  -1    0.92    0.50
 -15  -1  -1    5.76    0.66
 -15  -1   0   -0.23    0.41
 -15  -1   1    6.89    0.65
 -15  -1   2    4.86    0.39
 -15  -1   3    5.24    0.48
 -15  -1   4   15.74    0.58
 -15  -1   5   12.49    0.53
 -15  -1   6    1.23    0.44
 -15  -1   7    5.73    0.40
 -15  -1   8    3.45    0.34
 -15  -1   9    0.16    0.23
 -15  -1  10   14.35    0.56
 -15  -1  11    1.67    0.28
 -15  -1  12   17.59    0.59
 -15  -1  13    2.64    0.50
 -15  -1  14    7.82    0.84
 -15  -1  15    1.37    0.49
 -15  -1  16    7.07    0.69
 -15  -1  17    1.92    0.49
 -15  -1  18   -0.45    0.49
 -15  -1  19    1.27    0.55
 -15  -1  20   -0.29    0.44
 -15  -1  21    0.23    0.43
 -15  -1  22   -0.25    0.57
 -15   0  22    0.11    0.51
 -15   0  21   -0.58    0.40
 -15   0  20    0.53    0.49
 -15   0  19    0.39    0.42
 -15   0  18   -0.56    0.37
 -15   0  17    0.60    0.56
 -15   0  16   -0.09    0.36
 -15   0  15   -0.33    0.46
 -15   0  14   -0.21    0.47
 -15   0  13    0.09    0.25
 -15   0  12    0.20    0.25
 -15   0  11   17.38    0.60
 -15   0  10    0.20    0.39
 -15   0   9   13.70    0.54
 -15   0   8    0.14    0.24
 -15   0   7    2.38    0.35
 -15   0   6    0.21    0.22
 -15   0   5   41.27    1.37
 -15   0   4    0.31    0.29
 -15   0   3    7.90    0.47
 -15   0   2   -0.06    0.25
 -15   0   1   15.99    0.83
 -15   0   0    0.34    0.44
 -15   0  -1   -0.10    0.50
 -15   1  -1    5.56    0.63
 -15   1   0    0.01    0.45
 -15   1   1    6.45    0.70
 -15   1   2    4.40    0.38
 -15   1   3    4.12    0.37
 -15   1   4   15.17    0.58
 -15   1   5   11.85    0.51
 -15   1   6    0.80    0.27
 -15   1   7    5.62    0.40
 -15   1   8    3.54    0.34
 -15   1   9    0.40    0.28
 -15   1  10   14.58    0.64
 -15   1  11    1.61    0.30
 -15   1  12   17.39    0.59
 -15   1  13    2.36    0.47
 -15   1  14    7.10    0.63
 -15   1  15    1.43    0.50
 -15   1  16    5.79    0.66
 -15   1  17    1.15    0.62
 -15   1  18    0.34    0.39
 -15   1  19    2.02    0.47
 -15   1  20    0.13    0.53
 -15   1  21    0.20    0.40
 -15   1  22   -0.07    0.51
 -15   1  -8    0.74    0.47
 -15   1  -7   -0.69    0.38
 -15   1  -6   -0.16    0.36
 -15   1  -5    0.53    0.37
 -15   1  -4    0.20    0.41
 -15   1  -3    0.82    0.39
 -15   1  -2    2.80    0.50
 -15   0  -2    0.27    0.36
 -15   0  -3    6.56    0.74
 -15   0  -4    0.10    0.39
 -15   0  -5    1.42    0.48
 -15   0  -6   -0.57    0.42
 -15   0  -7    1.02    0.45
 -15   0  -8    0.25    0.48
 -15  -1  -8    0.12    0.62
 -15  -1  -7    0.59    0.61
 -15  -1  -6   -0.51    0.42
 -15  -1  -5    0.77    0.57
 -15  -1  -4    0.35    0.41
 -15  -1  -3    0.98    0.41
 -15  -1  -2    2.78    0.59
 -15  -2  -2    0.16    0.62
 -15  -2  -3    0.61    0.46
 -15  -2  -4    0.53    0.46
 -15  -2  -5    0.12    0.48
 -15  -2  -6   -0.40    0.48
 -15  -2  -7    2.00    0.58
 -15  -3  -6    0.65    0.54
 -15  -3  -5    1.71    0.70
 -15  -3  -4    0.82    0.48
 -15  -3  -3    2.72    0.58
 -15  -3  -2    0.81    0.53
 -15  -4  -2    0.35    0.51
 -15  -4  -3   -0.06    0.44
 -15  -4  -4    0.22    0.59
 -15  -5  -2    1.39    0.56
 -14   1  -1    0.46    0.33
 -14   1   0   11.12    0.48
 -14   1   1    7.71    0.46
 -14   1   2   28.02    1.10
 -14   1   3    1.10    0.32
 -14   1   4   24.14    1.14
 -14   1   5   12.32    0.51
 -14   1   6    4.63    0.48
 -14   1   7   19.09    0.64
 -14   1   8   18.68    0.72
 -14   1   9   19.98    0.71
 -14   1  10   15.19    0.59
 -14   1  11   41.41    1.41
 -14   1  12   12.60    0.53
 -14   1  13    1.32    0.30
 -14   1  14    4.21    0.36
 -14   1  15    0.20    0.47
 -14   1  16    0.06    0.54
 -14   1  17    7.79    0.79
 -14   1  18    1.30    0.45
 -14   1  19    1.07    0.66
 -14   1  20    3.29    0.84
 -14   1  21    2.73    0.68
 -14   1  22    1.53    0.62
 -14   0  22    3.80    0.75
 -14   0  21   -0.69    0.36
 -14   0  20    0.06    0.59
 -14   0  19   -0.06    0.47
 -14   0  18    0.26    0.43
 -14   0  17   -0.92    0.39
 -14   0  16    1.99    0.50
 -14   0  15    0.21    0.59
 -14   0  14   16.89    0.60
 -14   0  13    0.20    0.24
 -14   0  12   44.15    1.44
 -14   0  11   -0.10    0.27
 -14   0  10    1.39    0.31
 -14   0   9    0.23    0.26
 -14   0   8    6.39    0.43
 -14   0   7    0.17    0.30
 -14   0   6   29.74    1.23
 -14   0   5    0.40    0.24
 -14   0   4    1.04    0.33
 -14   0   3   -0.34    0.25
 -14   0   2   20.23    0.67
 -14   0   1    0.79    0.30
 -14   0   0    2.77    0.34
 -14   0  -1    0.13    0.25
 -14  -1  -1    0.14    0.48
 -14  -1   0   11.43    0.50
 -14  -1   1    7.62    0.45
 -14  -1   2   29.32    1.13
 -14  -1   3    1.19    0.27
 -14  -1   4   23.56    0.72
 -14  -1   5   12.90    0.52
 -14  -1   6    5.36    0.38
 -14  -1   7   19.66    0.72
 -14  -1   8   17.33    0.67
 -14  -1   9   21.79    0.71
 -14  -1  10   15.45    0.61
 -14  -1  11   39.88    1.38
 -14  -1  12   13.57    0.54
 -14  -1  13    0.78    0.29
 -14  -1  14    4.78    0.43
 -14  -1  15   -0.12    0.53
 -14  -1  16    0.67    0.47
 -14  -1  17    7.42    0.73
 -14  -1  18    1.14    0.50
 -14  -1  19    0.53    0.56
 -14  -1  20    3.37    0.76
 -14  -1  21    1.88    0.67
 -14  -1  22    0.92    0.75
 -14  -2  22    0.02    0.58
 -14  -2  21    0.53    0.66
 -14  -2  20    0.45    0.65
 -14  -2  19    2.32    0.57
 -14  -2  18    3.55    0.72
 -14  -2  17    2.83    0.61
 -14  -2  16    2.58    0.69
 -14  -2  15    6.50    0.74
 -14  -2  14    4.46    0.61
 -14  -2  13   12.36    0.74
 -14  -2  12    0.44    0.28
 -14  -2  11    5.40    0.40
 -14  -2  10   16.24    0.57
 -14  -2   9   17.62    0.61
 -14  -2   8    0.49    0.26
 -14  -2   7   26.38    1.08
 -14  -2   6    9.59    0.47
 -14  -2   5    0.03    0.26
 -14  -2   4    1.71    0.32
 -14  -2   3    3.83    0.36
 -14  -2   2    0.37    0.27
 -14  -2   1   -0.48    0.27
 -14  -2   0    0.17    0.48
 -14  -2  -1    3.53    0.61
 -14  -3  -1    9.90    0.77
 -14  -3   0   -0.14    0.49
 -14  -3   1   -0.32    0.44
 -14  -3   2    8.93    0.66
 -14  -3   3   14.32    0.81
 -14  -3   4    7.59    0.43
 -14  -3   5    4.36    0.39
 -14  -3   6    0.79    0.30
 -14  -3   7    1.42    0.30
 -14  -3   8    4.55    0.51
 -14  -3   9   22.46    0.65
 -14  -3  10    0.08    0.26
 -14  -3  11    2.48    0.59
 -14  -3  12    8.54    0.72
 -14  -3  13    8.71    0.69
 -14  -3  14    4.16    0.63
 -14  -3  15    3.09    0.56
 -14  -3  16    7.71    0.75
 -14  -3  17    0.33    0.47
 -14  -3  18    2.67    0.76
 -14  -3  19    1.51    0.62
 -14  -3  20    0.23    0.46
 -14  -3  21   -0.32    0.51
 -14  -4  19    1.16    0.58
 -14  -4  18    0.33    0.60
 -14  -4  17    0.65    0.46
 -14  -4  16   -0.35    0.40
 -14  -4  15   -0.23    0.56
 -14  -4  14    3.04    0.63
 -14  -4  13    0.18    0.52
 -14  -4  12    0.30    0.48
 -14  -4  11   11.59    0.82
 -14  -4  10    2.72    0.59
 -14  -4   9    2.03    0.62
 -14  -4   8   -0.24    0.60
 -14  -4   7    0.27    0.52
 -14  -4   6   11.86    0.80
 -14  -4   5    2.57    0.47
 -14  -4   4    7.34    0.76
 -14  -4   3    3.26    0.62
 -14  -4   2    2.11    0.63
 -14  -4   1   -0.51    0.43
 -14  -4   0    6.67    0.74
 -14  -4  -1   13.84    0.88
 -14  -5  -1   -0.19    0.50
 -14  -5   0    8.44    0.78
 -14  -5   1    1.21    0.66
 -14  -5   2    0.16    0.49
 -14  -5   3   -0.20    0.71
 -14  -5   4    6.59    0.74
 -14  -5   5    1.07    0.57
 -14  -5   6    5.20    0.73
 -14  -5   7    3.01    0.75
 -14  -5   8    2.37    0.64
 -14  -5   9    0.11    0.49
 -14  -5  10   10.03    0.78
 -14  -5  11    0.49    0.49
 -14  -5  12   -0.18    0.63
 -14  -5  13   -0.10    0.68
 -14  -5  14    0.07    0.47
 -14  -5  15    2.22    0.60
 -14  -5  16    0.53    0.70
 -14  -5  17    0.10    0.51
 -14  -6  13   -0.10    0.69
 -14  -6  12    1.42    0.51
 -14  -6  11    3.51    0.67
 -14  -6  10    1.88    0.57
 -14  -6   9    0.51    0.56
 -14  -6   8    0.82    0.65
 -14  -6   7   -0.56    0.56
 -14  -6   6    1.11    0.69
 -14  -6   5    1.00    0.86
 -14  -6   4    2.04    0.61
 -14  -6   3   -0.04    0.63
 -14  -6   2    2.06    0.60
 -14  -6   1    0.65    0.65
 -14  -6   0   -0.13    0.67
 -14  -5  -4    0.52    0.88
 -14  -5  -3   -0.09    0.54
 -14  -5  -2    2.27    0.63
 -14  -4  -2   -0.11    0.45
 -14  -4  -3    0.25    0.50
 -14  -4  -4    0.07    0.51
 -14  -4  -5    0.29    0.75
 -14  -4  -6   -0.13    0.51
 -14  -3  -7    1.20    0.63
 -14  -3  -6    1.64    0.63
 -14  -3  -5    1.89    0.56
 -14  -3  -4    0.22    0.59
 -14  -3  -3    2.63    0.63
 -14  -3  -2    1.30    0.61
 -14  -2  -2    0.34    0.47
 -14  -2  -3   10.08    0.74
 -14  -2  -4    1.59    0.64
 -14  -2  -5    2.49    0.62
 -14  -2  -6    0.43    0.44
 -14  -2  -7    0.38    0.54
 -14  -2  -8   -0.08    0.64
 -14  -1  -9    0.00    0.51
 -14  -1  -8    1.81    0.70
 -14  -1  -7    0.92    0.47
 -14  -1  -6    1.72    0.54
 -14  -1  -5    3.30    0.61
 -14  -1  -4    1.20    0.50
 -14  -1  -3   11.42    0.80
 -14  -1  -2    9.45    0.70
 -14   0  -2    0.16    0.39
 -14   0  -3    0.28    0.47
 -14   0  -4    0.22    0.49
 -14   0  -5   -0.52    0.36
 -14   0  -6    2.85    0.57
 -14   0  -7    0.23    0.37
 -14   0  -8    0.01    0.46
 -14   0  -9    0.02    0.50
 -14   1  -9   -0.84    0.40
 -14   1  -8    2.73    0.63
 -14   1  -7   -0.13    0.52
 -14   1  -6    1.52    0.56
 -14   1  -5    4.98    0.62
 -14   1  -4    1.27    0.44
 -14   1  -3   11.64    0.77
 -14   1  -2    8.19    0.73
 -13  -7   5    2.49    0.73
 -13  -7   6    0.91    0.57
 -13  -7   7   -0.03    0.69
 -13  -6  14   -0.20    0.48
 -13  -6  13    1.47    0.70
 -13  -6  12    0.38    0.61
 -13  -6  11    0.76    0.62
 -13  -6  10   -0.14    0.56
 -13  -6   9    7.61    0.87
 -13  -6   8    5.76    0.88
 -13  -6   7    2.57    0.60
 -13  -6   6    0.27    0.63
 -13  -6   5    6.73    0.83
 -13  -6   4    0.11    0.42
 -13  -6   3    1.00    0.87
 -13  -6   2    2.13    0.73
 -13  -6   1    0.14    0.56
 -13  -6   0    0.01    0.67
 -13  -6  -1    5.04    0.78
 -13  -5  -1    0.14    0.61
 -13  -5   0    1.60    0.57
 -13  -5   1    0.38    0.53
 -13  -5   2    2.57    0.57
 -13  -5   3    1.43    0.66
 -13  -5   4    1.63    0.58
 -13  -5   5   12.75    1.04
 -13  -5   6    1.70    0.59
 -13  -5   7    1.45    0.56
 -13  -5   8    0.89    0.42
 -13  -5   9   -0.30    0.62
 -13  -5  10    0.61    0.43
 -13  -5  11    2.85    0.61
 -13  -5  12    4.02    0.61
 -13  -5  13    6.37    0.77
 -13  -5  14    5.25    0.80
 -13  -5  15    0.17    0.62
 -13  -5  16    0.13    0.55
 -13  -5  17   -0.01    0.54
 -13  -4  19    1.97    0.66
 -13  -4  18   -0.02    0.65
 -13  -4  17    1.70    0.59
 -13  -4  16   -0.12    0.44
 -13  -4  15    8.82    0.78
 -13  -4  14    0.78    0.50
 -13  -4  13    7.02    0.69
 -13  -4  12    1.64    0.55
 -13  -4  11    9.41    0.73
 -13  -4  10    4.85    0.60
 -13  -4   9    5.69    0.60
 -13  -4   8   13.42    0.83
 -13  -4   7   22.74    0.96
 -13  -4   6    5.58    0.78
 -13  -4   5    4.15    0.62
 -13  -4   4    0.64    0.51
 -13  -4   3   11.66    0.75
 -13  -4   2   12.00    0.75
 -13  -4   1    1.52    0.49
 -13  -4   0    1.44    0.48
 -13  -4  -1   -0.21    0.44
 -13  -3  -1   -0.11    0.37
 -13  -3   0    7.36    0.67
 -13  -3   1    1.23    0.31
 -13  -3   2   12.27    0.51
 -13  -3   3    8.33    0.46
 -13  -3   4   34.98    1.17
 -13  -3   5    1.21    0.29
 -13  -3   6    7.31    0.43
 -13  -3   7    9.56    0.47
 -13  -3   8   12.10    0.52
 -13  -3   9    0.35    0.26
 -13  -3  10   26.73    1.02
 -13  -3  11    2.57    0.33
 -13  -3  12    4.18    0.64
 -13  -3  13    6.66    0.66
 -13  -3  14   18.88    0.96
 -13  -3  15   -0.25    0.56
 -13  -3  16    5.90    0.80
 -13  -3  17    0.69    0.49
 -13  -3  18    0.13    0.45
 -13  -3  19    0.83    0.48
 -13  -3  20    6.81    0.76
 -13  -3  21    1.40    0.66
 -13  -2  22   -0.36    0.57
 -13  -2  21   -0.16    0.54
 -13  -2  20    1.03    0.51
 -13  -2  19    0.17    0.41
 -13  -2  18    4.50    0.76
 -13  -2  17    0.50    0.41
 -13  -2  16    2.16    0.53
 -13  -2  15   -0.58    0.43
 -13  -2  14    0.70    0.27
 -13  -2  13    1.48    0.49
 -13  -2  12    2.85    0.34
 -13  -2  11    0.34    0.28
 -13  -2  10    5.26    0.38
 -13  -2   9    3.29    0.37
 -13  -2   8   14.32    0.54
 -13  -2   7    0.01    0.29
 -13  -2   6   10.51    0.47
 -13  -2   5   -0.01    0.24
 -13  -2   4   12.34    0.48
 -13  -2   3    2.24    0.35
 -13  -2   2   -0.03    0.25
 -13  -2   1    1.83    0.30
 -13  -2   0   10.22    0.47
 -13  -2  -1   12.37    0.50
 -13  -1  -1    2.81    0.32
 -13  -1   0   13.32    0.53
 -13  -1   1    2.05    0.32
 -13  -1   2    9.03    0.46
 -13  -1   3    2.68    0.31
 -13  -1   4   -0.28    0.22
 -13  -1   5   26.19    1.16
 -13  -1   6   48.43    1.66
 -13  -1   7   -0.01    0.20
 -13  -1   8   15.05    0.54
 -13  -1   9    6.98    0.45
 -13  -1  10    0.29    0.32
 -13  -1  11   -0.54    0.24
 -13  -1  12   29.31    1.28
 -13  -1  13    2.27    0.32
 -13  -1  14    0.37    0.24
 -13  -1  15    4.82    0.40
 -13  -1  16    0.90    0.41
 -13  -1  17    9.84    0.78
 -13  -1  18   11.61    0.90
 -13  -1  19    1.39    0.57
 -13  -1  20    0.03    0.48
 -13  -1  21    1.19    0.42
 -13  -1  22    6.52    0.79
 -13   0  22   -0.15    0.50
 -13   0  21    2.58    0.55
 -13   0  20    0.39    0.42
 -13   0  19   -0.71    0.31
 -13   0  18   -0.01    0.43
 -13   0  17   13.70    0.96
 -13   0  16   -0.26    0.33
 -13   0  15    0.23    0.25
 -13   0  14    0.40    0.25
 -13   0  13   37.09    1.33
 -13   0  12   -0.63    0.45
 -13   0  11   51.49    1.59
 -13   0  10   -0.11    0.28
 -13   0   9   15.85    0.58
 -13   0   8   -0.15    0.23
 -13   0   7   46.10    1.58
 -13   0   6   -0.06    0.23
 -13   0   5    1.78    0.31
 -13   0   4   -0.25    0.21
 -13   0   3    7.42    0.41
 -13   0   2    0.30    0.23
 -13   0   1  146.95    2.47
 -13   0   0   -0.40    0.21
 -13   0  -1    0.05    0.23
 -13   1  -1    1.67    0.31
 -13   1   0   13.12    0.55
 -13   1   1    1.65    0.31
 -13   1   2    9.19    0.46
 -13   1   3    2.41    0.32
 -13   1   4   -0.11    0.22
 -13   1   5   26.96    1.20
 -13   1   6   46.19    1.59
 -13   1   7   -0.01    0.24
 -13   1   8   13.34    0.55
 -13   1   9    7.31    0.45
 -13   1  10    0.18    0.33
 -13   1  11    0.13    0.27
 -13   1  12   28.82    1.17
 -13   1  13    1.64    0.31
 -13   1  14    0.50    0.32
 -13   1  15    5.35    0.38
 -13   1  16    0.90    0.39
 -13   1  17    9.66    0.75
 -13   1  18   12.94    0.82
 -13   1  19    0.93    0.52
 -13   1  20    0.17    0.56
 -13   1  21    0.30    0.48
 -13   1  22    7.60    0.85
 -13   1 -10    7.70    0.99
 -13   1  -9    0.57    0.47
 -13   1  -8   -0.02    0.37
 -13   1  -7    0.23    0.52
 -13   1  -6   -0.37    0.34
 -13   1  -5   16.09    1.01
 -13   1  -4   26.64    1.09
 -13   1  -3    0.18    0.35
 -13   1  -2    0.44    0.24
 -13   0  -2    0.19    0.24
 -13   0  -3    0.20    0.23
 -13   0  -4   -0.22    0.48
 -13   0  -5   14.85    0.89
 -13   0  -6   -0.19    0.41
 -13   0  -7    1.86    0.61
 -13   0  -8   -0.13    0.42
 -13   0  -9    8.28    0.86
 -13   0 -10   -0.27    0.47
 -13  -1 -10    6.74    0.96
 -13  -1  -9    0.58    0.50
 -13  -1  -8    0.27    0.42
 -13  -1  -7    0.56    0.53
 -13  -1  -6   -0.23    0.48
 -13  -1  -5   17.01    0.90
 -13  -1  -4   28.52    1.16
 -13  -1  -3    0.78    0.44
 -13  -1  -2    0.73    0.28
 -13  -2  -2    0.58    0.46
 -13  -2  -3   15.85    0.87
 -13  -2  -4    1.57    0.49
 -13  -2  -5    0.56    0.49
 -13  -2  -6    0.02    0.46
 -13  -2  -7   -0.33    0.49
 -13  -2  -8    1.92    0.64
 -13  -2  -9   -0.28    0.53
 -13  -3  -8    4.38    0.72
 -13  -3  -7    0.34    0.70
 -13  -3  -6    3.70    0.86
 -13  -3  -5    4.48    0.60
 -13  -3  -4    0.32    0.51
 -13  -3  -3   -0.17    0.46
 -13  -3  -2   20.08    0.94
 -13  -4  -2   -0.46    0.41
 -13  -4  -3   -0.20    0.53
 -13  -4  -4    0.91    0.75
 -13  -4  -5    0.12    0.64
 -13  -4  -6    2.89    0.60
 -13  -4  -7    3.59    0.79
 -13  -5  -5    0.42    0.87
 -13  -5  -4    0.17    0.48
 -13  -5  -3    2.24    0.72
 -13  -5  -2    0.41    0.73
 -13  -6  -2    1.95    0.58
 -12   1  -1    4.73    0.38
 -12   1   0    3.54    0.33
 -12   1   1   30.44    1.35
 -12   1   2    7.45    0.41
 -12   1   3   12.19    0.51
 -12   1   4   34.71    1.41
 -12   1   5    0.66    0.23
 -12   1   6   28.39    1.33
 -12   1   7   86.08    2.13
 -12   1   8    0.31    0.27
 -12   1   9    1.01    0.31
 -12   1  10   15.75    0.62
 -12   1  11    1.89    0.31
 -12   1  12    6.28    0.42
 -12   1  13    1.54    0.28
 -12   1  14   13.43    0.54
 -12   1  15    2.01    0.32
 -12   1  16   19.93    0.94
 -12   1  17   -0.02    0.50
 -12   1  18    0.58    0.47
 -12   1  19    2.23    0.57
 -12   1  20    2.44    0.58
 -12   1  21    0.77    0.72
 -12   1  22    1.03    0.84
 -12   0  23    1.23    0.55
 -12   0  22    5.10    0.87
 -12   0  21   -0.32    0.37
 -12   0  20    0.22    0.39
 -12   0  19   -0.02    0.38
 -12   0  18    4.07    0.63
 -12   0  17    0.25    0.51
 -12   0  16   34.50    1.13
 -12   0  15    0.45    0.28
 -12   0  14    1.63    0.29
 -12   0  13    0.62    0.26
 -12   0  12  111.49    2.31
 -12   0  11   -0.37    0.24
 -12   0  10   14.21    0.59
 -12   0   9   -0.26    0.20
 -12   0   8   10.04    0.48
 -12   0   7   -0.05    0.27
 -12   0   6   27.47    1.29
 -12   0   5    0.46    0.28
 -12   0   4   11.98    0.48
 -12   0   3    0.01    0.20
 -12   0   2   20.36    0.75
 -12   0   1    0.04    0.26
 -12   0   0    3.07    0.32
 -12   0  -1   -0.27    0.25
 -12  -1  -1    5.60    0.39
 -12  -1   0    3.98    0.35
 -12  -1   1   33.41    1.31
 -12  -1   2    7.01    0.49
 -12  -1   3   12.61    0.52
 -12  -1   4   33.63    1.37
 -12  -1   5    0.57    0.29
 -12  -1   6   29.69    1.28
 -12  -1   7   82.26    2.05
 -12  -1   8    1.07    0.33
 -12  -1   9   -0.04    0.23
 -12  -1  10   15.96    0.57
 -12  -1  11    2.41    0.33
 -12  -1  12    6.24    0.42
 -12  -1  13    0.81    0.35
 -12  -1  14   14.43    0.55
 -12  -1  15    2.45    0.34
 -12  -1  16   20.67    1.05
 -12  -1  17   -0.57    0.44
 -12  -1  18    1.72    0.57
 -12  -1  19    2.52    0.60
 -12  -1  20    1.81    0.60
 -12  -1  21    0.14    0.51
 -12  -1  22    0.99    0.69
 -12  -2  22    1.01    0.49
 -12  -2  21    2.02    0.68
 -12  -2  20    3.34    0.63
 -12  -2  19   -0.37    0.40
 -12  -2  18    0.07    0.45
 -12  -2  17    0.55    0.60
 -12  -2  16    5.03    0.69
 -12  -2  15    2.27    0.50
 -12  -2  14    3.02    0.35
 -12  -2  13    0.45    0.28
 -12  -2  12    5.24    0.37
 -12  -2  11   24.86    1.11
 -12  -2  10   15.77    0.57
 -12  -2   9    1.15    0.33
 -12  -2   8   -0.24    0.22
 -12  -2   7   38.60    1.51
 -12  -2   6    0.01    0.27
 -12  -2   5   31.08    1.30
 -12  -2   4   20.53    0.72
 -12  -2   3    0.74    0.26
 -12  -2   2    3.18    0.32
 -12  -2   1   35.68    1.30
 -12  -2   0    1.36    0.28
 -12  -2  -1   35.51    1.28
 -12  -3  -1   14.22    0.52
 -12  -3   0   16.43    0.55
 -12  -3   1   -0.06    0.25
 -12  -3   2   -0.09    0.31
 -12  -3   3    8.16    0.42
 -12  -3   4    2.41    0.34
 -12  -3   5    8.88    0.50
 -12  -3   6    6.72    0.41
 -12  -3   7   -0.03    0.29
 -12  -3   8    1.92    0.33
 -12  -3   9   15.35    0.55
 -12  -3  10    0.42    0.28
 -12  -3  11    6.36    0.41
 -12  -3  12    0.50    0.26
 -12  -3  13    0.03    0.29
 -12  -3  14    5.81    0.74
 -12  -3  15    0.24    0.46
 -12  -3  16    0.92    0.48
 -12  -3  17   -0.48    0.45
 -12  -3  18    1.52    0.74
 -12  -3  19   -0.08    0.46
 -12  -3  20    0.07    0.53
 -12  -3  21    3.69    0.70
 -12  -4  20    0.56    0.46
 -12  -4  19    1.80    0.66
 -12  -4  18   -0.30    0.42
 -12  -4  17    0.46    0.54
 -12  -4  16    0.25    0.45
 -12  -4  15    0.49    0.56
 -12  -4  14   14.12    1.05
 -12  -4  13    1.32    0.48
 -12  -4  12    0.76    0.66
 -12  -4  11    1.96    0.50
 -12  -4  10    3.54    0.54
 -12  -4   9   10.05    0.46
 -12  -4   8    0.78    0.27
 -12  -4   7    0.09    0.27
 -12  -4   6    2.86    0.35
 -12  -4   5    0.18    0.26
 -12  -4   4   -0.36    0.28
 -12  -4   3   22.40    0.93
 -12  -4   2    0.16    0.25
 -12  -4   1    0.50    0.40
 -12  -4   0    0.85    0.45
 -12  -4  -1    0.25    0.73
 -12  -5  -1    4.89    0.67
 -12  -5   0   -0.28    0.51
 -12  -5   1   -0.04    0.60
 -12  -5   2    9.17    0.83
 -12  -5   3    1.79    0.64
 -12  -5   4    5.19    0.59
 -12  -5   5    2.51    0.55
 -12  -5   6    1.31    0.50
 -12  -5   7    2.63    0.56
 -12  -5   8   12.08    0.83
 -12  -5   9    0.28    0.52
 -12  -5  10   -0.99    0.80
 -12  -5  11    0.06    0.51
 -12  -5  12    0.92    0.52
 -12  -5  13   -0.03    0.42
 -12  -5  14    8.75    0.89
 -12  -5  15   -0.04    0.63
 -12  -5  16    0.09    0.45
 -12  -5  17   -0.09    0.46
 -12  -5  18    1.05    0.60
 -12  -6  15    1.60    0.57
 -12  -6  14    0.26    0.45
 -12  -6  13    4.11    0.90
 -12  -6  12    0.13    0.81
 -12  -6  11   -0.22    0.53
 -12  -6  10    3.18    0.75
 -12  -6   9    3.96    0.67
 -12  -6   8    0.43    0.54
 -12  -6   7    0.50    0.48
 -12  -6   6    0.36    0.59
 -12  -6   5    2.45    0.76
 -12  -6   4    0.52    0.47
 -12  -6   3    7.90    0.82
 -12  -6   2    1.26    0.59
 -12  -6   1    0.26    0.61
 -12  -6   0    0.63    0.50
 -12  -6  -1   -0.33    0.51
 -12  -7   1    0.02    0.76
 -12  -7   2    1.16    0.52
 -12  -7   3    2.50    0.68
 -12  -7   4   -0.55    0.49
 -12  -7   5    1.12    0.68
 -12  -7   6    0.30    0.78
 -12  -7   7    0.65    0.63
 -12  -7   8   -0.43    0.48
 -12  -7   9    2.93    0.69
 -12  -7  10    0.70    0.69
 -12  -6  -2    2.34    0.92
 -12  -6  -3    0.42    0.55
 -12  -6  -4    0.03    0.52
 -12  -5  -6    1.26    0.62
 -12  -5  -5    1.53    0.54
 -12  -5  -4    1.05    0.53
 -12  -5  -3   -0.56    0.49
 -12  -5  -2    8.38    0.76
 -12  -4  -2    0.61    0.41
 -12  -4  -3   14.55    0.87
 -12  -4  -4    1.17    0.40
 -12  -4  -5    0.56    0.54
 -12  -4  -6   -0.13    0.61
 -12  -4  -7    0.51    0.46
 -12  -4  -8    0.54    0.44
 -12  -3 -10    2.15    0.66
 -12  -3  -9    0.50    0.55
 -12  -3  -8   -0.48    0.43
 -12  -3  -7   -0.14    0.46
 -12  -3  -6    0.55    0.58
 -12  -3  -5    0.23    0.45
 -12  -3  -4    2.71    0.57
 -12  -3  -3   15.54    0.83
 -12  -3  -2    3.24    0.55
 -12  -2  -2    4.37    0.37
 -12  -2  -3    0.26    0.25
 -12  -2  -4   -0.06    0.44
 -12  -2  -5    1.48    0.53
 -12  -2  -6    1.88    0.66
 -12  -2  -7    2.85    0.73
 -12  -2  -8    0.92    0.48
 -12  -2  -9   -0.30    0.77
 -12  -2 -10   -0.02    0.45
 -12  -1 -11   -0.20    0.61
 -12  -1 -10    4.22    0.68
 -12  -1  -9    4.43    0.70
 -12  -1  -8    1.15    0.67
 -12  -1  -7    2.43    0.59
 -12  -1  -6    2.62    0.59
 -12  -1  -5   23.85    0.99
 -12  -1  -4   -0.09    0.22
 -12  -1  -3   36.64    1.18
 -12  -1  -2    0.60    0.27
 -12   0  -2    1.97    0.33
 -12   0  -3    0.32    0.24
 -12   0  -4   10.77    0.49
 -12   0  -5    0.09    0.34
 -12   0  -6    1.01    0.46
 -12   0  -7    0.08    0.34
 -12   0  -8    0.22    0.39
 -12   0  -9    0.44    0.53
 -12   0 -10    5.27    0.68
 -12   0 -11   -0.26    0.43
 -12   1 -11   -0.27    0.50
 -12   1 -10    2.97    0.64
 -12   1  -9    1.67    0.62
 -12   1  -8    0.62    0.54
 -12   1  -7    2.67    0.49
 -12   1  -6    4.12    0.57
 -12   1  -5   23.22    1.05
 -12   1  -4    0.18    0.27
 -12   1  -3   36.06    1.25
 -12   1  -2    0.96    0.29
 -11  -7  -1   -0.04    0.42
 -11  -7   0    1.56    0.63
 -11  -7   1    2.31    0.64
 -11  -7   2    2.22    0.70
 -11  -7   3    0.98    0.62
 -11  -7   4    0.90    0.66
 -11  -7   5    0.65    0.46
 -11  -7   6    0.88    0.89
 -11  -7   7    0.47    0.66
 -11  -7   8    1.13    0.56
 -11  -7   9   -0.10    0.46
 -11  -7  10    0.35    0.63
 -11  -7  11    1.46    0.57
 -11  -6  15   -0.19    0.51
 -11  -6  14   -0.05    0.80
 -11  -6  13    0.44    0.53
 -11  -6  12   -0.15    0.50
 -11  -6  11    0.28    0.49
 -11  -6  10    0.73    0.53
 -11  -6   9   -0.94    0.45
 -11  -6   8    1.59    0.47
 -11  -6   7    0.62    0.48
 -11  -6   6    1.41    0.50
 -11  -6   5   -0.17    0.56
 -11  -6   4    0.63    0.51
 -11  -6   3    1.96    0.68
 -11  -6   2   -0.01    0.70
 -11  -6   1    3.93    0.59
 -11  -6   0    2.06    0.61
 -11  -6  -1    1.33    0.59
 -11  -5  -1    5.16    0.69
 -11  -5   0    0.48    0.52
 -11  -5   1    0.22    0.51
 -11  -5   2    1.23    0.48
 -11  -5   3    6.45    0.64
 -11  -5   4    2.08    0.49
 -11  -5   5    1.12    0.45
 -11  -5   6    1.92    0.67
 -11  -5   7    4.91    0.57
 -11  -5   8   -0.40    0.58
 -11  -5   9   10.59    0.78
 -11  -5  10   -0.38    0.55
 -11  -5  11    0.20    0.47
 -11  -5  12    2.80    0.59
 -11  -5  13   -0.69    0.42
 -11  -5  14    1.34    0.53
 -11  -5  15    0.44    0.62
 -11  -5  16   -0.34    0.50
 -11  -5  17    0.23    0.66
 -11  -5  18    1.31    0.53
 -11  -4  20    2.04    0.70
 -11  -4  19    0.85    0.50
 -11  -4  18    1.78    0.61
 -11  -4  17   -0.41    0.47
 -11  -4  16    1.23    0.58
 -11  -4  15    0.49    0.40
 -11  -4  14   10.41    0.92
 -11  -4  13    2.58    0.51
 -11  -4  12    1.73    0.60
 -11  -4  11    0.24    0.45
 -11  -4  10    9.23    0.46
 -11  -4   9    1.13    0.29
 -11  -4   8    6.65    0.42
 -11  -4   7    1.51    0.31
 -11  -4   6    0.65    0.33
 -11  -4   5    3.12    0.34
 -11  -4   4    3.37    0.34
 -11  -4   3    3.62    0.34
 -11  -4   2    3.31    0.39
 -11  -4   1    2.59    0.32
 -11  -4   0    2.39    0.31
 -11  -4  -1    5.17    0.58
 -11  -3  -1    3.96    0.36
 -11  -3   0    0.84    0.28
 -11  -3   1    1.50    0.28
 -11  -3   2   12.31    0.49
 -11  -3   3    0.50    0.24
 -11  -3   4    9.22    0.45
 -11  -3   5   63.27    1.78
 -11  -3   6    7.28    0.41
 -11  -3   7   12.99    0.50
 -11  -3   8   -0.23    0.25
 -11  -3   9   13.81    0.55
 -11  -3  10   -0.05    0.44
 -11  -3  11    0.81    0.28
 -11  -3  12   10.26    0.48
 -11  -3  13    0.41    0.29
 -11  -3  14   13.99    0.98
 -11  -3  15   -0.55    0.54
 -11  -3  16    1.84    0.60
 -11  -3  17    3.71    0.67
 -11  -3  18    1.09    0.47
 -11  -3  19   -0.44    0.46
 -11  -3  20    0.16    0.47
 -11  -3  21    0.55    0.56
 -11  -2  22    5.16    0.69
 -11  -2  21    1.14    0.53
 -11  -2  20    2.33    0.60
 -11  -2  19    0.04    0.41
 -11  -2  18    4.84    0.67
 -11  -2  17    0.89    0.53
 -11  -2  16   10.65    0.84
 -11  -2  15    9.72    0.47
 -11  -2  14    2.96    0.32
 -11  -2  13   15.26    0.56
 -11  -2  12   41.87    1.39
 -11  -2  11   16.76    0.57
 -11  -2  10   40.54    1.44
 -11  -2   9    0.60    0.28
 -11  -2   8   28.88    1.30
 -11  -2   7    0.53    0.25
 -11  -2   6   15.90    0.54
 -11  -2   5    9.47    0.44
 -11  -2   4    6.55    0.39
 -11  -2   3    3.38    0.32
 -11  -2   2    4.00    0.34
 -11  -2   1   19.72    0.65
 -11  -2   0   39.49    1.37
 -11  -2  -1    0.81    0.26
 -11  -1  -1    2.25    0.31
 -11  -1   0   21.61    0.66
 -11  -1   1    6.42    0.38
 -11  -1   2   -0.23    0.20
 -11  -1   3    0.25    0.24
 -11  -1   4    5.27    0.36
 -11  -1   5   24.15    0.84
 -11  -1   6   -0.03    0.21
 -11  -1   7    1.51    0.28
 -11  -1   8   16.43    0.65
 -11  -1   9   21.25    0.73
 -11  -1  10    3.85    0.34
 -11  -1  11   12.18    0.52
 -11  -1  12    0.59    0.25
 -11  -1  13    3.64    0.34
 -11  -1  14    8.98    0.50
 -11  -1  15    0.98    0.30
 -11  -1  16    4.47    0.38
 -11  -1  17    4.73    0.70
 -11  -1  18    0.05    0.43
 -11  -1  19    0.52    0.46
 -11  -1  20    0.41    0.48
 -11  -1  21    1.56    0.52
 -11  -1  22    0.04    0.49
 -11   0  23    0.10    0.46
 -11   0  22   -0.28    0.43
 -11   0  21    1.08    0.65
 -11   0  20    0.05    0.40
 -11   0  19    0.68    0.57
 -11   0  18   -0.53    0.42
 -11   0  17    0.50    0.53
 -11   0  16    0.12    0.26
 -11   0  15    1.82    0.32
 -11   0  14    0.01    0.24
 -11   0  13    6.89    0.43
 -11   0  12   -0.31    0.20
 -11   0  11    9.48    0.48
 -11   0  10    0.21    0.21
 -11   0   9    0.03    0.24
 -11   0   8    0.14    0.30
 -11   0   7    7.25    0.39
 -11   0   6   -0.06    0.19
 -11   0   5    4.89    0.34
 -11   0   4    0.25    0.20
 -11   0   3   12.04    0.48
 -11   0   2    0.13    0.21
 -11   0   1    4.22    0.33
 -11   0   0   -0.28    0.21
 -11   0  -1   91.54    2.13
 -11   1  -1    1.99    0.33
 -11   1   0   20.48    0.78
 -11   1   1    6.61    0.38
 -11   1   2    0.16    0.22
 -11   1   3    0.35    0.20
 -11   1   4    4.67    0.36
 -11   1   5   24.79    1.24
 -11   1   6   -0.14    0.19
 -11   1   7    1.21    0.27
 -11   1   8   16.65    0.70
 -11   1   9   19.77    0.76
 -11   1  10    3.65    0.36
 -11   1  11   11.73    0.50
 -11   1  12    0.34    0.25
 -11   1  13    3.44    0.34
 -11   1  14    9.12    0.48
 -11   1  15    0.63    0.27
 -11   1  16    5.05    0.38
 -11   1  17    4.58    0.62
 -11   1  18   -0.14    0.34
 -11   1  19    0.88    0.63
 -11   1  20    0.45    0.41
 -11   1  21    0.46    0.60
 -11   1  22    0.51    0.54
 -11   1 -12    3.64    0.67
 -11   1 -11    0.81    0.39
 -11   1 -10    1.94    0.55
 -11   1  -9   -0.42    0.35
 -11   1  -8   -0.05    0.31
 -11   1  -7    0.72    0.49
 -11   1  -6    4.65    0.55
 -11   1  -5    0.34    0.26
 -11   1  -4    1.47    0.29
 -11   1  -3   16.50    0.63
 -11   1  -2    0.63    0.38
 -11   0  -2    0.09    0.26
 -11   0  -3    2.88    0.31
 -11   0  -4   -0.16    0.22
 -11   0  -5   13.85    0.53
 -11   0  -6    0.15    0.37
 -11   0  -7    7.13    0.68
 -11   0  -8    0.01    0.40
 -11   0  -9    0.17    0.42
 -11   0 -10   -0.30    0.40
 -11   0 -11    4.04    0.67
 -11   0 -12   -0.32    0.47
 -11  -1 -12    3.95    0.64
 -11  -1 -11   -0.07    0.45
 -11  -1 -10    2.03    0.66
 -11  -1  -9    0.03    0.44
 -11  -1  -8    0.43    0.47
 -11  -1  -7    3.40    0.54
 -11  -1  -6    3.51    0.57
 -11  -1  -5    0.67    0.33
 -11  -1  -4    0.87    0.25
 -11  -1  -3   18.04    0.58
 -11  -1  -2    0.98    0.29
 -11  -2  -2    2.09    0.31
 -11  -2  -3   -0.03    0.27
 -11  -2  -4    2.51    0.33
 -11  -2  -5   10.48    0.70
 -11  -2  -6    1.14    0.50
 -11  -2  -7    6.15    0.63
 -11  -2  -8    1.95    0.59
 -11  -2  -9    3.62    0.62
 -11  -2 -10    1.85    0.54
 -11  -2 -11   -0.34    0.40
 -11  -2 -12    0.33    0.54
 -11  -3 -11    0.34    0.52
 -11  -3 -10    0.32    0.54
 -11  -3  -9   -0.27    0.49
 -11  -3  -8   -0.27    0.47
 -11  -3  -7    3.54    0.60
 -11  -3  -6    0.27    0.49
 -11  -3  -5    2.70    0.50
 -11  -3  -4    4.55    0.69
 -11  -3  -3    3.02    0.33
 -11  -3  -2    2.96    0.34
 -11  -4  -2   14.29    0.77
 -11  -4  -3    0.06    0.47
 -11  -4  -4    2.99    0.54
 -11  -4  -5   -0.37    0.41
 -11  -4  -6    0.17    0.42
 -11  -4  -7    1.36    0.53
 -11  -4  -8    3.04    0.58
 -11  -4  -9    0.18    0.44
 -11  -5  -8    0.27    0.57
 -11  -5  -7    1.65    0.52
 -11  -5  -6    0.44    0.60
 -11  -5  -5    0.78    0.46
 -11  -5  -4    0.38    0.47
 -11  -5  -3    1.01    0.75
 -11  -5  -2    4.22    0.72
 -11  -6  -2    0.03    0.43
 -11  -6  -3    0.75    0.51
 -11  -6  -4   -0.06    0.68
 -11  -6  -5   -0.17    0.59
 -10   1  -1    3.16    0.33
 -10   1   0    0.84    0.30
 -10   1   1    2.04    0.29
 -10   1   2    1.41    0.27
 -10   1   3   43.09    1.65
 -10   1   4    2.01    0.29
 -10   1   5    0.66    0.23
 -10   1   6    0.42    0.24
 -10   1   7    0.16    0.36
 -10   1   8    9.10    0.42
 -10   1   9    1.24    0.25
 -10   1  10   18.70    0.72
 -10   1  11    0.23    0.28
 -10   1  12    0.49    0.31
 -10   1  13    2.74    0.35
 -10   1  14    3.32    0.35
 -10   1  15   -0.19    0.21
 -10   1  16    1.87    0.33
 -10   1  17    0.39    0.57
 -10   1  18    0.01    0.49
 -10   1  19    0.13    0.49
 -10   1  20    1.32    0.57
 -10   1  21    0.59    0.56
 -10   1  22    0.46    0.44
 -10   0  23   -0.04    0.56
 -10   0  22    1.78    0.78
 -10   0  21    0.11    0.37
 -10   0  20    0.41    0.37
 -10   0  19    0.20    0.44
 -10   0  18    7.78    0.71
 -10   0  17    0.15    0.41
 -10   0  16   32.35    1.15
 -10   0  15    0.14    0.25
 -10   0  14   -0.35    0.23
 -10   0  13   -0.13    0.34
 -10   0  12   14.03    0.56
 -10   0  11    0.24    0.37
 -10   0  10    1.43    0.26
 -10   0   9    0.07    0.20
 -10   0   8   19.94    0.73
 -10   0   7   -0.10    0.20
 -10   0   6  142.83    2.84
 -10   0   5   -0.22    0.17
 -10   0   4   73.76    2.17
 -10   0   3   -0.02    0.20
 -10   0   2   28.85    1.33
 -10   0   1    0.29    0.30
 -10   0   0    4.56    0.33
 -10   0  -1   -0.19    0.20
 -10  -1  -1    4.60    0.35
 -10  -1   0    0.57    0.23
 -10  -1   1    2.45    0.34
 -10  -1   2    2.02    0.28
 -10  -1   3   42.97    1.66
 -10  -1   4    2.47    0.29
 -10  -1   5    0.09    0.20
 -10  -1   6    0.57    0.27
 -10  -1   7   -0.18    0.30
 -10  -1   8    8.77    0.43
 -10  -1   9    1.43    0.39
 -10  -1  10   18.88    0.63
 -10  -1  11    0.53    0.32
 -10  -1  12    0.52    0.29
 -10  -1  13    3.91    0.38
 -10  -1  14    4.32    0.44
 -10  -1  15    0.21    0.26
 -10  -1  16    2.69    0.33
 -10  -1  17    0.04    0.46
 -10  -1  18    0.34    0.51
 -10  -1  19   -0.14    0.47
 -10  -1  20    1.52    0.58
 -10  -1  21    1.11    0.52
 -10  -1  22    0.03    0.57
 -10  -2  22    0.01    0.50
 -10  -2  21    0.00    0.56
 -10  -2  20    1.45    0.79
 -10  -2  19   -0.09    0.49
 -10  -2  18    1.01    0.43
 -10  -2  17    0.52    0.43
 -10  -2  16    5.31    0.69
 -10  -2  15    2.31    0.34
 -10  -2  14    0.57    0.25
 -10  -2  13    7.86    0.47
 -10  -2  12    1.78    0.31
 -10  -2  11    3.45    0.37
 -10  -2  10    0.25    0.24
 -10  -2   9    1.33    0.28
 -10  -2   8   18.54    0.71
 -10  -2   7    3.40    0.31
 -10  -2   6    2.95    0.31
 -10  -2   5    0.96    0.24
 -10  -2   4    0.43    0.21
 -10  -2   3   -0.05    0.21
 -10  -2   2   23.11    0.82
 -10  -2   1    9.90    0.44
 -10  -2   0    0.58    0.25
 -10  -2  -1    4.01    0.47
 -10  -3  -1   -0.33    0.31
 -10  -3   0    3.93    0.35
 -10  -3   1    1.97    0.34
 -10  -3   2    3.10    0.32
 -10  -3   3    0.15    0.20
 -10  -3   4   -0.05    0.24
 -10  -3   5   10.47    0.48
 -10  -3   6   14.13    0.52
 -10  -3   7    0.04    0.30
 -10  -3   8    0.16    0.26
 -10  -3   9   -0.01    0.23
 -10  -3  10    2.04    0.31
 -10  -3  11    0.46    0.27
 -10  -3  12    0.23    0.24
 -10  -3  13    1.00    0.29
 -10  -3  14    0.92    0.33
 -10  -3  15    0.85    0.47
 -10  -3  16   -0.24    0.60
 -10  -3  17    1.30    0.51
 -10  -3  18    0.24    0.58
 -10  -3  19    1.22    0.55
 -10  -3  20    0.83    0.52
 -10  -3  21   -0.24    0.41
 -10  -4  20    0.43    0.72
 -10  -4  19    0.31    0.54
 -10  -4  18    0.33    0.41
 -10  -4  17    0.10    0.66
 -10  -4  16    0.13    0.55
 -10  -4  15    3.18    0.69
 -10  -4  14    2.11    0.49
 -10  -4  13    0.24    0.40
 -10  -4  12   -0.55    0.45
 -10  -4  11    0.34    0.26
 -10  -4  10    1.29    0.30
 -10  -4   9    0.07    0.23
 -10  -4   8    7.61    0.43
 -10  -4   7    1.24    0.28
 -10  -4   6    0.10    0.22
 -10  -4   5    3.17    0.33
 -10  -4   4    0.25    0.30
 -10  -4   3    0.83    0.26
 -10  -4   2    0.75    0.30
 -10  -4   1    8.84    0.45
 -10  -4   0    1.61    0.29
 -10  -4  -1    0.44    0.27
 -10  -5  -1    1.64    0.49
 -10  -5   0    1.81    0.51
 -10  -5   1    0.26    0.45
 -10  -5   2    0.77    0.42
 -10  -5   3    0.38    0.44
 -10  -5   4   -0.28    0.48
 -10  -5   5    7.18    0.63
 -10  -5   6   -0.16    0.50
 -10  -5   7    1.05    0.49
 -10  -5   8    2.59    0.62
 -10  -5   9    0.64    0.48
 -10  -5  10    0.59    0.69
 -10  -5  11   -0.28    0.40
 -10  -5  12    2.63    0.57
 -10  -5  13   -0.37    0.40
 -10  -5  14    1.61    0.53
 -10  -5  15    0.20    0.58
 -10  -5  16    0.50    0.50
 -10  -5  17    0.00    0.51
 -10  -5  18    0.69    0.90
 -10  -6  16   -0.08    0.55
 -10  -6  15   -0.43    0.49
 -10  -6  14   -0.32    0.52
 -10  -6  13    0.47    0.48
 -10  -6  12    0.30    0.62
 -10  -6  11   -0.36    0.43
 -10  -6  10    0.21    0.62
 -10  -6   9    0.44    0.60
 -10  -6   8    0.67    0.60
 -10  -6   7    1.77    0.53
 -10  -6   6    0.60    0.46
 -10  -6   5    0.76    0.49
 -10  -6   4    0.18    0.67
 -10  -6   3    0.24    0.51
 -10  -6   2    0.59    0.50
 -10  -6   1    1.61    0.52
 -10  -6   0    0.12    0.57
 -10  -6  -1    0.63    0.48
 -10  -7  -1    0.01    0.70
 -10  -7   0    0.79    0.59
 -10  -7   1    0.62    0.48
 -10  -7   2    0.65    0.57
 -10  -7   3    0.27    0.71
 -10  -7   4    1.33    0.54
 -10  -7   5    1.27    0.48
 -10  -7   6    2.02    0.67
 -10  -7   7    4.00    0.86
 -10  -7   8   -0.09    0.64
 -10  -7   9   -0.27    0.66
 -10  -7  10    1.87    0.58
 -10  -7  11    0.37    0.53
 -10  -7  12    0.64    0.47
 -10  -7  -2    0.10    0.55
 -10  -6  -2    0.53    0.75
 -10  -6  -3    0.08    0.46
 -10  -6  -4    0.34    0.49
 -10  -6  -5    0.37    0.62
 -10  -6  -6    0.52    0.49
 -10  -5  -9    0.32    0.71
 -10  -5  -8    2.37    0.60
 -10  -5  -7    0.03    0.49
 -10  -5  -6    0.04    0.54
 -10  -5  -5    0.45    0.49
 -10  -5  -4    0.30    0.52
 -10  -5  -3    0.40    0.51
 -10  -5  -2    5.47    0.70
 -10  -4  -2    0.64    0.25
 -10  -4  -3    2.34    0.68
 -10  -4  -4    1.62    0.55
 -10  -4  -5    1.21    0.51
 -10  -4  -6    1.06    0.45
 -10  -4  -7    0.84    0.51
 -10  -4  -8    0.57    0.53
 -10  -4  -9    0.05    0.50
 -10  -4 -10    1.42    0.60
 -10  -3 -12    0.97    0.60
 -10  -3 -11    0.09    0.54
 -10  -3 -10   -0.20    0.50
 -10  -3  -9    0.88    0.51
 -10  -3  -8    1.57    0.58
 -10  -3  -7    4.35    0.62
 -10  -3  -6    0.53    0.50
 -10  -3  -5    0.48    0.44
 -10  -3  -4    5.19    0.40
 -10  -3  -3    0.07    0.24
 -10  -3  -2    0.59    0.26
 -10  -2  -2    0.32    0.23
 -10  -2  -3   23.50    1.11
 -10  -2  -4    0.79    0.33
 -10  -2  -5    0.39    0.25
 -10  -2  -6    4.76    0.37
 -10  -2  -7    0.03    0.57
 -10  -2  -8    2.84    0.55
 -10  -2  -9    0.18    0.36
 -10  -2 -10    1.25    0.45
 -10  -2 -11    1.11    0.49
 -10  -2 -12   -0.54    0.43
 -10  -1 -13    0.08    0.47
 -10  -1 -12    0.67    0.50
 -10  -1 -11    0.00    0.40
 -10  -1 -10    0.77    0.61
 -10  -1  -9    0.66    0.50
 -10  -1  -8    1.52    0.45
 -10  -1  -7    0.55    0.41
 -10  -1  -6    0.66    0.37
 -10  -1  -5    1.54    0.28
 -10  -1  -4    1.50    0.29
 -10  -1  -3   -0.27    0.36
 -10  -1  -2    0.41    0.24
 -10   0  -2    5.36    0.37
 -10   0  -3   -0.18    0.18
 -10   0  -4    4.07    0.35
 -10   0  -5   -0.18    0.22
 -10   0  -6   27.43    1.07
 -10   0  -7   -0.22    0.23
 -10   0  -8   10.96    0.77
 -10   0  -9   -0.40    0.33
 -10   0 -10    0.03    0.53
 -10   0 -11    0.32    0.36
 -10   0 -12    0.04    0.51
 -10   0 -13   -0.35    0.37
 -10   1 -13    0.39    0.39
 -10   1 -12   -0.70    0.41
 -10   1 -11   -0.12    0.38
 -10   1 -10    0.46    0.43
 -10   1  -9    0.35    0.40
 -10   1  -8   -0.27    0.53
 -10   1  -7    0.27    0.41
 -10   1  -6    0.15    0.22
 -10   1  -5    0.75    0.26
 -10   1  -4    1.82    0.29
 -10   1  -3   -0.09    0.25
 -10   1  -2    1.38    0.38
  -9  -7  -1   -0.52    0.48
  -9  -7   0   -0.01    0.45
  -9  -7   1    0.43    0.56
  -9  -7   2    0.14    0.53
  -9  -7   3    3.47    0.67
  -9  -7   4   -0.46    0.51
  -9  -7   5    1.05    0.53
  -9  -7   6    1.19    0.64
  -9  -7   7    0.42    0.61
  -9  -7   8    1.62    0.56
  -9  -7   9    0.77    0.61
  -9  -7  10    0.39    0.47
  -9  -7  11    1.62    0.56
  -9  -7  12    0.65    0.65
  -9  -6  16    0.24    0.48
  -9  -6  15   -0.45    0.49
  -9  -6  14    0.00    0.43
  -9  -6  13    0.29    0.58
  -9  -6  12   -0.24    0.54
  -9  -6  11    0.04    0.42
  -9  -6  10   -0.51    0.46
  -9  -6   9    1.23    0.46
  -9  -6   8    1.15    0.52
  -9  -6   7   -0.07    0.59
  -9  -6   6    0.38    0.51
  -9  -6   5    0.62    0.48
  -9  -6   4    0.81    0.63
  -9  -6   3   -0.32    0.48
  -9  -6   2   -0.62    0.54
  -9  -6   1   -0.02    0.62
  -9  -6   0    1.04    0.46
  -9  -6  -1    2.26    0.61
  -9  -5  -1    1.43    0.43
  -9  -5   0    0.64    0.39
  -9  -5   1    3.16    0.33
  -9  -5   2    1.96    0.32
  -9  -5   3   -0.19    0.23
  -9  -5   4    6.61    0.50
  -9  -5   5    0.13    0.28
  -9  -5   6    0.94    0.27
  -9  -5   7    4.87    0.37
  -9  -5   8    2.08    0.49
  -9  -5   9    0.59    0.45
  -9  -5  10    1.47    0.45
  -9  -5  11    5.03    0.61
  -9  -5  12    0.24    0.43
  -9  -5  13    0.56    0.41
  -9  -5  14    3.38    0.58
  -9  -5  15    0.70    0.54
  -9  -5  16    0.15    0.46
  -9  -5  17    0.33    0.61
  -9  -5  18    0.27    0.53
  -9  -4  20    0.16    0.58
  -9  -4  19   -0.21    0.55
  -9  -4  18    0.56    0.62
  -9  -4  17    0.17    0.56
  -9  -4  16   -0.02    0.51
  -9  -4  15    0.21    0.66
  -9  -4  14    1.90    0.49
  -9  -4  13    0.56    0.37
  -9  -4  12    0.01    0.23
  -9  -4  11   -0.15    0.26
  -9  -4  10    0.01    0.24
  -9  -4   9    2.51    0.43
  -9  -4   8    0.30    0.25
  -9  -4   7    1.90    0.30
  -9  -4   6   -0.16    0.27
  -9  -4   5    0.41    0.29
  -9  -4   4    0.81    0.26
  -9  -4   3   -0.04    0.23
  -9  -4   2   -0.17    0.20
  -9  -4   1    2.47    0.32
  -9  -4   0    0.33    0.25
  -9  -4  -1    4.90    0.37
  -9  -3  -1   25.14    0.78
  -9  -3   0    3.35    0.31
  -9  -3   1    0.83    0.23
  -9  -3   2   17.04    0.61
  -9  -3   3    6.49    0.39
  -9  -3   4   16.76    0.60
  -9  -3   5    1.54    0.27
  -9  -3   6   -0.14    0.25
  -9  -3   7    7.34    0.40
  -9  -3   8   -0.45    0.24
  -9  -3   9   26.12    0.83
  -9  -3  10    1.86    0.30
  -9  -3  11    1.35    0.29
  -9  -3  12    7.89    0.45
  -9  -3  13    0.15    0.26
  -9  -3  14    4.34    0.36
  -9  -3  15    0.97    0.53
  -9  -3  16    9.66    0.71
  -9  -3  17    4.92    0.61
  -9  -3  18    2.19    0.57
  -9  -3  19   -0.65    0.38
  -9  -3  20   -0.09    0.47
  -9  -3  21    1.00    0.52
  -9  -2  22   -0.23    0.54
  -9  -2  21   -0.54    0.41
  -9  -2  20    1.37    0.47
  -9  -2  19    0.72    0.42
  -9  -2  18   -0.10    0.42
  -9  -2  17    3.33    0.78
  -9  -2  16    0.85    0.46
  -9  -2  15    3.38    0.35
  -9  -2  14   -0.22    0.27
  -9  -2  13    6.56    0.41
  -9  -2  12    1.12    0.26
  -9  -2  11    1.21    0.27
  -9  -2  10    0.93    0.23
  -9  -2   9   -0.34    0.19
  -9  -2   8    0.06    0.25
  -9  -2   7   19.05    0.72
  -9  -2   6   -0.04    0.22
  -9  -2   5    0.73    0.28
  -9  -2   4   10.35    0.44
  -9  -2   3    0.32    0.38
  -9  -2   2   11.53    0.45
  -9  -2   1   14.59    0.50
  -9  -2   0    0.68    0.27
  -9  -2  -1    0.11    0.22
  -9  -1  -1   11.20    0.44
  -9  -1   0   29.54    0.91
  -9  -1   1    9.62    0.40
  -9  -1   2    0.85    0.24
  -9  -1   3    5.09    0.33
  -9  -1   4    0.23    0.20
  -9  -1   5   29.16    1.03
  -9  -1   6   20.86    0.72
  -9  -1   7  113.80    2.60
  -9  -1   8   -0.18    0.22
  -9  -1   9   26.48    0.94
  -9  -1  10    5.35    0.35
  -9  -1  11    7.13    0.41
  -9  -1  12   12.47    0.58
  -9  -1  13   -0.04    0.23
  -9  -1  14    6.54    0.43
  -9  -1  15    2.16    0.36
  -9  -1  16    9.19    0.47
  -9  -1  17    7.24    0.68
  -9  -1  18    1.53    0.53
  -9  -1  19    0.47    0.39
  -9  -1  20   -0.36    0.46
  -9  -1  21   -0.09    0.44
  -9  -1  22    0.90    0.51
  -9   0  23    0.35    0.47
  -9   0  22    0.38    0.52
  -9   0  21    0.48    0.61
  -9   0  20    0.58    0.37
  -9   0  19    0.36    0.36
  -9   0  18    0.19    0.51
  -9   0  17    1.78    0.56
  -9   0  16   -0.41    0.38
  -9   0  15    0.94    0.39
  -9   0  14    0.38    0.23
  -9   0  13   -0.05    0.26
  -9   0  12   -0.18    0.24
  -9   0  11    0.37    0.21
  -9   0  10   -0.07    0.23
  -9   0   9    1.80    0.38
  -9   0   8   -0.53    0.41
  -9   0   7    0.08    0.19
  -9   0   6   -0.31    0.22
  -9   0   5   18.35    0.67
  -9   0   4   -0.03    0.20
  -9   0   3  160.62    3.00
  -9   0   2   -0.16    0.18
  -9   0   1    6.93    0.37
  -9   0   0    0.47    0.21
  -9   0  -1    1.00    0.22
  -9   1  -1   11.45    0.47
  -9   1   0   29.39    0.97
  -9   1   1    9.62    0.41
  -9   1   2    0.68    0.22
  -9   1   3    5.11    0.35
  -9   1   4    0.27    0.20
  -9   1   5   30.63    1.00
  -9   1   6   19.64    0.76
  -9   1   7  113.17    2.62
  -9   1   8    0.08    0.36
  -9   1   9   26.23    0.89
  -9   1  10    5.54    0.37
  -9   1  11    6.93    0.47
  -9   1  12   12.29    0.49
  -9   1  13    0.35    0.28
  -9   1  14    8.38    0.43
  -9   1  15    2.52    0.32
  -9   1  16    9.78    0.50
  -9   1  17    6.66    0.69
  -9   1  18    1.68    0.45
  -9   1  19    1.36    0.43
  -9   1  20    0.13    0.42
  -9   1  21    0.25    0.43
  -9   1  22    1.01    0.54
  -9   1 -14   -0.21    0.30
  -9   1 -13    0.41    0.52
  -9   1 -12    0.02    0.37
  -9   1 -11   -0.39    0.33
  -9   1 -10    0.05    0.41
  -9   1  -9    0.28    0.43
  -9   1  -8    9.81    0.86
  -9   1  -7    1.44    0.28
  -9   1  -6   26.06    1.18
  -9   1  -5   -0.36    0.33
  -9   1  -4    4.22    0.35
  -9   1  -3   -0.16    0.19
  -9   1  -2    0.33    0.19
  -9   0  -2   -0.36    0.21
  -9   0  -3    7.13    0.41
  -9   0  -4    0.03    0.22
  -9   0  -5   26.00    1.17
  -9   0  -6   -0.07    0.23
  -9   0  -7    4.82    0.39
  -9   0  -8   -0.13    0.23
  -9   0  -9    0.89    0.42
  -9   0 -10   -0.25    0.35
  -9   0 -11    3.05    0.54
  -9   0 -12    0.11    0.51
  -9   0 -13    0.19    0.40
  -9   0 -14    0.18    0.51
  -9  -1 -14    0.02    0.38
  -9  -1 -13   -0.10    0.45
  -9  -1 -12   -0.34    0.50
  -9  -1 -11   -0.09    0.45
  -9  -1 -10    0.71    0.37
  -9  -1  -9   -0.02    0.53
  -9  -1  -8   11.95    0.85
  -9  -1  -7    2.11    0.29
  -9  -1  -6   26.87    1.17
  -9  -1  -5   -0.12    0.23
  -9  -1  -4    4.30    0.36
  -9  -1  -3    0.21    0.22
  -9  -1  -2    0.24    0.33
  -9  -2  -2    6.27    0.37
  -9  -2  -3    0.66    0.28
  -9  -2  -4    7.03    0.42
  -9  -2  -5    0.34    0.25
  -9  -2  -6    2.27    0.30
  -9  -2  -7    0.50    0.24
  -9  -2  -8    0.43    0.40
  -9  -2  -9    7.72    0.84
  -9  -2 -10    0.36    0.40
  -9  -2 -11   -0.26    0.46
  -9  -2 -12    0.34    0.75
  -9  -2 -13   -0.33    0.43
  -9  -3 -13    1.17    0.61
  -9  -3 -12    0.27    0.52
  -9  -3 -11    0.13    0.55
  -9  -3 -10    0.83    0.48
  -9  -3  -9    0.51    0.53
  -9  -3  -8   11.61    0.81
  -9  -3  -7    3.58    0.55
  -9  -3  -6    0.08    0.34
  -9  -3  -5   -0.08    0.28
  -9  -3  -4   13.29    0.51
  -9  -3  -3    0.54    0.26
  -9  -3  -2    6.76    0.40
  -9  -4  -2    1.21    0.44
  -9  -4  -3    3.74    0.36
  -9  -4  -4    0.27    0.36
  -9  -4  -5    1.22    0.48
  -9  -4  -6    2.23    0.58
  -9  -4  -7    0.67    0.41
  -9  -4  -8    3.19    0.78
  -9  -4  -9   -0.12    0.60
  -9  -4 -10    0.79    0.43
  -9  -4 -11    0.19    0.50
  -9  -5 -10    2.61    0.64
  -9  -5  -9    0.60    0.54
  -9  -5  -8    0.13    0.43
  -9  -5  -7   -0.26    0.47
  -9  -5  -6    0.81    0.48
  -9  -5  -5    4.75    0.73
  -9  -5  -4    1.45    0.45
  -9  -5  -3    3.84    0.64
  -9  -5  -2    0.71    0.57
  -9  -6  -2    0.04    0.46
  -9  -6  -3    0.27    0.43
  -9  -6  -4    0.22    0.55
  -9  -6  -5    1.08    0.53
  -9  -6  -6    0.00    0.52
  -9  -6  -7    0.92    0.69
  -9  -7  -4    1.48    0.63
  -9  -7  -3    0.08    0.53
  -9  -7  -2    2.66    0.64
  -8   1  -1   21.98    0.75
  -8   1   0   45.79    1.75
  -8   1   1   89.59    2.38
  -8   1   2   25.75    0.91
  -8   1   3   73.76    2.12
  -8   1   4   32.38    1.47
  -8   1   5    2.37    0.27
  -8   1   6    8.30    0.38
  -8   1   7   58.14    1.96
  -8   1   8    8.73    0.42
  -8   1   9   20.03    0.75
  -8   1  10   23.23    0.77
  -8   1  11   37.17    1.52
  -8   1  12   -0.46    0.35
  -8   1  13   20.20    0.73
  -8   1  14   30.36    1.22
  -8   1  15    2.38    0.34
  -8   1  16    7.31    0.44
  -8   1  17   -0.29    0.44
  -8   1  18    0.22    0.47
  -8   1  19    0.14    0.46
  -8   1  20    0.15    0.41
  -8   1  21    2.33    0.69
  -8   1  22    0.26    0.45
  -8   0  22    1.50    0.65
  -8   0  21   -0.28    0.43
  -8   0  20   -0.83    0.42
  -8   0  19    0.42    0.38
  -8   0  18    5.95    0.73
  -8   0  17    0.23    0.55
  -8   0  16    7.59    0.45
  -8   0  15    0.03    0.24
  -8   0  14   12.63    0.53
  -8   0  13   -0.25    0.28
  -8   0  12    9.51    0.46
  -8   0  11    0.14    0.26
  -8   0  10    0.65    0.28
  -8   0   9    0.08    0.21
  -8   0   8    6.23    0.35
  -8   0   7    0.27    0.20
  -8   0   6   12.75    0.44
  -8   0   5    0.28    0.20
  -8   0   4   34.00    1.51
  -8   0   3    0.14    0.19
  -8   0   2    9.18    0.38
  -8   0   1    0.11    0.19
  -8   0   0   50.35    1.77
  -8   0  -1   -0.19    0.20
  -8  -1  -1   22.63    0.78
  -8  -1   0   47.54    1.70
  -8  -1   1   89.95    2.28
  -8  -1   2   28.47    0.94
  -8  -1   3   76.29    2.16
  -8  -1   4   35.66    1.56
  -8  -1   5    2.46    0.26
  -8  -1   6    8.40    0.38
  -8  -1   7   55.40    1.82
  -8  -1   8    9.04    0.41
  -8  -1   9   19.14    0.65
  -8  -1  10   23.12    0.79
  -8  -1  11   39.43    1.54
  -8  -1  12    0.53    0.30
  -8  -1  13   19.17    0.72
  -8  -1  14   30.43    1.23
  -8  -1  15    2.43    0.32
  -8  -1  16    6.94    0.45
  -8  -1  17    0.15    0.42
  -8  -1  18    0.37    0.38
  -8  -1  19    0.26    0.42
  -8  -1  20    0.20    0.50
  -8  -1  21    3.05    0.69
  -8  -1  22    0.15    0.49
  -8  -2  22   -0.76    0.34
  -8  -2  21    0.69    0.52
  -8  -2  20   -0.34    0.52
  -8  -2  19    0.56    0.53
  -8  -2  18    3.65    0.66
  -8  -2  17    0.46    0.50
  -8  -2  16    0.57    0.41
  -8  -2  15   12.39    0.54
  -8  -2  14    0.03    0.23
  -8  -2  13    5.92    0.41
  -8  -2  12    3.88    0.36
  -8  -2  11    7.65    0.42
  -8  -2  10    0.40    0.32
  -8  -2   9   33.79    1.45
  -8  -2   8   11.70    0.46
  -8  -2   7   26.19    0.92
  -8  -2   6    5.97    0.35
  -8  -2   5   12.77    0.49
  -8  -2   4   10.04    0.41
  -8  -2   3   25.93    0.89
  -8  -2   2   32.57    1.46
  -8  -2   1    3.00    0.28
  -8  -2   0   62.75    1.92
  -8  -2  -1   25.37    0.82
  -8  -3  -1    0.58    0.24
  -8  -3   0   15.68    0.53
  -8  -3   1   22.79    0.77
  -8  -3   2    2.71    0.31
  -8  -3   3   -0.35    0.26
  -8  -3   4   46.34    1.68
  -8  -3   5   50.33    1.73
  -8  -3   6    0.17    0.22
  -8  -3   7   11.06    0.48
  -8  -3   8    1.79    0.29
  -8  -3   9    3.63    0.33
  -8  -3  10    6.49    0.40
  -8  -3  11    6.34    0.44
  -8  -3  12    0.52    0.27
  -8  -3  13    2.36    0.34
  -8  -3  14   16.04    0.58
  -8  -3  15    1.82    0.48
  -8  -3  16    1.93    0.51
  -8  -3  17    0.31    0.38
  -8  -3  18    0.70    0.48
  -8  -3  19    0.59    0.44
  -8  -3  20   -0.17    0.39
  -8  -3  21    0.32    0.42
  -8  -4  20    0.09    0.54
  -8  -4  19    0.56    0.47
  -8  -4  18   -0.51    0.39
  -8  -4  17    3.19    0.55
  -8  -4  16    3.86    0.61
  -8  -4  15    1.25    0.58
  -8  -4  14    1.25    0.44
  -8  -4  13    3.88    0.54
  -8  -4  12   -0.29    0.31
  -8  -4  11   16.91    0.59
  -8  -4  10    0.46    0.31
  -8  -4   9    3.26    0.46
  -8  -4   8    0.54    0.25
  -8  -4   7    8.03    0.42
  -8  -4   6    0.49    0.25
  -8  -4   5    8.67    0.42
  -8  -4   4   -0.14    0.21
  -8  -4   3   -0.13    0.23
  -8  -4   2   12.65    0.49
  -8  -4   1   13.71    0.50
  -8  -4   0    0.45    0.22
  -8  -4  -1    3.18    0.31
  -8  -5  -1    2.53    0.32
  -8  -5   0    7.05    0.42
  -8  -5   1    8.12    0.42
  -8  -5   2   26.88    1.04
  -8  -5   3    2.51    0.30
  -8  -5   4   -0.15    0.28
  -8  -5   5    0.34    0.31
  -8  -5   6   13.76    0.53
  -8  -5   7   -0.22    0.27
  -8  -5   8    6.18    0.40
  -8  -5   9    0.39    0.26
  -8  -5  10    0.46    0.37
  -8  -5  11    1.89    0.62
  -8  -5  12   21.51    1.01
  -8  -5  13    0.80    0.46
  -8  -5  14    0.24    0.52
  -8  -5  15    0.03    0.43
  -8  -5  16    4.30    0.66
  -8  -5  17    3.63    0.66
  -8  -5  18    2.53    0.61
  -8  -6  16    0.26    0.46
  -8  -6  15   -0.14    0.44
  -8  -6  14   -0.10    0.45
  -8  -6  13    0.83    0.52
  -8  -6  12    0.38    0.50
  -8  -6  11    1.10    0.73
  -8  -6  10    0.16    0.44
  -8  -6   9    1.96    0.69
  -8  -6   8    2.27    0.65
  -8  -6   7    0.09    0.52
  -8  -6   6    0.83    0.52
  -8  -6   5    3.08    0.58
  -8  -6   4    0.59    0.42
  -8  -6   3    0.03    0.51
  -8  -6   2    0.95    0.45
  -8  -6   1    4.84    0.77
  -8  -6   0    0.46    0.55
  -8  -6  -1    0.15    0.51
  -8  -7  -1    0.87    0.45
  -8  -7   0    0.73    0.48
  -8  -7   1   -0.11    0.54
  -8  -7   2    0.49    0.44
  -8  -7   3    1.22    0.56
  -8  -7   4    4.98    0.67
  -8  -7   5    0.93    0.46
  -8  -7   6    0.11    0.62
  -8  -7   7   -0.40    0.49
  -8  -7   8    0.25    0.51
  -8  -7   9    0.68    0.50
  -8  -7  10    0.56    0.69
  -8  -7  11    0.25    0.53
  -8  -7  12   -0.14    0.60
  -8  -7  13    1.66    0.61
  -8  -8   5    0.14    0.68
  -8  -8   4    0.10    0.64
  -8  -8   3    1.65    0.58
  -8  -7  -5    1.88    0.64
  -8  -7  -4   -0.06    0.64
  -8  -7  -3    0.08    0.62
  -8  -7  -2    2.11    0.50
  -8  -6  -2    0.17    0.44
  -8  -6  -3    0.24    0.59
  -8  -6  -4    0.42    0.49
  -8  -6  -5    1.30    0.84
  -8  -6  -6   -0.30    0.52
  -8  -6  -7    0.21    0.44
  -8  -6  -8    0.74    0.49
  -8  -5 -11    1.66    0.57
  -8  -5 -10    6.45    0.73
  -8  -5  -9    1.94    0.51
  -8  -5  -8    0.90    0.52
  -8  -5  -7    0.20    0.43
  -8  -5  -6   -0.36    0.49
  -8  -5  -5    0.46    0.49
  -8  -5  -4   22.61    0.96
  -8  -5  -3    1.73    0.47
  -8  -5  -2    5.21    0.67
  -8  -4  -2    6.43    0.40
  -8  -4  -3    2.92    0.31
  -8  -4  -4    0.96    0.27
  -8  -4  -5    3.44    0.33
  -8  -4  -6    0.99    0.41
  -8  -4  -7    0.33    0.40
  -8  -4  -8    0.07    0.46
  -8  -4  -9    5.11    0.61
  -8  -4 -10   -0.72    0.39
  -8  -4 -11   -0.86    0.45
  -8  -4 -12   -0.31    0.53
  -8  -3 -13    0.31    0.44
  -8  -3 -12   -0.40    0.49
  -8  -3 -11    0.02    0.59
  -8  -3 -10    2.01    0.66
  -8  -3  -9    0.53    0.46
  -8  -3  -8    0.98    0.45
  -8  -3  -7    0.55    0.25
  -8  -3  -6   19.67    0.59
  -8  -3  -5    3.02    0.32
  -8  -3  -4    6.31    0.40
  -8  -3  -3    0.27    0.25
  -8  -3  -2    1.49    0.28
  -8  -2  -2   11.71    0.46
  -8  -2  -3    0.46    0.31
  -8  -2  -4   13.66    0.51
  -8  -2  -5    1.60    0.28
  -8  -2  -6    1.96    0.29
  -8  -2  -7   17.76    0.58
  -8  -2  -8   -0.12    0.24
  -8  -2  -9    3.02    0.48
  -8  -2 -10    2.88    0.70
  -8  -2 -11    5.60    0.69
  -8  -2 -12    0.37    0.49
  -8  -2 -13    1.88    0.49
  -8  -2 -14    0.08    0.39
  -8  -1 -15   -0.56    0.38
  -8  -1 -14    0.01    0.43
  -8  -1 -13    0.97    0.51
  -8  -1 -12    4.85    0.68
  -8  -1 -11    0.20    0.37
  -8  -1 -10    0.71    0.66
  -8  -1  -9    0.20    0.23
  -8  -1  -8   18.36    0.62
  -8  -1  -7    1.45    0.29
  -8  -1  -6   31.61    1.30
  -8  -1  -5    4.16    0.35
  -8  -1  -4   41.45    1.52
  -8  -1  -3   21.56    0.67
  -8  -1  -2   49.68    1.78
  -8   0  -2   11.57    0.47
  -8   0  -3    0.28    0.29
  -8   0  -4   15.13    0.59
  -8   0  -5   -0.21    0.21
  -8   0  -6   -0.06    0.29
  -8   0  -7   -0.03    0.26
  -8   0  -8   21.35    1.00
  -8   0  -9    0.24    0.22
  -8   0 -10    1.76    0.46
  -8   0 -11    0.04    0.38
  -8   0 -12   -0.04    0.40
  -8   0 -13   -0.27    0.36
  -8   0 -14    2.74    0.62
  -8   0 -15    0.16    0.40
  -8   1 -15   -0.30    0.49
  -8   1 -14    1.29    0.45
  -8   1 -13    0.56    0.48
  -8   1 -12    4.42    0.69
  -8   1 -11   -0.21    0.37
  -8   1 -10    1.07    0.61
  -8   1  -9    0.51    0.23
  -8   1  -8   16.75    0.63
  -8   1  -7    1.42    0.28
  -8   1  -6   33.15    1.36
  -8   1  -5    5.11    0.39
  -8   1  -4   43.31    1.57
  -8   1  -3   20.53    0.83
  -8   1  -2   53.86    1.78
  -7  -8   7   -0.06    0.47
  -7  -8   6    0.76    0.46
  -7  -8   5    0.47    0.77
  -7  -8   4    1.85    0.74
  -7  -8   3    0.61    0.66
  -7  -8   2    0.55    0.61
  -7  -8   1    0.42    0.54
  -7  -8   0    0.13    0.64
  -7  -7  -1   -0.51    0.42
  -7  -7   0    5.05    0.70
  -7  -7   1    1.89    0.49
  -7  -7   2    3.20    0.62
  -7  -7   3    0.61    0.48
  -7  -7   4    1.04    0.57
  -7  -7   5    2.46    0.51
  -7  -7   6    1.70    0.84
  -7  -7   7    3.84    0.61
  -7  -7   8    0.53    0.53
  -7  -7   9   -0.27    0.48
  -7  -7  10    4.43    0.73
  -7  -7  11    0.00    0.45
  -7  -7  12    5.96    0.90
  -7  -7  13    0.09    0.54
  -7  -6  16    0.85    0.70
  -7  -6  15    0.37    0.73
  -7  -6  14    0.15    0.56
  -7  -6  13    0.22    0.53
  -7  -6  12    2.91    0.64
  -7  -6  11    5.94    0.71
  -7  -6  10    0.43    0.54
  -7  -6   9    3.11    0.61
  -7  -6   8    1.70    0.49
  -7  -6   7    2.17    0.60
  -7  -6   6    3.77    0.60
  -7  -6   5    2.60    0.55
  -7  -6   4    3.23    0.54
  -7  -6   3    0.60    0.53
  -7  -6   2    3.12    0.56
  -7  -6   1    4.34    0.59
  -7  -6   0    0.38    0.46
  -7  -6  -1    0.38    0.57
  -7  -5  -1    1.37    0.29
  -7  -5   0    0.05    0.28
  -7  -5   1    4.35    0.36
  -7  -5   2    0.47    0.27
  -7  -5   3    1.47    0.29
  -7  -5   4    3.83    0.37
  -7  -5   5   11.93    0.54
  -7  -5   6    0.05    0.28
  -7  -5   7   16.67    0.59
  -7  -5   8    2.75    0.34
  -7  -5   9    1.88    0.29
  -7  -5  10    7.39    0.75
  -7  -5  11    1.46    0.47
  -7  -5  12   -0.03    0.43
  -7  -5  13   12.26    0.87
  -7  -5  14    0.78    0.56
  -7  -5  15    0.14    0.41
  -7  -5  16    0.07    0.56
  -7  -5  17    4.18    0.76
  -7  -5  18    1.09    0.58
  -7  -4  20    1.61    0.64
  -7  -4  19    0.09    0.53
  -7  -4  18    2.87    0.71
  -7  -4  17    0.15    0.43
  -7  -4  16    1.10    0.59
  -7  -4  15    2.54    0.53
  -7  -4  14    0.16    0.60
  -7  -4  13    9.24    0.67
  -7  -4  12    7.52    0.44
  -7  -4  11    5.51    0.53
  -7  -4  10    5.29    0.53
  -7  -4   9    6.41    0.42
  -7  -4   8    4.22    0.36
  -7  -4   7    0.58    0.25
  -7  -4   6   26.11    0.78
  -7  -4   5    8.64    0.43
  -7  -4   4    2.00    0.27
  -7  -4   3    0.71    0.28
  -7  -4   2   28.47    1.31
  -7  -4   1   10.66    0.46
  -7  -4   0    0.41    0.22
  -7  -4  -1    7.44    0.44
  -7  -3  -1   36.85    1.46
  -7  -3   0   40.90    1.55
  -7  -3   1    2.09    0.27
  -7  -3   2   40.71    1.60
  -7  -3   3    7.17    0.38
  -7  -3   4    5.93    0.36
  -7  -3   5   20.13    0.73
  -7  -3   6   38.18    1.56
  -7  -3   7   12.38    0.48
  -7  -3   8    1.39    0.27
  -7  -3   9    9.44    0.45
  -7  -3  10   19.21    0.68
  -7  -3  11    7.57    0.43
  -7  -3  12    7.96    0.45
  -7  -3  13   10.03    0.51
  -7  -3  14    2.04    0.31
  -7  -3  15   13.36    0.93
  -7  -3  16    8.62    0.85
  -7  -3  17    0.78    0.50
  -7  -3  18    0.85    0.47
  -7  -3  19    0.49    0.50
  -7  -3  20   -0.15    0.44
  -7  -3  21    0.62    0.50
  -7  -2  22   -0.14    0.48
  -7  -2  21   -0.13    0.42
  -7  -2  20    5.49    0.65
  -7  -2  19   -0.11    0.50
  -7  -2  18    1.01    0.42
  -7  -2  17    7.70    0.63
  -7  -2  16    0.61    0.45
  -7  -2  15    0.14    0.23
  -7  -2  14   -0.06    0.26
  -7  -2  13   -0.16    0.23
  -7  -2  12   -0.28    0.31
  -7  -2  11    6.75    0.39
  -7  -2  10   47.40    1.73
  -7  -2   9   12.62    0.48
  -7  -2   8   22.38    0.78
  -7  -2   7   13.71    0.48
  -7  -2   6    2.59    0.28
  -7  -2   5   41.17    1.69
  -7  -2   4   46.87    1.76
  -7  -2   3   11.49    0.44
  -7  -2   2    0.83    0.22
  -7  -2   1   36.94    1.49
  -7  -2   0   95.81    2.33
  -7  -2  -1    1.39    0.25
  -7  -1  -1   15.62    0.47
  -7  -1   0   49.05    1.67
  -7  -1   1    8.56    0.35
  -7  -1   2    8.96    0.34
  -7  -1   3    8.90    0.34
  -7  -1   4   50.57    1.71
  -7  -1   5    0.04    0.18
  -7  -1   6   36.89    1.55
  -7  -1   7   40.15    1.64
  -7  -1   8   97.54    2.44
  -7  -1   9   19.20    0.69
  -7  -1  10    0.27    0.29
  -7  -1  11   15.21    0.55
  -7  -1  12    0.78    0.25
  -7  -1  13    6.20    0.40
  -7  -1  14   45.59    1.50
  -7  -1  15   13.42    0.54
  -7  -1  16    0.66    0.31
  -7  -1  17    1.09    0.47
  -7  -1  18    0.22    0.45
  -7  -1  19    0.95    0.54
  -7  -1  20    2.25    0.77
  -7  -1  21    1.86    0.58
  -7  -1  22    0.07    0.42
  -7   0  22   -0.05    0.40
  -7   0  21    0.36    0.41
  -7   0  20    0.05    0.39
  -7   0  19    7.31    0.82
  -7   0  18   -0.35    0.39
  -7   0  17    0.62    0.34
  -7   0  16    0.40    0.35
  -7   0  15    7.16    0.43
  -7   0  14   -0.04    0.25
  -7   0  13   70.41    1.96
  -7   0  12    0.06    0.19
  -7   0  11   25.37    0.95
  -7   0  10   -0.39    0.19
  -7   0   9   22.42    0.88
  -7   0   8   -0.02    0.18
  -7   0   7  117.84    2.66
  -7   0   6    0.12    0.18
  -7   0   5   15.84    0.64
  -7   0   4    0.04    0.16
  -7   0   3  550.55    5.28
  -7   0   2   -0.10    0.19
  -7   0   1   37.39    1.55
  -7   0   0    0.02    0.17
  -7   0  -1    7.55    0.35
  -7   1  -1   15.12    0.65
  -7   1   0   47.59    1.82
  -7   1   1    7.86    0.36
  -7   1   2    6.94    0.36
  -7   1   3    7.72    0.37
  -7   1   4   45.18    1.74
  -7   1   5   -0.08    0.20
  -7   1   6   39.26    1.62
  -7   1   7   46.85    1.74
  -7   1   8   94.67    2.43
  -7   1   9   19.57    0.77
  -7   1  10    0.29    0.23
  -7   1  11   15.49    0.62
  -7   1  12    0.91    0.25
  -7   1  13    6.17    0.39
  -7   1  14   47.64    1.57
  -7   1  15   13.57    0.55
  -7   1  16    1.30    0.28
  -7   1  17    1.33    0.46
  -7   1  18   -0.04    0.39
  -7   1  19    1.39    0.48
  -7   1  20    0.92    0.48
  -7   1  21    2.79    0.75
  -7   1  22   -0.01    0.45
  -7   1 -15   -0.08    0.32
  -7   1 -14    1.31    0.64
  -7   1 -13   -0.30    0.43
  -7   1 -12    0.03    0.47
  -7   1 -11    1.42    0.55
  -7   1 -10    0.17    0.35
  -7   1  -9    0.40    0.23
  -7   1  -8   52.76    1.54
  -7   1  -7    0.37    0.23
  -7   1  -6    0.08    0.20
  -7   1  -5    3.38    0.34
  -7   1  -4    0.68    0.26
  -7   1  -3   -0.19    0.18
  -7   1  -2   88.99    2.35
  -7   0  -2   -0.26    0.18
  -7   0  -3    1.90    0.25
  -7   0  -4    0.00    0.21
  -7   0  -5    1.80    0.30
  -7   0  -6   -0.09    0.24
  -7   0  -7   41.62    1.52
  -7   0  -8   -0.08    0.40
  -7   0  -9    8.59    0.46
  -7   0 -10    0.16    0.18
  -7   0 -11    0.12    0.37
  -7   0 -12    0.26    0.41
  -7   0 -13    5.42    0.69
  -7   0 -14    0.16    0.35
  -7   0 -15   -0.44    0.37
  -7   0 -16    0.83    0.61
  -7  -1 -15    0.35    0.41
  -7  -1 -14    0.94    0.60
  -7  -1 -13    2.13    0.66
  -7  -1 -12    0.16    0.49
  -7  -1 -11    1.48    0.56
  -7  -1 -10   -0.15    0.42
  -7  -1  -9    1.44    0.44
  -7  -1  -8   57.93    1.59
  -7  -1  -7    0.08    0.24
  -7  -1  -6   -0.02    0.21
  -7  -1  -5    3.67    0.33
  -7  -1  -4    0.91    0.24
  -7  -1  -3    0.43    0.22
  -7  -1  -2   92.35    2.22
  -7  -2  -2   28.52    1.35
  -7  -2  -3   37.25    1.58
  -7  -2  -4    1.39    0.25
  -7  -2  -5   21.56    0.73
  -7  -2  -6   14.65    0.53
  -7  -2  -7   11.02    0.48
  -7  -2  -8    0.61    0.27
  -7  -2  -9    2.56    0.32
  -7  -2 -10    0.46    0.43
  -7  -2 -11    6.65    0.61
  -7  -2 -12    2.20    0.58
  -7  -2 -13    6.02    0.77
  -7  -2 -14   -0.29    0.42
  -7  -2 -15    0.90    0.50
  -7  -3 -14    0.74    0.56
  -7  -3 -13    0.07    0.51
  -7  -3 -12    4.51    0.63
  -7  -3 -11    3.63    0.66
  -7  -3 -10   11.81    0.78
  -7  -3  -9   14.89    0.82
  -7  -3  -8    2.92    0.32
  -7  -3  -7    6.52    0.41
  -7  -3  -6   25.54    1.24
  -7  -3  -5    0.26    0.24
  -7  -3  -4   26.74    0.80
  -7  -3  -3    4.71    0.34
  -7  -3  -2   36.94    1.44
  -7  -4  -2   -0.16    0.23
  -7  -4  -3    3.44    0.31
  -7  -4  -4   11.53    0.49
  -7  -4  -5    3.20    0.35
  -7  -4  -6   12.21    0.50
  -7  -4  -7    2.99    0.62
  -7  -4  -8    0.27    0.47
  -7  -4  -9    0.61    0.69
  -7  -4 -10    1.51    0.53
  -7  -4 -11    7.51    0.86
  -7  -4 -12    0.09    0.43
  -7  -4 -13    1.22    0.61
  -7  -5 -12    0.66    0.61
  -7  -5 -11    0.76    0.51
  -7  -5 -10    0.50    0.47
  -7  -5  -9    1.89    0.65
  -7  -5  -8    1.17    0.48
  -7  -5  -7    1.66    0.55
  -7  -5  -6   -0.35    0.39
  -7  -5  -5    0.39    0.50
  -7  -5  -4    2.50    0.62
  -7  -5  -3   10.21    0.76
  -7  -5  -2    3.56    0.34
  -7  -6  -2   -0.13    0.58
  -7  -6  -3    0.70    0.52
  -7  -6  -4   12.10    0.92
  -7  -6  -5    0.51    0.42
  -7  -6  -6    0.13    0.38
  -7  -6  -7    0.26    0.44
  -7  -6  -8    1.26    0.51
  -7  -6  -9    1.78    0.58
  -7  -7  -6    3.29    0.66
  -7  -7  -5    0.39    0.49
  -7  -7  -4    7.26    0.93
  -7  -7  -3    0.39    0.62
  -7  -7  -2    0.40    0.49
  -6   1  -1   43.07    1.76
  -6   1   0    0.94    0.21
  -6   1   1    0.01    0.15
  -6   1   2    0.46    0.19
  -6   1   3   91.87    2.31
  -6   1   4   13.78    0.54
  -6   1   5    2.90    0.25
  -6   1   6    1.62    0.22
  -6   1   7    6.54    0.34
  -6   1   8   11.98    0.46
  -6   1   9  332.87    4.32
  -6   1  10    4.08    0.33
  -6   1  11    0.34    0.22
  -6   1  12    6.52    0.38
  -6   1  13    4.06    0.43
  -6   1  14    2.98    0.34
  -6   1  15   22.48    0.75
  -6   1  16    6.50    0.41
  -6   1  17    0.08    0.50
  -6   1  18    0.56    0.41
  -6   1  19    8.70    0.82
  -6   1  20   -0.08    0.45
  -6   1  21   -0.04    0.40
  -6   1  22   -0.04    0.49
  -6   0  22    0.05    0.41
  -6   0  21   -0.08    0.40
  -6   0  20    3.39    0.63
  -6   0  19   -0.04    0.41
  -6   0  18   28.88    1.13
  -6   0  17   -0.11    0.47
  -6   0  16    0.74    0.29
  -6   0  15   -0.39    0.22
  -6   0  14   42.66    1.47
  -6   0  13    0.06    0.23
  -6   0  12    4.02    0.33
  -6   0  11    0.26    0.20
  -6   0  10   23.74    0.86
  -6   0   9    0.35    0.20
  -6   0   8  354.37    4.52
  -6   0   7   -0.19    0.19
  -6   0   6   74.71    2.13
  -6   0   5   -0.09    0.17
  -6   0   4  174.25    2.96
  -6   0   3    0.00    0.15
  -6   0   2    1.88    0.21
  -6   0   1   -0.04    0.18
  -6   0   0    2.25    0.22
  -6   0  -1    0.00    0.16
  -6  -1  -1   48.59    1.68
  -6  -1   0    1.12    0.20
  -6  -1   1    0.02    0.17
  -6  -1   2    1.38    0.21
  -6  -1   3   97.36    2.31
  -6  -1   4   16.62    0.54
  -6  -1   5    2.66    0.25
  -6  -1   6    1.30    0.24
  -6  -1   7    7.55    0.35
  -6  -1   8   12.90    0.46
  -6  -1   9  332.20    4.31
  -6  -1  10    4.68    0.42
  -6  -1  11    0.22    0.23
  -6  -1  12    7.55    0.43
  -6  -1  13    2.96    0.33
  -6  -1  14    3.49    0.36
  -6  -1  15   22.62    0.73
  -6  -1  16    5.48    0.40
  -6  -1  17   -0.11    0.57
  -6  -1  18   -0.48    0.50
  -6  -1  19   10.66    0.85
  -6  -1  20    0.03    0.37
  -6  -1  21   -0.42    0.43
  -6  -1  22   -0.33    0.48
  -6  -2  21   -0.01    0.41
  -6  -2  20    0.93    0.48
  -6  -2  19    2.65    0.63
  -6  -2  18    0.37    0.53
  -6  -2  17    0.05    0.42
  -6  -2  16   10.71    0.72
  -6  -2  15    9.79    0.50
  -6  -2  14    4.83    0.38
  -6  -2  13   17.36    0.62
  -6  -2  12    7.12    0.42
  -6  -2  11   26.69    0.86
  -6  -2  10   16.88    0.63
  -6  -2   9   18.87    0.63
  -6  -2   8    3.36    0.32
  -6  -2   7   34.92    1.60
  -6  -2   6   68.33    2.06
  -6  -2   5   13.94    0.58
  -6  -2   4    3.55    0.28
  -6  -2   3   17.09    0.66
  -6  -2   2   12.14    0.47
  -6  -2   1   31.57    1.40
  -6  -2   0   16.83    0.59
  -6  -2  -1    0.14    0.21
  -6  -3  -1    5.92    0.37
  -6  -3   0   26.09    0.80
  -6  -3   1   22.23    0.75
  -6  -3   2   16.23    0.63
  -6  -3   3    0.49    0.25
  -6  -3   4    0.43    0.23
  -6  -3   5   27.92    0.94
  -6  -3   6   11.29    0.45
  -6  -3   7  100.02    2.39
  -6  -3   8   37.04    1.56
  -6  -3   9    0.73    0.27
  -6  -3  10    7.46    0.44
  -6  -3  11   57.79    1.67
  -6  -3  12    9.08    0.45
  -6  -3  13    8.35    0.45
  -6  -3  14    2.74    0.34
  -6  -3  15    6.59    0.65
  -6  -3  16    8.25    0.82
  -6  -3  17   11.61    0.81
  -6  -3  18    0.59    0.52
  -6  -3  19    2.02    0.48
  -6  -3  20   -0.41    0.55
  -6  -3  21    1.40    0.62
  -6  -4  20    1.88    0.68
  -6  -4  19    0.05    0.53
  -6  -4  18    1.01    0.50
  -6  -4  17    0.83    0.47
  -6  -4  16    3.94    0.68
  -6  -4  15    6.70    0.75
  -6  -4  14    2.06    0.50
  -6  -4  13    1.16    0.40
  -6  -4  12    4.14    0.35
  -6  -4  11    4.10    0.37
  -6  -4  10    5.28    0.40
  -6  -4   9   14.92    0.53
  -6  -4   8   18.09    0.61
  -6  -4   7    2.13    0.28
  -6  -4   6   21.32    0.71
  -6  -4   5   14.60    0.52
  -6  -4   4   12.78    0.48
  -6  -4   3    2.77    0.29
  -6  -4   2    4.21    0.33
  -6  -4   1   -0.44    0.36
  -6  -4   0    8.34    0.41
  -6  -4  -1   23.10    0.73
  -6  -5  -1    0.86    0.26
  -6  -5   0   27.99    0.73
  -6  -5   1    1.63    0.30
  -6  -5   2    1.92    0.27
  -6  -5   3    0.08    0.24
  -6  -5   4    4.50    0.38
  -6  -5   5    4.91    0.40
  -6  -5   6   10.69    0.49
  -6  -5   7   -0.11    0.31
  -6  -5   8    0.21    0.26
  -6  -5   9    0.42    0.27
  -6  -5  10   21.87    1.09
  -6  -5  11    0.21    0.49
  -6  -5  12    0.51    0.51
  -6  -5  13    1.77    0.50
  -6  -5  14    0.10    0.51
  -6  -5  15    0.27    0.43
  -6  -5  16    4.34    0.66
  -6  -5  17    0.98    0.48
  -6  -5  18   -0.23    0.48
  -6  -6  16    0.28    0.62
  -6  -6  15    1.39    0.63
  -6  -6  14    0.35    0.53
  -6  -6  13    1.33    0.57
  -6  -6  12    3.96    0.64
  -6  -6  11    0.52    0.65
  -6  -6  10    4.88    0.62
  -6  -6   9    1.64    0.58
  -6  -6   8    4.95    0.61
  -6  -6   7    0.11    0.40
  -6  -6   6    9.08    0.71
  -6  -6   5    5.71    0.61
  -6  -6   4    2.68    0.49
  -6  -6   3    0.04    0.45
  -6  -6   2    5.57    0.56
  -6  -6   1    0.61    0.47
  -6  -6   0    3.93    0.65
  -6  -6  -1    7.08    0.66
  -6  -7  -1    0.69    0.43
  -6  -7   0    0.19    0.54
  -6  -7   1    3.74    0.63
  -6  -7   2    2.40    0.56
  -6  -7   3   -0.52    0.42
  -6  -7   4   -0.14    0.38
  -6  -7   5    5.13    0.69
  -6  -7   6    0.46    0.70
  -6  -7   7    0.76    0.51
  -6  -7   8    1.00    0.45
  -6  -7   9   -0.08    0.52
  -6  -7  10   -0.11    0.47
  -6  -7  11    0.28    0.58
  -6  -7  12    0.31    0.55
  -6  -7  13    2.57    0.67
  -6  -8   7    1.48    0.58
  -6  -8   6    0.69    0.56
  -6  -8   5    0.21    0.55
  -6  -8   4    0.37    0.60
  -6  -8   3   -0.22    0.50
  -6  -8   2    0.48    0.49
  -6  -8   1    0.98    0.52
  -6  -8   0   -0.32    0.47
  -6  -8  -1    0.76    0.54
  -6  -8  -2    1.28    0.61
  -6  -7  -7    0.71    0.47
  -6  -7  -6    0.52    0.73
  -6  -7  -5    2.29    0.58
  -6  -7  -4    0.62    0.45
  -6  -7  -3    2.07    0.48
  -6  -7  -2   -0.07    0.73
  -6  -6  -2    0.54    0.50
  -6  -6  -3    0.57    0.43
  -6  -6  -4    3.56    0.69
  -6  -6  -5    3.47    0.61
  -6  -6  -6    2.88    0.68
  -6  -6  -7    0.98    0.50
  -6  -6  -8    0.68    0.45
  -6  -6  -9    0.68    0.62
  -6  -6 -10    1.02    0.54
  -6  -5 -12    3.06    0.65
  -6  -5 -11    0.15    0.53
  -6  -5 -10    0.72    0.61
  -6  -5  -9    0.62    0.45
  -6  -5  -8    0.28    0.49
  -6  -5  -7    0.68    0.50
  -6  -5  -6   16.42    0.87
  -6  -5  -5    1.48    0.50
  -6  -5  -4    0.83    0.25
  -6  -5  -3    0.67    0.29
  -6  -5  -2    1.15    0.29
  -6  -4  -2    0.73    0.22
  -6  -4  -3    8.88    0.43
  -6  -4  -4   31.04    1.18
  -6  -4  -5    8.45    0.43
  -6  -4  -6    1.67    0.29
  -6  -4  -7   -0.09    0.23
  -6  -4  -8    9.73    0.70
  -6  -4  -9    3.70    0.64
  -6  -4 -10    2.95    0.81
  -6  -4 -11    2.13    0.62
  -6  -4 -12    0.01    0.55
  -6  -4 -13    0.46    0.43
  -6  -4 -14    1.86    0.54
  -6  -3 -15    0.61    0.51
  -6  -3 -14   -0.05    0.44
  -6  -3 -13    1.61    0.53
  -6  -3 -12    6.15    0.71
  -6  -3 -11    1.50    0.47
  -6  -3 -10    3.57    0.62
  -6  -3  -9    0.19    0.21
  -6  -3  -8    5.01    0.38
  -6  -3  -7    1.09    0.26
  -6  -3  -6    0.96    0.30
  -6  -3  -5   51.51    1.58
  -6  -3  -4   26.70    0.82
  -6  -3  -3   27.55    1.32
  -6  -3  -2    1.83    0.28
  -6  -2  -2    9.92    0.40
  -6  -2  -3   24.45    0.79
  -6  -2  -4   32.58    1.34
  -6  -2  -5    4.57    0.34
  -6  -2  -6    2.12    0.38
  -6  -2  -7    0.04    0.19
  -6  -2  -8   -0.11    0.22
  -6  -2  -9   14.68    0.54
  -6  -2 -10    7.62    0.41
  -6  -2 -11    0.34    0.42
  -6  -2 -12   -0.02    0.44
  -6  -2 -13    0.31    0.43
  -6  -2 -14    0.62    0.69
  -6  -2 -15    0.81    0.68
  -6  -2 -16    1.63    0.47
  -6  -1 -16    0.22    0.49
  -6  -1 -15    0.56    0.70
  -6  -1 -14    5.38    0.77
  -6  -1 -13    0.73    0.56
  -6  -1 -12    8.48    0.70
  -6  -1 -11    7.70    0.78
  -6  -1 -10    0.05    0.25
  -6  -1  -9    0.47    0.24
  -6  -1  -8   11.05    0.48
  -6  -1  -7   52.00    1.73
  -6  -1  -6    2.49    0.28
  -6  -1  -5    8.84    0.40
  -6  -1  -4   87.40    2.24
  -6  -1  -3   43.17    1.66
  -6  -1  -2  100.09    2.39
  -6   0  -2  437.01    4.89
  -6   0  -3   -0.12    0.16
  -6   0  -4    0.14    0.20
  -6   0  -5    0.15    0.20
  -6   0  -6  115.22    2.51
  -6   0  -7    0.07    0.21
  -6   0  -8   22.85    0.78
  -6   0  -9    0.05    0.20
  -6   0 -10    0.19    0.23
  -6   0 -11   -0.05    0.23
  -6   0 -12   34.75    1.20
  -6   0 -13    0.41    0.42
  -6   0 -14    0.06    0.45
  -6   0 -15   -0.04    0.38
  -6   0 -16    0.30    0.56
  -6   1 -16    0.02    0.49
  -6   1 -15    0.13    0.47
  -6   1 -14    5.72    0.74
  -6   1 -13    1.36    0.48
  -6   1 -12    8.41    0.79
  -6   1 -11    5.51    0.63
  -6   1 -10    0.60    0.28
  -6   1  -9    0.11    0.25
  -6   1  -8    9.26    0.48
  -6   1  -7   52.99    1.75
  -6   1  -6    1.42    0.32
  -6   1  -5    8.76    0.44
  -6   1  -4   89.85    2.30
  -6   1  -3   41.97    1.66
  -6   1  -2   97.82    2.45
  -5  -8   8    3.72    0.72
  -5  -8   7    0.29    0.72
  -5  -8   6    1.10    0.62
  -5  -8   5    0.08    0.67
  -5  -8   4   -0.18    0.56
  -5  -8   3    0.40    0.76
  -5  -8   2    1.66    0.60
  -5  -8   1    0.88    0.59
  -5  -8   0    0.07    0.54
  -5  -8  -1    0.28    0.56
  -5  -7  -1    0.26    0.52
  -5  -7   0    0.27    0.49
  -5  -7   1   -0.34    0.53
  -5  -7   2    0.70    0.47
  -5  -7   3    2.76    0.59
  -5  -7   4    0.79    0.57
  -5  -7   5    0.91    0.47
  -5  -7   6    0.47    0.40
  -5  -7   7    0.04    0.52
  -5  -7   8    0.11    0.60
  -5  -7   9    0.63    0.49
  -5  -7  10    0.58    0.52
  -5  -7  11    0.48    0.51
  -5  -7  12    1.29    0.53
  -5  -7  13    0.23    0.60
  -5  -6  16    0.88    0.63
  -5  -6  15    0.36    0.46
  -5  -6  14    1.11    0.41
  -5  -6  13   -0.10    0.49
  -5  -6  12    0.46    0.52
  -5  -6  11    1.67    0.58
  -5  -6  10    7.14    0.77
  -5  -6   9    0.23    0.45
  -5  -6   8    0.07    0.62
  -5  -6   7    0.73    0.63
  -5  -6   6    6.08    0.64
  -5  -6   5    0.04    0.40
  -5  -6   4    1.76    0.53
  -5  -6   3   -0.09    0.55
  -5  -6   2    1.43    0.48
  -5  -6   1    0.97    0.53
  -5  -6   0    1.54    0.47
  -5  -6  -1    3.82    0.59
  -5  -5  -1    8.98    0.45
  -5  -5   0   -0.30    0.21
  -5  -5   1   17.40    0.57
  -5  -5   2    0.07    0.23
  -5  -5   3    1.78    0.28
  -5  -5   4   -0.24    0.26
  -5  -5   5   32.81    1.29
  -5  -5   6    1.71    0.30
  -5  -5   7    1.74    0.31
  -5  -5   8    1.78    0.30
  -5  -5   9   -0.26    0.26
  -5  -5  10    0.59    0.25
  -5  -5  11   19.62    0.89
  -5  -5  12    0.10    0.50
  -5  -5  13    1.78    0.44
  -5  -5  14    0.95    0.43
  -5  -5  15    0.58    0.47
  -5  -5  16    0.62    0.64
  -5  -5  17    3.80    0.62
  -5  -5  18    0.01    0.51
  -5  -4  19    0.64    0.54
  -5  -4  18    0.52    0.49
  -5  -4  17    1.47    0.52
  -5  -4  16   10.10    0.77
  -5  -4  15    0.03    0.43
  -5  -4  14    0.36    0.45
  -5  -4  13    3.00    0.56
  -5  -4  12    0.06    0.22
  -5  -4  11    0.14    0.24
  -5  -4  10   19.42    0.61
  -5  -4   9    1.23    0.26
  -5  -4   8    0.79    0.34
  -5  -4   7   -0.12    0.21
  -5  -4   6   17.69    0.58
  -5  -4   5    0.62    0.24
  -5  -4   4   11.00    0.45
  -5  -4   3    0.33    0.23
  -5  -4   2    0.00    0.20
  -5  -4   1    0.08    0.19
  -5  -4   0   32.72    1.41
  -5  -4  -1   -0.03    0.24
  -5  -3  -1    3.35    0.30
  -5  -3   0   19.39    0.67
  -5  -3   1    1.11    0.24
  -5  -3   2   19.65    0.71
  -5  -3   3    5.40    0.33
  -5  -3   4   21.49    0.77
  -5  -3   5   19.81    0.67
  -5  -3   6    6.18    0.36
  -5  -3   7   50.47    1.80
  -5  -3   8    0.19    0.27
  -5  -3   9    4.87    0.37
  -5  -3  10    1.49    0.26
  -5  -3  11   16.43    0.56
  -5  -3  12    3.83    0.35
  -5  -3  13    1.03    0.26
  -5  -3  14    1.26    0.29
  -5  -3  15    8.42    0.80
  -5  -3  16    1.92    0.51
  -5  -3  17   -0.09    0.53
  -5  -3  18    6.07    0.71
  -5  -3  19    0.16    0.57
  -5  -3  20    0.39    0.62
  -5  -2  21    0.11    0.44
  -5  -2  20   -0.22    0.38
  -5  -2  19    4.59    0.65
  -5  -2  18    8.04    0.72
  -5  -2  17    8.08    0.71
  -5  -2  16    1.48    0.48
  -5  -2  15   14.04    0.54
  -5  -2  14   25.13    1.17
  -5  -2  13    0.59    0.27
  -5  -2  12   36.48    1.56
  -5  -2  11    5.02    0.35
  -5  -2  10    0.59    0.24
  -5  -2   9    0.53    0.24
  -5  -2   8   49.82    1.85
  -5  -2   7    1.54    0.26
  -5  -2   6   10.24    0.38
  -5  -2   5    4.83    0.29
  -5  -2   4   53.94    1.85
  -5  -2   3    0.55    0.21
  -5  -2   2   89.47    2.22
  -5  -2   1    5.09    0.28
  -5  -2   0    4.59    0.28
  -5  -2  -1    0.46    0.19
  -5  -1  -1   61.57    1.78
  -5  -1   0   -0.08    0.15
  -5  -1   1   96.72    2.16
  -5  -1   2    8.43    0.29
  -5  -1   3  170.15    2.85
  -5  -1   4   60.08    1.76
  -5  -1   5   42.33    1.55
  -5  -1   6   65.02    1.97
  -5  -1   7  239.38    3.65
  -5  -1   8    7.56    0.38
  -5  -1   9   34.41    1.52
  -5  -1  10    7.54    0.39
  -5  -1  11    2.23    0.28
  -5  -1  12    0.35    0.23
  -5  -1  13   22.74    0.79
  -5  -1  14    1.92    0.30
  -5  -1  15   18.94    0.63
  -5  -1  16   10.57    0.48
  -5  -1  17    3.73    0.57
  -5  -1  18    8.95    0.76
  -5  -1  19   -0.15    0.54
  -5  -1  20    2.67    0.57
  -5  -1  21    0.03    0.40
  -5  -1  22    0.16    0.49
  -5   0  22   -0.13    0.37
  -5   0  21    0.90    0.45
  -5   0  20    0.39    0.42
  -5   0  19    0.71    0.43
  -5   0  18    0.35    0.49
  -5   0  17   20.88    1.00
  -5   0  16   -0.17    0.22
  -5   0  15   28.11    1.18
  -5   0  14    0.15    0.28
  -5   0  13    7.64    0.44
  -5   0  12    0.05    0.21
  -5   0  11   38.35    1.58
  -5   0  10    0.15    0.20
  -5   0   9   29.38    1.51
  -5   0   8    0.45    0.19
  -5   0   7   28.89    0.91
  -5   0   6   -0.19    0.17
  -5   0   5    0.10    0.15
  -5   0   4    0.05    0.16
  -5   0   3    7.04    0.29
  -5   0   2    0.23    0.18
  -5   0   1    1.96    0.21
  -5   0   0    0.03    0.14
  -5   0  -1   56.58    1.73
  -5   1  -1   56.16    1.85
  -5   1   0   -0.02    0.14
  -5   1   1   97.75    2.20
  -5   1   2    7.30    0.30
  -5   1   3  165.75    2.85
  -5   1   4   61.06    1.83
  -5   1   5   37.96    1.54
  -5   1   6   69.57    1.99
  -5   1   7  240.16    3.61
  -5   1   8    7.49    0.36
  -5   1   9   30.89    1.47
  -5   1  10    8.04    0.42
  -5   1  11    2.28    0.29
  -5   1  12    0.38    0.21
  -5   1  13   23.76    0.87
  -5   1  14    2.18    0.33
  -5   1  15   18.24    0.62
  -5   1  16    9.90    0.48
  -5   1  17    4.62    0.60
  -5   1  18    9.23    0.75
  -5   1  19    0.01    0.37
  -5   1  20    1.15    0.54
  -5   1  21   -0.11    0.49
  -5   1  22    0.00    0.39
  -5   1 -17   -0.36    0.32
  -5   1 -16    0.32    0.44
  -5   1 -15    0.29    0.42
  -5   1 -14    0.06    0.36
  -5   1 -13   -0.21    0.41
  -5   1 -12    0.49    0.38
  -5   1 -11    5.83    0.41
  -5   1 -10   11.66    0.52
  -5   1  -9   11.59    0.50
  -5   1  -8    3.89    0.37
  -5   1  -7    0.86    0.27
  -5   1  -6    1.05    0.31
  -5   1  -5   12.76    0.51
  -5   1  -4   43.87    1.68
  -5   1  -3  116.22    2.65
  -5   1  -2   92.14    2.34
  -5   0  -2   -0.43    0.13
  -5   0  -3   21.88    0.79
  -5   0  -4   -0.24    0.19
  -5   0  -5   24.07    0.81
  -5   0  -6   -0.32    0.23
  -5   0  -7   21.59    0.84
  -5   0  -8    0.03    0.29
  -5   0  -9    3.06    0.36
  -5   0 -10   -0.17    0.21
  -5   0 -11   -0.08    0.23
  -5   0 -12   -0.19    0.42
  -5   0 -13    7.17    0.73
  -5   0 -14   -0.08    0.46
  -5   0 -15    1.27    0.46
  -5   0 -16   -0.14    0.34
  -5   0 -17    3.72    0.62
  -5  -1 -17   -0.09    0.41
  -5  -1 -16    0.55    0.48
  -5  -1 -15    0.72    0.56
  -5  -1 -14    0.42    0.44
  -5  -1 -13   -0.34    0.58
  -5  -1 -12    0.39    0.42
  -5  -1 -11    6.13    0.40
  -5  -1 -10   12.11    0.51
  -5  -1  -9   12.99    0.51
  -5  -1  -8    6.40    0.48
  -5  -1  -7    1.18    0.27
  -5  -1  -6    0.90    0.23
  -5  -1  -5   13.77    0.58
  -5  -1  -4   47.17    1.75
  -5  -1  -3  131.02    2.66
  -5  -1  -2   96.38    2.32
  -5  -2  -2    5.05    0.30
  -5  -2  -3   12.35    0.43
  -5  -2  -4    3.15    0.29
  -5  -2  -5    0.50    0.23
  -5  -2  -6    7.63    0.39
  -5  -2  -7    3.89    0.33
  -5  -2  -8   65.73    1.70
  -5  -2  -9    0.31    0.24
  -5  -2 -10   25.50    1.02
  -5  -2 -11   -0.43    0.52
  -5  -2 -12    6.92    0.78
  -5  -2 -13    4.71    0.63
  -5  -2 -14    5.43    0.66
  -5  -2 -15    0.03    0.46
  -5  -2 -16   -0.06    0.39
  -5  -3 -16   -0.12    0.56
  -5  -3 -15    0.06    0.57
  -5  -3 -14    2.05    0.70
  -5  -3 -13    0.78    0.46
  -5  -3 -12    2.80    0.53
  -5  -3 -11    0.14    0.35
  -5  -3 -10    0.16    0.35
  -5  -3  -9    1.78    0.31
  -5  -3  -8    0.93    0.27
  -5  -3  -7    0.82    0.32
  -5  -3  -6   13.09    0.54
  -5  -3  -5   12.07    0.58
  -5  -3  -4    1.33    0.32
  -5  -3  -3   33.89    1.46
  -5  -3  -2    4.34    0.31
  -5  -4  -2    0.88    0.24
  -5  -4  -3    2.77    0.35
  -5  -4  -4    2.13    0.32
  -5  -4  -5    0.43    0.25
  -5  -4  -6   17.50    0.55
  -5  -4  -7    0.16    0.24
  -5  -4  -8    0.46    0.24
  -5  -4  -9    0.47    0.39
  -5  -4 -10   16.59    0.90
  -5  -4 -11   -0.13    0.46
  -5  -4 -12    6.63    0.73
  -5  -4 -13    1.07    0.55
  -5  -4 -14    0.73    0.45
  -5  -4 -15    0.01    0.56
  -5  -5 -13    0.61    0.66
  -5  -5 -12    1.01    0.55
  -5  -5 -11    2.61    0.77
  -5  -5 -10    0.73    0.51
  -5  -5  -9    0.72    0.48
  -5  -5  -8    0.38    0.56
  -5  -5  -7    2.07    0.48
  -5  -5  -6    0.39    0.52
  -5  -5  -5   15.17    0.52
  -5  -5  -4    0.03    0.23
  -5  -5  -3    0.34    0.26
  -5  -5  -2    4.61    0.36
  -5  -6  -2    3.18    0.56
  -5  -6  -3    0.41    0.36
  -5  -6  -4   -0.73    0.42
  -5  -6  -5    0.56    0.53
  -5  -6  -6    3.11    0.57
  -5  -6  -7    4.01    0.58
  -5  -6  -8    0.03    0.35
  -5  -6  -9   -0.28    0.52
  -5  -6 -10    1.20    0.49
  -5  -6 -11    0.48    0.55
  -5  -7  -8    1.31    0.62
  -5  -7  -7    0.22    0.46
  -5  -7  -6    2.07    0.56
  -5  -7  -5    0.20    0.40
  -5  -7  -4   -0.15    0.56
  -5  -7  -3    0.12    0.67
  -5  -7  -2    0.12    0.42
  -5  -8  -2    0.74    0.89
  -5  -8  -3    0.24    0.56
  -4   1  -1   16.12    0.65
  -4   1   0   44.14    1.53
  -4   1   1   10.37    0.43
  -4   1   2    5.59    0.25
  -4   1   3    9.42    0.39
  -4   1   4   49.05    1.63
  -4   1   5    0.29    0.15
  -4   1   6    5.78    0.28
  -4   1   7  124.29    2.63
  -4   1   8    0.75    0.22
  -4   1   9   30.70    1.48
  -4   1  10    0.69    0.22
  -4   1  11    3.03    0.39
  -4   1  12    4.21    0.33
  -4   1  13    3.13    0.32
  -4   1  14    0.92    0.29
  -4   1  15    8.66    0.44
  -4   1  16    1.79    0.30
  -4   1  17   10.46    0.78
  -4   1  18    1.25    0.54
  -4   1  19    0.27    0.44
  -4   1  20    2.65    0.72
  -4   1  21   -0.19    0.44
  -4   0  22    2.15    0.56
  -4   0  21    0.17    0.43
  -4   0  20    1.88    0.48
  -4   0  19   -0.17    0.43
  -4   0  18    6.92    0.66
  -4   0  17    0.20    0.34
  -4   0  16    2.79    0.36
  -4   0  15    0.05    0.23
  -4   0  14    0.93    0.26
  -4   0  13    0.15    0.22
  -4   0  12   31.99    1.42
  -4   0  11    0.06    0.21
  -4   0  10   55.23    1.89
  -4   0   9   -0.19    0.19
  -4   0   8    8.37    0.36
  -4   0   7    0.04    0.17
  -4   0   6   22.31    0.86
  -4   0   5   -0.21    0.16
  -4   0   4  117.40    2.31
  -4   0   3   -0.07    0.14
  -4   0   2  355.06    3.55
  -4   0   1    0.01    0.14
  -4   0   0  198.16    2.82
  -4   0  -1   -0.34    0.20
  -4  -1  -1   16.14    0.54
  -4  -1   0   42.08    1.46
  -4  -1   1   11.95    0.36
  -4  -1   2    6.24    0.25
  -4  -1   3   11.27    0.33
  -4  -1   4   47.33    1.66
  -4  -1   5    0.11    0.16
  -4  -1   6    4.80    0.29
  -4  -1   7  117.16    2.55
  -4  -1   8    0.99    0.22
  -4  -1   9   29.99    1.44
  -4  -1  10    0.14    0.21
  -4  -1  11    3.35    0.30
  -4  -1  12    3.01    0.33
  -4  -1  13    2.50    0.34
  -4  -1  14    1.01    0.28
  -4  -1  15    8.87    0.46
  -4  -1  16    2.32    0.31
  -4  -1  17    8.97    0.69
  -4  -1  18    1.27    0.48
  -4  -1  19    0.40    0.44
  -4  -1  20    4.02    0.62
  -4  -1  21    0.53    0.49
  -4  -2  21    0.12    0.40
  -4  -2  20    1.27    0.59
  -4  -2  19    1.62    0.51
  -4  -2  18    0.82    0.48
  -4  -2  17    4.67    0.59
  -4  -2  16    0.10    0.39
  -4  -2  15   -0.30    0.23
  -4  -2  14    0.66    0.28
  -4  -2  13   17.37    0.58
  -4  -2  12    5.54    0.39
  -4  -2  11    0.85    0.27
  -4  -2  10   36.38    1.55
  -4  -2   9    2.79    0.29
  -4  -2   8    0.06    0.20
  -4  -2   7   17.38    0.57
  -4  -2   6   40.18    1.55
  -4  -2   5   42.65    1.71
  -4  -2   4    5.01    0.27
  -4  -2   3    5.78    0.28
  -4  -2   2    0.05    0.16
  -4  -2   1   43.46    1.59
  -4  -2   0    0.25    0.18
  -4  -2  -1   22.41    0.76
  -4  -3  -1   51.34    1.74
  -4  -3   0    6.38    0.33
  -4  -3   1   13.45    0.43
  -4  -3   2    3.35    0.27
  -4  -3   3    0.44    0.21
  -4  -3   4    0.71    0.22
  -4  -3   5   18.77    0.64
  -4  -3   6   24.34    0.86
  -4  -3   7    0.30    0.23
  -4  -3   8   41.74    1.67
  -4  -3   9   19.84    0.60
  -4  -3  10    2.64    0.31
  -4  -3  11    3.55    0.33
  -4  -3  12    0.41    0.25
  -4  -3  13    1.46    0.29
  -4  -3  14    1.70    0.31
  -4  -3  15    1.22    0.49
  -4  -3  16    0.08    0.40
  -4  -3  17    0.50    0.41
  -4  -3  18    0.47    0.45
  -4  -3  19    1.96    0.70
  -4  -3  20    0.61    0.45
  -4  -4  19    0.56    0.61
  -4  -4  18   -0.22    0.39
  -4  -4  17    4.97    0.68
  -4  -4  16    1.45    0.43
  -4  -4  15   -0.47    0.37
  -4  -4  14    2.80    0.58
  -4  -4  13   13.75    0.80
  -4  -4  12    6.76    0.41
  -4  -4  11    2.60    0.31
  -4  -4  10    9.30    0.45
  -4  -4   9   10.02    0.48
  -4  -4   8   16.26    0.55
  -4  -4   7   26.11    0.81
  -4  -4   6    0.72    0.28
  -4  -4   5   -0.18    0.20
  -4  -4   4    4.41    0.35
  -4  -4   3    1.65    0.27
  -4  -4   2    0.29    0.23
  -4  -4   1    1.44    0.24
  -4  -4   0    2.30    0.26
  -4  -4  -1    0.52    0.22
  -4  -5  -1   -0.19    0.21
  -4  -5   0    5.21    0.37
  -4  -5   1    1.05    0.25
  -4  -5   2    0.09    0.20
  -4  -5   3    0.36    0.31
  -4  -5   4    0.97    0.27
  -4  -5   5    4.24    0.35
  -4  -5   6    2.22    0.33
  -4  -5   7    0.18    0.24
  -4  -5   8    0.62    0.25
  -4  -5   9    2.83    0.32
  -4  -5  10   -0.21    0.23
  -4  -5  11    0.42    0.50
  -4  -5  12    1.82    0.49
  -4  -5  13    4.78    0.68
  -4  -5  14   -0.23    0.40
  -4  -5  15   -0.22    0.46
  -4  -5  16   -0.02    0.58
  -4  -5  17   -0.38    0.50
  -4  -5  18    1.40    0.52
  -4  -6  16   -0.35    0.52
  -4  -6  15    0.42    0.61
  -4  -6  14    0.28    0.63
  -4  -6  13    0.18    0.53
  -4  -6  12    0.99    0.57
  -4  -6  11    6.75    0.73
  -4  -6  10    4.30    0.57
  -4  -6   9    0.06    0.49
  -4  -6   8    3.21    0.58
  -4  -6   7   -0.24    0.56
  -4  -6   6    0.10    0.50
  -4  -6   5    4.57    0.60
  -4  -6   4   -0.37    0.42
  -4  -6   3    2.14    0.30
  -4  -6   2    2.12    0.37
  -4  -6   1    1.20    0.27
  -4  -6   0    1.05    0.28
  -4  -6  -1    0.51    0.45
  -4  -7  -1    2.52    0.56
  -4  -7   0    1.25    0.42
  -4  -7   1    0.59    0.54
  -4  -7   2   -0.05    0.55
  -4  -7   3    2.80    0.61
  -4  -7   4    1.05    0.50
  -4  -7   5    0.56    0.42
  -4  -7   6    1.21    0.56
  -4  -7   7   -0.15    0.41
  -4  -7   8   -0.29    0.39
  -4  -7   9    1.04    0.50
  -4  -7  10    0.80    0.52
  -4  -7  11    2.41    0.52
  -4  -7  12    1.09    0.65
  -4  -7  13   -0.22    0.45
  -4  -8   8    0.34    0.45
  -4  -8   7    0.86    0.49
  -4  -8   6    0.55    0.51
  -4  -8   5    0.09    0.46
  -4  -8   4   -0.50    0.56
  -4  -8   3   -0.32    0.50
  -4  -8   2    0.11    0.44
  -4  -8   1    0.54    0.45
  -4  -8   0    0.45    0.50
  -4  -8  -1   -0.07    0.71
  -4  -8  -2    1.94    0.67
  -4  -8  -3    0.75    0.55
  -4  -8  -4    0.18    0.76
  -4  -7  -9    0.42    0.67
  -4  -7  -8   -0.38    0.56
  -4  -7  -7    1.37    0.50
  -4  -7  -6   -0.25    0.68
  -4  -7  -5   -0.03    0.53
  -4  -7  -4    0.43    0.53
  -4  -7  -3    0.44    0.45
  -4  -7  -2   -0.66    0.39
  -4  -6  -2    0.72    0.43
  -4  -6  -3    1.78    0.45
  -4  -6  -4    1.20    0.49
  -4  -6  -5    0.48    0.51
  -4  -6  -6    1.79    0.57
  -4  -6  -7    1.40    0.49
  -4  -6  -8    3.14    0.54
  -4  -6  -9    2.18    0.56
  -4  -6 -10   -0.25    0.57
  -4  -6 -11    0.41    0.44
  -4  -6 -12    0.99    0.51
  -4  -5 -14    0.84    0.57
  -4  -5 -13    0.81    0.49
  -4  -5 -12   -0.11    0.47
  -4  -5 -11   -0.10    0.63
  -4  -5 -10    2.03    0.73
  -4  -5  -9    5.15    0.60
  -4  -5  -8    1.73    0.44
  -4  -5  -7   -0.11    0.45
  -4  -5  -6    0.00    0.24
  -4  -5  -5    1.42    0.29
  -4  -5  -4    5.82    0.37
  -4  -5  -3    5.16    0.37
  -4  -5  -2    3.16    0.31
  -4  -4  -2    4.47    0.44
  -4  -4  -3    2.31    0.29
  -4  -4  -4    3.12    0.33
  -4  -4  -5    9.94    0.48
  -4  -4  -6   -0.11    0.26
  -4  -4  -7    0.77    0.25
  -4  -4  -8    0.18    0.27
  -4  -4  -9    0.84    0.38
  -4  -4 -10    6.63    0.74
  -4  -4 -11    0.34    0.47
  -4  -4 -12    0.92    0.50
  -4  -4 -13   -0.33    0.39
  -4  -4 -14   -0.54    0.49
  -4  -4 -15    2.27    0.62
  -4  -3 -16   -0.54    0.34
  -4  -3 -15    0.72    0.46
  -4  -3 -14    0.36    0.50
  -4  -3 -13    0.76    0.41
  -4  -3 -12   -0.13    0.55
  -4  -3 -11    1.46    0.44
  -4  -3 -10    4.72    0.35
  -4  -3  -9    0.35    0.25
  -4  -3  -8    0.12    0.24
  -4  -3  -7    0.55    0.24
  -4  -3  -6    0.37    0.24
  -4  -3  -5   22.53    0.79
  -4  -3  -4    2.71    0.28
  -4  -3  -3    8.60    0.39
  -4  -3  -2   64.21    1.84
  -4  -2  -2   26.05    0.86
  -4  -2  -3   34.19    1.47
  -4  -2  -4   17.43    0.62
  -4  -2  -5   -0.11    0.26
  -4  -2  -6   48.24    1.65
  -4  -2  -7    3.59    0.33
  -4  -2  -8    0.17    0.20
  -4  -2  -9    0.10    0.21
  -4  -2 -10    1.49    0.27
  -4  -2 -11    0.29    0.23
  -4  -2 -12    9.69    0.74
  -4  -2 -13    1.24    0.44
  -4  -2 -14   -0.37    0.42
  -4  -2 -15    0.11    0.40
  -4  -2 -16    6.77    0.82
  -4  -2 -17    0.20    0.52
  -4  -1 -18    0.27    0.46
  -4  -1 -17    0.15    0.51
  -4  -1 -16    0.38    0.45
  -4  -1 -15    2.42    0.63
  -4  -1 -14    1.21    0.66
  -4  -1 -13    1.10    0.40
  -4  -1 -12   21.34    1.05
  -4  -1 -11    0.04    0.21
  -4  -1 -10    1.18    0.28
  -4  -1  -9    1.22    0.26
  -4  -1  -8    3.02    0.29
  -4  -1  -7    4.97    0.34
  -4  -1  -6   12.76    0.52
  -4  -1  -5    0.93    0.22
  -4  -1  -4   13.13    0.47
  -4  -1  -3  130.98    2.61
  -4  -1  -2    0.45    0.16
  -4   0  -2   11.54    0.44
  -4   0  -3    0.03    0.15
  -4   0  -4   51.90    1.82
  -4   0  -5    0.05    0.17
  -4   0  -6   69.90    2.09
  -4   0  -7   -0.20    0.22
  -4   0  -8    1.01    0.26
  -4   0  -9    0.01    0.24
  -4   0 -10   57.26    1.65
  -4   0 -11    0.17    0.23
  -4   0 -12   38.83    1.24
  -4   0 -13    0.21    0.34
  -4   0 -14    6.86    0.71
  -4   0 -15    0.71    0.42
  -4   0 -16    0.33    0.42
  -4   0 -17   -0.20    0.39
  -4   0 -18    0.32    0.51
  -4   1 -18    0.22    0.40
  -4   1 -17    0.27    0.47
  -4   1 -16   -0.25    0.37
  -4   1 -15    0.74    0.60
  -4   1 -14    0.51    0.47
  -4   1 -13    1.22    0.50
  -4   1 -12   18.75    0.64
  -4   1 -11   -0.38    0.33
  -4   1 -10    0.66    0.25
  -4   1  -9    0.71    0.31
  -4   1  -8    1.98    0.29
  -4   1  -7    4.64    0.34
  -4   1  -6   10.15    0.52
  -4   1  -5    0.75    0.21
  -4   1  -4   13.78    0.55
  -4   1  -3  129.10    2.65
  -4   1  -2    0.30    0.15
  -3  -8   8    1.55    0.66
  -3  -8   7    1.85    0.48
  -3  -8   6    1.11    0.56
  -3  -8   5    0.77    0.49
  -3  -8   4   -0.46    0.38
  -3  -8   3   -0.05    0.47
  -3  -8   2    1.23    0.50
  -3  -8   1    0.35    0.69
  -3  -8   0   -0.22    0.56
  -3  -8  -1    0.62    0.47
  -3  -7  -1    0.45    0.43
  -3  -7   0    0.07    0.45
  -3  -7   1    0.50    0.39
  -3  -7   2    0.24    0.51
  -3  -7   3   -0.34    0.46
  -3  -7   4    0.40    0.39
  -3  -7   5   -0.15    0.45
  -3  -7   6   -0.20    0.42
  -3  -7   7    0.63    0.38
  -3  -7   8    0.09    0.42
  -3  -7   9    0.12    0.47
  -3  -7  10    0.04    0.51
  -3  -7  11    0.64    0.51
  -3  -7  12    0.44    0.57
  -3  -6  15    0.02    0.45
  -3  -6  14    0.59    0.72
  -3  -6  13    0.09    0.51
  -3  -6  12   -0.18    0.45
  -3  -6  11    3.58    0.64
  -3  -6  10    2.49    0.67
  -3  -6   9    0.24    0.38
  -3  -6   8    2.20    0.56
  -3  -6   7    8.78    0.70
  -3  -6   6    2.92    0.66
  -3  -6   5    2.63    0.57
  -3  -6   4    1.98    0.30
  -3  -6   3    0.53    0.27
  -3  -6   2    1.62    0.31
  -3  -6   1    2.74    0.30
  -3  -6   0    0.04    0.25
  -3  -6  -1    3.07    0.33
  -3  -5  -1    2.07    0.29
  -3  -5   0    0.36    0.22
  -3  -5   1    3.41    0.31
  -3  -5   2    1.56    0.26
  -3  -5   3    0.06    0.25
  -3  -5   4    0.09    0.22
  -3  -5   5    0.46    0.21
  -3  -5   6   13.71    0.51
  -3  -5   7    0.42    0.27
  -3  -5   8    0.84    0.34
  -3  -5   9    1.93    0.30
  -3  -5  10    0.64    0.33
  -3  -5  11    1.73    0.71
  -3  -5  12   -0.30    0.48
  -3  -5  13    5.40    0.68
  -3  -5  14    0.57    0.55
  -3  -5  15    0.16    0.44
  -3  -5  16    0.60    0.48
  -3  -5  17   -0.29    0.39
  -3  -4  19    0.20    0.69
  -3  -4  18   -0.62    0.44
  -3  -4  17   -0.02    0.52
  -3  -4  16    1.14    0.44
  -3  -4  15   -0.30    0.43
  -3  -4  14    0.80    0.49
  -3  -4  13    4.82    0.67
  -3  -4  12    0.04    0.23
  -3  -4  11    9.00    0.45
  -3  -4  10    1.37    0.35
  -3  -4   9   -0.04    0.24
  -3  -4   8    3.17    0.32
  -3  -4   7    1.84    0.28
  -3  -4   6    0.26    0.22
  -3  -4   5   10.72    0.45
  -3  -4   4   23.84    0.78
  -3  -4   3   50.45    1.73
  -3  -4   2    0.94    0.26
  -3  -4   1    1.84    0.27
  -3  -4   0   27.49    0.87
  -3  -4  -1   37.63    1.50
  -3  -3  -1   18.51    0.56
  -3  -3   0    8.06    0.35
  -3  -3   1    0.06    0.16
  -3  -3   2    0.39    0.18
  -3  -3   3    5.47    0.30
  -3  -3   4   27.24    0.90
  -3  -3   5   19.16    0.80
  -3  -3   6    0.44    0.21
  -3  -3   7    4.75    0.35
  -3  -3   8   14.96    0.54
  -3  -3   9    0.85    0.24
  -3  -3  10   10.31    0.58
  -3  -3  11    0.20    0.23
  -3  -3  12    0.85    0.26
  -3  -3  13    8.28    0.43
  -3  -3  14   -0.06    0.22
  -3  -3  15    0.44    0.42
  -3  -3  16    1.10    0.44
  -3  -3  17    1.43    0.52
  -3  -3  18    0.78    0.51
  -3  -3  19   -0.25    0.43
  -3  -3  20   -0.08    0.45
  -3  -2  21   -0.15    0.39
  -3  -2  20    0.23    0.45
  -3  -2  19    1.54    0.56
  -3  -2  18    2.53    0.54
  -3  -2  17    0.23    0.41
  -3  -2  16    0.89    0.42
  -3  -2  15    5.74    0.40
  -3  -2  14    1.15    0.26
  -3  -2  13    1.19    0.27
  -3  -2  12    3.18    0.32
  -3  -2  11    2.62    0.30
  -3  -2  10   18.31    0.60
  -3  -2   9   15.38    0.50
  -3  -2   8   10.92    0.45
  -3  -2   7    5.37    0.31
  -3  -2   6    0.23    0.19
  -3  -2   5   54.85    1.78
  -3  -2   4   20.97    0.71
  -3  -2   3   11.82    0.44
  -3  -2   2   47.36    1.67
  -3  -2   1    9.00    0.34
  -3  -2   0   61.10    1.74
  -3  -2  -1   11.77    0.35
  -3  -1  -1   16.49    0.53
  -3  -1   0   31.84    1.25
  -3  -1   1   78.64    1.75
  -3  -1   2   50.17    1.40
  -3  -1   3    4.15    0.22
  -3  -1   4   77.18    1.89
  -3  -1   5   11.59    0.47
  -3  -1   6    6.94    0.30
  -3  -1   7   23.13    0.82
  -3  -1   8    0.89    0.23
  -3  -1   9   30.26    0.98
  -3  -1  10   17.83    0.70
  -3  -1  11    2.05    0.27
  -3  -1  12    1.59    0.31
  -3  -1  13    0.13    0.19
  -3  -1  14    2.58    0.31
  -3  -1  15    4.02    0.36
  -3  -1  16    0.52    0.52
  -3  -1  17    1.48    0.50
  -3  -1  18    0.26    0.47
  -3  -1  19    0.48    0.66
  -3  -1  20   -0.07    0.52
  -3  -1  21    0.34    0.53
  -3   0  21    0.29    0.41
  -3   0  20   -0.23    0.35
  -3   0  19    1.75    0.55
  -3   0  18    0.13    0.41
  -3   0  17   -0.39    0.34
  -3   0  16    0.00    0.22
  -3   0  15   26.70    1.11
  -3   0  14    0.01    0.21
  -3   0  13   17.65    0.63
  -3   0  12    0.27    0.24
  -3   0  11    7.52    0.39
  -3   0  10    0.15    0.19
  -3   0   9   86.70    2.29
  -3   0   8   -0.05    0.17
  -3   0   7    4.04    0.25
  -3   0   6   -0.21    0.15
  -3   0   5   21.12    0.71
  -3   0   4    0.04    0.13
  -3   0   3   23.01    1.02
  -3   0   2   -0.03    0.11
  -3   0   1  224.97    2.52
  -3   0   0   -0.09    0.13
  -3   0  -1    4.25    0.21
  -3   1  -1   14.02    0.58
  -3   1   0   32.70    1.28
  -3   1   1   80.98    1.79
  -3   1   2   56.17    1.54
  -3   1   3    4.05    0.22
  -3   1   4   81.68    2.01
  -3   1   5   10.70    0.43
  -3   1   6    7.69    0.31
  -3   1   7   23.60    0.83
  -3   1   8    1.04    0.22
  -3   1   9   33.19    1.48
  -3   1  10   19.17    0.79
  -3   1  11    2.35    0.30
  -3   1  12    2.21    0.31
  -3   1  13   -0.05    0.22
  -3   1  14    2.50    0.30
  -3   1  15    3.60    0.35
  -3   1  16   -0.21    0.37
  -3   1  17    1.42    0.42
  -3   1  18    0.13    0.46
  -3   1  19    0.29    0.34
  -3   1  20    0.14    0.39
  -3   1  21   -0.03    0.43
  -3   1 -18   -0.14    0.45
  -3   1 -17    0.13    0.41
  -3   1 -16    0.10    0.42
  -3   1 -15    0.32    0.54
  -3   1 -14    1.24    0.46
  -3   1 -13    0.15    0.19
  -3   1 -12    3.83    0.37
  -3   1 -11    3.08    0.35
  -3   1 -10    6.35    0.42
  -3   1  -9    0.41    0.24
  -3   1  -8    6.28    0.39
  -3   1  -7    0.34    0.21
  -3   1  -6   67.00    2.08
  -3   1  -5    4.86    0.31
  -3   1  -4    0.03    0.16
  -3   1  -3    6.97    0.30
  -3   1  -2    2.42    0.20
  -3   0  -2   -0.15    0.24
  -3   0  -3   11.36    0.41
  -3   0  -4   -0.15    0.15
  -3   0  -5   25.69    1.35
  -3   0  -6    0.08    0.18
  -3   0  -7    1.61    0.26
  -3   0  -8   -0.06    0.19
  -3   0  -9    1.40    0.24
  -3   0 -10   -0.21    0.23
  -3   0 -11    1.94    0.27
  -3   0 -12   -0.25    0.23
  -3   0 -13    1.15    0.27
  -3   0 -14    0.08    0.36
  -3   0 -15    6.21    0.67
  -3   0 -16    0.17    0.43
  -3   0 -17    0.03    0.51
  -3   0 -18    0.24    0.41
  -3  -1 -18    0.68    0.49
  -3  -1 -17   -0.23    0.41
  -3  -1 -16    0.48    0.43
  -3  -1 -15   -0.12    0.45
  -3  -1 -14    0.82    0.42
  -3  -1 -13    0.27    0.23
  -3  -1 -12    5.09    0.39
  -3  -1 -11    3.16    0.50
  -3  -1 -10    7.22    0.40
  -3  -1  -9    0.36    0.24
  -3  -1  -8    6.95    0.37
  -3  -1  -7    0.12    0.20
  -3  -1  -6   72.65    2.07
  -3  -1  -5    5.62    0.32
  -3  -1  -4    0.18    0.17
  -3  -1  -3    8.39    0.30
  -3  -1  -2    3.32    0.21
  -3  -2  -2    2.09    0.23
  -3  -2  -3    4.01    0.27
  -3  -2  -4   16.24    0.53
  -3  -2  -5    1.60    0.25
  -3  -2  -6    5.75    0.35
  -3  -2  -7    6.45    0.36
  -3  -2  -8   24.90    1.17
  -3  -2  -9    5.43    0.37
  -3  -2 -10    0.11    0.38
  -3  -2 -11    1.07    0.31
  -3  -2 -12    4.31    0.37
  -3  -2 -13    0.13    0.66
  -3  -2 -14    8.43    0.69
  -3  -2 -15    0.97    0.51
  -3  -2 -16   -0.34    0.40
  -3  -2 -17    0.25    0.50
  -3  -2 -18   -0.59    0.28
  -3  -3 -17   -0.43    0.50
  -3  -3 -16    0.30    0.37
  -3  -3 -15    1.03    0.53
  -3  -3 -14    2.72    0.59
  -3  -3 -13   -0.43    0.35
  -3  -3 -12   11.58    0.74
  -3  -3 -11    9.39    0.45
  -3  -3 -10    2.35    0.30
  -3  -3  -9    0.95    0.26
  -3  -3  -8    0.31    0.23
  -3  -3  -7    4.32    0.34
  -3  -3  -6    2.15    0.27
  -3  -3  -5    0.55    0.24
  -3  -3  -4    8.91    0.39
  -3  -3  -3    3.82    0.28
  -3  -3  -2   17.49    0.56
  -3  -4  -2    1.99    0.25
  -3  -4  -3    7.10    0.40
  -3  -4  -4   26.43    0.79
  -3  -4  -5   -0.11    0.19
  -3  -4  -6    0.50    0.37
  -3  -4  -7    0.46    0.26
  -3  -4  -8    1.45    0.28
  -3  -4  -9    2.54    0.31
  -3  -4 -10    4.52    0.52
  -3  -4 -11   -0.44    0.43
  -3  -4 -12    2.88    0.55
  -3  -4 -13    1.49    0.48
  -3  -4 -14    0.48    0.52
  -3  -4 -15   -0.40    0.41
  -3  -4 -16   -0.07    0.57
  -3  -5 -14    0.05    0.50
  -3  -5 -13   -0.08    0.47
  -3  -5 -12    0.60    0.47
  -3  -5 -11    1.28    0.48
  -3  -5 -10    0.26    0.64
  -3  -5  -9    0.72    0.42
  -3  -5  -8    0.55    0.40
  -3  -5  -7   -0.02    0.23
  -3  -5  -6    1.73    0.30
  -3  -5  -5    4.85    0.36
  -3  -5  -4   10.18    0.47
  -3  -5  -3    0.31    0.32
  -3  -5  -2    0.01    0.21
  -3  -6  -2    0.82    0.44
  -3  -6  -3    0.12    0.75
  -3  -6  -4    0.93    0.45
  -3  -6  -5   -0.09    0.58
  -3  -6  -6    0.37    0.60
  -3  -6  -7   -0.13    0.36
  -3  -6  -8    1.58    0.45
  -3  -6  -9    0.86    0.48
  -3  -6 -10    1.05    0.61
  -3  -6 -11    0.57    0.64
  -3  -6 -12    0.09    0.62
  -3  -7 -10   -0.01    0.47
  -3  -7  -9    0.56    0.55
  -3  -7  -8    0.83    0.56
  -3  -7  -7    0.38    0.43
  -3  -7  -6   -0.21    0.43
  -3  -7  -5    0.50    0.41
  -3  -7  -4   -0.62    0.45
  -3  -7  -3    0.08    0.57
  -3  -7  -2    1.38    0.51
  -3  -8  -2    0.09    0.45
  -3  -8  -3    0.94    0.51
  -3  -8  -4    1.02    0.53
  -3  -8  -5   -0.41    0.54
  -2   1  -1   69.70    1.71
  -2   1   0   84.13    1.75
  -2   1   1   29.31    1.05
  -2   1   2    0.17    0.12
  -2   1   3  154.03    2.43
  -2   1   4   91.99    2.05
  -2   1   5   59.90    1.75
  -2   1   6    2.20    0.21
  -2   1   7    6.50    0.33
  -2   1   8   57.03    1.93
  -2   1   9    1.48    0.36
  -2   1  10    3.38    0.32
  -2   1  11    2.60    0.30
  -2   1  12    3.91    0.35
  -2   1  13   12.24    0.50
  -2   1  14    0.59    0.24
  -2   1  15   19.80    0.61
  -2   1  16    0.58    0.44
  -2   1  17    0.20    0.41
  -2   1  18    0.04    0.42
  -2   1  19    0.97    0.52
  -2   1  20   -0.17    0.39
  -2   1  21   -0.22    0.47
  -2   0  21   -0.21    0.33
  -2   0  20   -0.33    0.45
  -2   0  19    0.22    0.39
  -2   0  18    5.51    0.61
  -2   0  17   -0.07    0.40
  -2   0  16    3.20    0.54
  -2   0  15   -0.04    0.26
  -2   0  14    1.20    0.26
  -2   0  13   -0.14    0.26
  -2   0  12   11.77    0.48
  -2   0  11    0.07    0.25
  -2   0  10   21.54    0.77
  -2   0   9    0.38    0.20
  -2   0   8   40.08    1.58
  -2   0   7    0.10    0.16
  -2   0   6    5.76    0.28
  -2   0   5   -0.20    0.18
  -2   0   4    0.21    0.14
  -2   0   3   -0.06    0.11
  -2   0   2  347.68    2.76
  -2   0   1    0.16    0.07
  -2   0   0   21.52    0.76
  -2   0  -1    0.00    0.11
  -2  -1  -1   72.41    1.63
  -2  -1   0   86.43    1.69
  -2  -1   1   29.33    1.08
  -2  -1   2    0.56    0.13
  -2  -1   3  153.99    2.39
  -2  -1   4   92.71    2.07
  -2  -1   5   59.47    1.72
  -2  -1   6    2.46    0.22
  -2  -1   7    6.45    0.31
  -2  -1   8   56.80    1.89
  -2  -1   9    0.53    0.24
  -2  -1  10    2.90    0.30
  -2  -1  11    2.98    0.34
  -2  -1  12    4.21    0.37
  -2  -1  13   13.37    0.50
  -2  -1  14    1.06    0.40
  -2  -1  15   19.26    0.92
  -2  -1  16    1.04    0.46
  -2  -1  17    0.27    0.51
  -2  -1  18    0.44    0.43
  -2  -1  19    0.41    0.52
  -2  -1  20   -0.27    0.42
  -2  -1  21    0.31    0.51
  -2  -2  20    0.45    0.52
  -2  -2  19    0.38    0.55
  -2  -2  18   -0.39    0.48
  -2  -2  17   -0.18    0.40
  -2  -2  16    2.69    0.51
  -2  -2  15    1.57    0.53
  -2  -2  14   14.00    0.64
  -2  -2  13    7.04    0.42
  -2  -2  12    3.37    0.33
  -2  -2  11    0.60    0.23
  -2  -2  10   61.10    1.75
  -2  -2   9   28.32    0.99
  -2  -2   8    3.62    0.35
  -2  -2   7    8.55    0.36
  -2  -2   6   16.99    0.76
  -2  -2   5    0.69    0.19
  -2  -2   4   12.07    0.43
  -2  -2   3   21.54    0.73
  -2  -2   2  202.40    3.16
  -2  -2   1  390.76    4.15
  -2  -2   0  472.51    4.53
  -2  -2  -1   63.66    1.90
  -2  -3  -1    1.52    0.23
  -2  -3   0   20.82    0.79
  -2  -3   1    0.43    0.19
  -2  -3   2   30.45    0.94
  -2  -3   3   52.03    1.81
  -2  -3   4   18.33    0.62
  -2  -3   5    0.06    0.19
  -2  -3   6   78.70    2.14
  -2  -3   7    0.15    0.20
  -2  -3   8    1.55    0.26
  -2  -3   9    0.32    0.21
  -2  -3  10    0.07    0.22
  -2  -3  11    1.78    0.30
  -2  -3  12   -0.43    0.21
  -2  -3  13    3.73    0.35
  -2  -3  14    2.81    0.50
  -2  -3  15    1.01    0.44
  -2  -3  16    2.25    0.53
  -2  -3  17    0.51    0.47
  -2  -3  18   -0.06    0.50
  -2  -3  19    0.62    0.47
  -2  -3  20   -0.30    0.36
  -2  -4  18    2.48    0.71
  -2  -4  17    0.58    0.46
  -2  -4  16   -0.27    0.45
  -2  -4  15    0.53    0.41
  -2  -4  14    4.24    0.58
  -2  -4  13    0.55    0.43
  -2  -4  12    4.88    0.35
  -2  -4  11    0.52    0.23
  -2  -4  10    0.44    0.27
  -2  -4   9    0.32    0.25
  -2  -4   8   16.21    0.56
  -2  -4   7    8.80    0.44
  -2  -4   6    4.63    0.33
  -2  -4   5    6.98    0.38
  -2  -4   4   66.08    1.91
  -2  -4   3   55.40    1.92
  -2  -4   2    3.00    0.31
  -2  -4   1    0.85    0.24
  -2  -4   0    2.13    0.28
  -2  -4  -1    0.97    0.24
  -2  -5  -1    0.47    0.26
  -2  -5   0    0.88    0.23
  -2  -5   1    2.17    0.29
  -2  -5   2   11.13    0.49
  -2  -5   3    5.21    0.47
  -2  -5   4   -0.26    0.23
  -2  -5   5    4.47    0.39
  -2  -5   6    0.46    0.32
  -2  -5   7    0.45    0.25
  -2  -5   8    4.06    0.34
  -2  -5   9    1.60    0.27
  -2  -5  10    2.23    0.42
  -2  -5  11    2.80    0.54
  -2  -5  12   -0.43    0.43
  -2  -5  13   -0.12    0.40
  -2  -5  14    0.03    0.76
  -2  -5  15   -0.09    0.45
  -2  -5  16    0.97    0.41
  -2  -5  17   -0.31    0.34
  -2  -6  15    0.64    0.66
  -2  -6  14   -0.09    0.43
  -2  -6  13    0.01    0.42
  -2  -6  12    6.96    0.78
  -2  -6  11   -0.15    0.35
  -2  -6  10    0.87    0.47
  -2  -6   9    1.39    0.48
  -2  -6   8    0.39    0.36
  -2  -6   7    4.44    0.59
  -2  -6   6    5.90    0.58
  -2  -6   5    1.71    0.57
  -2  -6   4    0.02    0.26
  -2  -6   3    7.45    0.49
  -2  -6   2   -0.08    0.22
  -2  -6   1    0.48    0.25
  -2  -6   0    3.83    0.36
  -2  -6  -1   10.85    0.48
  -2  -7  -1    3.08    0.60
  -2  -7   0    1.90    0.56
  -2  -7   1    0.79    0.46
  -2  -7   2   -0.47    0.48
  -2  -7   3   -0.33    0.46
  -2  -7   4    1.25    0.48
  -2  -7   5    1.49    0.43
  -2  -7   6   -0.05    0.38
  -2  -7   7    0.92    0.55
  -2  -7   8    0.33    0.43
  -2  -7   9    1.50    0.61
  -2  -7  10   -0.49    0.50
  -2  -7  11   -0.06    0.53
  -2  -7  12    1.24    0.60
  -2  -8   8   -0.18    0.53
  -2  -8   7    0.37    0.57
  -2  -8   6    1.42    0.56
  -2  -8   5    3.19    0.69
  -2  -8   4    3.04    0.70
  -2  -8   3    0.19    0.48
  -2  -8   2   -0.09    0.51
  -2  -8   1    0.43    0.50
  -2  -8   0   -0.15    0.44
  -2  -8  -1    2.18    0.57
  -2  -8  -2   -0.03    0.62
  -2  -8  -3    0.94    0.68
  -2  -8  -4    2.40    0.78
  -2  -8  -5    2.50    0.61
  -2  -8  -6    0.76    0.50
  -2  -7 -10    2.38    0.73
  -2  -7  -9    1.39    0.92
  -2  -7  -8   -0.05    0.41
  -2  -7  -7    2.63    0.83
  -2  -7  -6    1.21    0.54
  -2  -7  -5    0.90    0.52
  -2  -7  -4   -0.02    0.44
  -2  -7  -3    0.06    0.46
  -2  -7  -2    0.06    0.45
  -2  -6  -2   17.92    0.59
  -2  -6  -3   28.28    1.03
  -2  -6  -4    1.92    0.49
  -2  -6  -5    0.36    0.40
  -2  -6  -6    0.94    0.40
  -2  -6  -7    1.82    0.48
  -2  -6  -8   -0.40    0.44
  -2  -6  -9    0.38    0.48
  -2  -6 -10    1.11    0.49
  -2  -6 -11    2.15    0.66
  -2  -6 -12   -0.12    0.54
  -2  -6 -13    0.94    0.57
  -2  -5 -15    0.12    0.47
  -2  -5 -14    1.38    0.56
  -2  -5 -13    0.16    0.55
  -2  -5 -12    4.54    0.65
  -2  -5 -11    3.60    0.59
  -2  -5 -10    0.01    0.38
  -2  -5  -9    1.18    0.49
  -2  -5  -8   13.43    0.72
  -2  -5  -7    6.42    0.48
  -2  -5  -6    1.44    0.30
  -2  -5  -5    1.39    0.25
  -2  -5  -4    0.41    0.28
  -2  -5  -3    0.11    0.24
  -2  -5  -2    2.09    0.29
  -2  -4  -2    7.05    0.38
  -2  -4  -3    4.08    0.32
  -2  -4  -4    9.49    0.44
  -2  -4  -5   15.59    0.54
  -2  -4  -6   -0.04    0.23
  -2  -4  -7    0.58    0.24
  -2  -4  -8    3.67    0.35
  -2  -4  -9    5.99    0.40
  -2  -4 -10    7.23    0.42
  -2  -4 -11    0.41    0.36
  -2  -4 -12   -0.40    0.49
  -2  -4 -13    4.15    0.66
  -2  -4 -14   -0.12    0.49
  -2  -4 -15    0.96    0.44
  -2  -4 -16   -0.31    0.52
  -2  -4 -17    0.11    0.45
  -2  -3 -18    0.02    0.44
  -2  -3 -17   -0.06    0.49
  -2  -3 -16    1.51    0.53
  -2  -3 -15    1.34    0.46
  -2  -3 -14    3.51    0.61
  -2  -3 -13    0.61    0.45
  -2  -3 -12   -0.67    0.41
  -2  -3 -11    4.48    0.36
  -2  -3 -10    5.26    0.38
  -2  -3  -9    4.79    0.36
  -2  -3  -8   15.71    0.53
  -2  -3  -7    1.33    0.27
  -2  -3  -6    5.95    0.35
  -2  -3  -5    1.08    0.24
  -2  -3  -4  111.35    2.48
  -2  -3  -3    0.27    0.18
  -2  -3  -2    1.21    0.21
  -2  -2  -2   10.35    0.33
  -2  -2  -3   11.20    0.40
  -2  -2  -4   -0.08    0.18
  -2  -2  -5   25.07    0.80
  -2  -2  -6   28.64    0.90
  -2  -2  -7    3.92    0.33
  -2  -2  -8   -0.06    0.21
  -2  -2  -9    7.50    0.40
  -2  -2 -10    1.17    0.27
  -2  -2 -11    3.79    0.33
  -2  -2 -12   13.93    0.53
  -2  -2 -13    0.35    0.23
  -2  -2 -14    2.16    0.42
  -2  -2 -15    2.96    0.54
  -2  -2 -16    0.13    0.46
  -2  -2 -17    0.90    0.57
  -2  -2 -18    0.07    0.52
  -2  -1 -19    0.81    0.46
  -2  -1 -18    0.00    0.40
  -2  -1 -17    1.18    0.41
  -2  -1 -16   -0.22    0.39
  -2  -1 -15    0.03    0.50
  -2  -1 -14    5.70    0.66
  -2  -1 -13    9.70    0.48
  -2  -1 -12   21.26    0.68
  -2  -1 -11    6.31    0.40
  -2  -1 -10    7.43    0.41
  -2  -1  -9    7.71    0.40
  -2  -1  -8    4.81    0.38
  -2  -1  -7    0.67    0.23
  -2  -1  -6    0.04    0.19
  -2  -1  -5   -0.28    0.17
  -2  -1  -4   29.66    1.33
  -2  -1  -3   52.29    1.63
  -2  -1  -2  176.41    2.63
  -2   0  -2    1.23    0.18
  -2   0  -3    0.34    0.26
  -2   0  -4   28.53    1.35
  -2   0  -5   -0.04    0.18
  -2   0  -6    2.26    0.24
  -2   0  -7    0.45    0.19
  -2   0  -8   52.30    1.83
  -2   0  -9   -0.03    0.26
  -2   0 -10    0.66    0.26
  -2   0 -11   -0.25    0.24
  -2   0 -12    1.89    0.28
  -2   0 -13   -0.32    0.22
  -2   0 -14    5.38    0.56
  -2   0 -15    0.33    0.49
  -2   0 -16    1.61    0.52
  -2   0 -17   -0.25    0.39
  -2   0 -18   -0.31    0.32
  -2   0 -19    0.37    0.37
  -2   1 -19   -0.53    0.32
  -2   1 -18    0.19    0.45
  -2   1 -17    0.06    0.44
  -2   1 -16   -0.01    0.38
  -2   1 -15    0.26    0.37
  -2   1 -14    4.72    0.56
  -2   1 -13    9.22    0.48
  -2   1 -12   18.10    0.68
  -2   1 -11    5.30    0.38
  -2   1 -10    5.82    0.39
  -2   1  -9    6.97    0.42
  -2   1  -8    3.42    0.35
  -2   1  -7    0.46    0.21
  -2   1  -6   -0.27    0.16
  -2   1  -5   -0.06    0.17
  -2   1  -4   24.64    0.87
  -2   1  -3   49.13    1.67
  -2   1  -2  165.43    2.68
  -1  -8   7    1.22    0.53
  -1  -8   6    4.22    0.70
  -1  -8   5    3.80    0.71
  -1  -8   4    0.49    0.65
  -1  -8   3    1.11    0.51
  -1  -8   2    0.62    0.38
  -1  -8   1    0.84    0.46
  -1  -8   0    0.90    0.70
  -1  -8  -1   -0.01    0.46
  -1  -7  -1    0.17    0.62
  -1  -7   0    0.16    0.45
  -1  -7   1    1.07    0.58
  -1  -7   2    2.48    0.49
  -1  -7   3    0.56    0.43
  -1  -7   4   -0.35    0.37
  -1  -7   5   -0.19    0.41
  -1  -7   6    0.70    0.46
  -1  -7   7    0.54    0.40
  -1  -7   8    1.62    0.53
  -1  -7   9    1.24    0.56
  -1  -7  10    3.29    0.59
  -1  -7  11    1.21    0.57
  -1  -7  12    0.11    0.58
  -1  -6  15    0.13    0.58
  -1  -6  14    2.67    0.60
  -1  -6  13    0.07    0.56
  -1  -6  12    1.37    0.53
  -1  -6  11   -0.19    0.49
  -1  -6  10    1.34    0.44
  -1  -6   9   -0.10    0.52
  -1  -6   8    2.02    0.50
  -1  -6   7    1.12    0.47
  -1  -6   6    0.53    0.48
  -1  -6   5    1.38    0.44
  -1  -6   4   25.21    0.99
  -1  -6   3   25.10    1.01
  -1  -6   2    1.53    0.32
  -1  -6   1   -0.30    0.19
  -1  -6   0    1.15    0.29
  -1  -6  -1    0.25    0.28
  -1  -5  -1   21.80    0.75
  -1  -5   0    2.17    0.30
  -1  -5   1    0.93    0.23
  -1  -5   2   -0.10    0.22
  -1  -5   3   12.96    0.48
  -1  -5   4    7.28    0.41
  -1  -5   5   13.93    0.50
  -1  -5   6    0.41    0.27
  -1  -5   7    0.02    0.23
  -1  -5   8    3.15    0.36
  -1  -5   9   10.91    0.49
  -1  -5  10   -0.27    0.41
  -1  -5  11   -0.12    0.42
  -1  -5  12    0.51    0.46
  -1  -5  13    6.19    0.83
  -1  -5  14    0.39    0.42
  -1  -5  15    2.83    0.62
  -1  -5  16   -0.15    0.48
  -1  -5  17   -0.01    0.46
  -1  -4  18    0.52    0.54
  -1  -4  17   -0.55    0.36
  -1  -4  16    0.45    0.49
  -1  -4  15    0.19    0.44
  -1  -4  14    6.32    0.62
  -1  -4  13    2.52    0.66
  -1  -4  12    0.01    0.36
  -1  -4  11    1.38    0.27
  -1  -4  10   15.03    0.56
  -1  -4   9    1.64    0.28
  -1  -4   8   21.16    0.68
  -1  -4   7    1.21    0.33
  -1  -4   6    0.26    0.25
  -1  -4   5    3.63    0.30
  -1  -4   4   69.14    2.08
  -1  -4   3    0.61    0.25
  -1  -4   2   -0.26    0.21
  -1  -4   1   23.03    0.86
  -1  -4   0   18.14    0.57
  -1  -4  -1   30.85    0.96
  -1  -3  -1    3.63    0.27
  -1  -3   0    0.37    0.20
  -1  -3   1  159.32    2.99
  -1  -3   2    0.25    0.33
  -1  -3   3   14.62    0.50
  -1  -3   4   10.34    0.40
  -1  -3   5    0.66    0.22
  -1  -3   6    6.29    0.34
  -1  -3   7    2.44    0.28
  -1  -3   8   16.49    0.59
  -1  -3   9    0.08    0.23
  -1  -3  10    0.83    0.24
  -1  -3  11   17.14    0.57
  -1  -3  12    0.57    0.22
  -1  -3  13    4.77    0.37
  -1  -3  14    0.85    0.54
  -1  -3  15    1.47    0.48
  -1  -3  16    0.13    0.60
  -1  -3  17    5.67    0.74
  -1  -3  18    0.05    0.58
  -1  -3  19    0.17    0.46
  -1  -2  20    0.17    0.46
  -1  -2  19    1.37    0.49
  -1  -2  18    2.45    0.56
  -1  -2  17    0.38    0.44
  -1  -2  16    6.67    0.78
  -1  -2  15    1.15    0.48
  -1  -2  14    3.49    0.35
  -1  -2  13    3.11    0.35
  -1  -2  12   29.63    1.25
  -1  -2  11    4.90    0.35
  -1  -2  10    7.80    0.40
  -1  -2   9    0.63    0.24
  -1  -2   8    2.76    0.29
  -1  -2   7   -0.23    0.34
  -1  -2   6   58.47    1.83
  -1  -2   5   13.39    0.43
  -1  -2   4   98.47    2.32
  -1  -2   3    3.46    0.25
  -1  -2   2  991.52    6.80
  -1  -2   1  305.25    3.64
  -1  -2   0  765.30    5.75
  -1  -2  -1  591.26    5.12
  -1  -1  -1   75.93    1.56
  -1  -1   0    1.79    0.13
  -1  -1   1    2.30    0.14
  -1  -1   2   10.12    0.36
  -1  -1   3   30.60    1.25
  -1  -1   4   52.25    1.53
  -1  -1   5   25.97    0.79
  -1  -1   6   58.42    1.85
  -1  -1   7  148.80    2.90
  -1  -1   8   29.95    1.43
  -1  -1   9   -0.02    0.20
  -1  -1  10   16.48    0.62
  -1  -1  11   18.09    0.62
  -1  -1  12    0.34    0.30
  -1  -1  13    0.61    0.24
  -1  -1  14    0.28    0.28
  -1  -1  15    1.38    0.29
  -1  -1  16    3.92    0.60
  -1  -1  17    5.92    0.77
  -1  -1  18    0.11    0.51
  -1  -1  19    0.68    0.59
  -1  -1  20    0.39    0.50
  -1   0  20    0.13    0.37
  -1   0  19    1.25    0.51
  -1   0  18    0.23    0.39
  -1   0  17    0.56    0.41
  -1   0  16    0.23    0.38
  -1   0  15    7.52    0.45
  -1   0  14    0.12    0.23
  -1   0  13    3.29    0.34
  -1   0  12    0.29    0.30
  -1   0  11   40.05    1.60
  -1   0  10   -0.17    0.17
  -1   0   9  104.00    2.47
  -1   0   8    0.26    0.18
  -1   0   7   18.26    0.67
  -1   0   6    0.16    0.14
  -1   0   5   83.49    2.09
  -1   0   4   -0.10    0.14
  -1   0   3    4.76    0.19
  -1   0   2   -0.06    0.06
  -1   0  -1  316.81    2.36
  -1   1  -1   77.12    1.62
  -1   1   0    1.63    0.13
  -1   1   1    1.85    0.13
  -1   1   2   10.31    0.38
  -1   1   3   34.26    1.22
  -1   1   4   51.71    1.63
  -1   1   5   25.68    1.25
  -1   1   6   57.30    1.83
  -1   1   7  158.94    2.95
  -1   1   8   28.46    1.40
  -1   1   9    0.30    0.20
  -1   1  10   17.16    0.63
  -1   1  11   17.21    0.66
  -1   1  12    0.33    0.26
  -1   1  13    0.65    0.24
  -1   1  14    0.16    0.22
  -1   1  15    1.69    0.45
  -1   1  16    2.78    0.56
  -1   1  17    6.85    0.78
  -1   1  18    0.01    0.49
  -1   1  19    1.06    0.50
  -1   1  20    0.21    0.41
  -1   1 -19   -0.17    0.39
  -1   1 -18    0.25    0.46
  -1   1 -17    0.06    0.38
  -1   1 -16    8.39    0.77
  -1   1 -15    5.36    0.62
  -1   1 -14    0.04    0.22
  -1   1 -13    2.40    0.32
  -1   1 -12   -0.12    0.34
  -1   1 -11    3.84    0.34
  -1   1 -10    0.29    0.24
  -1   1  -9   19.43    0.78
  -1   1  -8    6.73    0.37
  -1   1  -7   38.71    1.67
  -1   1  -6  214.12    3.45
  -1   1  -5    3.17    0.24
  -1   1  -4   89.27    2.18
  -1   1  -3   26.45    1.26
  -1   1  -2   98.25    1.99
  -1   0  -2   -0.10    0.12
  -1   0  -3   78.42    1.81
  -1   0  -4   -0.15    0.26
  -1   0  -5   14.51    0.61
  -1   0  -6    0.11    0.17
  -1   0  -7   84.40    2.29
  -1   0  -8    0.04    0.31
  -1   0  -9   13.17    0.61
  -1   0 -10    0.75    0.34
  -1   0 -11   46.75    1.66
  -1   0 -12    0.34    0.24
  -1   0 -13    4.59    0.37
  -1   0 -14   -0.13    0.23
  -1   0 -15    0.87    0.40
  -1   0 -16   -0.14    0.40
  -1   0 -17    3.18    0.58
  -1   0 -18    0.21    0.36
  -1   0 -19    0.98    0.54
  -1  -1 -19    0.08    0.39
  -1  -1 -18    0.21    0.46
  -1  -1 -17    0.30    0.59
  -1  -1 -16    9.21    0.80
  -1  -1 -15    4.73    0.72
  -1  -1 -14    0.78    0.29
  -1  -1 -13    2.71    0.36
  -1  -1 -12    0.03    0.20
  -1  -1 -11    4.65    0.37
  -1  -1 -10   -0.62    0.18
  -1  -1  -9   22.58    0.87
  -1  -1  -8    7.19    0.38
  -1  -1  -7   39.99    1.64
  -1  -1  -6  206.64    3.40
  -1  -1  -5    4.19    0.26
  -1  -1  -4   92.66    2.08
  -1  -1  -3   28.70    0.80
  -1  -1  -2   97.34    1.93
  -1  -2  -2   33.76    1.46
  -1  -2  -3   33.57    1.36
  -1  -2  -4   57.13    1.85
  -1  -2  -5    4.35    0.29
  -1  -2  -6   49.57    1.72
  -1  -2  -7   13.80    0.49
  -1  -2  -8    9.48    0.40
  -1  -2  -9   71.84    1.97
  -1  -2 -10   20.37    0.68
  -1  -2 -11   26.90    1.23
  -1  -2 -12    0.54    0.27
  -1  -2 -13    0.41    0.27
  -1  -2 -14    3.16    0.50
  -1  -2 -15   -0.24    0.51
  -1  -2 -16    1.20    0.53
  -1  -2 -17   -0.50    0.34
  -1  -2 -18    0.64    0.45
  -1  -2 -19    2.24    0.74
  -1  -3 -18    0.11    0.55
  -1  -3 -17    0.16    0.47
  -1  -3 -16    0.31    0.62
  -1  -3 -15    4.30    0.77
  -1  -3 -14    1.68    0.47
  -1  -3 -13    0.41    0.39
  -1  -3 -12    0.49    0.29
  -1  -3 -11    4.42    0.36
  -1  -3 -10    0.06    0.24
  -1  -3  -9   23.82    0.72
  -1  -3  -8   28.96    0.90
  -1  -3  -7    3.12    0.30
  -1  -3  -6    7.07    0.38
  -1  -3  -5   11.00    0.46
  -1  -3  -4   30.91    0.95
  -1  -3  -3    1.64    0.25
  -1  -3  -2   40.73    1.53
  -1  -4  -2  298.33    3.96
  -1  -4  -3   31.47    1.47
  -1  -4  -4    0.86    0.24
  -1  -4  -5   17.89    0.63
  -1  -4  -6   -0.48    0.24
  -1  -4  -7    0.30    0.23
  -1  -4  -8    9.00    0.45
  -1  -4  -9    8.68    0.45
  -1  -4 -10    1.13    0.28
  -1  -4 -11    0.42    0.63
  -1  -4 -12   12.49    0.75
  -1  -4 -13    1.23    0.58
  -1  -4 -14    0.08    0.48
  -1  -4 -15    0.18    0.44
  -1  -4 -16   -0.31    0.43
  -1  -4 -17    0.69    0.48
  -1  -5 -16    0.06    0.70
  -1  -5 -15   -0.10    0.48
  -1  -5 -14    0.25    0.43
  -1  -5 -13    4.72    0.69
  -1  -5 -12    0.09    0.47
  -1  -5 -11   11.35    0.75
  -1  -5 -10    0.80    0.44
  -1  -5  -9    2.56    0.46
  -1  -5  -8    0.27    0.24
  -1  -5  -7   16.84    0.56
  -1  -5  -6    1.56    0.40
  -1  -5  -5    2.38    0.31
  -1  -5  -4   -0.21    0.25
  -1  -5  -3   -0.06    0.21
  -1  -5  -2   15.32    0.55
  -1  -6  -2   12.31    0.52
  -1  -6  -3    1.51    0.30
  -1  -6  -4    3.82    0.60
  -1  -6  -5    0.88    0.41
  -1  -6  -6    0.71    0.41
  -1  -6  -7    2.91    0.57
  -1  -6  -8    2.05    0.60
  -1  -6  -9   -0.02    0.46
  -1  -6 -10    3.87    0.63
  -1  -6 -11    0.15    0.45
  -1  -6 -12    0.26    0.66
  -1  -6 -13   -0.34    0.48
  -1  -6 -14    1.01    0.56
  -1  -7 -11    0.30    0.52
  -1  -7 -10    0.36    0.73
  -1  -7  -9   -0.17    0.53
  -1  -7  -8    2.95    0.66
  -1  -7  -7    0.31    0.46
  -1  -7  -6    0.07    0.47
  -1  -7  -5   -0.12    0.43
  -1  -7  -4    0.11    0.51
  -1  -7  -3   -0.24    0.35
  -1  -7  -2    1.04    0.51
  -1  -8  -2    0.30    0.56
  -1  -8  -3    6.28    0.79
  -1  -8  -4    4.29    0.69
  -1  -8  -5   -0.33    0.55
  -1  -8  -6    0.18    0.69
   0   1  -1   20.10    0.88
   0   1   0    0.13    0.09
   0   1   1   20.91    0.84
   0   1   2    2.89    0.17
   0   1   3    0.52    0.14
   0   1   4  160.11    2.65
   0   1   5   32.76    1.36
   0   1   6   61.99    1.92
   0   1   7   10.43    0.41
   0   1   8    5.89    0.34
   0   1   9    1.62    0.25
   0   1  10    0.85    0.27
   0   1  11   48.62    1.61
   0   1  12    1.63    0.30
   0   1  13    0.63    0.25
   0   1  14    8.69    0.45
   0   1  15   20.71    0.94
   0   1  16    1.10    0.52
   0   1  17    0.94    0.55
   0   1  18    0.69    0.45
   0   1  19    0.77    0.51
   0   1  20   -0.12    0.42
   0   0  20    1.13    0.53
   0   0  19   -0.05    0.38
   0   0  18    0.06    0.41
   0   0  17   -0.15    0.43
   0   0  16    9.08    0.76
   0   0  15    0.34    0.41
   0   0  14    2.16    0.33
   0   0  13    0.26    0.29
   0   0  12   26.70    0.89
   0   0  11    1.52    0.32
   0   0  10  265.69    3.74
   0   0   9   -0.08    0.19
   0   0   8    1.54    0.22
   0   0   7   -0.34    0.18
   0   0   6   25.96    0.85
   0   0   5    0.26    0.17
   0   0   4  169.46    2.62
   0   0   3   -0.04    0.12
   0   0   2   45.57    1.05
   0  -1  -1   21.85    0.88
   0  -1   0    0.11    0.10
   0  -1   1   21.29    0.86
   0  -1   2    2.98    0.16
   0  -1   3    0.66    0.14
   0  -1   4  146.96    2.54
   0  -1   5   34.29    1.39
   0  -1   6   64.97    1.94
   0  -1   7   10.82    0.40
   0  -1   8    5.16    0.33
   0  -1   9    1.85    0.26
   0  -1  10    0.42    0.22
   0  -1  11   46.19    1.63
   0  -1  12    1.49    0.30
   0  -1  13    1.10    0.28
   0  -1  14    9.67    0.47
   0  -1  15   22.24    1.05
   0  -1  16    1.70    0.54
   0  -1  17    1.27    0.55
   0  -1  18    0.54    0.54
   0  -1  19   -0.25    0.43
   0  -1  20   -0.35    0.42
   0  -2  19    0.58    0.40
   0  -2  18    0.00    0.37
   0  -2  17    0.67    0.48
   0  -2  16    0.22    0.36
   0  -2  15    0.70    0.42
   0  -2  14    7.33    0.42
   0  -2  13    0.03    0.24
   0  -2  12   15.17    0.56
   0  -2  11    0.12    0.22
   0  -2  10    2.56    0.30
   0  -2   9    1.59    0.28
   0  -2   8   14.42    0.52
   0  -2   7   80.87    2.16
   0  -2   6    0.49    0.20
   0  -2   5    3.68    0.27
   0  -2   4   39.96    1.56
   0  -2   3   94.14    2.19
   0  -2   2  774.13    5.88
   0  -2   1   53.97    1.72
   0  -2   0   41.61    1.41
   0  -2  -1   60.75    1.84
   0  -3  -1   18.47    0.68
   0  -3   0   -0.09    0.18
   0  -3   1   17.96    0.64
   0  -3   2   22.71    0.80
   0  -3   3   12.95    0.44
   0  -3   4    2.13    0.25
   0  -3   5    1.36    0.23
   0  -3   6    2.22    0.26
   0  -3   7    9.43    0.42
   0  -3   8   21.44    0.77
   0  -3   9   20.06    0.68
   0  -3  10    5.79    0.39
   0  -3  11   10.11    0.46
   0  -3  12    6.99    0.42
   0  -3  13   36.36    1.12
   0  -3  14    3.05    0.59
   0  -3  15    1.20    0.44
   0  -3  16   -0.55    0.45
   0  -3  17    1.72    0.56
   0  -3  18    2.75    0.49
   0  -3  19   -0.06    0.36
   0  -4  18   -0.47    0.46
   0  -4  17   -0.09    0.77
   0  -4  16    0.92    0.47
   0  -4  15   -0.23    0.43
   0  -4  14   -0.06    0.53
   0  -4  13    2.34    0.46
   0  -4  12    0.96    0.41
   0  -4  11    0.76    0.27
   0  -4  10    0.04    0.22
   0  -4   9   29.44    1.14
   0  -4   8   12.85    0.51
   0  -4   7   13.40    0.49
   0  -4   6    2.56    0.33
   0  -4   5   -0.04    0.21
   0  -4   4    1.76    0.25
   0  -4   3    3.24    0.31
   0  -4   2  215.72    3.34
   0  -4   1  124.87    2.64
   0  -4   0    0.72    0.24
   0  -4  -1  129.36    2.66
   0  -5  -1    0.35    0.23
   0  -5   0    0.31    0.21
   0  -5   1    0.26    0.28
   0  -5   2    3.78    0.33
   0  -5   3   -0.18    0.23
   0  -5   4    4.41    0.33
   0  -5   5    4.61    0.35
   0  -5   6    0.63    0.25
   0  -5   7    0.89    0.26
   0  -5   8    0.94    0.30
   0  -5   9    0.50    0.38
   0  -5  10   10.85    0.73
   0  -5  11    0.28    0.39
   0  -5  12    4.46    0.68
   0  -5  13    0.13    0.52
   0  -5  14    1.42    0.66
   0  -5  15    0.36    0.49
   0  -5  16    0.50    0.58
   0  -6  14    3.18    0.61
   0  -6  13    0.56    0.45
   0  -6  12    2.40    0.53
   0  -6  11    0.15    0.42
   0  -6  10    2.25    0.73
   0  -6   9    1.28    0.53
   0  -6   8    2.76    0.54
   0  -6   7    3.42    0.55
   0  -6   6   -0.26    0.37
   0  -6   5    6.14    0.62
   0  -6   4   36.52    1.14
   0  -6   3   21.08    0.62
   0  -6   2    7.99    0.44
   0  -6   1    3.35    0.32
   0  -6   0    3.83    0.36
   0  -6  -1    3.36    0.34
   0  -7  -1    1.69    0.53
   0  -7   0   -0.55    0.42
   0  -7   1    1.07    0.46
   0  -7   2    0.01    0.42
   0  -7   3    5.77    0.61
   0  -7   4    0.68    0.43
   0  -7   5    0.14    0.44
   0  -7   6    0.06    0.38
   0  -7   7    1.17    0.70
   0  -7   8    2.06    0.53
   0  -7   9    3.34    0.64
   0  -7  10   -0.04    0.45
   0  -7  11    0.68    0.47
   0  -8   7    0.10    0.44
   0  -8   6    1.16    0.49
   0  -8   5    0.93    0.44
   0  -8   4    3.15    0.68
   0  -8   3   -0.24    0.47
   0  -8   2    0.09    0.42
   0  -8   1    0.06    0.45
   0  -8   0    1.19    0.49
   0  -8  -1    0.67    0.46
   0  -8  -2    0.61    0.45
   0  -8  -3   -0.23    0.66
   0  -8  -4    3.13    0.67
   0  -8  -5    0.24    0.68
   0  -8  -6    1.11    0.57
   0  -8  -7   -0.02    0.54
   0  -7 -11    0.70    0.56
   0  -7 -10    0.28    0.64
   0  -7  -9    4.14    0.64
   0  -7  -8    0.81    0.57
   0  -7  -7    2.88    0.72
   0  -7  -6    1.28    0.69
   0  -7  -5   -0.50    0.43
   0  -7  -4    0.45    0.44
   0  -7  -3    5.45    0.63
   0  -7  -2    0.17    0.44
   0  -6  -2    8.90    0.44
   0  -6  -3   21.71    0.64
   0  -6  -4   39.36    1.18
   0  -6  -5    5.79    0.63
   0  -6  -6   -0.33    0.34
   0  -6  -7    2.80    0.54
   0  -6  -8    1.57    0.49
   0  -6  -9    0.43    0.67
   0  -6 -10    1.26    0.55
   0  -6 -11    0.18    0.55
   0  -6 -12    2.00    0.56
   0  -6 -13    0.46    0.46
   0  -6 -14    2.15    0.57
   0  -5 -16    0.12    0.70
   0  -5 -15    0.05    0.43
   0  -5 -14    1.49    0.57
   0  -5 -13    0.81    0.48
   0  -5 -12    3.80    0.62
   0  -5 -11   -0.07    0.48
   0  -5 -10   10.73    0.75
   0  -5  -9    0.45    0.36
   0  -5  -8    1.41    0.28
   0  -5  -7    0.98    0.27
   0  -5  -6    1.49    0.27
   0  -5  -5    4.77    0.38
   0  -5  -4    4.71    0.36
   0  -5  -3    0.65    0.32
   0  -5  -2    4.01    0.34
   0  -4  -2  224.84    3.52
   0  -4  -3    4.28    0.35
   0  -4  -4    1.58    0.24
   0  -4  -5    0.46    0.23
   0  -4  -6    3.39    0.33
   0  -4  -7   13.53    0.51
   0  -4  -8   13.83    0.52
   0  -4  -9   30.95    1.21
   0  -4 -10    0.04    0.24
   0  -4 -11    1.51    0.35
   0  -4 -12    1.93    0.56
   0  -4 -13    2.35    0.59
   0  -4 -14    1.27    0.49
   0  -4 -15   -0.11    0.54
   0  -4 -16    1.20    0.49
   0  -4 -17    1.14    0.60
   0  -4 -18    0.39    0.43
   0  -3 -19   -0.38    0.34
   0  -3 -18    1.57    0.68
   0  -3 -17    3.19    0.63
   0  -3 -16    1.13    0.44
   0  -3 -15    1.19    0.48
   0  -3 -14    3.15    0.54
   0  -3 -13   35.64    1.15
   0  -3 -12    8.21    0.43
   0  -3 -11   10.56    0.48
   0  -3 -10    6.26    0.40
   0  -3  -9   21.52    0.71
   0  -3  -8   23.17    0.83
   0  -3  -7   10.25    0.42
   0  -3  -6    2.16    0.27
   0  -3  -5    1.33    0.27
   0  -3  -4    1.88    0.25
   0  -3  -3   12.78    0.52
   0  -3  -2   23.60    0.78
   0  -2  -2  795.20    5.99
   0  -2  -3   91.47    2.27
   0  -2  -4   41.15    1.56
   0  -2  -5    4.11    0.27
   0  -2  -6    0.65    0.21
   0  -2  -7   83.99    2.18
   0  -2  -8   14.05    0.49
   0  -2  -9    1.22    0.24
   0  -2 -10    2.69    0.31
   0  -2 -11    0.14    0.25
   0  -2 -12   14.25    0.54
   0  -2 -13    0.21    0.23
   0  -2 -14    6.61    0.41
   0  -2 -15   -0.12    0.44
   0  -2 -16    0.73    0.37
   0  -2 -17    1.82    0.49
   0  -2 -18    0.75    0.43
   0  -2 -19    0.11    0.40
   0  -1 -20    0.21    0.47
   0  -1 -19    0.41    0.49
   0  -1 -18    0.99    0.42
   0  -1 -17    1.38    0.54
   0  -1 -16    2.41    0.55
   0  -1 -15   21.88    0.99
   0  -1 -14    8.84    0.44
   0  -1 -13    1.15    0.25
   0  -1 -12    1.52    0.28
   0  -1 -11   43.41    1.58
   0  -1 -10    0.92    0.24
   0  -1  -9    1.25    0.24
   0  -1  -8    5.19    0.33
   0  -1  -7   10.91    0.40
   0  -1  -6   62.82    1.91
   0  -1  -5   32.35    1.40
   0  -1  -4  149.13    2.55
   0  -1  -3    0.42    0.14
   0  -1  -2    2.93    0.16
   0   0  -2   43.67    1.05
   0   0  -3    0.17    0.14
   0   0  -4  158.65    2.70
   0   0  -5   -0.04    0.15
   0   0  -6   22.57    0.76
   0   0  -7    0.19    0.17
   0   0  -8    1.45    0.22
   0   0  -9   -0.15    0.18
   0   0 -10  269.99    3.81
   0   0 -11    1.02    0.25
   0   0 -12   26.79    1.27
   0   0 -13    0.21    0.26
   0   0 -14    2.10    0.30
   0   0 -15    0.00    0.49
   0   0 -16    8.18    0.64
   0   0 -17    0.37    0.53
   0   0 -18   -0.01    0.39
   0   0 -19   -0.08    0.38
   0   0 -20    0.02    0.39
   0   1 -20    0.13    0.38
   0   1 -19    0.88    0.42
   0   1 -18    0.25    0.43
   0   1 -17    0.93    0.46
   0   1 -16    0.98    0.44
   0   1 -15   20.45    1.01
   0   1 -14    7.51    0.47
   0   1 -13    1.26    0.27
   0   1 -12    1.38    0.28
   0   1 -11   46.34    1.65
   0   1 -10    0.45    0.20
   0   1  -9    1.23    0.36
   0   1  -8    4.46    0.31
   0   1  -7    8.68    0.43
   0   1  -6   57.19    1.91
   0   1  -5   31.46    1.40
   0   1  -4  146.70    2.62
   0   1  -3    0.35    0.13
   0   1  -2    2.22    0.16
   1  -8   6    0.81    0.46
   1  -8   5    0.01    0.54
   1  -8   4    2.94    0.65
   1  -8   3    5.14    0.75
   1  -8   2    0.41    0.52
   1  -8   1    0.17    0.42
   1  -8   0    1.38    0.65
   1  -8  -1   -0.02    0.43
   1  -7  -1    2.12    0.53
   1  -7   0   -0.20    0.45
   1  -7   1    0.40    0.49
   1  -7   2   -0.39    0.74
   1  -7   3    0.32    0.42
   1  -7   4   -0.28    0.40
   1  -7   5    0.47    0.44
   1  -7   6    0.08    0.41
   1  -7   7    0.29    0.57
   1  -7   8    2.82    0.56
   1  -7   9    0.25    0.48
   1  -7  10    0.76    0.61
   1  -7  11    0.11    0.44
   1  -6  14   -0.30    0.42
   1  -6  13   -0.08    0.39
   1  -6  12    0.49    0.41
   1  -6  11   -0.66    0.35
   1  -6  10    3.15    0.53
   1  -6   9    0.63    0.40
   1  -6   8    1.88    0.45
   1  -6   7    3.44    0.59
   1  -6   6    0.30    0.38
   1  -6   5    0.05    0.56
   1  -6   4    2.61    0.57
   1  -6   3    1.06    0.30
   1  -6   2   11.61    0.49
   1  -6   1   -0.15    0.25
   1  -6   0    0.76    0.24
   1  -6  -1   -0.19    0.23
   1  -5  -1    0.78    0.26
   1  -5   0    2.17    0.45
   1  -5   1   23.63    0.77
   1  -5   2   15.24    0.52
   1  -5   3    0.45    0.22
   1  -5   4    0.24    0.20
   1  -5   5    2.69    0.29
   1  -5   6    0.95    0.25
   1  -5   7   15.20    0.54
   1  -5   8    0.56    0.24
   1  -5   9    1.76    0.50
   1  -5  10    0.23    0.40
   1  -5  11   10.60    0.75
   1  -5  12   -0.30    0.38
   1  -5  13    5.58    0.74
   1  -5  14    0.11    0.46
   1  -5  15   -0.17    0.39
   1  -5  16    1.08    0.51
   1  -4  17   -0.25    0.44
   1  -4  16    0.12    0.53
   1  -4  15    0.98    0.42
   1  -4  14    0.73    0.41
   1  -4  13    0.83    0.71
   1  -4  12   11.68    0.78
   1  -4  11    1.14    0.41
   1  -4  10    0.02    0.23
   1  -4   9    8.02    0.45
   1  -4   8    8.85    0.44
   1  -4   7   -0.20    0.30
   1  -4   6   -0.07    0.20
   1  -4   5   17.69    0.63
   1  -4   4    0.60    0.30
   1  -4   3   30.82    1.34
   1  -4   2  293.42    3.93
   1  -4   1   29.88    0.91
   1  -4   0   17.53    0.69
   1  -4  -1   24.35    0.80
   1  -3  -1  148.77    2.87
   1  -3   0    0.27    0.18
   1  -3   1    3.46    0.29
   1  -3   2   35.08    1.57
   1  -3   3    1.48    0.22
   1  -3   4   27.10    1.34
   1  -3   5   10.23    0.41
   1  -3   6    7.59    0.38
   1  -3   7    2.99    0.32
   1  -3   8   26.40    0.83
   1  -3   9   21.98    0.73
   1  -3  10    0.07    0.21
   1  -3  11    3.60    0.36
   1  -3  12    0.86    0.26
   1  -3  13   -0.35    0.36
   1  -3  14    1.58    0.46
   1  -3  15    4.49    0.62
   1  -3  16    0.04    0.39
   1  -3  17   -0.09    0.43
   1  -3  18   -0.08    0.41
   1  -2  19    2.79    0.65
   1  -2  18   -0.54    0.53
   1  -2  17   -0.51    0.32
   1  -2  16    1.17    0.47
   1  -2  15    0.44    0.58
   1  -2  14    1.91    0.68
   1  -2  13    0.38    0.26
   1  -2  12    0.79    0.27
   1  -2  11   23.26    0.76
   1  -2  10   20.14    0.70
   1  -2   9   71.62    2.05
   1  -2   8    9.56    0.43
   1  -2   7   13.16    0.55
   1  -2   6   45.98    1.73
   1  -2   5    4.04    0.28
   1  -2   4   55.85    1.72
   1  -2   3   30.10    1.34
   1  -2   2   32.59    1.45
   1  -2   1  568.40    5.10
   1  -2   0  724.15    5.77
   1  -2  -1  272.54    3.62
   1  -1  -1    2.04    0.13
   1  -1   0    1.76    0.13
   1  -1   1   74.68    1.58
   1  -1   2   96.53    1.79
   1  -1   3   30.72    1.23
   1  -1   4   93.14    2.11
   1  -1   5    4.36    0.26
   1  -1   6  216.00    3.33
   1  -1   7   37.17    1.52
   1  -1   8    6.83    0.35
   1  -1   9   20.82    0.70
   1  -1  10   -0.01    0.28
   1  -1  11    5.34    0.37
   1  -1  12   -0.38    0.38
   1  -1  13    2.75    0.33
   1  -1  14    0.74    0.24
   1  -1  15    5.00    0.60
   1  -1  16    8.81    0.78
   1  -1  17    0.17    0.42
   1  -1  18    0.51    0.52
   1  -1  19    0.41    0.40
   1   0  19    1.24    0.45
   1   0  18    0.16    0.41
   1   0  17    2.79    0.71
   1   0  16   -0.01    0.44
   1   0  15    0.93    0.45
   1   0  14   -0.35    0.20
   1   0  13    4.99    0.38
   1   0  12   -0.22    0.22
   1   0  11   46.70    1.61
   1   0  10    0.41    0.22
   1   0   9   14.79    0.50
   1   0   8    0.17    0.19
   1   0   7   86.87    2.24
   1   0   6    0.28    0.16
   1   0   5   13.87    0.52
   1   0   4   -0.20    0.21
   1   0   3   76.69    1.83
   1   0   2   -0.13    0.11
   1   0   1  305.35    2.33
   1   1  -1    1.90    0.13
   1   1   0    1.82    0.12
   1   1   1   79.50    1.61
   1   1   2  103.61    1.92
   1   1   3   29.69    1.24
   1   1   4   91.24    2.11
   1   1   5    4.30    0.25
   1   1   6  214.71    3.40
   1   1   7   40.84    1.60
   1   1   8    7.17    0.37
   1   1   9   21.27    0.84
   1   1  10    0.06    0.21
   1   1  11    4.60    0.35
   1   1  12    0.25    0.29
   1   1  13    3.11    0.33
   1   1  14    0.43    0.25
   1   1  15    4.57    0.73
   1   1  16    9.90    0.82
   1   1  17    0.12    0.37
   1   1  18    0.34    0.43
   1   1  19    0.58    0.45
   1   1 -20   -0.09    0.37
   1   1 -19    0.39    0.64
   1   1 -18   -0.02    0.40
   1   1 -17    7.38    0.73
   1   1 -16    2.28    0.57
   1   1 -15    0.94    0.26
   1   1 -14    0.06    0.21
   1   1 -13    0.59    0.25
   1   1 -12    0.69    0.21
   1   1 -11   16.25    0.65
   1   1 -10   14.83    0.58
   1   1  -9    0.32    0.19
   1   1  -8   27.87    1.37
   1   1  -7  158.90    2.91
   1   1  -6   51.40    1.80
   1   1  -5   26.20    0.89
   1   1  -4   54.51    1.62
   1   1  -3   31.01    1.20
   1   1  -2    8.97    0.38
   1   0  -2    0.00    0.07
   1   0  -3    4.63    0.20
   1   0  -4   -0.02    0.14
   1   0  -5   81.73    2.11
   1   0  -6   -0.13    0.15
   1   0  -7   17.15    0.65
   1   0  -8   -0.22    0.18
   1   0  -9  101.09    2.46
   1   0 -10    0.01    0.19
   1   0 -11   40.76    1.56
   1   0 -12    0.08    0.23
   1   0 -13    1.67    0.43
   1   0 -14    0.15    0.23
   1   0 -15    6.49    0.50
   1   0 -16   -0.32    0.37
   1   0 -17   -0.03    0.42
   1   0 -18    0.01    0.34
   1   0 -19    1.09    0.44
   1   0 -20    0.10    0.35
   1  -1 -20   -0.15    0.43
   1  -1 -19    1.35    0.59
   1  -1 -18   -0.16    0.47
   1  -1 -17    5.62    0.79
   1  -1 -16    3.71    0.49
   1  -1 -15    0.89    0.29
   1  -1 -14    0.56    0.29
   1  -1 -13    0.75    0.23
   1  -1 -12    0.19    0.23
   1  -1 -11   16.92    0.64
   1  -1 -10   15.69    0.54
   1  -1  -9    0.20    0.20
   1  -1  -8   27.15    0.92
   1  -1  -7  148.83    2.84
   1  -1  -6   60.38    1.84
   1  -1  -5   26.46    1.27
   1  -1  -4   54.33    1.59
   1  -1  -3   29.78    1.17
   1  -1  -2   10.43    0.33
   1  -2  -2 1019.62    6.93
   1  -2  -3    3.96    0.24
   1  -2  -4   93.47    2.31
   1  -2  -5   14.07    0.48
   1  -2  -6   59.63    1.90
   1  -2  -7   -0.24    0.21
   1  -2  -8    2.81    0.28
   1  -2  -9    0.43    0.24
   1  -2 -10    7.43    0.41
   1  -2 -11    4.66    0.35
   1  -2 -12   32.34    1.27
   1  -2 -13    2.72    0.34
   1  -2 -14    3.36    0.44
   1  -2 -15    0.58    0.45
   1  -2 -16    6.47    0.74
   1  -2 -17   -0.05    0.37
   1  -2 -18    1.73    0.54
   1  -2 -19    0.15    0.62
   1  -2 -20   -0.27    0.41
   1  -3 -19   -0.19    0.43
   1  -3 -18    0.53    0.44
   1  -3 -17    5.67    0.74
   1  -3 -16    0.19    0.50
   1  -3 -15    1.12    0.48
   1  -3 -14    1.29    0.46
   1  -3 -13    4.76    0.39
   1  -3 -12    0.37    0.25
   1  -3 -11   16.81    0.58
   1  -3 -10    0.58    0.24
   1  -3  -9   -0.01    0.25
   1  -3  -8   18.12    0.56
   1  -3  -7    3.62    0.32
   1  -3  -6    5.91    0.35
   1  -3  -5    0.85    0.22
   1  -3  -4   10.78    0.40
   1  -3  -3   16.55    0.60
   1  -3  -2    0.28    0.19
   1  -4  -2    0.03    0.22
   1  -4  -3   -0.05    0.35
   1  -4  -4   76.18    2.06
   1  -4  -5    3.99    0.32
   1  -4  -6    0.29    0.22
   1  -4  -7    1.30    0.28
   1  -4  -8   22.48    0.70
   1  -4  -9    2.02    0.31
   1  -4 -10   15.06    0.60
   1  -4 -11    1.37    0.31
   1  -4 -12    0.63    0.44
   1  -4 -13    2.81    0.51
   1  -4 -14    6.10    0.67
   1  -4 -15    1.09    0.44
   1  -4 -16   -0.42    0.50
   1  -4 -17    0.55    0.41
   1  -4 -18    1.17    0.53
   1  -5 -17    0.23    0.37
   1  -5 -16   -0.44    0.41
   1  -5 -15    1.38    0.51
   1  -5 -14    0.32    0.59
   1  -5 -13    6.35    0.76
   1  -5 -12    1.22    0.52
   1  -5 -11   -0.03    0.45
   1  -5 -10   -0.31    0.46
   1  -5  -9   12.65    0.49
   1  -5  -8    4.17    0.35
   1  -5  -7    0.74    0.26
   1  -5  -6    0.38    0.26
   1  -5  -5   14.49    0.53
   1  -5  -4    7.57    0.42
   1  -5  -3   12.94    0.51
   1  -5  -2    0.42    0.24
   1  -6  -2    1.06    0.30
   1  -6  -3   26.42    1.02
   1  -6  -4   27.51    1.03
   1  -6  -5    2.47    0.54
   1  -6  -6    1.42    0.46
   1  -6  -7    0.80    0.44
   1  -6  -8    0.41    0.51
   1  -6  -9   -0.19    0.42
   1  -6 -10    1.23    0.48
   1  -6 -11    0.33    0.46
   1  -6 -12    0.43    0.67
   1  -6 -13   -0.75    0.45
   1  -6 -14    2.38    0.58
   1  -6 -15    0.10    0.53
   1  -7 -12   -0.23    0.55
   1  -7 -11    0.91    0.53
   1  -7 -10    1.27    0.56
   1  -7  -9    0.17    0.70
   1  -7  -8    2.20    0.56
   1  -7  -7    0.19    0.69
   1  -7  -6    0.65    0.43
   1  -7  -5   -0.13    0.46
   1  -7  -4   -0.29    0.46
   1  -7  -3    1.20    0.52
   1  -7  -2    2.91    0.48
   1  -8  -2    0.51    0.45
   1  -8  -3    1.58    0.53
   1  -8  -4   -0.18    0.59
   1  -8  -5    4.98    0.94
   1  -8  -6    5.30    0.78
   1  -8  -7   -0.41    0.53
   2   1  -1   31.72    1.08
   2   1   0   87.52    1.64
   2   1   1   75.30    1.68
   2   1   2  175.68    2.64
   2   1   3   53.03    1.60
   2   1   4   30.95    1.32
   2   1   5    0.28    0.17
   2   1   6   -0.14    0.17
   2   1   7    0.81    0.21
   2   1   8    4.63    0.32
   2   1   9    8.02    0.40
   2   1  10    7.68    0.43
   2   1  11    6.42    0.38
   2   1  12   20.99    1.01
   2   1  13   11.11    0.52
   2   1  14    7.70    0.69
   2   1  15    1.04    0.49
   2   1  16    0.50    0.38
   2   1  17    0.46    0.35
   2   1  18    0.11    0.41
   2   1  19    0.64    0.40
   2   0  19    0.36    0.52
   2   0  18    0.13    0.33
   2   0  17   -0.24    0.43
   2   0  16    1.25    0.53
   2   0  15   -0.07    0.49
   2   0  14    6.78    0.63
   2   0  13    0.14    0.23
   2   0  12    1.65    0.28
   2   0  11   -0.05    0.22
   2   0  10    0.67    0.38
   2   0   9   -0.30    0.19
   2   0   8   53.97    1.80
   2   0   7    0.22    0.21
   2   0   6    2.53    0.24
   2   0   5   -0.27    0.15
   2   0   4   30.55    1.32
   2   0   3   -0.18    0.25
   2   0   2    1.64    0.18
   2   0   1    0.00    0.12
   2   0   0   20.80    0.73
   2   0  -1    0.00    0.07
   2  -1  -1   30.78    1.15
   2  -1   0   83.19    1.68
   2  -1   1   72.65    1.62
   2  -1   2  177.82    2.64
   2  -1   3   52.53    1.62
   2  -1   4   30.03    1.26
   2  -1   5   -0.08    0.17
   2  -1   6    0.06    0.18
   2  -1   7    1.00    0.22
   2  -1   8    4.93    0.32
   2  -1   9    7.32    0.39
   2  -1  10    7.91    0.41
   2  -1  11    6.94    0.40
   2  -1  12   20.43    0.67
   2  -1  13   11.10    0.49
   2  -1  14    7.38    0.74
   2  -1  15    0.57    0.36
   2  -1  16    0.35    0.41
   2  -1  17    0.58    0.42
   2  -1  18    0.29    0.60
   2  -1  19    0.00    0.44
   2  -2  18   -0.10    0.40
   2  -2  17    1.03    0.47
   2  -2  16    0.41    0.45
   2  -2  15    3.47    0.60
   2  -2  14    2.00    0.51
   2  -2  13    0.84    0.23
   2  -2  12   13.69    0.54
   2  -2  11    3.32    0.33
   2  -2  10    0.50    0.23
   2  -2   9    7.13    0.41
   2  -2   8   -0.12    0.20
   2  -2   7    3.93    0.31
   2  -2   6   28.42    0.91
   2  -2   5   24.26    0.79
   2  -2   4    0.31    0.17
   2  -2   3   10.55    0.36
   2  -2   2   10.38    0.33
   2  -2   1   65.67    1.84
   2  -2   0  472.08    4.71
   2  -2  -1  373.89    4.30
   2  -3  -1    0.17    0.20
   2  -3   0   20.35    0.75
   2  -3   1    1.30    0.21
   2  -3   2    0.89    0.27
   2  -3   3    0.24    0.22
   2  -3   4  107.60    2.43
   2  -3   5    0.93    0.22
   2  -3   6    6.25    0.38
   2  -3   7    0.67    0.23
   2  -3   8   15.94    0.55
   2  -3   9    4.63    0.34
   2  -3  10    4.51    0.36
   2  -3  11    4.55    0.35
   2  -3  12    0.40    0.42
   2  -3  13    0.13    0.34
   2  -3  14    4.14    0.58
   2  -3  15    0.25    0.70
   2  -3  16    1.91    0.54
   2  -3  17   -0.22    0.43
   2  -3  18    0.30    0.48
   2  -4  17    0.24    0.48
   2  -4  16    0.27    0.54
   2  -4  15    0.25    0.45
   2  -4  14    0.85    0.47
   2  -4  13    4.47    0.63
   2  -4  12    0.61    0.36
   2  -4  11   -0.11    0.37
   2  -4  10    6.52    0.39
   2  -4   9    5.68    0.38
   2  -4   8    3.28    0.32
   2  -4   7    0.23    0.21
   2  -4   6    0.11    0.21
   2  -4   5   14.86    0.51
   2  -4   4    9.54    0.42
   2  -4   3    3.90    0.32
   2  -4   2    7.06    0.37
   2  -4   1    0.88    0.41
   2  -4   0    2.69    0.28
   2  -4  -1    1.15    0.23
   2  -5  -1    2.26    0.29
   2  -5   0    0.86    0.31
   2  -5   1    0.33    0.22
   2  -5   2    1.97    0.29
   2  -5   3    0.47    0.24
   2  -5   4    0.17    0.25
   2  -5   5    0.79    0.24
   2  -5   6    1.35    0.26
   2  -5   7    5.49    0.39
   2  -5   8   12.01    0.70
   2  -5   9    0.35    0.44
   2  -5  10    0.70    0.45
   2  -5  11    5.14    0.65
   2  -5  12    3.67    0.56
   2  -5  13   -0.11    0.40
   2  -5  14    1.18    0.48
   2  -5  15    0.35    0.49
   2  -6  13    0.90    0.46
   2  -6  12   -0.32    0.42
   2  -6  11    2.97    0.57
   2  -6  10    0.32    0.41
   2  -6   9   -0.13    0.43
   2  -6   8    0.94    0.42
   2  -6   7    0.61    0.44
   2  -6   6    0.97    0.42
   2  -6   5    0.61    0.46
   2  -6   4    1.26    0.56
   2  -6   3   28.42    1.01
   2  -6   2   18.82    0.58
   2  -6   1   10.71    0.48
   2  -6   0    3.04    0.32
   2  -6  -1    0.91    0.32
   2  -7  -1    0.25    0.43
   2  -7   0    2.10    0.49
   2  -7   1    2.71    0.56
   2  -7   2    0.53    0.43
   2  -7   3   -0.23    0.41
   2  -7   4    0.03    0.40
   2  -7   5    0.55    0.45
   2  -7   6    0.28    0.47
   2  -7   7    1.85    0.48
   2  -7   8    0.05    0.38
   2  -7   9    1.29    0.80
   2  -7  10    2.00    0.82
   2  -8   6   -0.19    0.65
   2  -8   5    2.45    0.62
   2  -8   4    3.14    0.71
   2  -8   3    1.90    0.55
   2  -8   2   -0.34    0.51
   2  -8   1    1.37    0.52
   2  -8   0    0.17    0.52
   2  -8  -1    0.89    0.46
   2  -8  -2   -0.42    0.47
   2  -8  -3    0.37    0.42
   2  -8  -4    2.53    0.60
   2  -8  -5    2.71    0.77
   2  -8  -6    1.52    0.69
   2  -8  -7    0.43    0.52
   2  -8  -8   -0.30    0.59
   2  -7 -12    0.69    0.52
   2  -7 -11   -0.25    0.48
   2  -7 -10   -0.42    0.42
   2  -7  -9    1.58    0.61
   2  -7  -8   -0.29    0.44
   2  -7  -7    0.48    0.57
   2  -7  -6   -0.11    0.38
   2  -7  -5    0.94    0.47
   2  -7  -4    0.72    0.49
   2  -7  -3    0.16    0.55
   2  -7  -2   -0.13    0.39
   2  -6  -2   -0.68    0.36
   2  -6  -3    7.51    0.44
   2  -6  -4    0.18    0.34
   2  -6  -5    2.66    0.49
   2  -6  -6    5.53    0.58
   2  -6  -7    3.23    0.64
   2  -6  -8    0.49    0.43
   2  -6  -9    1.57    0.50
   2  -6 -10    0.11    0.44
   2  -6 -11   -0.31    0.44
   2  -6 -12    5.31    0.74
   2  -6 -13   -0.31    0.49
   2  -6 -14   -0.44    0.47
   2  -6 -15    0.57    0.49
   2  -5 -17    0.19    0.59
   2  -5 -16    0.83    0.48
   2  -5 -15    0.33    0.51
   2  -5 -14    0.81    0.51
   2  -5 -13   -0.50    0.42
   2  -5 -12    0.05    0.42
   2  -5 -11    3.60    0.58
   2  -5 -10    3.08    0.55
   2  -5  -9    1.27    0.31
   2  -5  -8    4.78    0.38
   2  -5  -7    0.44    0.26
   2  -5  -6    0.26    0.27
   2  -5  -5    4.50    0.36
   2  -5  -4    0.16    0.22
   2  -5  -3    4.47    0.34
   2  -5  -2   12.16    0.50
   2  -4  -2    3.47    0.31
   2  -4  -3   54.96    1.77
   2  -4  -4   70.28    2.01
   2  -4  -5    7.09    0.39
   2  -4  -6    4.37    0.34
   2  -4  -7    9.36    0.44
   2  -4  -8   17.26    0.56
   2  -4  -9    0.21    0.24
   2  -4 -10    1.27    0.29
   2  -4 -11    0.38    0.24
   2  -4 -12    4.08    0.35
   2  -4 -13    0.36    0.44
   2  -4 -14    5.95    0.63
   2  -4 -15   -0.26    0.43
   2  -4 -16    0.46    0.40
   2  -4 -17    0.28    0.49
   2  -4 -18    2.11    0.59
   2  -3 -20    0.46    0.58
   2  -3 -19    0.07    0.55
   2  -3 -18    0.57    0.51
   2  -3 -17    1.49    0.49
   2  -3 -16    1.69    0.45
   2  -3 -15    0.23    0.49
   2  -3 -14    5.11    0.58
   2  -3 -13    4.28    0.36
   2  -3 -12   -0.33    0.22
   2  -3 -11    1.78    0.40
   2  -3 -10    0.12    0.22
   2  -3  -9    0.41    0.26
   2  -3  -8    1.64    0.27
   2  -3  -7   -0.50    0.20
   2  -3  -6   82.28    2.29
   2  -3  -5    0.16    0.22
   2  -3  -4   18.55    0.80
   2  -3  -3   52.75    1.77
   2  -3  -2   29.45    0.92
   2  -2  -2  201.80    3.12
   2  -2  -3   20.77    0.68
   2  -2  -4   12.13    0.38
   2  -2  -5    0.29    0.17
   2  -2  -6   18.67    0.66
   2  -2  -7    8.93    0.37
   2  -2  -8    2.94    0.31
   2  -2  -9   31.01    1.39
   2  -2 -10   58.58    1.88
   2  -2 -11    0.49    0.24
   2  -2 -12    2.46    0.33
   2  -2 -13    6.53    0.42
   2  -2 -14   12.73    0.52
   2  -2 -15    1.03    0.45
   2  -2 -16    2.46    0.51
   2  -2 -17    0.13    0.53
   2  -2 -18    0.53    0.37
   2  -2 -19    0.95    0.46
   2  -2 -20    0.86    0.43
   2  -1 -20    0.10    0.58
   2  -1 -19    0.00    0.52
   2  -1 -18    0.03    0.38
   2  -1 -17    0.36    0.44
   2  -1 -16    0.57    0.38
   2  -1 -15   17.45    0.62
   2  -1 -14    0.33    0.34
   2  -1 -13   12.42    0.51
   2  -1 -12    3.43    0.34
   2  -1 -11    2.78    0.29
   2  -1 -10    2.67    0.31
   2  -1  -9    0.82    0.22
   2  -1  -8   57.10    1.93
   2  -1  -7    5.91    0.32
   2  -1  -6    2.49    0.22
   2  -1  -5   55.23    1.75
   2  -1  -4   87.34    1.92
   2  -1  -3  152.94    2.36
   2  -1  -2    0.77    0.13
   2   0  -2  349.13    2.81
   2   0  -3   -0.01    0.11
   2   0  -4    0.26    0.14
   2   0  -5   -0.11    0.21
   2   0  -6    5.60    0.29
   2   0  -7   -0.03    0.15
   2   0  -8   36.33    1.65
   2   0  -9    0.23    0.20
   2   0 -10   18.63    0.70
   2   0 -11    0.17    0.20
   2   0 -12   10.58    0.49
   2   0 -13   -0.15    0.36
   2   0 -14    0.56    0.23
   2   0 -15    0.35    0.25
   2   0 -16    2.76    0.58
   2   0 -17    0.54    0.33
   2   0 -18    5.90    0.69
   2   0 -19   -0.06    0.30
   2   0 -20   -0.15    0.34
   2   1 -20   -0.05    0.37
   2   1 -19    0.19    0.38
   2   1 -18   -0.42    0.33
   2   1 -17   -0.12    0.31
   2   1 -16   -0.16    0.52
   2   1 -15   17.67    0.63
   2   1 -14    0.55    0.27
   2   1 -13   11.90    0.54
   2   1 -12    4.08    0.44
   2   1 -11    2.77    0.30
   2   1 -10    2.39    0.28
   2   1  -9    0.52    0.22
   2   1  -8   58.31    1.93
   2   1  -7    5.60    0.31
   2   1  -6    2.41    0.23
   2   1  -5   57.09    1.72
   2   1  -4   92.20    2.05
   2   1  -3  160.87    2.47
   2   1  -2    0.44    0.12
   3  -8   5   -0.53    0.50
   3  -8   4   -0.30    0.57
   3  -8   3    0.25    0.79
   3  -8   2   -0.13    0.34
   3  -8   1    0.13    0.62
   3  -8   0    0.59    0.42
   3  -8  -1    0.66    0.41
   3  -7  -1    0.65    0.42
   3  -7   0    0.51    0.40
   3  -7   1    0.61    0.46
   3  -7   2    1.97    0.53
   3  -7   3    0.49    0.42
   3  -7   4    0.81    0.39
   3  -7   5    0.30    0.51
   3  -7   6   -0.49    0.34
   3  -7   7   -0.24    0.38
   3  -7   8    0.59    0.49
   3  -7   9    0.18    0.46
   0   0   0    0.00    0.00
;
_shelx_hkl_checksum              84288
loop_
_space_group_symop_operation_xyz
'x, y, z'
'-x+1/2, y+1/2, -z+1/2'
'-x, -y, -z'
'x-1/2, -y-1/2, z-1/2'
loop_
_atom_site_label
_atom_site_type_symbol
_atom_site_fract_x
_atom_site_fract_y
_atom_site_fract_z
_atom_site_U_iso_or_equiv
_atom_site_adp_type
_atom_site_occupancy
_atom_site_site_symmetry_order
_atom_site_calc_flag
_atom_site_refinement_flags_posn
_atom_site_refinement_flags_adp
C1 C 0.49130(19) 0.4738(5) 0.73578(18) 0.0481(9) Uani 1 1 d . .
H1B H 0.5449 0.4761 0.7491 0.058 Uiso 1 1 calc R U
C2 C 0.46653(18) 0.5140(5) 0.79146(18) 0.0429(8) Uani 1 1 d . .
C3 C 0.38574(19) 0.5093(5) 0.76917(18) 0.0461(9) Uani 1 1 d . .
H3B H 0.3683 0.5351 0.8055 0.055 Uiso 1 1 calc R U
C4 C 0.33111(18) 0.4666(4) 0.69317(18) 0.0419(8) Uani 1 1 d . .
C4A C 0.35393(17) 0.4220(4) 0.63637(17) 0.0399(8) Uani 1 1 d . .
C4B C 0.31390(17) 0.3688(4) 0.55267(17) 0.0391(8) Uani 1 1 d . .
C5 C 0.23726(18) 0.3197(4) 0.49805(18) 0.0422(8) Uani 1 1 d . .
C6 C 0.2181(2) 0.2873(5) 0.42088(19) 0.0496(9) Uani 1 1 d . .
H6A H 0.1664 0.2584 0.3846 0.060 Uiso 1 1 calc R U
C7 C 0.2767(2) 0.2984(5) 0.39890(19) 0.0491(9) Uani 1 1 d . .
C8 C 0.3544(2) 0.3347(5) 0.45082(19) 0.0519(9) Uani 1 1 d . .
H8A H 0.3937 0.3360 0.4354 0.062 Uiso 1 1 calc R U
C8A C 0.37146(18) 0.3689(5) 0.52668(18) 0.0436(8) Uani 1 1 d . .
C9 C 0.4506(2) 0.4026(5) 0.59346(19) 0.0507(9) Uani 1 1 d . .
C9A C 0.43585(18) 0.4310(5) 0.66161(18) 0.0425(8) Uani 1 1 d . .
O10 O 0.51419(13) 0.4066(4) 0.59366(13) 0.0737(8) Uani 1 1 d . .
C11 C 0.5275(2) 0.5728(5) 0.87016(19) 0.0507(9) Uani 1 1 d . .
O12 O 0.59766(14) 0.5705(4) 0.88985(13) 0.0720(8) Uani 1 1 d . .
O13 O 0.49649(13) 0.6310(4) 0.91474(12) 0.0573(7) Uani 1 1 d . .
C14 C 0.5523(2) 0.7040(6) 0.99005(19) 0.0689(12) Uani 1 1 d . .
H14A H 0.5239 0.7522 1.0159 0.103 Uiso 1 1 calc R U
H14B H 0.5828 0.8015 0.9833 0.103 Uiso 1 1 calc R U
H14C H 0.5871 0.6066 1.0209 0.103 Uiso 1 1 calc R U
N15 N 0.24704(17) 0.4947(5) 0.67393(18) 0.0584(9) Uani 1 1 d . .
O16 O 0.20472(13) 0.5751(4) 0.61354(15) 0.0643(7) Uani 1 1 d . .
O17 O 0.22696(15) 0.4394(6) 0.72154(15) 0.1035(12) Uani 1 1 d . .
N18 N 0.17275(17) 0.2796(4) 0.51758(19) 0.0529(8) Uani 1 1 d . .
O19 O 0.10545(14) 0.3244(4) 0.47039(15) 0.0759(8) Uani 1 1 d . .
O20 O 0.19098(14) 0.1995(4) 0.57919(16) 0.0649(7) Uani 1 1 d . .
N21 N 0.2542(2) 0.2615(5) 0.31586(17) 0.0714(10) Uani 1 1 d . .
O22 O 0.30640(17) 0.2593(6) 0.29689(15) 0.1069(12) Uani 1 1 d . .
O23 O 0.18454(18) 0.2370(6) 0.27095(15) 0.1071(12) Uani 1 1 d . .
S24 S 0.51751(6) 0.93712(18) 0.68590(7) 0.0826(4) Uani 1 1 d . .
C25 C 0.5180(3) 0.9826(6) 0.7741(2) 0.0848(15) Uani 1 1 d . .
H25A H 0.5652 1.0022 0.8194 0.102 Uiso 1 1 calc R U
C26 C 0.4489(3) 0.9881(6) 0.7743(2) 0.0796(13) Uani 1 1 d . .
H26A H 0.4464 1.0114 0.8202 0.096 Uiso 1 1 calc R U
S27 S 0.36353(6) 0.95165(14) 0.68823(5) 0.0609(3) Uani 1 1 d . .
C28 C 0.4138(2) 0.9176(5) 0.6327(2) 0.0516(9) Uani 1 1 d . .
C29 C 0.37572(19) 0.8760(5) 0.55668(19) 0.0485(9) Uani 1 1 d . .
S30 S 0.42490(6) 0.84659(17) 0.50040(6) 0.0745(4) Uani 1 1 d . .
C31 C 0.3398(2) 0.8105(5) 0.4141(2) 0.0695(12) Uani 1 1 d . .
H31A H 0.3423 0.7893 0.3681 0.083 Uiso 1 1 calc R U
C32 C 0.2705(2) 0.8136(5) 0.4147(2) 0.0643(11) Uani 1 1 d . .
H32A H 0.2231 0.7971 0.3693 0.077 Uiso 1 1 calc R U
S33 S 0.27197(5) 0.84998(13) 0.50392(5) 0.0531(3) Uani 1 1 d . .
loop_
_atom_site_aniso_label
_atom_site_aniso_U_11
_atom_site_aniso_U_22
_atom_site_aniso_U_33
_atom_site_aniso_U_23
_atom_site_aniso_U_13
_atom_site_aniso_U_12
C1 0.0363(19) 0.050(2) 0.057(2) 0.0027(18) 0.0206(18) 0.0046(17)
C2 0.0365(19) 0.037(2) 0.0482(19) 0.0045(16) 0.0143(17) 0.0038(16)
C3 0.041(2) 0.050(2) 0.049(2) 0.0058(17) 0.0235(17) 0.0027(17)
C4 0.0351(18) 0.041(2) 0.049(2) 0.0014(17) 0.0191(17) -0.0027(16)
C4A 0.0374(18) 0.036(2) 0.0475(19) 0.0051(16) 0.0208(16) 0.0018(16)
C4B 0.0378(18) 0.0320(18) 0.0468(19) 0.0024(16) 0.0192(16) -0.0005(16)
C5 0.0382(19) 0.036(2) 0.054(2) 0.0023(17) 0.0230(17) -0.0012(16)
C6 0.043(2) 0.046(2) 0.052(2) 0.0031(18) 0.0162(17) -0.0027(18)
C7 0.050(2) 0.049(2) 0.0462(19) 0.0048(17) 0.0202(18) -0.0011(19)
C8 0.047(2) 0.055(2) 0.060(2) 0.0069(19) 0.0304(19) 0.0023(19)
C8A 0.0366(18) 0.047(2) 0.048(2) 0.0006(17) 0.0205(16) -0.0005(17)
C9 0.040(2) 0.058(3) 0.057(2) 0.0007(19) 0.0253(18) 0.0025(19)
C9A 0.0336(18) 0.044(2) 0.048(2) 0.0034(17) 0.0176(17) 0.0020(16)
O10 0.0382(14) 0.124(3) 0.0655(16) -0.0050(16) 0.0295(13) -0.0003(16)
C11 0.046(2) 0.054(2) 0.050(2) 0.0085(18) 0.0197(19) 0.004(2)
O12 0.0366(14) 0.109(2) 0.0583(15) -0.0092(15) 0.0122(12) 0.0049(16)
O13 0.0480(14) 0.0737(18) 0.0481(14) -0.0086(13) 0.0207(12) -0.0047(13)
C14 0.063(2) 0.089(3) 0.050(2) -0.013(2) 0.023(2) -0.004(2)
N15 0.0403(18) 0.081(2) 0.0561(19) -0.0047(18) 0.0241(17) 0.0001(17)
O16 0.0400(14) 0.0767(19) 0.0655(16) -0.0018(15) 0.0158(13) 0.0100(14)
O17 0.0585(18) 0.200(4) 0.0689(17) 0.002(2) 0.0439(16) -0.013(2)
N18 0.0400(18) 0.055(2) 0.064(2) -0.0110(17) 0.0248(17) -0.0089(16)
O19 0.0349(14) 0.108(2) 0.0768(17) -0.0085(17) 0.0191(14) -0.0013(15)
O20 0.0613(16) 0.0688(19) 0.0738(17) 0.0029(15) 0.0393(15) -0.0121(14)
N21 0.062(2) 0.100(3) 0.0488(19) 0.0001(19) 0.0222(19) -0.007(2)
O22 0.078(2) 0.191(4) 0.0625(18) -0.010(2) 0.0411(17) -0.007(2)
O23 0.0669(19) 0.192(4) 0.0505(16) -0.008(2) 0.0171(16) -0.021(2)
S24 0.0507(6) 0.0865(9) 0.0959(8) -0.0002(7) 0.0220(6) -0.0075(6)
C25 0.092(4) 0.059(3) 0.062(3) -0.002(2) 0.001(3) -0.017(3)
C26 0.104(4) 0.055(3) 0.067(3) -0.004(2) 0.030(3) -0.009(3)
S27 0.0715(7) 0.0584(6) 0.0566(6) 0.0090(5) 0.0332(5) 0.0085(6)
C28 0.048(2) 0.045(2) 0.063(2) 0.0102(19) 0.0268(19) 0.0042(19)
C29 0.044(2) 0.048(2) 0.058(2) 0.0077(18) 0.0285(18) 0.0025(18)
S30 0.0641(7) 0.0943(9) 0.0850(7) -0.0029(7) 0.0516(6) -0.0010(6)
C31 0.089(3) 0.066(3) 0.066(3) 0.002(2) 0.047(2) 0.013(2)
C32 0.071(3) 0.060(3) 0.057(2) -0.002(2) 0.026(2) 0.010(2)
S33 0.0483(5) 0.0557(6) 0.0587(5) 0.0057(5) 0.0277(5) 0.0021(5)
loop_
_atom_type_symbol
_atom_type_description
_atom_type_scat_dispersion_real
_atom_type_scat_dispersion_imag
_atom_type_scat_source
C C 0.0033 0.0016 'International Tables Vol C Tables 4.2.6.8 and 6.1.1.4'
H H 0.0000 0.0000 'International Tables Vol C Tables 4.2.6.8 and 6.1.1.4'
N N 0.0061 0.0033 'International Tables Vol C Tables 4.2.6.8 and 6.1.1.4'
O O 0.0106 0.0060 'International Tables Vol C Tables 4.2.6.8 and 6.1.1.4'
S S 0.1246 0.1234 'International Tables Vol C Tables 4.2.6.8 and 6.1.1.4'
loop_
_geom_angle_atom_site_label_1
_geom_angle_atom_site_label_2
_geom_angle_atom_site_label_3
_geom_angle
C9A C1 C2 119.2(3)
C9A C1 H1B 120.4
C2 C1 H1B 120.4
C3 C2 C1 118.6(3)
C3 C2 C11 123.2(3)
C1 C2 C11 118.1(3)
C4 C3 C2 120.5(3)
C4 C3 H3B 119.7
C2 C3 H3B 119.7
C3 C4 C4A 122.3(3)
C3 C4 N15 115.1(3)
C4A C4 N15 122.1(3)
C4 C4A C9A 114.8(3)
C4 C4A C4B 137.0(3)
C9A C4A C4B 108.2(3)
C5 C4B C8A 116.3(3)
C5 C4B C4A 135.9(3)
C8A C4B C4A 107.7(3)
C6 C5 C4B 121.3(3)
C6 C5 N18 114.5(3)
C4B C5 N18 123.9(3)
C7 C6 C5 119.0(3)
C7 C6 H6A 120.5
C5 C6 H6A 120.5
C8 C7 C6 122.5(3)
C8 C7 N21 119.9(3)
C6 C7 N21 117.5(3)
C7 C8 C8A 117.2(3)
C7 C8 H8A 121.4
C8A C8 H8A 121.4
C8 C8A C4B 123.4(3)
C8 C8A C9 127.1(3)
C4B C8A C9 109.4(3)
O10 C9 C8A 128.0(3)
O10 C9 C9A 126.7(3)
C8A C9 C9A 105.3(3)
C1 C9A C4A 124.5(3)
C1 C9A C9 126.5(3)
C4A C9A C9 108.9(3)
O12 C11 O13 124.3(3)
O12 C11 C2 122.8(3)
O13 C11 C2 112.9(3)
C11 O13 C14 115.7(3)
O13 C14 H14A 109.5
O13 C14 H14B 109.5
H14A C14 H14B 109.5
O13 C14 H14C 109.5
H14A C14 H14C 109.5
H14B C14 H14C 109.5
O16 N15 O17 125.8(3)
O16 N15 C4 117.5(3)
O17 N15 C4 116.7(3)
O19 N18 O20 125.3(3)
O19 N18 C5 117.7(3)
O20 N18 C5 117.0(3)
O22 N21 O23 123.9(3)
O22 N21 C7 118.0(3)
O23 N21 C7 118.1(3)
C25 S24 C28 94.7(2)
C26 C25 S24 117.5(4)
C26 C25 H25A 121.2
S24 C25 H25A 121.2
C25 C26 S27 118.9(4)
C25 C26 H26A 120.5
S27 C26 H26A 120.5
C26 S27 C28 94.5(2)
C29 C28 S24 123.2(3)
C29 C28 S27 122.4(3)
S24 C28 S27 114.4(2)
C28 C29 S30 122.8(3)
C28 C29 S33 123.2(3)
S30 C29 S33 113.95(19)
C31 S30 C29 95.17(18)
C32 C31 S30 118.5(3)
C32 C31 H31A 120.7
S30 C31 H31A 120.7
C31 C32 S33 117.3(3)
C31 C32 H32A 121.4
S33 C32 H32A 121.4
C32 S33 C29 95.01(18)
loop_
_geom_bond_atom_site_label_1
_geom_bond_atom_site_label_2
_geom_bond_distance
C1 C9A 1.367(4)
C1 C2 1.399(4)
C1 H1B 0.9300
C2 C3 1.393(4)
C2 C11 1.488(5)
C3 C4 1.388(4)
C3 H3B 0.9300
C4 C4A 1.400(4)
C4 N15 1.481(4)
C4A C9A 1.404(4)
C4A C4B 1.489(4)
C4B C5 1.393(4)
C4B C8A 1.407(4)
C5 C6 1.388(4)
C5 N18 1.476(4)
C6 C7 1.373(4)
C6 H6A 0.9300
C7 C8 1.373(4)
C7 N21 1.488(4)
C8 C8A 1.376(4)
C8 H8A 0.9300
C8A C9 1.481(4)
C9 O10 1.212(4)
C9 C9A 1.491(4)
C11 O12 1.208(4)
C11 O13 1.326(4)
O13 C14 1.449(4)
C14 H14A 0.9600
C14 H14B 0.9600
C14 H14C 0.9600
N15 O16 1.217(3)
N15 O17 1.222(4)
N18 O19 1.223(3)
N18 O20 1.225(3)
N21 O22 1.213(4)
N21 O23 1.215(4)
S24 C25 1.742(5)
S24 C28 1.759(4)
C25 C26 1.321(6)
C25 H25A 0.9300
C26 S27 1.726(5)
C26 H26A 0.9300
S27 C28 1.764(4)
C28 C29 1.342(4)
C29 S30 1.755(3)
C29 S33 1.763(3)
S30 C31 1.726(4)
C31 C32 1.327(5)
C31 H31A 0.9300
C32 S33 1.741(4)
C32 H32A 0.9300
loop_
_geom_hbond_atom_site_label_D
_geom_hbond_atom_site_label_H
_geom_hbond_atom_site_label_A
_geom_hbond_distance_DH
_geom_hbond_distance_HA
_geom_hbond_distance_DA
_geom_hbond_angle_DHA
_geom_hbond_site_symmetry_A
C14 H14A O19 0.96 2.65 3.544(5) 154.4 2_556
C31 H31A O23 0.93 2.53 3.447(5) 167.0 2
loop_
_geom_torsion_atom_site_label_1
_geom_torsion_atom_site_label_2
_geom_torsion_atom_site_label_3
_geom_torsion_atom_site_label_4
_geom_torsion
C9A C1 C2 C3 -0.1(5)
C9A C1 C2 C11 -175.8(3)
C1 C2 C3 C4 -0.3(5)
C11 C2 C3 C4 175.1(3)
C2 C3 C4 C4A 1.7(5)
C2 C3 C4 N15 -170.9(3)
C3 C4 C4A C9A -2.3(5)
N15 C4 C4A C9A 169.7(3)
C3 C4 C4A C4B 179.2(3)
N15 C4 C4A C4B -8.8(6)
C4 C4A C4B C5 -9.5(7)
C9A C4A C4B C5 172.0(4)
C4 C4A C4B C8A 171.5(4)
C9A C4A C4B C8A -7.1(4)
C8A C4B C5 C6 -4.9(5)
C4A C4B C5 C6 176.1(3)
C8A C4B C5 N18 168.7(3)
C4A C4B C5 N18 -10.3(6)
C4B C5 C6 C7 2.0(5)
N18 C5 C6 C7 -172.1(3)
C5 C6 C7 C8 2.2(5)
C5 C6 C7 N21 179.6(3)
C6 C7 C8 C8A -3.1(5)
N21 C7 C8 C8A 179.6(3)
C7 C8 C8A C4B -0.2(5)
C7 C8 C8A C9 177.0(3)
C5 C4B C8A C8 4.0(5)
C4A C4B C8A C8 -176.7(3)
C5 C4B C8A C9 -173.6(3)
C4A C4B C8A C9 5.7(4)
C8 C8A C9 O10 0.2(7)
C4B C8A C9 O10 177.6(4)
C8 C8A C9 C9A -179.8(3)
C4B C8A C9 C9A -2.3(4)
C2 C1 C9A C4A -0.7(5)
C2 C1 C9A C9 173.7(3)
C4 C4A C9A C1 1.9(5)
C4B C4A C9A C1 -179.2(3)
C4 C4A C9A C9 -173.3(3)
C4B C4A C9A C9 5.6(4)
O10 C9 C9A C1 2.7(6)
C8A C9 C9A C1 -177.3(3)
O10 C9 C9A C4A 177.9(4)
C8A C9 C9A C4A -2.1(4)
C3 C2 C11 O12 177.5(4)
C1 C2 C11 O12 -7.1(5)
C3 C2 C11 O13 -4.0(5)
C1 C2 C11 O13 171.5(3)
O12 C11 O13 C14 3.2(5)
C2 C11 O13 C14 -175.4(3)
C3 C4 N15 O16 133.8(3)
C4A C4 N15 O16 -38.8(5)
C3 C4 N15 O17 -44.2(5)
C4A C4 N15 O17 143.3(4)
C6 C5 N18 O19 -40.4(4)
C4B C5 N18 O19 145.6(3)
C6 C5 N18 O20 137.8(3)
C4B C5 N18 O20 -36.2(5)
C8 C7 N21 O22 2.2(6)
C6 C7 N21 O22 -175.3(4)
C8 C7 N21 O23 -177.2(4)
C6 C7 N21 O23 5.3(6)
C28 S24 C25 C26 -0.1(4)
S24 C25 C26 S27 -0.3(5)
C25 C26 S27 C28 0.5(4)
C25 S24 C28 C29 -178.1(3)
C25 S24 C28 S27 0.4(2)
C26 S27 C28 C29 178.0(3)
C26 S27 C28 S24 -0.5(2)
S24 C28 C29 S30 -2.9(5)
S27 C28 C29 S30 178.63(19)
S24 C28 C29 S33 178.16(19)
S27 C28 C29 S33 -0.3(5)
C28 C29 S30 C31 -177.2(3)
S33 C29 S30 C31 1.7(2)
C29 S30 C31 C32 -0.4(4)
S30 C31 C32 S33 -1.2(5)
C31 C32 S33 C29 2.1(4)
C28 C29 S33 C32 176.8(3)
S30 C29 S33 C32 -2.2(2)
