#------------------------------------------------------------------------------
#$Date: 2019-03-18 09:35:25 +0200 (Mon, 18 Mar 2019) $
#$Revision: 214153 $
#$URL: file:///home/coder/svn-repositories/cod/cif/1/54/06/1540606.cif $
#------------------------------------------------------------------------------
#
# This file is available in the Crystallography Open Database (COD),
# http://www.crystallography.net/
#
# All data on this site have been placed in the public domain by the
# contributors.
#
data_1540606
loop_
_publ_author_name
'Marsini, Maurice A.'
'Reeves, Jonathan T.'
'Desrosiers, Jean-Nicolas'
'Herbage, Melissa A.'
'Savoie, Jolaine'
'Li, Zhibin'
'Fandrick, Keith R.'
'Sader, C. Avery'
'McKibben, Bryan'
'Gao, Donghong A.'
'Cui, Jianwen'
'Gonnella, Nina C.'
'Lee, Heewon'
'Wei, Xudong'
'Roschangar, Frank'
'Lu, Bruce Z.'
'Senanayake, Chris H.'
_publ_section_title
;
 Diastereoselective Synthesis of \a-Quaternary Aziridine-2-carboxylates
 via Aza-Corey-Chaykovsky Aziridination of N-tert-Butanesulfinyl Ketimino
 Esters.
;
_journal_issue                   22
_journal_name_full               'Organic letters'
_journal_page_first              5614
_journal_page_last               5617
_journal_paper_doi               10.1021/acs.orglett.5b02838
_journal_volume                  17
_journal_year                    2015
_chemical_formula_sum            'C12 H17 N O3 S2'
_chemical_formula_weight         287.38
_space_group_crystal_system      orthorhombic
_space_group_IT_number           19
_space_group_name_Hall           'P 2ac 2ab'
_space_group_name_H-M_alt        'P 21 21 21'
_symmetry_space_group_name_Hall  'P 2ac 2ab'
_symmetry_space_group_name_H-M   'P 21 21 21'
_atom_sites_solution_hydrogens   geom
_audit_creation_method           SHELXL-2014/7
_cell_angle_alpha                90
_cell_angle_beta                 90
_cell_angle_gamma                90
_cell_formula_units_Z            8
_cell_length_a                   8.7469(2)
_cell_length_b                   13.4624(3)
_cell_length_c                   24.6866(5)
_cell_measurement_temperature    100(2)
_cell_volume                     2906.95(11)
_computing_structure_refinement  'SHELXL-2014/7 (Sheldrick, 2014)'
_diffrn_ambient_temperature      100(2)
_diffrn_measured_fraction_theta_full 0.972
_diffrn_measured_fraction_theta_max 0.972
_diffrn_radiation_type           CuK\a
_diffrn_radiation_wavelength     1.54178
_diffrn_reflns_av_R_equivalents  0.0210
_diffrn_reflns_av_unetI/netI     0.0307
_diffrn_reflns_laue_measured_fraction_full 0.972
_diffrn_reflns_laue_measured_fraction_max 0.972
_diffrn_reflns_limit_h_max       9
_diffrn_reflns_limit_h_min       -10
_diffrn_reflns_limit_k_max       15
_diffrn_reflns_limit_k_min       -15
_diffrn_reflns_limit_l_max       29
_diffrn_reflns_limit_l_min       -29
_diffrn_reflns_number            13540
_diffrn_reflns_point_group_measured_fraction_full 0.956
_diffrn_reflns_point_group_measured_fraction_max 0.956
_diffrn_reflns_theta_full        66.612
_diffrn_reflns_theta_max         66.612
_diffrn_reflns_theta_min         3.581
_exptl_absorpt_coefficient_mu    3.334
_exptl_crystal_density_diffrn    1.313
_exptl_crystal_F_000             1216
_exptl_crystal_size_max          0.150
_exptl_crystal_size_mid          0.100
_exptl_crystal_size_min          0.050
_refine_diff_density_max         0.250
_refine_diff_density_min         -0.362
_refine_diff_density_rms         0.078
_refine_ls_abs_structure_details
;
 Flack x determined using 1980 quotients [(I+)-(I-)]/[(I+)+(I-)]
 (Parsons, Flack and Wagner, Acta Cryst. B69 (2013) 249-259).
;
_refine_ls_abs_structure_Flack   0.024(5)
_refine_ls_extinction_method     none
_refine_ls_goodness_of_fit_ref   1.080
_refine_ls_hydrogen_treatment    constr
_refine_ls_matrix_type           full
_refine_ls_number_parameters     333
_refine_ls_number_reflns         4915
_refine_ls_number_restraints     0
_refine_ls_restrained_S_all      1.080
_refine_ls_R_factor_all          0.0237
_refine_ls_R_factor_gt           0.0231
_refine_ls_shift/su_max          0.001
_refine_ls_shift/su_mean         0.000
_refine_ls_structure_factor_coef Fsqd
_refine_ls_weighting_details
'w=1/[\s^2^(Fo^2^)+(0.0346P)^2^+0.2284P] where P=(Fo^2^+2Fc^2^)/3'
_refine_ls_weighting_scheme      calc
_refine_ls_wR_factor_gt          0.0606
_refine_ls_wR_factor_ref         0.0610
_reflns_Friedel_coverage         0.728
_reflns_friedel_fraction_full    0.936
_reflns_friedel_fraction_max     0.936
_reflns_number_gt                4800
_reflns_number_total             4915
_reflns_threshold_expression     'I > 2\s(I)'
_cod_depositor_comments
;

2019-01-25
Z value and formula fixed to values more according to usual
chemical conventions.                 miguel
;
_cod_original_formula_sum            'C24 H34 N2 O6 S4'
_cod_original_formula_weight         574.77
_cod_original_formula_units_Z            4
_cod_data_source_file            ol5b02838_si_001.cif
_cod_data_source_block           scan_0m_P212121
_cod_database_code               1540606
_shelx_shelxl_version_number     2014/7
_shelx_space_group_comment
;
The symmetry employed for this shelxl refinement is uniquely defined
by the following loop, which should always be used as a source of
symmetry information in preference to the above space-group names.
They are only intended as comments.
;
_shelx_estimated_absorpt_t_min   0.635
_shelx_estimated_absorpt_t_max   0.851
_shelx_res_file
;

    scan_0m_P212121.res created by SHELXL-2014/7

TITL scan_0m_P212121 in P2(1)2(1)2(1)
CELL 1.54178 8.7469 13.4624 24.6866 90 90 90
ZERR 4 0.0002 0.0003 0.0005 0 0 0
LATT -1
SYMM 0.5+X,0.5-Y,-Z
SYMM -X,0.5+Y,0.5-Z
SYMM 0.5-X,-Y,0.5+Z
SFAC C H N O S
UNIT 96 136 8 24 16

L.S. 10
PLAN  -5 0 0
SIZE 0.05 0.1 0.15
TEMP -173.16
HTAB
BOND $H
CONF
MORE -1
fmap 2
acta
REM <olex2.extras>
REM <HklSrc "%.\\scan_0m_P212121.hkl">
REM </olex2.extras>

WGHT    0.034600    0.228400
FVAR       0.52915
S1    5   -0.147006    1.293065    0.135635    11.00000    0.01631    0.01521 =
         0.01671   -0.00182   -0.00176   -0.00138
S2    5   -0.643330    1.178700    0.123403    11.00000    0.01542    0.01867 =
         0.02063    0.00177    0.00140    0.00295
S3    5    0.369160    0.741547    0.064275    11.00000    0.01358    0.01643 =
         0.01500    0.00134    0.00173   -0.00061
S4    5   -0.126370    0.697752    0.127215    11.00000    0.01410    0.02745 =
         0.01576    0.00038   -0.00187   -0.00102
O1    4   -0.204931    1.044114    0.194004    11.00000    0.02020    0.01751 =
         0.01697    0.00188   -0.00134    0.00465
O2    4   -0.023468    1.221555    0.148413    11.00000    0.01734    0.02012 =
         0.01819    0.00145   -0.00551   -0.00061
O3    4   -0.136794    1.026467    0.106159    11.00000    0.01517    0.02249 =
         0.02038   -0.00632   -0.00013    0.00313
O4    4    0.376929    0.664177    0.207834    11.00000    0.01431    0.01932 =
         0.02147    0.00403   -0.00257    0.00152
O5    4    0.498452    0.748861    0.103048    11.00000    0.01617    0.02496 =
         0.01954    0.00010   -0.00026   -0.00452
N1    3    0.200299    0.722506    0.095210    11.00000    0.01447    0.01687 =
         0.01406   -0.00038    0.00132    0.00141
O0AA  4    0.322374    0.828185    0.203813    11.00000    0.01961    0.01619 =
         0.01967   -0.00380   -0.00508   -0.00154
C1    1   -0.117957    0.946377    0.268560    11.00000    0.04140    0.01782 =
         0.02721    0.00407   -0.01329    0.00200
AFIX 137
H1A   2   -0.100979    1.007117    0.289597    11.00000   -1.50000
H1B   2   -0.045614    0.895112    0.280278    11.00000   -1.50000
H1C   2   -0.222727    0.922888    0.274373    11.00000   -1.50000
AFIX   0
C2    1   -0.094312    0.967823    0.209535    11.00000    0.02636    0.02003 =
         0.02833    0.00117   -0.00564    0.00928
AFIX  23
H2A   2    0.011160    0.991797    0.203152    11.00000   -1.20000
H2B   2   -0.110501    0.906857    0.187855    11.00000   -1.20000
AFIX   0
C3    1   -0.209600    1.065752    0.141449    11.00000    0.01126    0.01424 =
         0.01706   -0.00137   -0.00241   -0.00287
C4    1   -0.334109    1.142466    0.129881    11.00000    0.01412    0.01790 =
         0.00979   -0.00036    0.00141    0.00115
N5    3   -0.315024    1.236624    0.124205    11.00000    0.01671    0.01764 =
         0.01780   -0.00096    0.00239    0.00007
C6    1   -0.113731    1.334485    0.064922    11.00000    0.01954    0.02179 =
         0.02210    0.00774   -0.00017   -0.00213
C7    1    0.038802    1.388675    0.067983    11.00000    0.02449    0.03334 =
         0.04260    0.01493   -0.00010   -0.00761
AFIX 137
H7A   2    0.067305    1.412315    0.031820    11.00000   -1.50000
H7B   2    0.117559    1.343175    0.081457    11.00000   -1.50000
H7C   2    0.029726    1.445418    0.092642    11.00000   -1.50000
AFIX   0
C8    1   -0.241978    1.405845    0.049539    11.00000    0.02867    0.02964 =
         0.03779    0.01270   -0.00578    0.00287
AFIX 137
H8A   2   -0.249033    1.458710    0.076715    11.00000   -1.50000
H8B   2   -0.339052    1.369606    0.048011    11.00000   -1.50000
H8C   2   -0.220267    1.435077    0.014006    11.00000   -1.50000
AFIX   0
C9    1   -0.485520    1.101081    0.122904    11.00000    0.01469    0.01667 =
         0.01316    0.00313    0.00096    0.00087
C10   1   -0.763675    1.081148    0.112587    11.00000    0.01339    0.03089 =
         0.01899    0.00503   -0.00085   -0.00001
AFIX  43
H10   2   -0.871535    1.087665    0.109801    11.00000   -1.20000
AFIX   0
C11   1   -0.688756    0.992968    0.108371    11.00000    0.01580    0.01652 =
         0.02317    0.00335   -0.00140   -0.00161
AFIX  43
H11   2   -0.737971    0.931189    0.101906    11.00000   -1.20000
AFIX   0
C12   1   -0.527698    1.004125    0.114793    11.00000    0.01722    0.01709 =
         0.02255    0.00268   -0.00129    0.00138
AFIX  43
H12   2   -0.457420    0.950368    0.113587    11.00000   -1.20000
AFIX   0
C13   1   -0.105301    1.244440    0.027857    11.00000    0.03491    0.03409 =
         0.01725    0.00432    0.00317    0.00125
AFIX 137
H13A  2   -0.073509    1.265493   -0.008436    11.00000   -1.50000
H13B  2   -0.206087    1.212866    0.025801    11.00000   -1.50000
H13C  2   -0.030876    1.196926    0.042319    11.00000   -1.50000
AFIX   0

C14   1    0.524795    0.619004   -0.000749    11.00000    0.01975    0.02525 =
         0.02193    0.00007    0.00615    0.00091
AFIX 137
H14A  2    0.536406    0.555959   -0.020166    11.00000   -1.50000
H14B  2    0.612207    0.628690    0.023515    11.00000   -1.50000
H14C  2    0.520331    0.673733   -0.026877    11.00000   -1.50000
AFIX   0
C15   1    0.377076    0.616862    0.032493    11.00000    0.01678    0.01778 =
         0.01606   -0.00117    0.00246   -0.00031
C16   1    0.182406    0.722812    0.146965    11.00000    0.01510    0.00986 =
         0.01510   -0.00073   -0.00108    0.00282
C17   1    0.309329    0.733474    0.189076    11.00000    0.01195    0.01618 =
         0.01351    0.00032    0.00247   -0.00168
C18   1    0.440563    0.850273    0.244130    11.00000    0.02051    0.03172 =
         0.02464   -0.00777   -0.00559   -0.00380
AFIX  23
H18A  2    0.543419    0.845481    0.227599    11.00000   -1.20000
H18B  2    0.434634    0.802647    0.274614    11.00000   -1.20000
AFIX   0
C19   1    0.411471    0.954276    0.263857    11.00000    0.03459    0.03198 =
         0.03208   -0.01367    0.00243   -0.01181
AFIX 137
H19A  2    0.412303    1.000111    0.233018    11.00000   -1.50000
H19B  2    0.491527    0.973374    0.289603    11.00000   -1.50000
H19C  2    0.311630    0.957106    0.281804    11.00000   -1.50000
AFIX   0
C20   1    0.031495    0.708842    0.168964    11.00000    0.01482    0.01196 =
         0.01570    0.00032   -0.00139    0.00148
C21   1   -0.244372    0.682628    0.181875    11.00000    0.01311    0.02314 =
         0.02829    0.00169    0.00223   -0.00007
AFIX  43
H21   2   -0.351679    0.673015    0.179074    11.00000   -1.20000
AFIX   0
C22   1   -0.167872    0.685870    0.229672    11.00000    0.01869    0.02181 =
         0.01892    0.00220    0.00572    0.00273
AFIX  43
H22   2   -0.215580    0.678669    0.264019    11.00000   -1.20000
AFIX   0
C23   1   -0.009658    0.701123    0.222628    11.00000    0.01869    0.01642 =
         0.01482    0.00009   -0.00007    0.00252
AFIX  43
H23   2    0.060943    0.705594    0.251768    11.00000   -1.20000
AFIX   0
C24   1    0.237585    0.606585   -0.003846    11.00000    0.02090    0.02582 =
         0.01703   -0.00305    0.00096   -0.00012
AFIX 137
H24A  2    0.233312    0.662901   -0.028955    11.00000   -1.50000
H24B  2    0.144911    0.605690    0.018458    11.00000   -1.50000
H24C  2    0.244638    0.544541   -0.024459    11.00000   -1.50000
AFIX   0
C25   1    0.384579    0.538096    0.076697    11.00000    0.01911    0.01785 =
         0.02387    0.00151    0.00392   -0.00018
AFIX 137
H25A  2    0.290420    0.540012    0.098186    11.00000   -1.50000
H25B  2    0.472471    0.551229    0.100251    11.00000   -1.50000
H25C  2    0.395673    0.472365    0.060097    11.00000   -1.50000
AFIX   0
HKLF 4

REM  scan_0m_P212121 in P2(1)2(1)2(1)
REM R1 =  0.0231 for    4800 Fo > 4sig(Fo)  and  0.0237 for all    4915 data
REM    333 parameters refined using      0 restraints

END

WGHT      0.0346      0.2284

REM Instructions for potential hydrogen bonds
EQIV $1 -x, y-1/2, -z+1/2
HTAB C1 S1_$1
EQIV $2 x-1, y, z
HTAB C10 O2_$2
HTAB C10 O3_$2
HTAB C11 S3_$2
EQIV $3 x+1/2, -y+5/2, -z
HTAB C13 S2_$3
EQIV $4 x+1/2, -y+3/2, -z
HTAB C14 N1_$4
HTAB C21 O4_$2
HTAB C21 O5_$2
HTAB C23 O2_$1
HTAB C24 O3_$4

REM Highest difference peak  0.250,  deepest hole -0.362,  1-sigma level  0.078
Q1    1   0.1242  0.5875  0.0092  11.00000  0.05    0.25
Q2    1   0.6077  0.6097  0.0114  11.00000  0.05    0.24
Q3    1  -0.1162  0.9605  0.2420  11.00000  0.05    0.21
Q4    1   0.6160  0.3136 -0.0023  11.00000  0.05    0.21
Q5    1   0.5580  0.3744 -0.0372  11.00000  0.05    0.20
;
_shelx_res_checksum              25368
_shelx_hkl_file
;
  -1   0   0   -0.86    0.34
  -2   0   0  660.14   23.29
  -3   0   0   -3.92    0.66
  -4   0   0 3318.16  111.85
   6   0   0 2562.43   90.51
   6   0   0 2658.77   92.81
  -6   0   0 2525.88   93.00
   7   0   0   -0.03    1.89
   7   0   0   -0.40    1.56
   0   1   0  -13.49    0.35
   0  -1   0  -13.76    0.27
  -1  -1   0  123.01    5.31
  -1   1   0  125.46    5.29
  -2   1   0 1187.51   40.61
  -2  -1   0 1236.89   41.93
  -3  -1   0  216.52    9.92
  -3   1   0  213.03    8.72
  -4  -1   0    7.38    2.14
  -5   1   0    7.43    2.68
   6   1   0  363.83   16.01
   6  -1   0  359.23   17.10
  -6   1   0  360.88   19.04
   6   1   0  339.63   16.82
   7   1   0   38.74    6.08
   7   1   0   28.34    4.58
   8   1   0  102.82    8.86
   0  -2   0 8707.06  308.60
   0   2   0 9999.00  310.74
  -1  -2   0 1420.62   49.21
  -1   2   0 1456.68   49.18
   1   2   0 1463.57   49.09
  -2   2   0   14.59    2.23
  -2  -2   0    9.73    1.97
  -3  -2   0   62.92    4.78
  -3   2   0   57.87    4.78
  -4   2   0 2113.52   74.46
  -4  -2   0 2108.00   74.02
  -5   2   0  674.47   28.91
  -5  -2   0  677.89   28.10
   6  -2   0 2274.22   79.12
   6   2   0 2226.41   80.21
  -6   2   0 2298.78   83.49
   6   2   0 2270.03   79.20
   7   2   0 1020.16   40.03
   7   2   0  983.27   38.32
   8   2   0  598.84   25.32
   8   2   0  612.05   27.16
   0   3   0   -0.30    1.01
   0  -3   0   -0.22    0.75
   1   3   0 4790.61  160.72
  -1   3   0 4839.14  160.76
   1  -3   0 4896.92  159.22
  -2   3   0  351.50   14.73
  -2  -3   0  358.78   15.03
  -3  -3   0  690.76   27.24
  -3   3   0  706.61   27.12
  -4  -3   0  968.36   37.31
  -4   3   0  962.66   37.24
  -5   3   0 1925.79   71.43
  -5  -3   0 1988.18   71.47
  -6   3   0   26.00    5.55
   6   3   0   29.42    5.12
   6   3   0   30.49    4.43
   6  -3   0   25.90    4.12
   7   3   0  243.38   13.13
   7   3   0  247.96   14.22
   8   3   0   63.79    7.24
   8   3   0   70.62    6.69
   1  -4   0  587.67   20.95
   1   4   0  578.14   22.50
  -1  -4   0  603.93   22.65
  -1   4   0  591.57   22.49
   2   4   0   25.22    3.31
  -2  -4   0   17.73    3.22
  -2   4   0   23.18    3.22
  -3   4   0 3312.91  112.40
  -3  -4   0 3248.56  112.70
  -4   4   0  532.46   23.39
  -4  -4   0  542.39   23.87
  -5  -4   0  120.94    9.71
  -5   4   0  118.31    9.40
   6   4   0  626.59   25.21
  -6  -4   0  604.82   28.37
  -6   4   0  584.57   28.17
   6   4   0  591.94   25.61
   6   4   0  569.97   23.30
   7   4   0   93.04    7.61
   7   4   0   90.74    8.34
   8   4   0   41.45    6.49
   8   4   0   43.88    5.93
   0   5   0    2.79    1.77
   0  -5   0    0.62    1.13
  -1   5   0 1773.19   61.33
   1   5   0 1777.65   61.46
   1  -5   0 1706.56   59.38
  -1  -5   0 1727.13   61.24
  -2   5   0   23.39    3.50
   2   5   0   23.73    3.83
  -2  -5   0   20.92    3.63
  -3  -5   0  622.61   26.28
  -3   5   0  614.03   25.61
  -4   5   0  145.41   10.14
  -4  -5   0  147.31   10.45
  -5   5   0 1378.97   53.05
   5   5   0 1331.16   49.54
   5  -5   0 1351.06   49.28
  -5  -5   0 1340.93   53.48
   6   5   0  779.86   32.22
   6   5   0  765.65   29.86
   6   5   0  781.07   31.34
   7   5   0    5.49    2.84
   7   5   0    4.49    2.77
   7   5   0    2.33    2.36
   8   5   0   -0.39    2.05
   8   5   0    0.39    2.44
   9   5   0  615.44   25.49
   9   5   0  595.76   24.44
   0   6   0    0.27    1.65
   0  -6   0    2.32    1.67
  -1  -6   0 1479.74   53.72
   1  -6   0 1474.46   51.53
   1   6   0 1551.80   54.05
  -1   6   0 1429.21   53.52
  -2   6   0    3.49    2.11
   2   6   0    0.75    1.71
  -2  -6   0   10.54    3.11
  -3  -6   0  224.42   13.27
  -3   6   0  216.99   12.48
  -4   6   0 1545.89   58.28
  -4  -6   0 1549.29   59.56
   5   6   0  715.75   27.93
   5   6   0  724.29   29.27
  -5  -6   0  728.76   33.37
  -5   6   0  720.40   32.21
   5   6   0  703.54   29.51
   6   6   0   60.64    6.92
   6   6   0   66.04    6.14
   6   6   0   67.83    6.71
   7   6   0   59.03    7.27
   7   6   0   55.23    5.68
   7   6   0   50.76    7.28
   8   6   0   11.41    3.80
   8   6   0    7.31    2.99
   9   6   0  109.18    7.67
   9   6   0  114.63    7.56
   0   7   0   -0.16    1.96
   0  -7   0   -1.58    1.30
   1   7   0    8.57    3.05
  -1   7   0    8.09    2.81
  -1  -7   0    8.86    2.80
   2   7   0  227.52   13.53
  -2  -7   0  242.40   13.84
  -2   7   0  235.62   13.22
  -3   7   0   79.90    7.51
  -3  -7   0   77.70    7.86
   4   7   0  268.35   18.60
  -4  -7   0  270.99   16.79
   4   7   0  243.71   12.43
  -4   7   0  265.25   15.54
   5   7   0  625.15   27.09
   5   7   0  624.73   25.50
   5   7   0  653.91   27.10
   6   7   0  114.95    9.24
   6   7   0   97.87    7.82
   6   7   0  117.43    8.88
   7   7   0  687.65   28.77
   7   7   0  677.91   29.40
   7   7   0  670.32   27.18
   8   7   0  406.27   18.04
   8   7   0  369.82   17.97
   8   7   0  350.94   15.94
   9   7   0  358.48   15.68
   0   8   0  384.80   18.95
   0  -8   0  371.37   20.34
  -1  -8   0   38.62    5.37
   1   8   0   46.45    6.18
  -1   8   0   49.78    6.33
   2   8   0  632.52   28.73
  -2  -8   0  663.65   29.24
  -2   8   0  619.68   27.95
   3   8   0   75.25    5.96
   3  -8   0   71.26    6.51
  -3  -8   0   68.36    8.00
  -3   8   0   79.53    8.06
   3   8   0   94.01   11.70
   4   8   0  471.55   21.76
   4   8   0  488.86   20.84
   4   8   0  513.17   22.17
   4  -8   0  494.29   21.81
  -4  -8   0  501.27   26.30
  -4   8   0  490.49   24.81
   5   8   0   59.65    5.95
   5   8   0   47.73    6.52
   5   8   0   51.56    6.99
   6   8   0    4.15    2.87
   6   8   0    4.48    2.82
   6   8   0    2.61    2.35
   7   8   0    3.08    2.79
   7   8   0    2.59    2.24
   7   8   0    0.33    2.21
   8   8   0   98.88    7.48
   8   8   0   98.50    7.51
   0   9   0   -0.49    2.29
   1   9   0  415.15   21.62
  -1  -9   0  425.23   21.37
   1  -9   0  412.90   18.55
  -1   9   0  430.82   21.69
   2   9   0  640.66   26.73
   2   9   0  629.03   25.38
  -2  -9   0  651.24   30.31
   2   9   0  648.35   26.34
   2  -9   0  660.48   26.79
  -2   9   0  675.90   29.87
   2   9   0  642.58   30.14
   3  -9   0    6.92    3.04
   3   9   0    7.46    3.18
  -3  -9   0    5.13    3.49
   3   9   0    6.70    3.09
  -3   9   0    6.78    3.86
   3   9   0    5.59    2.53
   4   9   0   78.44    7.48
   4   9   0   89.21    7.90
   4   9   0   82.24    6.95
   4  -9   0   81.06    7.49
   5   9   0    1.76    2.98
   5   9   0    0.39    2.30
   5   9   0    0.73    2.70
   6   9   0  106.65    8.78
   6   9   0  113.91    8.30
   6   9   0  110.69    8.88
   7   9   0   62.39    5.78
   7   9   0   70.14    6.81
   7   9   0   69.37    6.77
  -8  -9   0  103.87    6.46
   8   9   0   98.25    7.12
   0 -10   0   70.25    6.40
   0  10   0   47.62    7.26
   0  10   0   64.07    6.31
  -1  10   0    6.23    3.56
  -1 -10   0    1.55    2.16
  -1  10   0    3.03    2.47
   1  10   0    2.70    2.55
   1 -10   0    1.69    2.23
   1  10   0    1.11    3.03
   2 -10   0    9.57    3.53
   2  10   0   15.48    4.22
   2  10   0   13.86    3.48
   2  10   0   17.42    3.84
  -2  10   0   12.08    3.48
   3  10   0    6.87    3.04
   3  10   0   15.45    3.70
   3 -10   0   10.06    3.37
   3  10   0    5.42    3.27
   4  10   0  131.05    9.44
   4  10   0  128.86    8.86
   4  10   0  115.42    9.29
   4 -10   0  118.47    9.52
   5  10   0    0.66    3.08
   5  10   0    3.63    2.73
   5  10   0    3.14    2.73
   6  10   0  133.13    9.30
   6  10   0  123.63    9.28
   6  10   0  135.04    8.84
   7  10   0   29.17    4.56
   7  10   0   25.59    3.84
   8  10   0  132.36    7.64
  -8 -10   0  124.83    6.87
   0  11   0    0.31    2.50
   0 -11   0    0.84    2.10
  -1  11   0 3276.69  115.24
   1 -11   0 3434.38  116.88
   1  11   0 3316.01  115.49
  -1 -11   0 3393.23  115.88
  -2  11   0  285.10   14.69
   2 -11   0  288.36   15.67
   2  11   0  296.96   14.14
   2  11   0  272.70   14.60
   3  11   0    9.86    3.36
   3 -11   0   10.24    3.54
  -3  11   0    6.14    3.42
   3  11   0    5.89    3.37
   3  11   0    9.41    3.22
   4  11   0  156.57   10.31
   4  11   0  155.55    9.89
   4 -11   0  150.40   10.62
   4  11   0  147.59   10.68
   5  11   0  548.11   22.46
   5  11   0  512.03   23.69
   5  11   0  504.66   22.78
   6  11   0    1.39    2.66
   6  11   0    0.57    1.97
   7  11   0   22.59    3.69
  -7  11   0   26.14    3.64
  -7 -11   0   14.34    2.93
   0 -12   0   12.47    4.24
   0  12   0   13.80    3.72
   1 -12   0    6.39    3.45
   1  12   0   10.24    3.42
  -1 -12   0    8.00    3.53
  -1  12   0   10.10    3.68
   2 -12   0   72.18    7.51
  -2  12   0   70.10    7.08
   2  12   0   69.30    6.73
   3  12   0  302.32   14.73
  -3  12   0  302.20   15.28
   3 -12   0  298.24   16.44
   3  12   0  306.70   15.25
   4  12   0   14.95    3.60
  -4  12   0   15.26    3.86
   4  12   0   12.89    3.95
  -5  12   0   54.76    6.07
   5  12   0   52.42    5.78
   5  12   0   52.92    5.21
   6  12   0    2.42    2.31
  -6  12   0    1.69    2.37
   0 -13   0   -1.02    2.26
   0  13   0    1.33    2.62
  -1  13   0  364.67   17.15
   1 -13   0  391.15   18.74
  -1 -13   0  371.11   17.92
   1  13   0  362.44   17.20
  -2  13   0  113.32    8.32
   2 -13   0   97.76    8.68
   2  13   0  101.80    9.40
   3 -13   0   40.12    5.84
  -3  13   0   35.27    4.90
  -4  13   0  117.62    8.07
  -5  13   0  565.51   22.41
  -5 -13   0  563.41   22.34
  -6 -13   0  127.58    6.97
   0 -14   0  439.36   19.78
   0  14   0  403.39   19.87
  -1 -14   0   69.23    6.63
  -1  14   0   67.90    6.18
   1 -14   0   62.49    6.89
  -2  14   0    1.69    2.42
   2 -14   0    2.37    2.37
  -3  14   0   20.41    3.52
  -4  14   0  206.72   10.38
  -4 -14   0  221.19   10.19
   0 -15   0    3.54    2.31
   0   0   1   -0.27    0.13
   1   0  -1  161.36    6.16
  -1   0  -1  157.04    6.03
  -2   0  -1 8162.19  270.35
  -3   0   1   21.10    2.26
  -3   0  -1   19.32    2.15
  -4   0  -1  253.12   11.23
  -4   0   1  248.60   11.32
   6   0   1 3864.14  134.55
   6   0   1 3968.02  133.14
   6   0  -1 3833.85  134.52
  -6   0  -1 4135.85  137.94
  -6   0   1 3851.91  137.19
   7   0   1    2.89    2.02
   7   0  -1    6.97    2.56
   7   0  -1    2.35    2.47
   7   0   1    4.26    2.62
   0  -1  -1  216.36    7.91
   0   1  -1  218.26    7.92
   0   1  -1  218.76    7.93
   0   1   1  225.50    7.94
  -1   1   1 2900.00   95.75
   1   1  -1 3077.09   95.98
  -1  -1  -1 2928.08   95.84
   1  -1  -1 2740.18   95.01
  -1   1  -1 2795.95   95.72
  -2  -1  -1 1648.15   57.59
   2  -1  -1 1699.24   56.55
  -2  -1   1 1718.69   57.76
  -2   1  -1 1713.46   56.36
  -3   1   1   90.45    4.82
  -3  -1  -1   94.22    5.71
  -3  -1   1  113.81    6.09
  -3   1  -1  108.27    4.86
  -4  -1  -1    8.21    2.11
  -4   1   1    6.56    2.29
  -4  -1   1   10.07    2.33
  -5   1   1  189.85   11.60
  -5  -1   1  208.87   12.29
  -5   1  -1  184.38   11.53
   6   1  -1  242.89   12.85
   6  -1   1  238.64   12.75
   6  -1   1  244.26   12.08
  -6   1   1  242.15   14.51
   6   1  -1  241.82   11.79
   6  -1  -1  216.85   12.42
   6   1   1  219.81   11.51
   6   1   1  211.69   12.22
  -6   1  -1  209.19   13.90
   7  -1   1  593.01   26.00
   7   1  -1  609.89   26.23
   7   1  -1  604.14   24.47
   7   1   1  579.41   24.49
   7   1   1  568.65   25.96
   8   1   1  179.08   11.97
   0  -2  -1 3553.49  117.09
   0   2  -1 3591.57  117.34
   0   2  -1 3399.30  117.00
   0   2   1 3624.99  117.31
  -1   2   1 1757.86   59.20
   1   2  -1 1719.07   59.04
  -1  -2  -1 1737.78   59.32
   1  -2  -1 1745.01   58.02
  -1   2  -1 1752.54   59.20
   1   2   1 1811.26   59.19
  -2   2   1 1601.92   63.92
  -2  -2   1 2166.97   64.90
  -3   2   1 1058.66   38.22
  -3  -2  -1 1043.18   38.01
  -3   2  -1 1045.39   38.12
  -3  -2   1 1034.84   38.01
  -4  -2  -1  180.83   10.38
  -4   2   1  174.99   10.64
  -4  -2   1  218.35   11.02
  -4   2  -1  230.57   11.48
  -5  -2  -1  204.65   11.49
  -5   2   1  203.12   12.11
  -5  -2   1  185.80   11.22
  -5   2  -1  173.44   11.53
  -6   2   1 1965.76   71.28
   6  -2   1 1885.88   67.95
   6   2  -1 1899.54   67.97
   6   2  -1 1921.64   66.92
   6  -2   1 1983.22   67.09
  -6   2  -1 1897.02   71.07
   6   2   1 1769.04   67.67
   6   2   1 1804.14   66.61
   7   2  -1  360.89   18.83
   7   2  -1  387.76   17.83
   7   2   1  396.66   17.86
   7   2   1  399.12   19.32
   8   2  -1  486.87   23.34
   8   2  -1  484.31   21.72
   8   2   1  511.83   21.94
   8   2   1  525.99   23.88
   0  -3  -1 2010.85   69.85
   0   3  -1 2147.98   70.41
   0   3   1 2113.61   70.33
   0  -3   1 2027.55   69.78
  -1  -3  -1 1953.35   67.48
  -1   3   1 2036.57   67.44
   1  -3   1 1998.96   65.85
   1   3  -1 1968.23   67.34
   1  -3  -1 1987.92   66.01
   1   3   1 1983.76   67.37
  -1   3  -1 1982.23   67.41
  -1  -3   1 1960.68   67.55
  -2   3   1 3019.07  100.23
  -2  -3  -1 2898.43  100.38
  -2  -3   1 2997.64  100.60
  -2   3  -1 2941.42  100.16
  -3  -3  -1 3607.04  121.92
  -3   3   1 3543.83  121.54
  -3   3  -1 3562.14  121.61
  -3  -3   1 3624.82  122.11
  -4   3   1  291.13   14.04
  -4  -3  -1  287.68   14.01
  -4  -3   1  241.79   13.42
  -4   3  -1  251.77   13.53
  -5  -3  -1  106.78    8.57
  -5   3   1  101.63    8.51
  -5  -3   1  117.99    8.92
  -5   3  -1  122.60    9.19
  -6   3   1  409.76   21.31
   6  -3   1  404.91   18.30
   6   3  -1  410.40   18.30
   6   3  -1  408.75   19.10
   6   3   1  400.77   18.14
  -6   3  -1  405.21   21.30
   6   3   1  400.03   19.06
   7   3  -1  451.40   20.08
   7   3  -1  456.51   21.37
   7   3   1  429.05   19.86
   7   3   1  439.55   21.22
   8   3  -1  118.10    9.59
   8   3  -1  122.61    8.73
   8   3   1  130.73    8.95
   8   3   1  120.59    9.94
   0   4  -1 4810.73  156.76
   0  -4   1 4473.93  155.93
   0   4   1 4742.11  156.69
   0  -4  -1 4730.92  156.10
   1   4  -1  726.78   28.22
  -1   4   1  755.95   28.26
  -1  -4  -1  743.73   28.34
   1  -4   1  722.45   26.61
   1   4   1  797.71   28.42
  -1  -4   1  810.44   28.61
   1  -4  -1  790.97   26.88
  -1   4  -1  785.31   28.29
  -2  -4  -1 2928.34  100.58
   2   4  -1 2877.64  100.13
  -2   4   1 2971.04  100.20
  -2  -4   1 2953.18  100.70
   2   4   1 2870.49  100.06
  -2   4  -1 3049.05  100.30
  -3  -4  -1  355.71   16.80
  -3   4   1  364.63   16.52
  -3  -4   1  365.01   16.89
  -3   4  -1  379.21   16.69
  -4  -4  -1  352.94   17.95
  -4   4   1  346.69   17.56
  -4  -4   1  398.31   18.51
  -4   4  -1  406.25   18.27
  -5  -4  -1  573.65   26.35
  -5   4   1  559.34   25.92
  -5   4  -1  566.37   26.00
  -5  -4   1  598.95   26.69
   6   4  -1  104.54    7.75
   6  -4   1   98.66    7.53
   6   4  -1  102.79    6.81
  -6  -4  -1  109.37    9.91
   6   4  -1   97.61    8.02
  -6   4   1  100.05    9.60
   6   4   1   98.30    8.07
  -6   4  -1   97.50    9.52
   6   4   1   99.42    7.59
  -6  -4   1   97.56    9.61
   6   4   1   94.06    6.68
   7   4  -1  227.87   13.94
   7   4  -1  255.23   13.62
   7   4   1  239.14   13.26
   7   4   1  257.77   14.62
   8   4  -1  436.39   21.53
   8   4  -1  478.97   20.64
   8   4   1  433.02   20.26
   8   4   1  454.43   22.03
   9   4   1   28.61    4.96
   0   5  -1  156.59    8.67
   0  -5   1  150.84    7.96
   0   5   1  173.44    9.04
   0  -5  -1  151.39    7.99
   1   5  -1 2356.50   79.13
   1  -5   1 2280.47   77.02
  -1  -5  -1 2359.30   79.05
  -1   5   1 2281.84   78.84
   1   5   1 2243.38   78.84
   1  -5  -1 2230.74   77.05
  -1   5  -1 2276.93   78.85
  -1  -5   1 2236.01   78.84
  -2  -5  -1  112.30    8.01
  -2   5   1  121.92    7.92
   2   5  -1  113.64    7.92
   2   5   1  156.23    8.74
  -2  -5   1  153.07    8.89
  -2   5  -1  160.62    8.63
  -3  -5  -1 2081.65   72.40
  -3   5   1 2083.68   71.69
  -3  -5   1 1936.34   72.09
  -3   5  -1 1939.23   71.29
  -4   5   1  438.99   20.31
  -4  -5  -1  417.02   20.60
  -4   5  -1  412.73   20.04
  -4  -5   1  409.29   20.47
  -5   5   1   70.52    7.57
  -5  -5  -1   67.86    7.63
   5  -5   1   63.38    5.83
   5   5  -1   72.06    6.24
   5   5  -1   64.92    8.04
  -5  -5   1   51.99    6.90
   5   5   1   50.83    5.40
   5   5   1   63.72    9.12
  -5   5  -1   62.63    7.21
   6   5  -1  635.20   26.34
   6   5  -1  623.50   24.92
   6   5  -1  606.15   26.64
   6   5   1  630.48   24.87
   6   5   1  638.53   26.31
   6   5   1  597.49   26.81
   7   5  -1  363.92   17.22
   7   5  -1  349.02   17.69
   7   5  -1  352.57   15.69
   7   5   1  297.73   14.92
   7   5   1  331.02   16.68
   7   5   1  312.54   17.54
   8   5  -1   70.56    7.01
   8   5  -1   75.86    7.66
   8   5   1   87.50    8.13
   8   5   1   88.78    7.26
   9   5  -1   15.71    3.34
   9   5   1   11.86    3.42
   0  -6  -1 2324.07   76.82
   0  -6   1 2326.84   76.88
   0   6  -1 2045.13   77.39
   0   6   1 2160.36   77.60
   1   6  -1  117.01    8.29
  -1  -6  -1  122.22    8.18
   1  -6   1  110.88    6.65
  -1   6   1  126.60    8.34
  -1   6  -1  150.68    8.79
  -1  -6   1  140.22    8.51
   1  -6  -1  141.01    7.18
   1   6   1  139.55    8.66
  -2   6   1  367.69   17.42
   2   6  -1  374.40   17.95
  -2  -6  -1  391.96   18.27
   2   6   1  386.36   18.01
  -2  -6   1  395.62   18.29
  -2   6  -1  391.84   17.68
  -3   6   1  346.37   16.94
  -3  -6  -1  341.84   17.66
  -3  -6   1  344.29   17.61
  -3   6  -1  337.73   16.81
  -4   6   1  326.11   17.62
  -4  -6  -1  317.89   18.29
  -4   6  -1  363.87   18.13
  -4  -6   1  364.47   19.15
   5  -6   1   60.29    5.83
   5   6  -1   58.15    6.11
   5   6  -1   61.85    5.57
   5   6  -1   56.26    6.15
  -5  -6  -1   58.79    7.61
  -5   6   1   62.91    7.57
   5   6   1   49.86    6.53
  -5  -6   1   57.94    7.59
   5   6   1   58.57    5.95
  -5   6  -1   51.51    7.03
   5   6   1   55.58    5.24
   6   6  -1  116.32    7.93
   6   6  -1  117.51    9.14
   6   6  -1  116.40    8.71
   6   6   1   98.73    7.66
   6   6   1  109.97    9.06
   6   6   1  118.52    8.71
   7   6  -1  214.51   11.65
   7   6  -1  210.45   12.77
   7   6  -1  217.70   13.23
   7   6   1  210.47   11.45
   7   6   1  218.09   12.79
   7   6   1  241.33   14.21
   8   6  -1   53.74    6.37
   8   6  -1   49.46    6.21
   8   6   1   57.51    5.94
   8   6   1   58.11    6.83
   9   6  -1   59.13    5.78
   9   6   1   61.91    5.92
   0  -7   1  657.06   26.84
   0   7   1  694.93   28.11
   0   7  -1  676.66   28.00
   0  -7  -1  652.83   26.76
  -1   7   1  185.27   11.13
  -1  -7  -1  181.95   10.94
   1   7  -1  183.55   11.18
   1   7   1  170.87   10.98
  -1   7  -1  185.43   10.99
  -1  -7   1  186.71   11.08
  -2  -7  -1  274.43   15.03
  -2   7   1  272.95   14.44
   2   7  -1  263.59   14.77
  -2   7  -1  256.31   14.12
   2   7   1  252.29   14.53
  -2  -7   1  278.60   15.12
  -3   7   1  238.23   13.59
  -3  -7  -1  229.01   14.24
  -3  -7   1  211.37   13.87
  -3   7  -1  217.35   13.19
  -4   7   1  465.42   22.92
   4   7  -1  475.01   20.88
   4   7  -1  471.55   19.87
  -4  -7  -1  477.38   24.39
  -4   7  -1  481.44   23.15
   4   7   1  474.32   20.71
   4   7   1  479.38   19.75
   4   7   1  455.42   20.89
  -4  -7   1  496.61   24.73
   4  -7  -1  440.77   22.23
   5   7  -1  125.72    9.38
   5   7  -1  109.62    8.88
   5   7  -1  118.93    8.13
   5   7   1  135.49    9.33
   5   7   1  130.64    8.38
   5   7   1  138.55    9.67
   6   7  -1  428.10   20.20
   6   7  -1  430.22   18.98
   6   7  -1  426.21   20.42
   6   7   1  418.12   19.84
   6   7   1  395.75   20.28
   6   7   1  418.74   18.80
   7   7  -1  137.68   10.01
   7   7  -1  134.88    8.77
   7   7  -1  130.30    9.64
   7   7   1  119.58    8.31
   7   7   1  129.80    9.45
   7   7   1  122.63    9.99
   8   7  -1  256.76   12.35
   8   7  -1  261.56   13.99
   8   7  -1  270.14   13.95
   8   7   1  262.53   14.40
   8   7   1  279.95   13.97
   9   7  -1  141.88    8.23
   9   7   1  130.84    8.06
   0   8   1  491.47   23.01
   0   8  -1  525.97   23.40
   0  -8  -1  490.07   22.17
  -1  -8  -1 1261.19   49.26
  -1   8   1 1308.17   49.85
   1   8  -1 1247.40   49.53
  -1   8  -1 1346.30   49.84
  -1  -8   1 1294.44   49.64
   1   8   1 1271.59   49.69
  -2  -8  -1  486.84   23.31
  -2   8   1  473.93   22.40
   2   8  -1  498.68   23.47
   2   8   1  447.51   22.73
  -2   8  -1  461.92   22.37
  -2  -8   1  469.12   23.22
   3  -8   1  413.83   19.27
   3   8  -1  430.50   19.49
  -3  -8  -1  426.45   22.67
  -3   8   1  414.49   21.56
   3   8  -1  416.62   18.47
  -3  -8   1  463.64   23.43
  -3   8  -1  476.30   22.32
   3   8   1  435.38   18.37
   3  -8  -1  448.36   19.50
   4  -8   1  406.61   18.89
  -4   8   1  412.19   21.81
   4   8  -1  390.32   18.66
   4   8  -1  414.06   18.19
  -4  -8  -1  394.56   22.77
   4   8  -1  427.39   19.47
   4   8   1  408.37   19.01
  -4  -8   1  423.98   23.51
   4   8   1  418.75   18.21
  -4   8  -1  412.24   21.97
   4   8   1  405.47   19.25
   4  -8  -1  410.71   19.11
   5   8  -1  195.59   11.27
   5   8  -1  189.91   12.24
   5   8  -1  192.54   12.52
   5   8   1  216.80   11.72
   5   8   1  227.62   12.70
   5   8   1  216.36   12.80
   6   8  -1    9.12    3.44
   6   8  -1    6.03    2.84
   6   8  -1    6.73    3.18
   6   8   1    5.39    2.90
   6   8   1    5.03    2.72
   6   8   1    2.15    2.59
   7   8  -1   35.95    4.89
   7   8  -1   43.04    6.02
   7   8  -1   40.74    5.83
   7   8   1   40.82    5.05
   7   8   1   46.83    6.18
   7   8   1   41.70    6.32
  -8  -8  -1   89.37    6.44
   8   8  -1   99.30    6.65
   8   8  -1   97.86    7.54
   8   8   1  115.60    7.74
   8   8   1  114.68    8.14
   9   8  -1   75.37    5.64
   0   9  -1  392.66   20.64
   0   9   1  428.09   21.23
   1   9  -1  885.51   38.35
  -1  -9  -1  883.65   37.76
   1  -9   1  869.53   34.84
  -1   9   1  930.15   38.61
  -1  -9   1  938.05   38.41
  -1   9  -1  945.08   38.61
   1  -9  -1  925.53   35.09
   1   9   1  947.93   38.97
  -2   9   1  397.83   20.95
   2  -9   1  374.73   18.08
   2   9  -1  386.43   20.47
   2   9  -1  403.48   17.39
  -2  -9  -1  396.52   21.55
   2   9  -1  387.98   18.31
   2   9  -1  392.92   21.37
   2   9   1  400.35   17.33
   2   9   1  426.52   21.99
   2  -9  -1  422.38   18.81
  -2   9  -1  425.01   21.27
   2   9   1  400.83   18.24
  -2  -9   1  408.50   21.84
   3   9  -1   36.56    4.89
   3  -9   1   30.42    5.04
   3   9  -1   34.94    5.41
  -3  -9  -1   33.28    6.93
   3   9  -1   34.92    5.16
  -3   9   1   34.79    6.74
   3  -9  -1   31.43    4.93
  -3  -9   1   27.68    6.43
   3   9   1   32.55    5.12
  -3   9  -1   28.81    6.48
   3   9   1   36.15    5.60
   3   9   1   29.72    4.42
   4  -9   1  263.12   14.04
   4   9  -1  260.70   13.64
   4   9  -1  276.26   13.22
   4   9  -1  272.77   14.41
   4   9   1  233.96   12.77
   4   9   1  224.46   13.38
   4  -9  -1  226.53   13.53
   4   9   1  206.97   13.22
   5   9  -1  453.74   21.49
   5   9  -1  474.64   20.38
   5   9  -1  470.21   21.29
   5   9   1  443.79   20.03
   5   9   1  415.45   20.89
   5   9   1  434.28   20.77
   6   9  -1  182.30   11.85
   6   9  -1  184.52   11.97
   6   9  -1  191.35   11.16
   6   9   1  193.00   12.17
   6   9   1  183.80   10.88
   6   9   1  187.01   11.76
   7   9  -1  206.55   11.22
   7   9  -1  203.97   12.22
   7   9   1  211.83   12.48
   7   9   1  237.76   12.57
   7   9   1  217.91   11.22
  -8  -9  -1  114.99    7.10
   8   9  -1  116.27    8.11
   8   9   1  139.20    8.93
   8   9   1  144.71    8.37
   0 -10   1    4.49    2.51
   0  10  -1    7.16    4.00
   0 -10  -1    8.54    2.83
   0  10   1    5.74    3.84
   0  10   1    3.17    2.74
   0  10  -1    5.65    2.93
   1  10  -1  784.27   35.62
  -1  10   1  783.81   37.07
   1 -10   1  774.93   31.56
   1  10  -1  776.24   30.72
  -1  10   1  771.25   30.91
  -1 -10  -1  789.92   30.99
   1  10   1  802.24   31.31
  -1  10  -1  786.05   30.75
   1  10   1  811.36   36.58
  -1 -10   1  773.24   30.96
   1 -10  -1  824.33   31.92
  -1  10  -1  784.83   35.24
  -2  10   1   16.69    3.90
   2 -10   1   15.10    3.91
   2  10  -1   17.02    4.53
   2  10  -1   16.95    3.57
   2  10  -1   20.51    4.10
  -2 -10   1   17.78    4.30
   2  10   1   18.01    4.03
   2 -10  -1   18.71    4.27
  -2  10  -1   17.17    3.88
   2  10   1   19.44    3.80
   3  10  -1  170.98   10.89
   3  10  -1  173.08   10.47
   3 -10   1  170.22   11.34
   3  10  -1  165.03   11.26
   3  10   1  183.52   10.55
   3 -10  -1  199.04   11.93
   3  10   1  190.19   11.48
   3  10   1  187.86   11.40
   4  10  -1  205.22   12.85
   4  10  -1  200.68   11.38
   4 -10   1  200.40   12.24
   4  10  -1  202.33   12.39
   4 -10  -1  162.77   11.48
   4  10   1  187.29   11.06
   4  10   1  164.88   11.51
   4  10   1  175.19   11.60
   5  10  -1   16.45    3.76
   5  10  -1   20.96    4.62
   5  10   1   24.38    5.01
   5  10   1   32.19    5.15
   5  10   1   26.38    4.87
   6  10  -1   70.18    6.57
   6  10  -1   68.26    7.14
   6  10   1   89.73    7.58
   6  10   1   87.92    7.61
   6  10   1   87.84    6.97
   7  10  -1  308.76   15.14
   7  10  -1  318.58   14.25
   7  10   1  309.16   14.86
   7  10   1  309.26   14.92
  -8 -10  -1  155.70    7.99
   8  10  -1  156.64    8.56
  -8 -10   1  151.50    7.86
   8  10   1  165.05    8.61
   0  11  -1    1.86    2.53
   0 -11   1    0.24    2.44
   0 -11  -1    0.12    2.27
   0  11   1    2.48    2.84
   1 -11   1  566.53   25.40
  -1 -11  -1  572.95   24.82
  -1  11   1  587.79   24.84
   1  11  -1  561.90   24.41
  -1  11  -1  576.16   24.41
  -1 -11   1  599.93   25.07
   1 -11  -1  606.99   25.94
   1  11   1  621.14   25.27
  -2  11   1   41.77    5.96
   2 -11   1   44.06    6.48
   2  11  -1   41.88    5.56
   2  11  -1   44.98    6.05
   2  11  -1   46.09    6.36
   2  11   1   59.49    6.22
   2 -11  -1   70.63    7.16
  -2  11  -1   56.04    6.30
  -2 -11   1   72.83    8.48
   2  11   1   57.28    6.39
   3  11  -1  111.83    9.06
   3 -11   1  117.93    9.22
   3  11  -1  124.00    8.44
  -3  11   1  122.34    9.17
   3  11   1  107.09    8.78
   3  11   1   99.70    7.90
  -3  11  -1  103.47    8.47
   3 -11  -1  109.61    9.21
   4  11  -1  108.24    8.15
   4  11  -1  106.37    9.00
   4 -11   1  113.18    9.10
   4  11   1   96.08    7.78
   4  11   1   93.99    8.26
   4  11   1   94.08    8.16
   5  11  -1   53.58    6.74
   5  11  -1   55.18    6.17
   5  11   1   47.17    5.70
   5  11   1   55.30    6.20
   5  11   1   48.90    6.42
   6  11  -1  173.63   10.53
   6  11  -1  179.18    9.94
   6  11   1  161.30   10.01
   6  11   1  169.77    9.66
   6  11   1  169.13   10.13
  -7  11   1  258.50   11.86
   7  11  -1  240.29   12.03
  -7 -11  -1  226.67   11.35
   7  11   1  257.43   11.97
   0 -12   1    0.92    2.57
   0  12   1    2.82    2.84
   0  12  -1    4.20    3.00
   0 -12  -1    3.17    2.74
  -1 -12  -1 1180.56   44.28
  -1  12   1 1159.02   43.84
   1 -12   1 1181.02   45.38
   1  12  -1 1116.28   43.78
   1 -12  -1 1198.27   45.24
  -1 -12   1 1144.24   44.20
  -1  12  -1 1117.76   43.32
   1  12   1 1167.04   43.94
  -2  12   1  106.00    8.56
   2 -12   1  107.65    9.11
  -2  12  -1  103.55    8.29
   2  12   1  113.37    8.56
   2 -12  -1  105.05    9.03
   3  12  -1  466.18   21.62
   3  12  -1  487.74   20.72
   3 -12   1  494.25   22.71
  -3  12   1  487.59   21.47
   3  12   1  471.99   21.47
   3  12   1  481.00   20.52
  -3  12  -1  480.73   21.11
   3 -12  -1  475.51   22.59
  -4  12   1   84.74    7.66
   4 -12   1   85.21    7.71
   4  12  -1   91.72    7.15
   4  12  -1   91.26    7.88
   4  12   1   84.71    6.81
   4  12   1   81.82    7.11
  -4  12  -1   80.79    7.20
  -5  12   1   58.24    6.34
   5  12  -1   52.91    5.44
   5  12  -1   61.66    6.28
  -5  12  -1   71.39    6.55
   5  12   1   63.79    6.91
   5  12   1   66.71    5.87
   5  12   1   66.10    6.25
  -6  12   1   32.05    4.49
   6  12  -1   34.43    4.68
  -6 -12  -1   34.55    4.32
   6  12  -1   31.39    4.21
   6  12   1   34.03    4.37
  -6  12  -1   40.54    4.65
   0  13   1    3.82    3.00
   0 -13  -1    3.91    2.67
   0 -13   1    6.92    3.22
   0  13  -1    4.64    3.78
   1 -13   1  106.68    8.71
  -1  13   1  111.47    8.21
  -1 -13  -1  112.83    8.28
   1 -13  -1   94.20    8.38
  -1 -13   1   94.93    8.09
   1  13   1   89.95    7.67
  -1  13  -1   86.71    7.34
   2 -13   1    7.86    3.26
  -2  13   1    9.02    3.41
  -2  13  -1    7.59    3.32
   2  13   1   11.51    3.55
   2 -13  -1    9.24    3.67
   3 -13   1   26.81    4.95
  -3 -13  -1   31.23    4.31
  -3  13   1   32.39    4.98
   3  13  -1   37.39    4.64
   3  13   1   16.63    3.77
  -3  13  -1   19.06    3.91
   4  13  -1   12.06    5.11
   4  13  -1    7.98    2.80
  -4  13   1    7.88    3.01
  -4 -13  -1    9.60    2.92
  -4  13  -1    5.72    2.89
  -5 -13  -1   40.92    4.66
   5  13  -1   45.60    5.04
  -5  13   1   43.19    4.98
  -5  13  -1   62.84    5.30
  -6 -13  -1   18.70    2.99
  -6 -13   1   25.30    3.29
   0 -14   1   39.06    5.59
   0 -14  -1   28.73    5.25
   0  14   1   28.94    4.46
  -1 -14  -1  326.15   15.97
   1 -14   1  331.58   16.71
  -1  14   1  330.34   15.58
   1 -14  -1  351.21   16.95
   1  14   1  325.72   15.31
  -1 -14   1  335.48   16.08
  -2  14   1  261.97   12.85
   2 -14   1  269.09   14.15
   2  14   1  243.53   15.65
  -3  14   1  121.16    7.88
  -3  14  -1  129.51    9.16
  -4 -14  -1   53.85    4.62
  -4  14   1   50.99    5.10
  -4 -14   1   55.65    4.57
  -4  14  -1   51.24    6.60
   0 -15   1  131.57    8.64
  -1  15   1  282.28   13.76
   1 -15   1  309.31   14.35
  -1 -15   1  270.59   13.31
  -2  15   1  101.16    6.71
   0   0  -2  402.39   14.61
   0   0   2  417.11   14.22
  -1   0  -2  123.27    5.18
   1   0  -2  131.99    5.50
  -2   0  -2    6.40    1.34
   2   0  -2    9.70    1.68
  -3   0   2   -3.25    0.81
  -3   0  -2   -2.83    0.89
  -4   0   2    2.72    1.43
  -4   0  -2    3.39    1.49
  -6   0  -2   77.75    8.00
   6   0   2   78.48    6.13
   6   0  -2   81.68    6.92
   6   0   2   76.70    6.81
  -6   0   2   94.86    8.47
   7   0  -2   72.24    6.06
   7   0   2   77.87    7.30
   7   0  -2   78.60    7.34
   0  -1   2 1415.05   48.35
   0   1  -2 1439.00   48.82
   0   1   2 1515.77   48.51
   0   1  -2 1478.30   48.50
   0  -1  -2 1420.43   48.72
   1   1  -2  561.01   18.64
  -1  -1  -2  534.43   18.38
  -1   1   2  431.34   17.84
  -1  -1   2  517.04   17.37
  -1   1  -2  526.47   17.54
  -1   1  -2  512.66   18.13
   1  -1  -2  507.85   17.93
  -2  -1  -2 1339.57   46.07
   2   1  -2 1297.72   46.10
  -2   1   2 1305.01   45.96
  -2   1  -2 1319.91   44.71
   2  -1  -2 1411.80   45.26
  -3  -1  -2  414.94   16.44
  -3   1  -2  393.14   14.89
  -3  -1   2  414.81   16.54
  -4  -1  -2  384.84   16.81
  -4   1   2  399.85   17.69
  -4  -1   2  413.29   17.26
  -5   1   2   20.25    4.11
  -5   1  -2   17.05    3.87
  -5  -1   2   15.12    3.42
   6  -1   2  302.58   15.59
  -6   1   2  309.21   17.59
   6  -1   2  312.99   15.99
   6   1  -2  297.72   15.62
   6   1  -2  317.02   14.99
   6   1   2  335.14   16.05
   6   1   2  355.84   15.23
  -6   1  -2  344.27   18.25
   6  -1  -2  335.68   16.14
   7   1  -2   42.32    4.81
   7  -1   2   43.04    5.40
   7  -1   2   40.92    5.93
   7   1  -2   41.21    6.30
   7   1   2   41.52    5.36
   7   1   2   38.17    5.97
   8   1  -2   98.96    7.45
   8   1   2  112.27    9.15
   0   2   2   -5.94    1.02
   0  -2  -2   -8.21    0.74
   0   2  -2   -6.55    1.01
   0   2  -2   -7.43    0.87
   1   2  -2 2654.52   90.96
  -1   2   2 2721.13   91.14
  -1  -2  -2 2790.36   91.53
   1   2  -2 2733.83   91.54
   1  -2  -2 2759.12   90.43
  -1   2  -2 2703.65   91.16
   1   2   2 2875.05   91.23
  -1   2  -2 2668.11   90.06
  -1  -2   2 2681.92   89.86
  -2   2   2  830.16   29.67
  -2  -2  -2  829.66   29.93
  -2   2  -2  744.36   29.55
  -2  -2   2  856.45   27.77
   2  -2  -2  859.33   28.14
  -3   2   2  339.89   14.60
  -3  -2  -2  330.50   14.49
  -3   2  -2  330.53   14.51
  -3  -2   2  326.81   14.50
  -4  -2  -2  804.50   32.08
  -4   2   2  824.79   32.61
  -4   2  -2  866.38   32.73
  -4  -2   2  850.09   32.56
  -5   2   2  240.90   13.63
  -5  -2  -2  228.26   12.71
  -5  -2   2  232.15   12.94
  -5   2  -2  244.35   13.79
   6   2  -2  403.90   18.41
   6  -2   2  407.38   18.61
   6   2  -2  395.96   19.12
  -6   2   2  417.47   21.61
   6  -2   2  411.68   19.33
  -6   2  -2  487.50   22.86
   6   2   2  452.05   18.81
   6   2   2  442.48   19.79
   7  -2   2    4.96    2.52
   7   2  -2    5.01    2.90
   7   2  -2    6.40    2.58
   7   2   2    5.88    2.36
   7   2   2    5.17    2.73
   8   2  -2   44.33    5.69
   8   2  -2   44.11    6.72
   8   2   2   57.75    6.79
   8   2   2   53.02    5.67
   0   3   2 6061.56  196.14
   0  -3  -2 6008.74  195.87
   0   3  -2 5717.04  195.72
   1   3  -2 1193.99   43.07
  -1  -3  -2 1230.10   43.49
  -1   3   2 1217.01   43.13
  -1   3  -2 1274.90   43.28
   1   3   2 1292.55   43.29
   1  -3  -2 1257.28   42.16
  -2   3   2  364.13   14.49
  -2  -3  -2  355.33   14.76
  -2   3  -2  325.52   14.22
  -2  -3   2  326.81   14.61
  -3   3   2 1716.68   61.80
  -3  -3  -2 1750.65   62.25
  -3   3  -2 1768.52   62.00
  -3  -3   2 1803.02   62.52
  -4   3   2  407.13   19.12
  -4  -3  -2  414.93   19.33
  -4  -3   2  443.70   19.76
  -4   3  -2  461.50   19.76
  -5  -3  -2   51.09    5.83
  -5   3   2   52.88    6.02
  -5  -3   2   46.06    5.62
  -5   3  -2   44.83    5.69
  -6   3   2  141.73   11.20
   6   3  -2  152.98    9.82
   6   3  -2  146.19    9.25
   6  -3   2  153.28    9.47
  -6   3  -2  152.87   11.65
   6   3   2  147.13    9.82
   6   3   2  149.63    9.17
   7   3  -2  666.50   27.51
   7   3  -2  651.31   28.56
   7   3   2  648.98   28.71
   7   3   2  693.75   27.75
   8   3  -2  173.31   10.69
   8   3  -2  177.02   11.92
   8   3   2  197.18   12.70
   8   3   2  194.47   11.21
   9   3   2   14.83    3.86
   0  -4   2  240.62   10.49
   0  -4  -2  244.67   10.60
   0   4   2  252.94   11.10
   0   4  -2  246.14   11.03
  -1  -4  -2  452.97   18.01
  -1   4   2  433.37   17.64
   1   4  -2  443.91   17.81
   1  -4   2  420.67   16.20
  -1  -4   2  472.06   18.13
   1  -4  -2  455.54   16.57
   1   4   2  450.32   17.78
  -1   4  -2  438.74   17.61
   2   4   2    6.63    2.08
  -2  -4   2    5.39    2.10
  -2   4  -2    9.16    2.37
  -3   4   2  148.13    8.85
  -3  -4  -2  147.21    9.17
  -3   4  -2  155.17    9.03
  -3  -4   2  136.12    8.98
  -4   4   2 1032.20   40.98
  -4  -4  -2 1056.81   41.60
  -4   4  -2 1112.59   41.41
  -4  -4   2 1072.30   41.75
  -5  -4  -2   41.52    5.74
  -5   4   2   46.10    5.95
  -5   4  -2   43.22    5.86
  -5  -4   2   41.29    5.72
   6   4  -2  563.22   22.87
   6   4  -2  561.30   24.04
   6  -4   2  598.67   24.54
   6   4  -2  561.75   24.71
  -6  -4  -2  598.59   28.13
  -6   4   2  563.84   27.38
   6   4   2  569.49   22.66
  -6  -4   2  589.91   27.97
   6   4   2  556.54   24.94
   6   4   2  568.87   23.98
  -6   4  -2  539.63   27.54
   7   4  -2   64.04    7.18
   7   4  -2   70.89    6.87
   7   4   2   80.91    6.97
   7   4   2   81.17    7.89
   8   4  -2   17.70    4.52
   8   4  -2   16.63    3.87
   8   4   2   13.54    3.60
   8   4   2   17.79    4.46
   9   4  -2   46.01    5.03
   9   4   2   48.50    5.86
   0  -5   2 1332.98   46.77
   0   5  -2 1371.62   47.59
   0  -5  -2 1321.94   46.77
   0   5   2 1264.64   47.38
   1  -5   2 1744.27   61.85
  -1   5   2 1792.80   63.72
  -1  -5  -2 1827.62   63.97
   1   5  -2 1819.70   63.92
  -1  -5   2 1883.16   64.10
   1   5   2 1818.88   63.79
  -1   5  -2 1876.14   63.87
   1  -5  -2 1811.15   62.17
   2   5  -2  627.15   24.86
  -2   5   2  636.34   24.58
  -2  -5  -2  632.87   25.28
  -2   5  -2  591.87   24.35
  -2  -5   2  600.91   25.10
   2   5   2  579.69   24.53
  -3  -5  -2  436.61   21.13
  -3   5   2  436.58   20.44
  -3  -5   2  506.37   21.91
  -3   5  -2  528.02   21.34
  -4   5   2  451.36   20.66
  -4  -5  -2  453.64   21.27
  -4  -5   2  402.93   20.78
  -4   5  -2  415.04   20.32
   5   5  -2   44.18    5.02
  -5   5   2   44.21    6.33
   5   5  -2   51.54    5.82
   5  -5   2   38.11    5.11
  -5  -5  -2   48.88    6.60
   5   5   2   61.01    5.41
   5   5   2   66.18    5.74
  -5   5  -2   68.82    7.37
  -5  -5   2   67.23    7.58
   5   5   2   52.70    5.94
   6   5  -2    1.74    2.43
   6   5  -2    1.45    2.17
   6  -5   2    3.92    2.34
   6   5  -2    2.86    2.15
   6   5   2    2.38    1.96
   6   5   2    0.88    2.11
   6   5   2    6.51    3.00
   7   5  -2  558.19   25.50
   7   5  -2  544.71   23.33
   7   5  -2  586.52   25.18
   7   5   2  594.40   25.01
   7   5   2  570.44   23.18
   7   5   2  596.56   26.56
   8   5  -2  339.21   17.31
   8   5  -2  347.52   16.86
   8   5   2  353.00   16.79
   8   5   2  324.64   17.76
   9   5  -2   73.96    6.11
   9   5   2   72.26    6.76
   0   6   2 2761.63  105.05
   0  -6   2 3384.18  105.01
   0   6  -2 2802.48  105.14
   0  -6  -2 3309.07  104.85
  -1   6   2   23.58    3.87
   1  -6   2   16.55    2.64
  -1  -6  -2   15.43    3.17
   1   6  -2   23.21    4.14
  -1   6  -2   23.56    3.93
  -1  -6   2   17.61    3.46
   1   6   2   17.00    3.45
   1  -6  -2   17.20    2.74
   2   6  -2  500.37   22.13
  -2   6   2  491.00   21.57
  -2  -6  -2  529.89   22.58
   2   6   2  503.05   21.99
  -2  -6   2  500.27   22.33
  -2   6  -2  496.85   21.59
  -3   6   2    9.07    2.99
  -3  -6  -2    8.01    3.01
  -3  -6   2    7.61    2.99
  -3   6  -2    7.28    2.75
  -4  -6  -2   71.94    7.73
  -4   6   2   79.57    7.70
  -4   6  -2   82.33    7.68
  -4  -6   2   82.42    8.12
   5   6  -2  136.42    8.31
   5   6  -2  128.75    8.99
  -5  -6  -2  126.96   11.04
   5   6  -2  135.42    9.29
   5  -6   2  126.07    8.69
  -5   6   2  125.04   10.54
  -5  -6   2  130.54   11.25
  -5   6  -2  135.60   10.88
   5   6   2  129.00    9.24
   5   6   2  130.27    8.09
   5   6   2  129.82    8.65
   6   6  -2  234.58   12.08
   6   6  -2  232.82   13.21
   6   6  -2  230.36   13.10
   6   6   2  220.38   11.75
   6   6   2  225.92   12.73
   6   6   2  212.68   13.29
   7   6  -2  286.07   15.68
   7   6  -2  297.02   14.44
   7   6  -2  317.05   16.04
   7   6   2  282.01   15.17
   7   6   2  301.74   16.76
   7   6   2  281.81   13.95
   8   6  -2  168.99   10.73
   8   6  -2  163.91   10.32
   8   6   2  150.76   10.84
   8   6   2  158.55   10.02
   9   6  -2   16.98    3.53
   9   6   2   19.58    3.90
   0  -7   2 2392.63   85.55
   0   7  -2 2404.71   86.65
   0   7   2 2483.14   86.85
   0  -7  -2 2548.27   85.77
  -1  -7  -2  478.33   20.69
  -1   7   2  461.03   20.57
   1   7  -2  450.95   20.61
  -1   7  -2  443.22   20.21
   1   7   2  434.15   20.46
  -1  -7   2  429.43   20.26
  -2  -7  -2 1313.32   50.08
   2   7  -2 1295.21   49.98
  -2   7   2 1269.27   49.20
  -2   7  -2 1349.62   49.47
  -2  -7   2 1308.50   50.25
   2   7   2 1312.86   49.90
  -3   7  -2   59.50    6.53
  -3  -7   2   68.68    7.31
   4   7  -2  860.32   32.87
   4   7  -2  846.94   34.09
  -4  -7  -2  847.24   37.66
  -4   7   2  867.45   36.47
   4  -7   2  828.52   33.12
  -4  -7   2  889.29   38.36
   4   7   2  862.07   32.71
   4   7   2  903.61   33.94
  -4   7  -2  895.96   36.69
   4  -7  -2  870.73   33.51
   4   7   2  847.64   34.03
   5   7  -2  304.06   15.86
   5   7  -2  267.54   14.87
   5   7  -2  295.60   14.48
   5   7   2  301.58   15.74
   5   7   2  295.69   14.99
   5   7   2  315.48   14.55
   6   7  -2  836.18   32.97
   6   7  -2  854.06   34.55
   6   7  -2  853.58   34.64
   6   7   2  837.93   35.08
   6   7   2  849.92   32.94
   6   7   2  850.69   34.16
   7   7  -2  462.45   22.49
   7   7  -2  453.57   19.80
   7   7  -2  474.56   21.44
   7   7   2  433.93   20.55
   7   7   2  425.72   21.64
   7   7   2  443.52   19.38
   8   7  -2   88.06    7.14
  -8  -7  -2   82.41    5.91
   8   7  -2   73.39    5.93
   8   7   2   60.86    6.10
   8   7   2   62.79    6.81
   9   7  -2   55.12    5.26
   9   7   2   52.81    5.26
   0   8  -2 3327.69  114.73
   0  -8  -2 3257.14  113.42
   0   8   2 3242.35  114.57
  -1  -8  -2  473.51   22.21
   1   8  -2  460.17   22.38
  -1   8   2  485.01   22.69
   1   8   2  468.56   22.60
  -1  -8   2  480.23   22.44
  -1   8  -2  502.35   22.67
  -2   8   2  411.32   20.39
   2   8  -2  409.79   21.06
  -2  -8  -2  416.53   21.23
  -2  -8   2  414.38   21.37
  -2   8  -2  431.14   20.77
   2   8   2  429.45   21.28
   3   8  -2  163.82   10.04
   3   8  -2  161.48    8.92
   3  -8   2  154.30    9.41
  -3  -8  -2  155.67   11.86
  -3   8   2  163.26   11.55
   3   8   2  129.46    9.08
  -3  -8   2  126.44   11.08
   3   8   2  132.08    8.28
  -3   8  -2  138.40   10.78
   3  -8  -2  132.38    8.94
  -4  -8  -2  408.37   26.84
   4  -8   2  402.60   19.37
   4   8  -2  433.35   19.08
  -4   8   2  408.32   22.48
   4   8  -2  420.15   20.12
   4   8   2  460.20   19.12
   4   8   2  437.08   20.20
  -4   8  -2  458.32   27.41
  -4  -8   2  435.15   25.87
   4  -8  -2  445.18   19.87
   4   8   2  447.83   19.95
   5   8  -2   84.50    7.94
   5   8  -2   95.37    7.21
   5   8   2   67.96    6.38
   5   8   2   73.30    6.91
   5   8   2   67.15    7.33
   6   8  -2   44.79    5.73
   6   8  -2   46.59    6.60
   6   8   2   47.55    6.93
   6   8   2   47.68    5.96
   6   8   2   55.59    6.28
   7   8  -2  176.98   10.55
   7   8  -2  177.81   11.66
   7   8   2  196.17   10.48
   7   8   2  201.53   12.54
   7   8   2  194.66   11.51
   8   8  -2  227.81   10.71
   8   8  -2  233.96   12.02
  -8  -8  -2  223.69   10.67
   8   8   2  189.13   11.66
   8   8   2  200.68   11.25
   0   9   2  860.57   35.36
   0   9  -2  830.40   35.02
   0  -9   2  763.28   34.95
   1   9  -2  918.44   39.33
  -1  -9  -2  949.70   39.23
  -1   9   2  924.95   35.81
   1  -9   2  951.29   36.13
  -1   9   2  925.76   39.22
  -1  -9   2  951.05   39.43
  -1   9  -2  978.41   39.56
   1   9   2  948.01   38.25
   1   9   2  959.07   39.86
   1  -9  -2  942.84   36.01
   2   9  -2  603.82   24.79
  -2   9   2  604.12   27.48
   2   9  -2  577.43   27.69
  -2  -9  -2  625.08   28.24
   2   9  -2  606.60   23.46
   2  -9   2  568.67   24.23
  -2  -9   2  548.43   23.11
   2  -9  -2  557.75   24.20
  -2   9  -2  573.69   27.02
   2   9   2  557.31   23.02
   2   9   2  565.51   27.74
  -2  -9   2  574.66   28.09
   2   9   2  550.77   24.10
  -3   9   2   98.60   10.05
   3   9  -2  116.60    8.64
  -3  -9  -2  117.21   10.83
   3   9  -2  114.84    7.71
   3  -9   2  116.82    8.62
   3   9   2   85.06    7.53
   3  -9  -2   89.06    7.71
   3   9   2   93.15    7.11
  -3  -9   2  103.04   10.50
  -3   9  -2  102.99   11.80
   3   9   2   95.25    7.97
   4   9  -2  601.97   24.18
   4  -9   2  589.23   25.04
   4   9  -2  618.01   25.80
   4  -9  -2  545.70   24.74
   4   9   2  557.78   23.80
   4   9   2  535.71   24.87
   4   9   2  555.53   24.71
   5   9  -2  282.21   16.18
   5   9  -2  280.17   14.60
   5   9   2  312.38   16.32
   5   9   2  297.20   14.84
   5   9   2  292.99   15.31
   6   9  -2  214.86   12.74
   6   9  -2  196.82   11.52
   6   9   2  204.82   12.73
   6   9   2  185.58   11.07
   6   9   2  193.25   11.88
   7   9  -2  702.81   28.81
   7   9  -2  741.18   27.67
   7   9   2  675.56   28.85
   7   9   2  670.85   27.99
   7   9   2  669.23   27.08
  -8  -9  -2   13.48    2.73
   8   9  -2   12.13    2.68
   8   9  -2   16.32    3.68
   8   9   2    5.22    2.56
   8   9   2    3.13    2.49
   0  10  -2    9.95    4.21
   0  10  -2   14.75    3.97
   0 -10   2   12.29    3.43
   0 -10  -2   11.12    3.28
   0  10   2    9.60    4.36
   0  10   2    7.01    3.19
  -1  10   2  234.39   18.58
   1 -10   2  232.82   12.34
  -1  10   2  227.26   12.01
   1  10  -2  238.53   17.86
   1  10  -2  219.66   12.14
  -1 -10  -2  204.66   11.26
   1  10   2  177.99   11.32
  -1  10  -2  185.69   10.84
  -1  10  -2  190.21   15.40
  -1 -10   2  190.27   11.23
   1  10   2  190.49   20.56
   1 -10  -2  196.18   11.84
   2  10  -2  283.96   13.32
   2  10  -2  288.88   14.76
   2 -10   2  289.40   14.74
  -2  10   2  288.48   14.26
  -2 -10   2  253.05   13.31
   2  10   2  262.58   13.01
  -2  10  -2  244.28   13.23
   2 -10  -2  245.42   14.07
   2  10   2  265.26   14.14
   3  10  -2  380.33   18.37
   3 -10   2  387.93   18.42
   3  10  -2  400.08   17.14
   3  10   2  344.00   16.57
   3 -10  -2  337.15   17.79
   3  10   2  330.99   17.47
   4  10  -2  303.94   16.86
   4  10  -2  304.59   15.67
   4 -10   2  304.37   16.55
   4  10   2  346.00   15.98
   4  10   2  343.24   17.26
   4  10   2  336.80   16.54
   5  10  -2  567.17   24.82
   5  10  -2  555.81   23.26
   5  10   2  508.65   23.88
   5  10   2  521.95   23.37
   5  10   2  522.96   22.74
   6  10  -2   82.37    7.18
   6  10  -2   88.36    8.05
   6  10   2  117.00    7.70
   6  10   2  104.71    8.06
   6  10   2  109.12    8.65
   7  10  -2  304.52   14.91
  -7 -10  -2  305.29   13.94
   7  10  -2  305.03   13.98
   7  10   2  295.41   14.76
   7  10   2  295.53   14.24
  -8 -10  -2  119.04    6.74
   8  10  -2  129.33    7.44
   8  10   2  111.24    6.86
  -8 -10   2  101.98    6.34
   0 -11   2  358.94   17.66
   0  11   2  365.92   17.46
   0 -11  -2  366.91   17.81
   1  11  -2  178.36   14.00
  -1 -11  -2  180.98   11.08
   1 -11   2  183.70   11.47
  -1  11   2  188.35   11.20
   1  11   2  171.51   10.97
   1 -11  -2  164.53   11.11
  -1 -11   2  173.73   10.90
  -1  11  -2  166.07   10.40
   2  11  -2   52.32    6.06
  -2  11   2   61.23    6.78
   2 -11   2   53.42    7.06
   2  11  -2   51.96    6.90
   2 -11  -2   41.08    6.21
   2  11   2   44.40    5.51
  -2 -11   2   47.94    6.01
  -2  11  -2   45.20    5.69
   2  11   2   50.99    6.38
   3  11  -2  151.40    9.87
   3 -11   2  157.58   10.92
   3  11  -2  154.87   10.85
  -3  11   2  161.65   10.83
   3  11   2  154.48   10.60
  -3  11  -2  157.30   10.26
   3 -11  -2  168.43   11.44
   3  11   2  154.27    9.79
  -4  11   2  130.10    9.19
   4  11  -2  118.04    9.61
   4  11  -2  133.30    8.98
   4 -11   2  131.06    9.87
   4  11   2  116.71    9.27
   4  11   2  120.41   10.00
   4  11   2  120.63    8.71
   5  11  -2    7.23    2.99
   5  11  -2    5.75    3.26
   5  11   2   11.41    3.50
   5  11   2    6.64    3.25
   5  11   2    9.89    3.00
   6  11  -2  148.05    9.61
   6  11  -2  156.49    9.05
   6  11   2  133.16    8.80
   6  11   2  136.04    9.21
   7  11  -2  110.00    6.81
  -7  11   2  107.40    7.02
   7  11  -2  102.03    7.27
  -7 -11  -2  107.42    6.67
  -7  11  -2  101.65    6.46
   7  11   2   94.23    6.59
   0  12   2  145.17   10.02
   0 -12   2  149.38   10.39
   0 -12  -2  144.59   10.12
  -1  12   2  926.73   36.30
  -1 -12  -2  901.31   36.13
   1 -12   2  918.99   37.21
  -1  12  -2  872.81   36.72
   1  12   2  932.64   36.42
  -1 -12   2  942.88   36.66
   1 -12  -2  956.51   37.36
  -2  12   2  282.00   14.60
   2 -12   2  287.52   15.42
   2  12  -2  260.91   14.63
  -2  12  -2  252.20   13.55
  -2 -12   2  259.77   13.88
   2  12   2  269.64   14.50
   2 -12  -2  253.82   14.92
  -3  12   2  227.45   12.47
   3 -12   2  200.56   12.56
   3  12  -2  210.54   11.32
   3  12  -2  193.41   12.21
  -3  12  -2  180.61   11.09
   3  12   2  193.91   10.91
   3 -12  -2  189.60   12.34
   3  12   2  190.13   11.97
   4  12  -2   63.76    7.30
   4 -12   2   65.38    6.77
  -4  12   2   73.43    7.18
   4  12  -2   72.68    6.46
   4  12   2   84.43    7.24
  -4  12  -2   80.56    6.98
   5  12  -2  749.99   28.22
   5  12  -2  705.12   28.87
  -5  12   2  758.14   29.02
   5  12   2  678.53   28.55
  -5  12  -2  694.36   27.96
   6  12  -2  111.02    7.01
  -6  12   2  112.82    7.44
   6  12  -2  103.97    7.39
  -6 -12  -2  108.73    6.94
  -6  12  -2   94.57    6.66
   6  12   2  100.01    9.50
   0  13   2  127.13    9.17
   0 -13   2  127.65    9.75
   0 -13  -2  128.50    9.45
  -1 -13  -2   25.36    4.75
  -1  13   2   26.78    4.68
   1 -13   2   23.85    5.24
  -1 -13   2   31.56    5.43
   1 -13  -2   30.48    5.36
   1  13   2   26.79    4.76
   2 -13   2   23.90    4.58
  -2  13   2   23.28    4.55
   2 -13  -2   23.96    4.84
   2  13   2   20.66    4.29
   3 -13   2   12.16    3.83
  -3 -13  -2    8.99    2.97
   3  13  -2   11.15    4.70
  -3  13   2   14.06    3.70
   3  13  -2   12.13    3.11
   3  13   2   16.15    3.69
  -3  13  -2   13.54    3.57
   4  13  -2   39.05    4.56
   4  13  -2   41.11    5.46
  -4  13   2   38.58    5.17
  -4 -13  -2   38.10    4.73
  -4  13  -2   33.26    4.51
   4  13   2   38.20    4.99
  -5 -13  -2    7.51    2.37
   5  13  -2    7.18    2.66
  -5  13   2   10.17    3.04
   5  13  -2    5.07    2.48
  -5  13  -2    1.91    2.28
  -6  13   2   14.59    3.10
  -6 -13  -2   14.60    2.66
  -6 -13   2   16.06    2.75
   0 -14   2  124.03    8.89
   0  14   2  111.35    8.07
   0 -14  -2  114.71    8.53
  -1  14   2  168.11   10.37
   1 -14   2  156.99   10.86
  -1 -14   2  196.24   11.14
   1  14   2  198.05   10.69
   1 -14  -2  199.82   11.59
   2 -14   2   73.46    6.98
  -2  14   2   64.96    6.04
   2  14   2   67.91    6.36
   3 -14   2  205.20   11.43
  -3  14   2  203.75   10.67
   3  14   2  194.91   10.48
  -4  14   2   20.73    3.63
  -4 -14  -2   18.70    3.12
  -4 -14   2   27.64    3.48
   0 -15   2   93.82    7.33
   0  15   2   91.64    6.47
   1 -15   2   11.14    3.26
  -1  15   2   10.58    2.83
   1  15   2    9.55    2.88
  -1 -15   2    6.25    3.01
  -2  15   2   17.94    3.30
  -3  15   2   72.39    5.54
   0   0  -3   -0.17    0.74
   0   0   3   -1.53    0.48
  -1   0  -3  257.15    9.75
   1   0  -3  256.07   10.14
  -2   0  -3 4153.18  145.95
   2   0  -3 4667.98  146.66
   3   0  -3  115.48    6.25
  -3   0  -3  110.34    5.87
  -4   0  -3  569.50   21.78
  -4   0   3  563.20   22.22
  -6   0  -3   47.29    6.21
   6   0   3   44.89    5.23
   6   0   3   45.06    4.77
  -6   0   3   43.66    5.99
   6   0  -3   46.34    6.03
   7   0   3  436.33   20.52
   7   0  -3  418.01   18.61
   7   0   3  440.55   23.93
   8   0   3  251.98   14.58
   0   1  -3    0.81    0.61
   0  -1   3    1.00    0.67
   0   1  -3    2.32    1.04
   0  -1  -3    0.33    0.76
  -1  -1  -3 2544.93   84.30
   1   1  -3 2481.98   84.49
  -1   1   3 2450.30   83.64
  -1   1  -3 2529.06   83.67
   1  -1  -3 2540.89   84.11
   1   1   3 2556.16   83.22
  -1   1  -3 2512.41   83.88
  -1  -1   3 2569.71   83.29
  -2  -1  -3  771.01   28.14
  -2   1   3  748.87   27.88
   2   1  -3  796.40   28.47
   2  -1  -3  814.99   27.69
  -2   1  -3  801.16   27.10
  -3  -1  -3   55.31    4.28
  -3   1   3   56.91    4.45
   3   1  -3   56.40    4.53
  -3   1  -3   68.04    3.64
  -4   1   3  208.07   11.19
  -4  -1  -3  194.31   10.40
  -4  -1   3  248.21   11.43
  -5   1   3  156.51   10.29
  -5  -1   3  162.90    9.84
  -5   1  -3  170.06   10.80
   6  -1   3  289.83   14.30
   6   1  -3  293.30   15.15
   6   1  -3  298.66   14.13
   6  -1   3  279.92   14.87
  -6   1   3  303.58   17.20
   6   1   3  309.01   15.20
   6   1   3  311.72   14.26
  -6   1  -3  339.81   17.83
   7   1  -3  487.02   22.48
   7   1  -3  478.93   20.88
   7  -1   3  486.85   21.42
   7  -1   3  487.88   22.49
   7   1   3  509.57   22.92
   7   1   3  499.97   21.29
   8   1  -3  210.25   11.67
   8   1   3  237.49   13.83
   0  -2  -3 2382.04   81.62
   0   2  -3 2508.74   81.51
   0   2  -3 2440.76   81.74
  -1   2   3 1315.96   46.10
  -1  -2  -3 1348.49   46.71
   1   2  -3 1321.54   46.00
   1   2   3 1396.94   46.26
  -1  -2   3 1361.09   45.18
   1  -2  -3 1398.13   46.00
  -1   2  -3 1368.03   45.65
  -1   2  -3 1368.31   46.27
   1   2   3 1327.59   44.92
   2   2  -3  140.30    7.30
  -2   2   3  141.68    6.83
  -2  -2  -3  135.43    7.07
  -2   2  -3  142.64    7.04
  -2  -2   3  127.58    5.35
   2  -2  -3  126.46    5.95
  -3  -2  -3 1067.99   38.54
  -3   2   3  917.27   37.96
  -3   2  -3 1160.48   38.92
   3  -2  -3 1082.97   36.42
  -4   2   3  581.79   23.50
  -4  -2  -3  563.17   23.02
  -4   2  -3  542.92   23.19
  -4  -2   3  533.25   23.08
  -5   2   3   72.43    6.78
  -5  -2  -3   68.88    6.13
  -5   2  -3   57.45    6.28
  -5  -2   3   58.60    6.01
  -6   2   3  533.64   25.43
   6   2  -3  496.56   22.75
   6  -2   3  549.87   22.73
   6   2  -3  527.57   22.19
   6  -2   3  536.51   23.09
   6   2   3  498.29   22.93
   6   2   3  548.58   22.30
  -6   2  -3  578.05   26.32
   7   2  -3  304.76   15.31
   7   2  -3  316.07   16.58
   7  -2   3  337.69   16.29
   7   2   3  319.88   15.65
   7   2   3  326.63   16.89
   8   2  -3  245.88   13.38
   8   2   3  284.29   15.62
   0  -3  -3 4023.73  128.33
   0   3  -3 3859.59  128.25
   0   3  -3 3675.54  128.20
   1   3  -3 3503.63  119.01
  -1   3   3 3499.90  118.96
  -1  -3  -3 3638.94  119.60
   1   3  -3 3510.90  119.62
  -1   3  -3 3673.53  119.20
   1  -3  -3 3624.40  118.46
   1   3   3 3564.79  119.10
  -1   3  -3 3511.23  118.08
   2   3  -3  166.52    9.09
  -2   3   3  165.64    8.51
  -2  -3  -3  165.81    8.89
   2  -3  -3  189.89    7.54
  -2   3  -3  193.98    8.93
  -3   3   3 2747.96   94.69
  -3  -3  -3 2758.46   95.21
  -3  -3   3 2785.48   95.46
  -3   3  -3 2761.12   94.85
  -4   3   3  445.53   19.64
  -4  -3  -3  450.20   19.81
  -4  -3   3  429.14   19.82
  -4   3  -3  424.76   19.57
  -5  -3  -3   30.06    5.18
  -5   3   3   37.04    5.25
  -5   3  -3   50.14    5.93
  -5  -3   3   50.91    5.93
   6  -3   3   26.03    4.42
   6   3  -3   30.93    5.03
  -6   3   3   26.62    5.58
   6   3  -3   32.94    4.68
   6   3   3   25.62    4.54
   6   3   3   27.19    4.25
  -6   3  -3   26.76    5.60
   7   3  -3  564.98   24.79
   7  -3   3  591.26   25.57
   7   3  -3  575.83   25.89
   7   3   3  604.57   26.42
   7   3   3  611.13   25.01
   8   3  -3   38.51    5.91
   8   3  -3   37.60    5.19
   8   3   3   23.21    4.28
   8   3   3   38.57    6.53
   9   3   3   30.40    5.28
   0   4   3  165.67    8.25
   0  -4  -3  159.95    7.87
   0   4  -3  152.51    7.81
   0   4  -3  168.55    8.27
  -1   4   3 1953.96   67.26
  -1  -4  -3 1926.87   67.57
   1   4  -3 1923.79   67.28
   1  -4  -3 1959.68   66.29
  -1   4  -3 1962.89   67.18
   1   4   3 2004.10   67.37
  -2   4   3  190.09    9.72
   2   4  -3  194.55    9.88
  -2  -4  -3  191.69   10.24
   2  -4  -3  198.07    8.27
   2   4   3  205.88   10.04
  -2   4  -3  208.00   10.11
  -2  -4   3  198.98   10.48
  -3  -4  -3  196.25   11.04
  -3   4   3  195.14   10.64
  -3   4  -3  195.40   10.68
  -3  -4   3  200.74   11.28
  -4   4   3   24.08    4.33
  -4  -4  -3   21.14    4.26
  -4   4  -3   36.31    4.67
  -4  -4   3   35.01    4.91
  -5   4   3  257.70   14.65
  -5  -4  -3  250.57   14.63
  -5  -4   3  225.85   14.38
  -5   4  -3  229.89   14.05
  -6   4   3   59.84    7.70
   6  -4   3   62.03    6.25
   6   4  -3   67.56    6.57
   6   4  -3   74.18    6.56
   6   4  -3   69.89    5.69
   6   4   3   63.14    5.42
   6   4   3   71.79    6.33
   6   4   3   65.41    6.67
  -6  -4   3   63.68    7.84
   7  -4   3   77.49    7.29
   7   4  -3   65.61    7.12
   7   4  -3   72.08    6.81
   7   4   3   69.62    6.61
   7   4   3   68.86    7.37
   8   4  -3   54.51    6.45
   8   4  -3   45.69    6.07
   8   4   3   55.21    7.62
   8   4   3   50.82    5.76
   9   4  -3   65.86    5.92
   9   4   3   75.56    7.01
   0   5   3  447.91   18.17
   0  -5   3  419.25   17.42
   0   5  -3  438.18   18.06
   0  -5  -3  412.06   17.42
   1  -5   3 3190.18  113.92
  -1   5   3 3363.96  115.74
  -1  -5  -3 3280.15  115.84
   1   5  -3 3360.73  115.86
  -1  -5   3 3520.54  116.29
   1   5   3 3509.45  115.93
  -1   5  -3 3529.65  115.87
   1  -5  -3 3522.29  114.56
   2   5  -3  276.63   12.98
  -2  -5  -3  280.23   13.31
  -2   5   3  274.99   12.60
  -2   5  -3  236.20   12.20
   2   5   3  221.29   12.19
  -2  -5   3  235.01   12.85
  -3   5   3 3239.18  111.84
  -3  -5  -3 3239.08  112.81
  -3  -5   3 3221.48  113.06
  -3   5  -3 3289.86  112.09
  -4  -5  -3  138.22   10.10
  -4   5   3  128.71    9.49
  -4   5  -3  145.11   10.02
  -4  -5   3  144.95   10.40
  -5   5   3  683.87   31.32
   5   5  -3  653.98   28.72
   5   5  -3  671.75   27.55
  -5  -5  -3  693.62   31.95
  -5   5  -3  775.66   32.28
  -5  -5   3  755.69   32.77
   5   5   3  761.82   28.74
   5   5   3  755.65   27.79
   5   5   3  727.77   29.37
   6   5  -3  308.94   15.85
   6   5  -3  325.91   14.86
   6   5  -3  304.43   15.59
   6  -5   3  292.19   15.47
   6   5   3  299.83   15.20
   6   5   3  314.03   14.29
   6   5   3  298.33   16.12
   7   5  -3  306.58   15.95
   7   5  -3  302.62   14.18
   7   5  -3  307.98   15.69
   7   5   3  282.34   16.29
   7   5   3  290.18   15.01
   7   5   3  266.32   13.35
  -7   5  -3  287.31   14.70
   8   5  -3   22.76    5.30
   8   5  -3   28.14    4.78
   8   5   3   34.12    5.90
   8   5   3   26.78    4.74
   9   5  -3  198.93   10.88
   9   5   3  218.50   12.20
   0  -6   3 1438.99   52.18
   0  -6  -3 1450.65   52.11
   0   6  -3 1458.91   52.97
   0   6   3 1477.61   52.91
  -1   6   3  516.82   22.77
   1  -6   3  524.17   22.87
   1   6  -3  556.12   23.33
  -1  -6  -3  565.60   23.35
   1   6   3  565.44   23.36
   1  -6  -3  569.53   21.90
  -1  -6   3  568.82   23.53
  -1   6  -3  589.77   23.40
  -2   6   3 2123.40   74.29
  -2  -6  -3 2093.85   74.94
   2   6  -3 2054.93   74.64
   2   6   3 2087.77   74.54
  -2  -6   3 2143.88   75.48
  -2   6  -3 2072.95   74.08
  -3   6   3   22.16    4.30
  -3  -6  -3   19.86    4.37
  -3  -6   3   30.71    5.45
  -3   6  -3   27.57    4.65
  -4  -6  -3  741.56   32.93
  -4   6   3  784.16   32.25
  -4   6  -3  752.50   31.98
  -4  -6   3  739.12   33.26
   5   6  -3  471.73   21.15
   5  -6   3  477.15   20.70
   5   6  -3  467.51   19.80
  -5  -6  -3  440.70   23.64
  -5   6   3  459.05   23.29
   5   6   3  452.46   19.42
   5   6   3  461.43   20.33
   5   6   3  477.47   21.28
  -5  -6   3  483.62   24.80
  -5   6  -3  444.90   23.11
   6   6  -3  390.16   19.33
   6  -6   3  391.06   19.21
   6   6  -3  407.73   18.31
   6   6   3  428.23   19.23
   6   6   3  422.27   18.09
   6   6   3  403.85   19.99
   7   6  -3  279.84   14.57
   7   6  -3  294.51   16.05
   7   6   3  331.27   16.10
   7   6   3  324.27   14.57
   7   6   3  312.44   17.19
   8   6  -3  215.08   12.34
   8   6   3  214.46   12.12
   8   6   3  222.39   13.30
   9   6  -3  120.01    7.85
   9   6   3  126.86    8.59
   0   7  -3  311.03   15.36
   0  -7   3  281.87   14.15
   0  -7  -3  288.09   14.25
   0   7   3  295.61   15.10
  -1   7   3  826.85   33.78
   1   7  -3  827.48   33.92
  -1  -7  -3  816.13   33.63
  -1  -7   3  863.54   34.20
   1   7   3  882.34   34.30
  -1   7  -3  891.78   33.97
   2   7  -3  621.51   27.66
  -2   7   3  641.99   27.30
  -2  -7  -3  640.11   27.93
  -2  -7   3  632.92   28.04
  -2   7  -3  660.13   27.31
   2   7   3  649.14   27.72
  -3  -7  -3  462.09   23.34
  -3   7   3  475.86   22.56
  -3  -7   3  505.06   24.21
  -3   7  -3  502.95   22.82
  -4   7   3   16.76    4.49
   4  -7   3   16.52    3.57
   4   7  -3   18.40    3.37
   4   7  -3   12.67    3.59
  -4  -7  -3   19.55    5.24
   4   7   3   14.81    3.27
   4   7   3   12.70    3.35
  -4  -7   3   12.14    4.16
  -4   7  -3   15.09    4.27
   4   7   3   14.85    3.83
   5   7  -3  634.70   24.89
   5   7  -3  651.24   26.58
   5  -7   3  625.26   25.59
   5   7   3  560.01   24.92
   5   7   3  586.56   24.33
   5   7   3  540.15   25.63
   6   7  -3  447.55   19.59
   6   7  -3  421.91   20.77
   6   7   3  439.74   19.27
   6   7   3  428.05   20.14
   6   7   3  447.48   21.52
   7   7  -3  406.51   20.38
   7   7  -3  431.06   19.29
   7   7   3  440.86   20.17
   7   7   3  437.50   18.83
   7   7   3  456.89   21.70
   8   7  -3  144.36    9.66
  -8  -7  -3  140.98    8.29
   8   7  -3  137.93    8.38
   8   7   3  156.84    9.58
   8   7   3  159.21   10.50
   9   7  -3  121.72    7.72
   9   7   3  131.96    8.21
   0   8  -3   20.49    4.54
   0   8   3   16.34    4.09
   0  -8  -3   15.80    3.71
  -1  -8  -3  602.52   26.51
  -1   8   3  626.54   26.92
   1   8  -3  613.87   26.81
  -1   8  -3  604.00   26.49
  -1  -8   3  561.32   26.24
   1   8   3  569.45   26.46
   2   8  -3 1945.39   71.51
  -2   8   3 1917.11   70.57
  -2  -8  -3 1971.15   71.58
   2   8   3 1923.00   71.39
  -2  -8   3 1833.14   71.43
  -2   8  -3 1930.97   70.68
   3   8  -3  269.86   12.67
   3   8  -3  256.48   13.78
  -3  -8  -3  259.58   15.98
   3  -8   3  245.07   12.92
  -3   8   3  260.09   15.41
  -3   8  -3  239.16   14.85
   3  -8  -3  244.60   12.98
   3   8   3  239.29   13.15
  -3  -8   3  241.76   15.96
   3   8   3  243.91   12.08
   4  -8   3  511.47   22.90
   4   8  -3  535.44   22.36
  -4   8   3  571.63   31.85
   4   8  -3  558.48   24.09
   4   8   3  544.35   22.29
   4   8   3  505.26   23.45
   4   8   3  513.81   22.68
   5   8  -3   87.97    7.18
   5   8  -3   95.72    8.33
   5   8   3   66.77    6.38
   5   8   3   71.92    7.50
   5   8   3   71.91    6.85
   6   8  -3  672.36   28.63
   6   8  -3  674.62   26.93
   6   8   3  648.91   26.54
   6   8   3  646.49   28.79
   6   8   3  621.35   27.25
   7   8  -3  331.57   16.47
   7   8  -3  316.37   14.98
   7   8   3  279.08   16.11
   7   8   3  299.36   15.33
   8   8  -3   51.01    5.53
   8   8  -3   44.14    4.85
  -8  -8  -3   44.31    4.44
   8   8   3   48.12    5.27
   8   8   3   43.56    5.76
   0   9  -3   71.77    7.72
   0  -9   3   75.01    6.15
   0   9   3   74.83    6.86
   0   9   3   71.98    7.92
  -1  -9  -3  802.35   33.86
   1  -9   3  807.92   30.88
  -1   9   3  787.73   30.56
  -1   9   3  807.54   34.07
   1   9  -3  817.07   34.28
  -1   9  -3  789.66   33.81
  -1  -9   3  762.12   33.75
  -1  -9   3  745.16   30.02
   1   9   3  748.88   33.83
   1   9   3  755.96   30.54
   1  -9  -3  755.94   30.53
   2   9  -3   26.05    4.09
  -2   9   3   23.61    5.46
   2   9  -3   23.05    5.45
   2  -9   3   21.43    4.03
  -2  -9  -3   22.56    5.35
   2   9  -3   22.10    4.51
   2   9   3   14.57    3.28
   2   9   3   14.34    4.86
  -2  -9   3   11.73    3.03
  -2   9  -3   12.60    4.10
  -2  -9   3   17.15    4.74
   2   9   3   17.64    4.05
   2  -9  -3   17.43    3.78
   3  -9   3  498.90   22.46
   3   9  -3  505.92   21.70
   3   9  -3  521.30   23.21
  -3  -9  -3  488.03   29.75
  -3  -9   3  522.90   31.54
   3  -9  -3  522.32   22.79
   3   9   3  533.09   21.67
   3   9   3  513.50   22.78
   4   9  -3   44.99    5.69
   4  -9   3   42.53    6.07
   4   9  -3   47.28    6.99
   4   9   3   37.15    5.08
   4   9   3   48.28    6.50
   4   9   3   38.14    5.55
   5   9  -3  619.85   26.15
   5   9  -3  643.63   28.15
   5   9   3  612.75   27.57
   5   9   3  651.18   26.72
   5   9   3  616.56   25.86
   6   9  -3  582.77   23.90
   6   9  -3  606.74   25.52
   6   9   3  530.06   23.84
   6   9   3  523.33   23.02
   6   9   3  544.18   25.15
   7   9  -3  226.33   12.87
   7   9  -3  226.62   11.74
  -7  -9  -3  220.76   11.52
   7   9   3  221.74   12.95
   7   9   3  215.44   11.92
   8   9  -3  104.02    6.40
   8   9  -3  106.16    7.46
  -8  -9  -3   98.35    6.32
   8   9   3   98.22    6.90
   8   9   3  100.55    7.28
   0  10  -3  174.50   10.86
   0  10  -3  167.67   12.73
   0  10   3  178.79   10.87
   0  10   3  173.48   13.26
   0 -10  -3  181.61   10.68
   0 -10   3  186.09   10.86
  -1  10   3  134.28    9.05
  -1 -10  -3  131.36    8.77
   1  10  -3  128.86    9.22
   1 -10   3  135.16    9.03
   1  10   3  101.54    8.28
  -1 -10   3  113.79    8.26
   1 -10  -3  112.62    8.46
   2  10  -3  671.72   26.53
  -2  10   3  665.20   27.54
   2 -10   3  656.16   27.85
   2  10  -3  664.30   28.16
  -2 -10   3  644.46   26.73
  -2  10  -3  655.75   26.61
   2 -10  -3  672.51   28.02
   2  10   3  686.02   27.91
   2  10   3  668.27   26.37
   3 -10   3  539.10   24.09
   3  10  -3  539.44   22.64
   3  10  -3  544.78   24.17
   3  10   3  507.57   22.18
   3  10   3  526.82   23.74
   3 -10  -3  538.62   24.10
   4  10  -3   69.87    6.77
   4  10  -3   67.35    7.72
   4 -10   3   67.97    7.26
   4  10   3   87.46    7.59
   4  10   3   89.50    8.18
   4  10   3   96.84    7.44
   5  10  -3  134.69    9.27
   5  10  -3  139.09   10.75
   5  10   3  142.37   10.26
   5  10   3  133.71    9.37
   5  10   3  132.06    8.98
   6  10  -3  472.86   21.64
   6  10  -3  463.75   20.31
   6  10   3  477.93   20.16
   6  10   3  446.41   20.37
   6  10   3  461.48   21.49
   7  10  -3  301.02   13.72
   7  10  -3  312.48   14.92
  -7 -10  -3  316.03   13.82
   7  10   3  269.04   13.71
   7  10   3  278.26   14.54
   8  10  -3  146.29    8.37
   0  11   3   38.34    5.62
   0 -11   3   36.45    5.56
   0 -11  -3   40.25    5.90
   1  11  -3  104.16    8.95
  -1  11   3  109.84    8.85
  -1 -11  -3  116.90    8.51
   1 -11   3  110.67    8.87
   1 -11  -3  120.63    8.97
  -1 -11   3  121.98    8.88
   1  11   3  117.94    8.94
   2  11  -3  539.19   24.85
  -2  11   3  576.43   24.46
   2  11  -3  602.88   24.36
   2 -11   3  586.67   25.17
   2  11   3  537.63   22.83
  -2 -11   3  538.58   23.71
   2  11   3  569.33   24.68
   2 -11  -3  563.42   25.12
  -2  11  -3  523.93   24.46
  -3  11   3   27.95    5.26
   3 -11   3   28.47    5.47
   3  11  -3   25.42    5.30
   3  11  -3   25.58    4.52
  -3  11  -3   35.44    5.38
   3  11   3   36.53    4.95
   3  11   3   33.00    5.54
   3 -11  -3   26.16    5.06
   4  11  -3    8.91    3.52
   4  11  -3    5.47    3.08
  -4  11   3    9.99    3.46
   4 -11   3    5.19    3.16
   4  11   3    4.49    2.44
   4  11   3    2.72    2.87
   5  11  -3   37.21    5.96
   5  11  -3   29.45    4.70
   5  11   3   23.26    4.22
   5  11   3   28.73    4.86
   5  11   3   22.36    4.72
   6  11  -3  179.78    9.93
   6  11  -3  182.26   10.77
  -6 -11  -3  165.06    9.64
   6  11   3  168.99   10.47
   6  11   3  165.62    9.69
   7  11  -3   89.86    6.01
  -7  11   3   87.74    6.54
   7  11  -3   83.20    6.64
  -7 -11  -3   79.41    5.90
   7  11   3   78.41    5.78
   7  11   3   82.43    6.20
  -7  11  -3   85.03    5.74
   0  12   3   67.08    7.26
   0 -12  -3   78.77    7.35
   0 -12   3   70.20    7.22
  -1 -12  -3  258.20   13.46
  -1  12   3  247.80   13.73
   1  12  -3  251.75   15.55
   1 -12   3  250.90   14.08
   1  12   3  223.83   13.40
  -1 -12   3  217.59   13.17
   1 -12  -3  230.33   13.81
  -2  12   3  128.60    9.53
   2  12  -3  130.42    9.59
   2 -12   3  127.16    9.84
  -2 -12   3  114.48    8.63
   2 -12  -3  110.41    9.32
   2  12   3  108.74    9.10
   3  12  -3  178.35   11.61
   3  12  -3  203.31   10.75
   3 -12   3  187.96   11.68
  -3  12   3  189.51   11.42
   3  12   3  158.35   11.11
  -3  12  -3  145.14   11.02
   4  12  -3   93.76    7.24
  -4 -12  -3   91.23    7.14
   4  12  -3   87.32    8.20
  -4  12   3   95.44    8.10
   4 -12   3   96.85    8.03
  -4  12  -3   78.85    6.91
   4  12   3   91.24    7.68
  -5  12   3   16.43    3.81
   5  12  -3   10.49    3.41
   5  12  -3   14.38    3.50
  -5 -12  -3   12.95    3.12
   5  12   3   27.93    4.70
  -5  12  -3   24.60    3.99
   6  12  -3   54.77    5.57
  -6 -12  -3   59.85    5.05
   6  12  -3   65.51    5.39
  -6  12   3   63.52    5.86
  -6  12  -3   47.13    4.91
   6  12   3   52.91    5.23
   0 -13  -3   50.15    6.63
   0  13   3   61.11    6.85
   0 -13   3   54.82    6.91
   1 -13   3  136.90    9.96
  -1  13   3  124.57    9.09
  -1 -13  -3  118.81    9.22
   1  13   3  113.57    8.89
   1 -13  -3  128.44    9.64
  -1 -13   3  121.25    9.15
   2 -13   3   52.90    6.85
  -2  13   3   48.35    6.36
   2  13   3   43.80    5.89
  -2 -13   3   54.74    6.53
  -3 -13  -3   13.93    3.26
  -3  13   3   14.01    3.54
   3  13  -3   15.30    4.34
   3  13  -3   12.73    3.88
   3 -13   3   17.71    3.97
   3  13   3   25.75    4.36
   4  13  -3    1.17    2.66
   4  13  -3    2.09    2.22
  -4  13   3   -2.21    2.18
  -4 -13  -3    0.90    1.93
   4  13   3   -0.58    2.07
  -5 -13  -3   45.33    4.62
  -5  13   3   41.87    4.94
   5  13  -3   46.63    5.07
   5  13  -3   45.60    4.77
   5  13   3   44.34    4.74
   0 -14   3   92.86    7.78
   0  14   3   83.91    7.07
  -1  14   3  269.90   13.35
   1 -14   3  258.75   13.83
  -1 -14   3  244.47   13.30
   1  14   3  242.04   12.85
   2 -14   3    2.42    2.50
  -2  14   3    4.03    2.55
   2  14   3    2.17    2.52
  -3  14   3  254.88   12.33
   3 -14   3  264.03   13.04
   3  14   3  227.43   12.09
  -4  14   3   53.68    5.14
  -4 -14  -3   41.06    4.36
  -4 -14   3   46.24    4.42
   4  14   3   41.56    4.74
   0 -15   3   26.94    4.41
   0  15   3   31.73    4.32
  -1  15   3  147.46    8.47
   1 -15   3  146.80    9.27
   1  15   3  138.87    8.29
  -1 -15   3  143.63    8.66
   2 -15   3    4.75    2.61
  -2  15   3    6.38    2.57
   2  15   3    4.90    2.51
  -3  15   3   18.04    3.17
   0   0   4 7406.84  237.73
   0   0  -4 7019.39  238.72
   1   0  -4 1134.77   40.27
  -1   0  -4 1185.43   39.87
   1   0   4 1173.68   39.27
  -2   0  -4  800.56   28.96
   2   0  -4  846.51   29.64
   3   0  -4  190.36    9.19
  -3   0  -4  185.50    8.64
  -4   0  -4  615.77   23.65
  -4   0   4  624.86   24.33
  -5   0   4    4.07    2.21
  -6   0  -4 2902.98   99.74
   6   0  -4 2717.57   95.95
   6   0   4 2748.01   94.68
  -6   0   4 2664.07   98.38
   6   0   4 2720.25   98.50
   6   0   4 2763.73   96.10
   7   0   4   13.78    3.42
   7   0   4   18.41    4.16
   8   0   4  479.06   22.54
   0   1   4 1006.46   33.33
   0  -1  -4  979.01   34.37
   0   1  -4 1004.88   34.62
   0   1  -4 1016.60   33.37
   0   1   4  980.78   33.52
   0  -1   4  991.97   33.64
  -1   1   4 2080.13   70.28
  -1  -1  -4 2124.70   71.22
   1   1  -4 2160.13   71.65
   1  -1  -4 2091.90   71.23
  -1  -1   4 2137.69   70.18
   1   1   4 2117.30   70.10
  -1   1  -4 2096.98   70.58
  -1   1  -4 2110.13   70.80
  -2   1   4 1596.72   56.17
   2   1  -4 1658.01   57.18
  -2  -1  -4 1707.61   56.83
  -2   1  -4 1588.89   55.68
   2  -1  -4 1713.70   56.56
  -3   1   4  190.28    9.23
  -3  -1  -4  190.48    9.19
   3   1  -4  195.13    9.57
   3  -1  -4  182.57    8.64
  -3   1  -4  173.34    7.94
  -4  -1  -4  297.13   13.58
  -4   1   4  286.85   13.99
  -4   1  -4  293.42   14.29
  -4  -1   4  304.03   14.08
  -5   1   4  550.29   24.06
  -5  -1   4  527.47   23.40
  -5   1  -4  566.96   24.63
   6  -1   4   29.84    4.45
   6   1  -4   33.94    5.12
   6   1  -4   35.00    4.69
  -6   1   4   34.50    6.20
   6  -1   4   43.23    5.18
   6   1   4   39.41    5.43
   6   1   4   43.92    4.79
  -6   1  -4   39.59    6.67
   7  -1   4  465.25   20.46
   7   1  -4  444.58   20.98
   7  -1   4  476.11   21.36
   7   1  -4  439.73   19.52
   7   1   4  430.66   21.04
   7   1   4  450.53   19.89
   8   1  -4  411.46   18.28
   8   1   4  411.90   20.30
   0   2  -4 3900.40  149.36
   0  -2  -4 4829.83  150.27
   0   2  -4 4717.89  150.35
   0  -2   4 4673.12  149.33
   1   2  -4  244.94   11.52
  -1  -2  -4  236.92   11.19
  -1   2   4  231.23   10.52
   1   2  -4  235.38   10.51
   1  -2  -4  313.98   11.30
  -1   2  -4  301.68   10.94
  -1   2  -4  303.07   11.09
  -1  -2   4  294.67   10.19
   1   2   4  308.25   11.08
   1   2   4  302.42    9.99
  -2   2   4   52.17    3.69
   2   2  -4   56.09    4.41
  -2  -2  -4   51.79    4.03
   2  -2  -4   58.01    3.69
  -2  -2   4   45.90    2.71
  -2   2  -4   50.78    3.06
  -2   2  -4   53.58    3.97
   3   2  -4  206.93   10.15
  -3   2   4  207.41    9.63
  -3  -2  -4  196.71    9.68
  -3  -2   4  163.05    7.35
  -3   2  -4  166.21    9.28
   3  -2  -4  170.34    8.08
  -4  -2  -4 1013.94   37.43
  -4   2   4 1032.25   37.83
  -4  -2   4  936.30   37.56
  -4   2  -4  970.05   37.69
  -5   2   4  315.59   16.14
  -5  -2  -4  323.82   15.65
  -5   2  -4  295.51   16.12
  -5  -2   4  283.66   15.66
   6  -2   4  362.53   16.80
  -6   2   4  352.50   19.19
   6  -2   4  346.95   16.96
   6   2  -4  360.66   17.12
   6   2  -4  364.50   16.45
  -6   2  -4  380.45   19.96
   6   2   4  353.95   16.26
   6   2   4  353.61   17.32
   7   2  -4  170.73   11.34
   7  -2   4  186.56   11.41
   7   2  -4  190.39   10.90
   7   2   4  206.60   11.33
   7   2   4  189.33   11.96
   8   2  -4  342.10   16.80
   8   2   4  392.53   19.24
   0   3   4  193.23    8.45
   0   3  -4  199.87    8.53
   0  -3  -4  187.17    8.52
   0   3  -4  179.99    8.58
  -1   3   4  871.90   31.77
   1   3  -4  876.49   32.65
  -1  -3  -4  912.77   32.58
   1   3  -4  906.55   31.89
  -1   3  -4  903.16   31.93
  -1  -3   4  855.49   30.58
  -1   3  -4  898.40   31.31
   1  -3  -4  925.35   31.76
   1   3   4  904.68   30.24
   1   3   4  925.51   31.98
  -2   3   4   59.18    4.48
  -2  -3  -4   59.35    4.88
   2  -3  -4   60.81    4.07
  -2   3  -4   70.87    4.87
  -2  -3   4   66.38    3.26
  -3   3   4  834.15   30.98
  -3  -3  -4  864.65   31.74
  -3   3  -4  805.17   31.05
  -3  -3   4  766.13   27.98
  -4   3   4  256.53   13.28
  -4  -3  -4  248.59   13.29
  -4   3  -4  258.58   13.46
  -4  -3   4  259.62   13.80
  -5  -3  -4 2125.12   76.97
  -5   3   4 2086.58   76.98
  -5   3  -4 2133.24   77.35
  -5  -3   4 2168.25   77.71
   6   3  -4  302.13   15.44
  -6   3   4  307.24   17.86
   6  -3   4  333.30   15.90
   6   3  -4  300.01   15.03
   6   3   4  332.48   16.17
   6   3   4  323.28   15.07
  -6   3  -4  322.09   18.23
   7   3  -4 1157.43   42.98
   7   3  -4 1106.84   43.55
   7  -3   4 1203.71   43.95
   7   3   4 1096.55   42.64
   7   3   4 1080.52   44.01
   8   3  -4  318.42   15.91
   8   3   4  352.01   18.09
   9   3   4  803.76   32.17
  -9   3  -4  757.68   29.85
   0   4  -4 6231.27  198.47
   0  -4  -4 6413.16  198.51
   0   4  -4 5264.11  198.03
   1   4  -4 1352.05   48.44
   1   4  -4 1388.14   49.22
  -1   4   4 1372.12   48.42
  -1  -4  -4 1354.34   48.85
  -1   4  -4 1413.13   48.44
  -1   4  -4 1319.89   47.38
   1  -4  -4 1431.56   48.00
   1   4   4 1417.20   48.60
  -2   4   4   -0.06    1.58
  -2  -4  -4    3.18    2.08
   2   4  -4    2.63    2.01
  -2   4  -4    1.85    1.89
   2  -4  -4    3.73    1.64
  -3   4   4 1992.49   69.89
  -3  -4  -4 2048.76   70.85
  -3   4  -4 1979.75   70.03
  -3  -4   4 1915.10   70.79
  -4   4   4  394.00   19.34
  -4  -4  -4  393.16   19.74
  -4   4  -4  463.78   20.12
  -4  -4   4  450.35   20.66
  -5   4   4  239.14   14.14
  -5  -4  -4  237.51   14.11
  -5   4  -4  221.50   13.75
  -5  -4   4  219.46   14.17
   6   4  -4  404.31   17.82
  -6   4   4  383.78   21.69
   6  -4   4  428.87   19.52
   6   4  -4  419.91   19.08
   6   4   4  434.94   18.90
   6   4   4  415.92   19.76
   6   4   4  419.23   17.47
  -6  -4   4  417.38   22.47
   7   4  -4  317.22   15.86
   7  -4   4  314.02   16.34
   7   4  -4  294.02   18.24
   7   4   4  309.80   16.89
   7   4   4  309.92   15.46
   8   4  -4   26.71    4.63
   8   4   4   31.47    5.76
   8   4   4   30.50    4.85
   9   4  -4  305.03   14.27
   9   4   4  301.63   15.63
   0   5  -4 1131.95   41.66
   0  -5  -4 1127.39   41.22
   0   5   4 1173.69   41.75
   1   5  -4 1429.73   48.41
   1  -5   4 1402.33   46.79
  -1  -5  -4 1411.41   48.53
  -1   5   4 1474.91   48.44
  -1  -5   4 1263.99   48.34
   1   5   4 1242.37   47.77
   1  -5  -4 1235.51   46.90
  -1   5  -4 1256.89   47.72
  -2   5   4    6.63    2.43
  -2  -5  -4    5.24    2.25
   2   5  -4    6.35    2.48
   2   5   4    6.02    2.32
  -2   5  -4    5.26    2.23
  -2  -5   4    8.32    2.84
  -3   5   4 1174.28   43.84
  -3  -5  -4 1167.29   44.84
  -3   5  -4 1188.59   44.12
  -3  -5   4 1157.20   45.17
  -4  -5  -4   61.59    6.62
  -4   5   4   61.63    6.41
  -4   5  -4   62.90    6.52
  -4  -5   4   53.78    6.58
   5   5  -4 1430.11   50.92
  -5   5   4 1522.16   55.54
  -5  -5  -4 1518.02   56.12
   5  -5   4 1444.86   52.15
   5   5  -4 1484.69   52.56
   5   5   4 1354.04   51.37
   5   5   4 1325.67   52.12
  -5  -5   4 1365.56   55.99
   5   5   4 1372.69   50.46
  -5   5  -4 1391.83   55.06
   6   5  -4   48.57    5.54
   6  -5   4   46.13    6.15
   6   5  -4   53.68    5.98
   6   5   4   48.98    5.93
   6   5   4   50.82    5.62
   6   5   4   52.76    5.12
   7   5  -4  405.14   18.69
   7   5  -4  411.63   20.10
   7   5   4  447.65   20.13
   7   5   4  469.80   21.91
  -7   5  -4  429.45   19.24
   8   5  -4   14.15    3.56
  -8   5  -4   17.71    3.78
   8   5   4   15.64    4.37
   8   5   4   22.03    4.39
   9   5  -4  559.31   23.02
   9   5   4  574.55   24.39
   0  -6   4    4.19    2.01
   0   6  -4    2.13    1.98
   0  -6  -4    0.71    1.41
   0   6   4    5.00    2.39
   1   6  -4  329.86   15.34
  -1   6   4  330.27   15.21
  -1  -6  -4  322.75   15.28
  -1  -6   4  308.96   15.33
   1   6   4  310.17   15.07
  -1   6  -4  314.27   14.97
   1  -6  -4  308.39   14.01
  -2  -6  -4  111.46    8.12
  -2   6   4  108.26    7.70
   2   6  -4  109.35    7.97
   2   6   4   92.04    7.47
  -2   6  -4   98.20    7.39
  -2  -6   4   93.88    7.80
  -3  -6  -4  603.67   27.42
  -3   6   4  576.00   26.14
  -3   6  -4  656.04   26.88
  -3  -6   4  681.43   28.58
  -4   6   4 1285.43   49.00
  -4  -6  -4 1212.07   49.56
  -4   6  -4 1281.95   48.93
  -4  -6   4 1257.12   50.42
   5   6  -4  352.15   16.49
   5   6  -4  371.12   18.01
  -5   6   4  353.25   19.72
   5  -6   4  356.45   17.34
  -5  -6  -4  348.26   20.35
   5   6   4  381.23   18.09
  -5   6  -4  372.86   20.07
   5   6   4  380.62   16.43
  -5  -6   4  374.59   21.13
   5   6   4  398.55   17.39
  -5   6  -4  370.37   16.48
   6   6  -4  370.10   18.60
   6   6  -4  361.92   17.23
   6  -6   4  371.58   18.37
   6   6   4  382.04   19.07
   6   6   4  373.19   16.82
   6   6   4  401.22   18.18
  -6   6  -4  378.07   17.13
   7   6  -4  154.29    9.60
   7   6  -4  174.08   11.23
   7   6   4  159.74   10.41
   7   6   4  160.74   11.62
   8   6  -4  200.82   11.69
   8   6   4  189.37   11.14
   8   6   4  195.64   12.37
   9   6  -4  194.31   10.39
   9   6   4  198.93   11.21
   0  -7  -4   20.81    3.87
   0   7  -4   27.13    4.62
   0   7   4   24.22    4.32
   0  -7   4   23.27    3.97
   1   7  -4  379.10   18.06
  -1  -7  -4  387.80   18.14
  -1   7   4  403.27   18.37
   1   7   4  354.24   17.76
  -1  -7   4  365.13   18.18
  -1   7  -4  349.06   17.38
  -2   7   4 1649.43   62.37
   2   7  -4 1676.14   63.03
  -2  -7  -4 1675.52   63.11
   2   7   4 1739.20   63.17
  -2   7  -4 1736.92   62.50
  -2  -7   4 1763.10   64.09
  -3  -7  -4  525.52   25.07
  -3   7   4  531.78   24.31
  -3  -7   4  518.40   25.49
  -3   7  -4  554.30   24.45
   4  -7   4   78.51    6.63
  -4  -7  -4   68.95    8.03
   4   7  -4   71.57    6.15
   4   7  -4   81.75    7.18
  -4   7   4   77.03    8.06
   4   7   4   79.59    6.22
  -4   7  -4   76.70    7.89
   4   7   4   86.74    7.40
  -4   7  -4   81.51    6.24
   4   7   4   81.50    6.59
  -4  -7   4   82.91    8.82
   5   7  -4  572.85   25.55
   5   7  -4  557.79   23.95
   5  -7   4  581.65   24.81
   5   7   4  597.35   24.57
   5   7   4  593.60   23.78
  -5   7  -4  565.36   24.88
   5   7   4  580.06   25.59
   6   7  -4   31.48    4.92
   6   7  -4   26.10    5.12
   6   7   4   27.57    4.93
   6   7   4   27.88    4.53
   6   7   4   28.19    5.42
   7   7  -4  398.18   17.81
   7   7  -4  406.75   19.38
   7   7   4  372.67   19.48
   7   7   4  365.47   18.00
  -8  -7  -4  211.19   11.30
   8   7  -4  201.74   10.62
   8   7  -4  215.22   12.02
   8   7   4  215.52   11.60
   8   7   4  205.06   12.50
   9   7  -4  289.34   13.32
   9   7   4  291.81   13.85
   0  -8  -4  234.79   13.09
   0   8   4  234.53   13.78
   0   8  -4  238.66   13.71
  -1  -8  -4   54.18    6.18
   1   8  -4   64.05    6.84
  -1   8   4   60.49    6.73
   1   8   4   44.41    6.06
  -1  -8   4   47.04    5.94
  -1   8  -4   49.68    6.09
  -2   8   4  193.33   12.74
  -2  -8  -4  206.70   13.44
   2   8  -4  210.80   13.35
  -2  -8   4  191.43   13.33
   2   8   4  200.53   13.21
  -2   8  -4  210.52   12.92
  -3  -8  -4  336.68   19.36
   3   8  -4  336.74   15.60
   3   8  -4  368.20   17.31
   3  -8   4  327.76   16.06
  -3   8   4  334.32   18.53
  -3  -8   4  352.48   19.95
  -3   8  -4  348.51   18.56
   3  -8  -4  342.74   16.31
  -3   8  -4  364.10   19.38
   3   8   4  339.93   15.36
   3   8   4  341.77   16.62
   4  -8   4  757.32   30.69
   4   8  -4  767.46   30.57
   4   8  -4  785.14   32.31
   4  -8   4  758.40   31.11
   4   8   4  775.93   32.00
   4   8   4  790.61   30.86
   4   8   4  809.88   30.45
   5   8  -4  137.02   10.56
   5   8  -4  131.25    9.50
   5   8   4  155.20    9.84
   5   8   4  157.54    9.49
   5   8   4  163.46   11.07
   6   8  -4  115.71    8.69
   6   8  -4  103.72    9.52
   6   8   4  145.74    9.61
   6   8   4  138.06    8.78
   6   8   4  155.66   10.95
  -7  -8  -4   88.95    6.70
   7   8  -4   82.59    7.74
   7   8  -4   80.34    6.87
   7   8   4   76.68    6.91
   7   8   4   82.25    7.86
  -8  -8  -4  428.29   17.46
   8   8  -4  406.72   17.42
   8   8  -4  412.37   18.77
   8   8   4  437.50   18.41
   8   8   4  418.43   19.31
   0   9   4    0.66    2.34
   0  -9   4    3.76    2.33
   0   9   4   -0.09    2.58
   0  -9  -4   -1.36    1.77
   0   9  -4   -0.19    2.13
  -1   9   4  227.25   14.67
   1  -9   4  245.11   12.61
   1   9  -4  243.90   14.99
  -1   9   4  241.68   12.65
  -1  -9  -4  245.77   14.83
   1   9  -4  238.83   13.08
   1  -9  -4  251.42   12.64
   1   9   4  239.51   15.03
  -1   9  -4  250.11   14.99
   1   9   4  234.69   12.65
  -1  -9   4  237.73   12.11
  -1  -9   4  232.08   16.65
  -1   9  -4  223.71   17.00
   2   9  -4  139.26   11.37
  -2  -9  -4  136.95   11.29
   2  -9   4  147.96    9.26
  -2   9   4  139.87   11.29
   2   9  -4  145.10    8.65
   2   9  -4  144.27    9.93
   2   9   4  125.49   11.06
   2  -9  -4  140.31    9.19
   2   9   4  138.90    8.27
   2   9   4  141.31    9.48
  -2  -9   4  148.02   11.89
  -2   9  -4  133.23   10.77
  -2  -9   4  137.59    8.65
  -2   9  -4  134.44    9.15
   3   9  -4  239.95   12.49
   3  -9   4  226.54   12.96
   3   9  -4  242.87   14.07
   3   9   4  245.96   12.31
   3  -9  -4  239.62   13.31
   3   9   4  249.05   13.65
   4   9  -4  358.70   18.49
   4   9  -4  365.66   17.18
   4  -9   4  335.45   17.35
   4   9   4  375.73   16.85
   4   9   4  352.83   16.94
   4   9   4  368.88   18.38
   5   9  -4  319.39   15.36
   5   9   4  306.43   16.65
   5   9   4  282.90   15.08
   5   9   4  296.84   14.84
   6   9  -4   68.78    6.70
   6   9  -4   72.59    7.59
   6   9   4   70.10    6.40
   6   9   4   66.61    6.61
   6   9   4   70.34    7.60
  -7  -9  -4  234.23   11.83
   7   9  -4  250.60   12.29
   7   9  -4  244.09   13.35
   7   9   4  224.36   13.27
   7   9   4  212.85   12.09
   8   9  -4  389.07   15.90
  -8  -9  -4  395.43   15.94
   8   9  -4  392.53   17.04
   8   9   4  365.24   16.14
   8   9   4  380.28   17.14
   0  10  -4  912.88   37.13
   0  10   4  958.58   37.18
   0 -10  -4  986.39   36.97
   0  10  -4  954.67   42.60
   0 -10   4  980.21   37.23
   1 -10   4  200.32   11.52
  -1  10   4  197.45   11.42
   1  10  -4  195.40   11.78
  -1 -10  -4  202.06   11.17
  -1 -10   4  174.09   10.67
   1 -10  -4  186.28   11.10
  -1  10  -4  177.96   11.02
   1  10   4  176.69   11.18
   2  10  -4  356.76   16.65
  -2  10   4  369.65   17.72
   2 -10   4  353.03   17.64
   2  10  -4  345.26   18.09
   2  10   4  397.48   18.30
   2  10   4  365.11   16.40
  -2 -10   4  381.26   17.24
   2 -10  -4  389.22   18.26
   3  10  -4   30.43    5.65
   3 -10   4   27.39    5.08
   3  10  -4   30.91    4.73
   3 -10  -4   34.88    5.59
   3  10   4   31.83    4.75
   3  10   4   35.71    5.65
   4 -10   4  809.57   33.81
   4  10  -4  806.09   32.89
   4  10  -4  839.67   34.93
   4  10   4  867.39   34.83
   4  10   4  867.39   32.96
   5  10  -4    5.75    2.82
   5  10  -4   12.70    4.37
   5  10   4   13.76    3.38
   5  10   4   15.62    4.16
   5  10   4   14.00    3.78
   6  10  -4  303.83   15.22
  -6 -10  -4  312.97   15.15
   6  10  -4  305.23   16.35
   6  10   4  330.44   15.51
   6  10   4  339.27   16.88
   7  10  -4  130.09    7.96
   7  10  -4  126.78    8.80
  -7 -10  -4  124.76    7.69
   7  10   4  131.29    8.94
   7  10   4  132.36    8.01
  -8  10   4  102.25    6.45
   8  10  -4  103.49    6.85
   0  11  -4  241.32   13.72
   0  11   4  250.85   13.67
   0 -11   4  247.60   13.66
   0 -11  -4  237.74   13.23
   1 -11   4  751.97   30.02
  -1 -11  -4  716.52   28.88
   1  11  -4  715.12   29.87
  -1  11   4  742.33   29.63
   1 -11  -4  694.01   29.56
   1  11   4  682.48   29.34
  -1 -11   4  671.12   29.03
  -2  11   4   21.25    4.50
   2  11  -4   28.21    5.01
   2 -11   4   23.37    4.76
   2  11  -4   14.71    4.16
   2 -11  -4   19.71    4.60
  -2 -11   4   24.59    4.53
   2  11   4   22.82    4.73
   3 -11   4   67.49    7.32
   3  11  -4   68.21    6.46
  -3  11   4   67.34    7.35
   3  11  -4   59.92    7.52
   3  11   4   80.75    7.72
   4  11  -4   38.40    5.45
  -4  11   4   42.03    5.98
   4  11  -4   36.48    6.03
   4 -11   4   40.53    6.12
  -4  11  -4   48.38    5.58
   4  11   4   47.23    6.68
  -5 -11  -4  107.78    7.77
   5  11  -4   99.39    8.82
  -5  11   4  103.47    8.12
   5  11  -4   91.19    7.61
   5  11   4  116.70    8.88
   6  11  -4    8.19    2.93
  -6  11   4   13.13    3.27
  -6 -11  -4    6.97    2.61
   6  11  -4    8.94    3.29
   6  11   4    8.83    3.11
   6  11   4    9.46    4.04
   7  11  -4   83.47    5.69
   7  11  -4   78.19    6.36
  -7 -11  -4   78.53    5.64
  -7  11   4   88.46    6.60
   7  11   4   67.01    7.07
   7  11   4   57.85    5.61
  -7  11  -4   59.45    5.12
   0 -12  -4    5.15    3.00
   0 -12   4    8.51    3.46
   0  12   4    2.27    3.00
   1 -12   4  117.98    9.23
  -1 -12  -4  124.92   11.12
  -1  12   4  118.74    9.37
   1  12  -4  113.07    9.22
   1  12   4  117.29    9.19
  -1 -12   4   95.12    8.39
   1 -12  -4  109.73    9.06
   2 -12   4   40.56    6.42
   2  12  -4   49.72    6.63
  -2  12   4   44.96    6.35
   2 -12  -4   36.63    5.97
  -2 -12   4   31.68    5.14
   2  12   4   30.31    5.48
  -3 -12  -4    2.51    2.45
   3 -12   4    0.78    2.48
   3  12  -4    0.62    2.29
  -3  12   4    3.75    2.97
   3  12  -4    3.94    3.22
   3  12   4    4.08    3.01
  -4  12   4  336.80   16.72
   4 -12   4  345.21   16.89
   4  12  -4  339.59   15.85
  -4 -12  -4  337.12   15.87
   4  12  -4  321.11   16.93
   4  12   4  338.88   16.82
  -5  12   4  156.05    9.93
   5  12  -4  166.36    9.44
   5  12  -4  144.93   10.01
  -5 -12  -4  148.50    9.03
   5  12   4  170.34   10.33
  -6  12   4   63.76    5.95
   6  12  -4   57.86    5.40
   6  12  -4   57.67    5.89
  -6 -12  -4   70.42    5.48
   6  12   4   63.04    5.62
   0 -13   4    7.14    3.20
   0 -13  -4    7.78    2.92
   0  13   4    6.82    3.43
  -1  13   4  396.73   18.41
   1 -13   4  410.95   19.45
  -1 -13   4  370.24   18.31
   1 -13  -4  381.51   18.78
   1  13   4  376.15   18.36
   2  13  -4    1.75    2.99
  -2  13   4    0.98    2.89
   2 -13   4    4.02    2.75
  -2 -13   4    6.37    3.00
   2  13   4    8.28    3.26
  -3  13   4  121.22    8.72
  -3 -13  -4  111.41    7.67
   3 -13   4  119.45    8.77
   3  13  -4  120.52    8.98
   3  13   4  108.41    8.35
  -4 -13  -4    5.75    2.45
  -4  13   4    4.38    2.85
   4  13  -4    5.90    2.96
   4 -13   4    2.54    2.25
   4  13  -4    1.65    2.44
   4  13   4    2.38    2.38
   5  13  -4  229.71   11.79
  -5 -13  -4  227.77   11.21
  -5  13   4  239.42   11.90
   5  13  -4  234.00   11.01
   5  13   4  235.83   11.64
   0  14   4  228.70   12.38
   0 -14   4  236.44   12.99
   1 -14   4   33.38    5.28
  -1  14   4   31.87    4.89
  -1 -14   4   27.76    4.76
   1  14   4   31.57    4.86
   2 -14   4  114.62    8.32
  -2  14   4  121.35    8.11
   2  14   4  101.21    7.79
  -2 -14   4   96.96    8.42
  -3  14   4   53.97    5.50
   3 -14   4   51.82    5.46
   3  14  -4   51.76    7.77
   3  14   4   52.82    5.41
  -4 -14  -4    9.48    2.36
   4  14  -4    6.94    2.67
  -4  14   4    6.90    2.68
   4  14   4    4.68    2.56
   0  15   4  318.08   14.69
   0 -15   4  340.84   15.43
   1 -15   4  207.46   11.09
  -1  15   4  195.24   10.32
  -1 -15   4  197.90   10.54
   1  15   4  194.50   10.27
  -2  15   4    5.17    2.54
   2 -15   4    6.14    2.72
   2  15   4    2.33    2.27
  -3  15   4   44.85    4.69
   0   0   5   -0.67    0.70
   0   0  -5   -0.26    1.08
   1   0  -5 1171.51   39.37
  -1   0   5 1116.88   37.85
   1   0   5 1098.32   37.88
  -1   0   5 1089.58   37.25
  -1   0  -5 1107.25   38.65
   2   0  -5  704.91   25.99
  -2   0  -5  688.43   25.22
  -3   0  -5  917.78   33.87
   3   0  -5  974.24   34.78
   4   0  -5  521.36   21.20
  -4   0  -5  509.28   20.39
  -5   0   5  509.38   22.67
  -6   0  -5 1668.06   62.68
   6   0   5 1664.83   59.52
  -6   0   5 1564.54   61.41
   6   0   5 1634.66   58.43
   7   0   5  188.54   11.10
   7   0   5  202.19   12.18
   8   0   5  481.77   22.54
   0   1   5 5407.01  174.03
   0   1  -5 4782.99  173.95
   0  -1  -5 5502.06  175.69
   0   1  -5 5446.67  175.88
   0  -1   5 5366.15  174.59
   1   1  -5 2102.68   71.07
  -1   1   5 2086.25   69.31
  -1  -1  -5 2149.93   70.71
   1   1   5 2017.58   69.33
   1  -1  -5 2051.64   70.78
  -1   1  -5 2102.67   70.39
  -1  -1   5 2084.62   69.47
   2   1  -5  490.86   19.19
  -2   1   5  469.93   17.91
  -2  -1  -5  487.42   18.64
  -2   1  -5  475.93   17.88
   2  -1  -5  491.91   18.71
  -2   1  -5  490.35   18.35
  -2  -1   5  470.41   17.30
  -3   1   5 1097.20   38.20
  -3  -1  -5 1069.69   38.26
   3   1  -5 1137.97   39.18
   3  -1  -5 1039.24   37.98
  -3   1  -5  954.59   36.87
  -4  -1  -5  233.28   11.68
  -4   1   5  242.97   12.19
  -4   1  -5  248.01   12.57
   4  -1  -5  241.78   11.34
  -5   1   5  328.85   17.64
  -5  -1   5  401.05   18.16
  -5   1  -5  394.40   18.76
   6   1  -5  262.95   13.98
  -6   1   5  275.92   16.21
   6  -1   5  285.12   13.99
   6  -1   5  273.30   14.30
   6   1  -5  272.13   13.24
   6   1   5  285.37   13.60
   6   1   5  296.57   14.57
  -6  -1   5  275.84   15.92
  -6   1  -5  282.21   16.49
   7  -1   5 1853.59   65.96
   7  -1   5 1828.62   66.67
   7   1  -5 1805.59   65.02
   7   1   5 1803.20   66.78
   8   1   5    7.48    3.20
 -10   1  -5  206.02    9.93
   0  -2  -5 5214.15  184.47
   0   2   5 5772.27  183.36
   0   2  -5 5392.38  183.56
   0   2   5 5904.16  183.58
   1   2  -5 1490.32   51.05
  -1   2   5 1517.39   51.14
   1   2  -5 1481.38   52.58
  -1  -2  -5 1467.31   52.22
   1   2   5 1513.94   50.53
  -1   2  -5 1487.90   51.70
   1  -2  -5 1610.30   52.19
  -1  -2   5 1497.10   50.74
  -1   2  -5 1537.92   51.46
   2   2  -5  160.55    8.55
  -2  -2  -5  158.56    8.16
  -2   2   5  150.20    7.34
  -2   2  -5  154.35    7.01
  -2   2  -5  170.61    7.92
  -2  -2   5  157.35    6.53
   2  -2  -5  147.77    7.62
  -3  -2   5  181.27    7.80
  -3   2  -5  197.71    9.93
   3  -2  -5  187.70    8.80
  -4  -2  -5  454.03   20.04
  -4   2   5  448.16   19.97
  -4   2  -5  481.42   20.63
  -4  -2   5  472.76   18.14
  -4  -2   5  466.76   20.66
  -5   2   5   90.63    7.61
  -5  -2  -5   82.18    6.89
  -5  -2   5   82.05    7.29
  -5   2  -5   81.70    7.55
   6  -2   5  620.33   25.57
   6  -2   5  620.60   25.83
   6   2  -5  576.92   24.69
  -6   2   5  590.28   27.91
   6   2   5  624.34   26.12
   6   2   5  623.85   24.92
  -6   2  -5  641.81   29.00
   7   2  -5  731.66   29.28
   7   2  -5  751.33   30.44
   7  -2   5  748.80   30.43
   7   2   5  704.04   30.65
   7   2   5  728.99   29.44
   8   2  -5   43.33    5.62
   8   2   5   52.58    7.33
 -10   2  -5  192.19   11.45
   0   3  -5 1900.93   66.10
   0  -3  -5 1912.02   66.07
   0   3  -5 1981.02   65.56
   1   3  -5  822.82   29.25
  -1  -3  -5  803.31   28.80
   1   3  -5  823.14   28.01
  -1   3   5  823.84   27.98
  -1   3  -5  755.57   27.86
   1   3   5  769.19   26.49
  -1  -3   5  719.65   26.78
   1  -3  -5  755.46   28.07
   1   3   5  757.22   27.91
  -1   3  -5  736.79   27.68
  -2   3   5  447.44   18.89
  -2  -3  -5  479.04   19.98
  -2   3  -5  521.38   19.53
  -2  -3   5  511.18   17.57
   2  -3  -5  495.66   19.06
  -2   3  -5  491.59   17.91
  -3  -3  -5 2073.62   73.15
  -3   3   5 2028.75   72.24
   3   3  -5 2122.97   73.74
  -3  -3   5 2069.48   69.60
  -3   3  -5 2107.18   72.65
  -4   3   5   76.47    6.28
  -4  -3  -5   74.67    6.44
  -4  -3   5   62.60    6.26
  -4   3  -5   61.96    5.93
  -5  -3  -5 1220.31   47.43
  -5   3   5 1259.31   47.71
  -5  -3   5 1235.35   48.30
  -5   3  -5 1209.69   47.66
   6  -3   5   29.62    4.83
   6   3  -5   33.28    4.85
  -6   3   5   38.56    6.73
   6   3   5   33.30    5.10
  -6   3  -5   44.30    6.44
   6   3   5   43.21    5.48
   7   3  -5 1143.38   44.31
   7  -3   5 1221.36   45.66
   7   3   5 1159.95   45.81
   7   3   5 1188.99   44.46
   8   3  -5  426.60   19.35
   8   3   5  439.79   21.28
   9   3   5   61.94    6.38
  -9   3  -5   55.68    5.43
   0   4  -5    9.46    2.17
   0  -4  -5    9.22    2.17
   0   4   5   13.61    2.45
  -1  -4  -5 1688.36   58.69
   1   4  -5 1697.21   58.99
   1   4  -5 1693.94   58.05
  -1   4   5 1756.36   58.09
  -1   4  -5 1681.61   57.91
   1   4   5 1637.27   57.87
  -1   4  -5 1640.02   57.32
   1   4   5 1562.08   55.65
   1  -4  -5 1672.34   57.77
  -2   4   5  837.99   31.37
   2   4  -5  831.68   31.47
   2   4  -5  848.94   32.78
  -2  -4  -5  844.42   32.42
   2  -4  -5  818.52   30.71
  -2   4  -5  896.62   31.82
  -2  -4   5  842.99   29.19
  -3   4   5  273.70   13.08
  -3  -4  -5  265.41   13.61
  -3   4  -5  261.66   13.13
  -3  -4   5  255.59   13.84
  -4  -4  -5  140.52    9.96
  -4   4   5  141.17    9.64
  -4   4  -5  173.61   10.36
  -4  -4   5  152.35   10.54
  -5   4   5  232.88   13.62
  -5  -4  -5  224.48   13.61
   5  -4   5  212.80   11.37
   5   4   5  187.18   12.75
   5   4   5  189.91   11.28
  -5  -4   5  205.23   13.78
  -5   4  -5  191.31   12.72
   6   4  -5  411.59   17.61
   6   4  -5  415.06   18.67
   6  -4   5  415.28   19.09
  -6   4   5  374.04   27.02
  -6  -4   5  385.21   23.35
   6   4   5  378.78   16.66
   6   4   5  402.63   18.11
   6   4   5  402.07   19.26
   7   4  -5  690.88   28.85
   7  -4   5  717.38   29.68
   7   4   5  693.27   30.15
   7   4   5  679.88   28.43
   8   4  -5  199.11   11.31
   8   4   5  174.93   12.07
  -8   4  -5  185.77   10.81
   9   4  -5   27.42    4.14
  -9   4  -5   28.87    4.07
   9   4   5   31.21    5.15
   0   5  -5 5542.95  173.96
   0   5  -5 4411.62  173.22
   0  -5  -5 5603.10  173.96
   1   5  -5  334.74   14.35
   1   5  -5  338.72   15.07
  -1   5   5  334.40   14.14
  -1  -5  -5  324.84   14.60
  -1   5  -5  280.29   13.64
   1   5   5  279.94   13.77
   1  -5  -5  268.73   13.21
  -2  -5  -5   10.90    2.99
   2   5  -5   10.20    2.70
  -2   5   5   10.06    2.59
  -2   5  -5   11.63    2.84
  -2  -5   5   10.48    3.04
   2   5   5   12.09    2.88
  -3  -5  -5 1705.02   63.54
  -3   5   5 1695.55   62.46
  -3   5  -5 1801.47   63.04
  -3  -5   5 1767.76   64.31
  -4  -5  -5  294.60   16.27
  -4   5   5  311.19   15.75
  -4  -5   5  276.56   16.29
  -4   5  -5  291.78   15.70
   5  -5   5   46.04    5.77
  -5   5   5   53.95    6.87
  -5  -5  -5   51.79    6.84
   5   5  -5   52.84    5.20
   5   5  -5   49.37    6.14
   5   5   5   51.19    5.75
   5   5   5   54.12    5.36
   5   5   5   49.39    4.76
  -5   5  -5   50.45    6.69
  -5  -5   5   52.58    7.11
   6   5  -5  432.83   18.76
   6  -5   5  436.96   20.12
   6   5  -5  431.23   19.99
   6   5   5  421.40   19.13
   6   5   5  404.61   20.11
   6   5   5  413.24   17.91
   7   5  -5  141.19    9.51
   7   5   5  100.22    7.88
   7   5   5   97.00    8.99
  -7   5  -5   96.37    7.70
   8   5  -5  185.50   11.72
  -8   5  -5  224.88   11.67
   8   5   5  233.39   13.59
   8   5   5  226.31   12.13
   9   5  -5   21.58    3.80
   9   5   5   20.88    4.29
   0   6   5  211.84   11.24
   0  -6  -5  196.76   10.80
   0   6  -5  223.66   11.57
   0  -6   5  208.67   11.06
   1   6  -5  812.05   31.11
  -1  -6  -5  808.42   31.30
  -1   6   5  791.92   30.83
  -1  -6   5  782.11   31.48
   1   6   5  774.61   30.87
   1  -6  -5  761.39   29.97
  -1   6  -5  775.34   30.69
  -2  -6  -5  213.49   12.54
  -2   6   5  210.16   11.84
   2   6  -5  224.11   12.38
  -2   6  -5  224.69   12.01
   2   6   5  227.04   12.27
  -2  -6   5  231.38   13.11
  -3  -6  -5  715.64   30.32
  -3   6   5  713.00   29.15
  -3  -6   5  681.00   30.42
  -3   6  -5  697.67   29.16
  -4  -6  -5   49.49    6.52
   4   6  -5   53.75    7.76
   4   6  -5   55.20    7.16
  -4   6   5   51.63    6.34
   4   6   5   45.56    7.54
  -4   6  -5   52.72    6.29
  -4  -6   5   49.38    6.86
   5  -6   5   24.92    4.47
  -5   6   5   33.98    6.32
  -5  -6  -5   23.21    5.57
   5   6  -5   27.89    4.34
   5   6  -5   31.06    5.30
  -5  -6   5   21.59    5.59
   5   6   5   24.66    4.72
   5   6   5   23.40    3.67
  -5   6  -5   23.13    5.44
  -5   6  -5   25.08    4.19
   5   6   5   20.29    3.90
   6   6  -5   70.94    6.39
   6   6  -5   72.52    7.39
   6  -6   5   66.65    6.83
   6   6   5   61.93    6.98
  -6   6  -5   63.60    6.04
   6   6   5   60.35    6.14
   6   6   5   66.92    5.72
   7   6  -5  203.16   11.65
  -7  -6  -5  228.58   11.61
   7   6  -5  226.56   13.31
   7   6   5  232.38   12.53
  -7   6  -5  203.01   11.54
   7   6   5  208.36   13.46
   8   6  -5   24.70    4.52
   8   6   5   26.50    5.04
   8   6   5   23.32    4.18
   9   6  -5   18.11    3.38
   9   6   5   21.63    4.18
   0   7  -5  640.77   26.60
   0  -7   5  639.06   26.19
   0   7   5  627.70   26.44
   0  -7  -5  615.78   26.04
   1   7  -5   37.87    5.07
  -1   7   5   40.89    5.26
  -1  -7  -5   35.32    4.76
   1   7   5   37.73    5.09
  -1   7  -5   35.23    4.80
  -1  -7   5   37.94    5.02
  -2   7   5  238.78   13.50
  -2  -7  -5  229.43   13.98
   2   7  -5  231.92   13.78
  -2   7  -5  260.65   13.84
  -2  -7   5  267.97   15.05
   2   7   5  263.30   14.26
  -3   7   5  442.10   21.66
  -3  -7  -5  448.38   22.81
  -3   7  -5  477.23   21.99
  -3  -7   5  487.12   23.87
  -4   7   5  542.85   26.17
   4   7  -5  562.95   23.22
   4  -7   5  578.91   23.78
  -4  -7  -5  565.10   27.68
  -4  -7   5  588.83   28.45
   4   7   5  582.64   22.98
  -4   7  -5  557.93   23.09
   4   7   5  553.45   24.32
  -4   7  -5  566.56   26.26
   4   7   5  574.02   23.34
   5   7  -5   35.82    4.93
   5   7  -5   32.34    5.65
   5  -7   5   42.32    5.79
   5   7   5   49.26    5.68
  -5   7  -5   43.26    5.49
   5   7   5   41.87    5.41
   5   7   5   41.59    6.13
   6   7  -5  675.12   29.30
   6  -7   5  661.60   28.35
   6   7  -5  686.58   27.72
   6   7   5  679.10   29.49
   6   7   5  662.10   26.81
  -6   7  -5  656.37   27.21
   6   7   5  678.05   27.88
  -7  -7  -5   40.14    5.05
   7   7  -5   42.31    5.32
   7   7  -5   43.05    6.35
   7   7   5   29.88    5.60
   7   7   5   27.19    4.73
   8   7  -5  139.93    9.38
   8   7  -5  127.25    8.23
   8   7   5  167.16   10.61
   8   7   5  152.15    9.14
   9   7  -5    6.40    2.51
   9   7   5    9.41    2.96
   0   8   5  103.09    8.70
   0  -8  -5  112.38    8.67
   0   8  -5  118.54    8.97
   1   8  -5    3.25    2.54
  -1  -8  -5    1.81    2.15
  -1   8   5    4.66    2.83
  -1  -8   5    1.89    2.30
   1   8   5    5.08    2.77
  -1   8  -5    7.95    3.20
  -2  -8  -5  203.53   13.50
   2   8  -5  221.41   13.78
  -2   8   5  202.20   13.05
  -2  -8   5  208.52   14.02
   2  -8  -5  231.13   14.94
   2   8   5  215.06   13.61
  -2   8  -5  217.72   13.15
  -3  -8  -5   57.00    7.36
   3   8  -5   53.36    5.37
  -3   8   5   58.87    7.21
   3   8  -5   55.08    6.78
   3  -8   5   53.36    5.78
   3  -8  -5   64.74    6.03
  -3   8  -5   61.80    6.06
  -3  -8   5   61.92    7.83
   3   8   5   54.72    5.18
  -3   8  -5   60.56    7.07
   3   8   5   63.74    6.36
   4  -8   5  853.56   33.48
   4  -8   5  828.56   33.85
   4   8  -5  876.12   33.44
   4   8  -5  850.18   35.04
   4   8   5  890.01   34.98
   4   8   5  875.25   32.98
  -4   8  -5  861.96   33.37
   4   8   5  834.01   33.27
   5   8  -5  172.61   11.78
   5  -8   5  167.66   10.54
   5   8  -5  166.11   10.26
  -5   8  -5  151.83    9.99
   5   8   5  168.17    9.88
   5   8   5  155.62   11.14
   5   8   5  160.06   10.14
   6   8  -5  321.11   17.78
   6   8  -5  312.79   16.05
   6   8   5  355.51   16.75
   6   8   5  360.77   18.45
   7   8  -5  176.06   10.08
  -7  -8  -5  154.83    9.35
   7   8  -5  157.34   10.87
   7   8   5  167.71   11.34
   7   8   5  166.62   10.02
   8   8  -5   30.58    4.72
  -8  -8  -5   28.07    3.78
   8   8  -5   28.39    3.82
   8   8   5   30.44    4.24
   8   8   5   32.65    5.16
   0   9   5  444.30   19.58
   0   9  -5  443.37   19.81
   0  -9  -5  434.62   18.94
   0   9  -5  442.04   21.78
   0  -9   5  451.46   19.24
   0   9   5  439.33   21.99
  -1  -9  -5   42.40    6.81
   1  -9   5   44.96    5.47
   1   9  -5   45.38    6.40
  -1   9   5   37.69    5.31
  -1   9   5   37.13    6.33
   1   9  -5   39.94    5.65
  -1  -9   5   32.57    4.70
   1  -9  -5   37.93    5.22
  -1   9  -5   35.87    5.36
  -1   9  -5   44.51    6.28
   1   9   5   38.40    6.64
   1   9   5   40.47    5.34
  -2   9   5   79.87    6.72
  -2  -9  -5   83.55    8.77
   2   9  -5   92.25    6.97
  -2   9   5   85.57    8.91
   2   9  -5   86.69    7.66
   2  -9   5   86.64    7.09
   2   9  -5   92.36    9.13
   2  -9  -5   89.69    7.30
   2   9   5   91.12    6.36
   2   9   5   86.85    7.56
  -2  -9   5   90.74    9.35
   2   9   5   93.67    9.25
  -2  -9   5   88.34    6.80
  -2   9  -5   89.27    7.31
  -2   9  -5   89.61    8.72
   3   9  -5  186.86   10.57
   3  -9   5  161.42   10.62
   3   9  -5  179.17   11.83
   3   9   5  185.36   10.18
   3   9   5  181.99   11.45
   3  -9  -5  187.17   11.25
  -3   9  -5  178.03   10.79
   4   9  -5  308.51   15.01
   4  -9   5  326.99   15.84
   4   9  -5  315.81   16.80
   4   9   5  269.74   15.73
   4   9   5  271.80   14.18
   5   9  -5  316.57   17.55
   5   9  -5  316.99   15.95
   5   9   5  328.82   15.95
   5   9   5  326.50   17.53
   5   9   5  334.64   15.72
   6   9  -5  119.10    9.66
   6   9  -5  116.79    8.36
   6   9   5  105.35    8.03
   6   9   5  112.53    9.41
   7   9  -5   39.24    5.72
  -7  -9  -5   42.22    5.03
   7   9  -5   43.46    5.15
   7   9   5   45.88    6.33
   7   9   5   44.00    5.24
   8   9  -5   81.45    5.86
  -8  -9  -5   81.96    5.65
   8   9  -5   87.25    6.76
   8   9   5  102.75    7.19
   0 -10  -5  221.31   11.97
   0  10  -5  208.58   12.54
   0  10   5  212.68   12.38
   0 -10   5  217.89   12.11
  -1  10   5  329.48   15.99
   1 -10   5  324.49   15.94
   1  10  -5  332.92   16.57
   1  10   5  295.42   15.69
   1 -10  -5  317.53   15.77
  -1  10  -5  302.98   15.69
  -1 -10   5  313.70   15.44
  -2  10   5  471.33   20.88
   2  10  -5  464.56   19.86
   2 -10   5  447.60   20.71
   2  10  -5  460.92   21.64
  -2  10  -5  443.24   20.59
  -2 -10   5  434.10   19.87
   2 -10  -5  462.75   21.07
   2  10   5  462.90   21.12
   3  10  -5  191.58   12.71
   3  10  -5  193.00   11.33
  -3  10   5  197.26   11.67
   3 -10   5  204.69   12.11
   3  10   5  198.30   12.43
   3  10   5  202.79   11.03
   4 -10   5  580.97   25.47
   4  10  -5  622.06   25.09
   4  10  -5  590.74   26.70
   4  10   5  571.00   26.12
   4  10   5  573.92   24.40
   5  10  -5   76.04    6.90
   5  10  -5   77.93    8.25
   5  10   5   88.04    8.31
   6  10  -5    8.28    3.42
  -6 -10  -5    5.19    2.49
   6  10  -5    8.20    2.97
   6  10   5   10.50    3.65
   6  10   5   14.81    3.49
   7  10  -5   72.84    6.00
  -7 -10  -5   76.06    5.85
   7  10  -5   73.16    6.75
   7  10   5   78.42    6.04
   7  10   5   75.83    6.81
   0 -11   5  113.26    8.68
   0  11  -5  109.66    9.06
   0 -11  -5   99.37    8.12
   0  11   5  103.29    8.56
   1  11  -5  215.58   13.17
  -1  11   5  221.43   12.88
   1 -11   5  213.26   12.76
   1 -11  -5  216.10   12.90
  -1 -11   5  228.71   12.85
   1  11   5  224.31   13.15
  -1  11  -5  219.15   13.00
  -2  11   5  400.18   19.15
   2  11  -5  402.03   19.85
  -2 -11  -5  403.49   18.01
   2 -11   5  386.43   19.17
   2  11  -5  411.00   21.65
   2 -11  -5  403.37   19.47
  -2 -11   5  383.55   18.39
   2  11   5  409.84   19.56
   3  11  -5  207.31   11.97
   3 -11   5  211.75   13.20
  -3 -11  -5  215.12   12.11
  -3  11   5  218.35   13.13
   3  11  -5  223.64   13.73
   3  11   5  278.32   14.42
   4  11  -5   71.40    7.83
  -4  11   5   80.61    8.01
  -4 -11  -5   78.29    6.84
   4  11  -5   90.01    7.21
   4 -11   5   85.04    7.52
   4  11   5   64.92    7.43
   5  11  -5  300.00   14.88
  -5 -11  -5  296.56   14.72
  -5  11   5  288.07   15.27
   5  11  -5  289.90   16.37
   5  11   5  356.93   16.78
  -6  11   5   26.61    4.33
   6  11  -5   22.24    4.43
  -6 -11  -5   26.01    4.03
   6  11  -5   22.49    3.97
   6  11   5   30.35    4.97
  -7  11   5  394.74   17.04
   7  11  -5  396.62   16.27
  -7 -11  -5  398.48   16.27
   7  11  -5  396.29   17.16
   7  11   5  379.08   16.95
   0 -12   5   10.28    3.58
   0 -12  -5   11.36    3.72
   0  12   5    9.75    3.69
   0  12  -5    9.49    3.87
   1 -12   5  285.81   15.58
  -1  12   5  278.39   15.30
   1  12  -5  270.68   15.48
   1  12   5  302.03   15.79
  -1 -12   5  295.38   15.24
   1 -12  -5  292.14   15.42
  -2 -12  -5   43.65    6.58
   2 -12   5   51.99    7.05
  -2  12   5   41.04    5.96
   2  12  -5   37.97    6.38
  -2 -12   5   51.85    6.36
   2  12   5   47.40    6.73
   3 -12   5  217.90   12.99
   3  12  -5  212.04   11.83
  -3 -12  -5  228.03   11.99
  -3  12   5  227.90   13.14
   3  12  -5  224.55   13.56
   3  12   5  222.49   13.37
   4  12  -5  108.23    9.07
  -4  12   5  120.97    8.99
   4 -12   5  112.46    8.54
  -4 -12  -5  126.88    8.20
   4  12  -5  114.68    8.06
   4  12   5  117.06    8.93
  -5 -12  -5    9.36    2.73
   5  12  -5   14.11    3.85
  -5  12   5    9.03    3.36
   5  12  -5   11.27    3.07
   5  12   5    5.61    2.99
  -6  12   5   48.11    5.41
   6  12  -5   49.85    5.62
  -6 -12  -5   46.06    4.70
   6  12  -5   38.64    4.55
   6  12   5   53.01    5.25
   0  13   5  236.33   13.45
   0 -13   5  233.97   13.44
  -1  13   5  730.81   29.18
   1  13  -5  712.80   29.47
   1 -13   5  702.48   29.59
  -1 -13   5  688.37   29.07
   1  13   5  689.78   29.12
  -2  13   5  266.62   14.22
   2  13  -5  256.49   14.18
   2 -13   5  282.24   14.63
   2  13   5  246.44   13.85
  -2 -13   5  252.37   13.47
  -3  13   5   69.38    6.85
   3  13  -5   56.14    6.94
   3 -13   5   60.36    6.34
  -3 -13  -5   60.00    5.74
   3  13   5   84.89    7.11
   4 -13   5   45.80    4.93
  -4 -13  -5   44.53    5.04
   4  13  -5   45.64    5.04
   4  13  -5   46.08    5.99
  -4  13   5   56.91    5.99
   4  13   5   53.10    5.55
  -5 -13  -5  311.77   13.95
   5  13  -5  309.77   13.69
  -5  13   5  314.25   14.52
   5  13  -5  315.69   14.55
   5  13   5  327.10   14.62
   0 -14   5    1.65    2.68
   0  14   5    5.03    2.78
  -1  14   5  138.18    9.07
   1 -14   5  142.54    9.43
  -1 -14   5  114.71    8.75
   1  14   5  122.76    8.58
   2 -14   5    8.61    3.01
  -2  14   5    6.15    2.94
   2  14  -5    7.03    3.41
  -2 -14   5    5.07    2.95
   2  14   5    5.22    2.77
   3 -14   5   16.50    3.60
   3  14  -5   18.06    3.90
  -3  14   5   21.98    3.88
   3  14   5   17.25    3.63
  -4 -14  -5   87.31    5.76
  -4  14   5   92.64    6.62
   4  14  -5   89.53    6.46
   4  14   5   91.35    6.56
   0 -15   5   13.99    3.35
   0  15   5   12.50    3.11
   1 -15   5  263.05   12.69
  -1  15   5  246.38   11.97
  -1 -15   5  234.09   11.81
   1  15   5  234.16   11.80
  -2  15   5  477.11   19.17
   2 -15   5  494.77   19.68
   2  15   5  425.72   18.69
  -3  15   5  161.85    8.68
   0   0   6 1599.46   54.07
   0   0  -6 1599.86   55.46
  -1   0   6  706.81   24.82
   1   0   6  719.68   24.92
  -1   0  -6  715.33   25.89
   1   0  -6  701.28   26.40
   2   0  -6  576.27   22.41
  -2   0  -6  568.23   21.61
   3   0  -6 3069.60  101.16
  -3   0  -6 2838.66   99.85
  -4   0  -6 1022.60   37.62
   4   0  -6 1038.43   38.67
  -5   0   6 2438.00   86.39
  -6   0  -6   11.99    3.76
   6   0   6   11.81    3.05
   6   0   6   11.66    3.21
  -6   0   6    8.04    3.39
   7   0   6    0.88    2.39
   7   0   6    1.89    2.29
   8   0   6   94.12    8.21
   0   1  -6 6425.60  210.75
   0  -1   6 6295.40  209.18
   0  -1  -6 6222.10  210.38
   0   1   6 6473.99  209.10
   1   1  -6 2880.54  102.50
  -1  -1  -6 2835.31  101.99
  -1   1   6 2883.29  100.19
   1  -1  -6 3155.00  102.54
  -1  -1   6 3151.21  100.87
  -1   1  -6 3165.52  102.05
   1   1   6 3187.15  100.75
  -2  -1  -6 2106.83   70.89
  -2   1   6 2013.24   69.54
   2   1  -6 2076.96   71.47
   2  -1  -6 2011.52   71.00
  -2   1  -6 2137.77   70.26
  -2  -1   6 2052.92   69.26
  -2   1  -6 2033.97   70.07
   3   1  -6 8174.53  264.11
  -3  -1  -6 7859.58  263.02
  -3   1   6 7981.87  262.68
  -3   1  -6 8000.64  263.11
   3  -1  -6 7954.98  263.01
  -3   1  -6 7590.77  261.84
   4   1  -6  205.21   11.44
  -4  -1  -6  204.91   10.77
  -4   1   6  216.80   11.23
  -4   1  -6  206.22   11.31
   4  -1  -6  210.29   10.64
  -5   1   6  662.20   27.35
  -5  -1   6  598.06   26.64
  -5   1  -6  636.39   27.47
   6  -1   6   29.46    4.71
   6  -1   6   27.11    4.83
   6   1   6   48.61    4.91
   6   1   6   56.81    5.64
  -6  -1   6   46.39    6.94
  -6   1  -6   50.54    6.62
   7  -1   6  158.26   10.66
   7  -1   6  163.16   10.56
   7   1   6  171.13   11.12
   8  -1   6  414.88   18.87
   8   1   6  378.73   19.31
 -10   1  -6  138.98    7.62
   0   2  -6 1056.55   34.91
   0  -2   6 1005.12   35.06
   0   2   6 1001.00   34.80
   0  -2  -6 1016.48   36.25
   0   2   6 1002.63   34.73
   0   2  -6 1039.15   36.53
   1   2  -6 2530.62   87.86
  -1  -2  -6 2679.29   89.68
   1   2  -6 2551.40   89.93
  -1   2   6 2684.65   88.06
   1   2   6 2712.59   87.74
  -1   2  -6 2654.78   89.18
  -1  -2   6 2652.51   87.93
  -1   2  -6 2671.11   88.40
   2   2  -6   85.82    5.99
  -2  -2  -6   86.47    5.55
  -2   2   6   85.54    4.69
  -2  -2   6   66.93    3.85
   2  -2  -6   67.37    4.99
  -2   2  -6   69.20    4.46
  -2   2  -6   73.04    4.80
   3   2  -6   65.88    5.70
  -3   2   6   67.78    4.84
  -3  -2  -6   64.36    5.24
  -3  -2   6   55.71    3.59
  -3   2  -6   55.79    5.63
   3  -2  -6   58.76    4.59
  -3   2  -6   60.29    5.00
  -4  -2  -6   20.86    3.68
  -4   2   6   20.83    3.68
  -4   2  -6   22.95    3.95
  -4  -2   6   19.86    2.34
  -5   2   6  241.85   13.42
  -5  -2  -6  221.61   12.75
  -5   2  -6  231.65   13.62
  -5  -2   6  225.78   13.49
   6   2  -6  122.70    8.23
   6  -2   6  126.54    8.76
   6  -2   6  127.70    8.75
  -6   2   6  134.14   10.91
   6   2   6  124.95    8.25
  -6   2  -6  131.17   10.71
   6   2   6  127.72    9.03
   7   2  -6    6.09    2.68
   7  -2   6    2.58    2.52
   7   2   6   12.52    3.87
   8  -2   6    9.00    3.22
   8   2   6    9.95    3.59
   0  -3  -6   75.94    5.16
   0   3   6   78.15    4.50
   0   3  -6   75.62    5.23
   1   3  -6    7.12    2.08
  -1  -3  -6    7.02    1.98
   1   3  -6    8.65    1.73
  -1   3   6    7.53    1.63
   1   3   6    3.62    1.36
  -1   3  -6    4.49    1.51
   1  -3  -6    4.15    1.54
  -1   3  -6    3.43    1.34
  -1  -3   6    3.55    1.09
   1   3   6    5.26    1.11
   2   3  -6   98.44    6.59
  -2   3  -6   68.05    4.98
  -2  -3   6   71.37    3.92
  -2   3  -6   71.05    4.41
   2  -3  -6   68.57    5.13
  -3   3   6 2826.40   97.31
   3   3  -6 2907.61   99.21
  -3  -3  -6 2865.70   98.40
   3  -3  -6 2921.01   96.70
  -3   3  -6 2771.69   97.57
  -3  -3   6 2781.76   94.86
  -4  -3  -6   29.45    4.30
  -4   3   6   31.02    4.22
  -4   3  -6   42.54    4.85
  -4  -3   6   43.04    5.18
  -5   3   6  306.68   16.61
  -5  -3  -6  310.14   16.75
  -5   3  -6  338.06   17.30
  -5  -3   6  330.50   17.69
   6  -3   6  505.71   22.04
   6   3  -6  474.58   22.78
   6   3  -6  492.52   21.38
  -6   3   6  491.00   30.16
   6   3   6  494.44   22.15
   6   3   6  501.02   21.12
  -6   3  -6  492.80   28.80
   7  -3   6   43.97    6.19
   7   3  -6   48.22    6.08
   7   3   6   50.86    5.66
   7   3   6   54.86    6.38
   8   3  -6  265.94   13.64
   8   3   6  268.55   15.19
   9   3   6   28.70    4.88
  -9   3  -6   26.63    4.16
   0   4  -6  890.98   31.70
   0   4  -6  854.40   32.19
   0  -4  -6  864.39   32.17
   0   4   6  857.52   31.39
   1   4  -6  179.26    8.84
  -1   4   6  178.89    8.70
   1   4  -6  179.13    9.74
  -1  -4  -6  179.34    9.48
   1  -4  -6  178.00    8.98
  -1   4  -6  175.32    8.64
  -1   4  -6  174.57    8.70
   1   4   6  178.41    8.81
   1   4   6  173.46    7.16
  -2   4   6  176.52    8.89
   2   4  -6  174.39   10.13
  -2  -4  -6  193.87   10.09
  -2  -4   6  158.08    7.18
  -2   4  -6  164.62    8.98
   2  -4  -6  155.61    8.64
  -3  -4  -6  140.11    9.25
  -3   4   6  141.78    8.46
  -4  -4  -6  116.01    8.90
  -4   4   6  109.74    8.29
  -4  -4   6  129.31    9.65
  -4   4  -6  127.57    8.86
  -5   4   6  473.40   22.81
   5   4  -6  468.99   20.79
   5  -4   6  460.74   20.62
  -5  -4  -6  455.92   22.81
   5   4  -6  448.00   20.42
   5   4   6  475.24   20.95
   5   4   6  488.54   20.19
  -5  -4   6  528.03   24.60
  -5   4  -6  503.70   23.26
   6   4  -6  135.45    8.24
   6  -4   6  127.44    9.09
   6   4  -6  121.08    8.63
   6   4   6  104.43    8.55
   6   4   6  117.39    8.23
   7   4  -6  160.80   10.30
   7  -4   6  148.59   10.48
   7   4   6  139.64    9.48
   7   4   6  138.22   10.50
   8   4  -6  271.55   14.17
  -8   4  -6  262.92   13.92
   8   4   6  308.21   16.06
   9   4  -6  253.14   12.25
  -9   4  -6  239.49   12.00
   9   4   6  268.45   13.80
   0   5   6  670.23   25.74
   0   5  -6  700.49   26.20
   0  -5  -6  655.63   26.11
   0   5  -6  640.44   26.01
  -1   5   6 1466.46   51.80
   1   5  -6 1474.64   53.00
  -1  -5  -6 1519.56   52.82
   1   5  -6 1527.00   52.11
  -1   5  -6 1458.46   51.69
   1   5   6 1317.82   50.78
   1  -5  -6 1448.90   51.72
   1   5   6 1453.40   51.77
  -1   5  -6 1410.19   50.97
   2   5  -6 1411.58   51.67
  -2  -5  -6 1404.14   51.02
  -2   5   6 1362.45   49.69
   2   5  -6 1363.38   49.97
  -2   5  -6 1350.88   49.73
  -3   5   6  178.05   10.39
  -3  -5  -6  177.40   11.29
  -3   5  -6  190.64   10.90
  -3  -5   6  192.25   11.96
  -4   5   6   97.49    7.98
  -4  -5  -6   89.75    8.19
  -4  -5   6   96.31    8.79
  -4   5  -6   90.16    7.87
  -5   5   6  181.53   12.25
   5   5  -6  174.38   10.81
   5   5  -6  189.78   10.08
  -5  -5  -6  179.42   12.63
   5  -5   6  180.97   10.52
   5   5   6  164.58   10.46
  -5  -5   6  167.17   12.95
  -5   5  -6  167.16    9.68
   5   5   6  171.32    9.89
  -5   5  -6  169.71   12.18
   5   5   6  159.71    9.08
   6   5  -6  277.96   14.93
   6   5  -6  248.36   13.40
   6  -5   6  260.74   14.66
  -6   5  -6  287.50   14.06
   6   5   6  290.23   15.36
   6   5   6  284.59   14.14
   7   5  -6  654.07   27.79
   7  -5   6  673.51   28.30
   7   5  -6  652.18   26.39
   7   5   6  647.66   27.03
  -7   5  -6  635.05   26.67
   7   5   6  636.24   28.63
   8   5  -6   55.42    6.05
   8   5   6   59.87    6.77
  -8   5  -6   57.97    5.79
   9   5  -6   17.03    3.37
   9   5   6   13.90    3.58
   0  -6  -6   22.80    3.83
   0   6   6   23.53    3.94
  -1  -6  -6  211.07   12.40
   1   6  -6  230.82   12.41
  -1   6   6  225.36   12.33
   1  -6  -6  250.03   12.27
   1   6   6  259.21   12.73
  -1  -6   6  258.56   13.40
  -1   6  -6  259.10   12.64
  -2   6   6   33.98    4.57
   2   6  -6   43.22    5.07
  -2  -6  -6   42.49    5.11
  -2  -6   6   31.53    5.32
   2   6   6   34.09    4.61
  -2   6  -6   40.99    4.76
  -3   6   6  175.61   11.16
  -3  -6  -6  182.27   12.13
  -3  -6   6  201.72   12.96
  -3   6  -6  211.57   11.93
  -4   6   6  321.40   17.43
  -4  -6  -6  324.26   18.50
   4   6  -6  322.60   16.43
   4  -6   6  274.71   17.79
   4   6  -6  308.75   15.08
  -4  -6   6  384.36   20.17
  -4   6  -6  369.28   18.29
  -4   6  -6  388.22   18.55
   4   6   6  357.58   15.14
   4   6   6  359.98   16.51
   5   6  -6   60.11    6.54
   5   6  -6   58.53    5.74
   5  -6   6   57.85    5.88
  -5   6   6   53.61    7.35
   5   6   6   54.12    5.56
  -5   6  -6   52.06    5.41
   5   6   6   57.35    5.19
   5   6   6   50.66    5.96
   6   6  -6  195.59   12.51
   6   6  -6  207.62   11.53
   6  -6   6  200.22   12.23
  -6   6  -6  200.59   11.28
   6   6   6  193.91   11.35
   6   6   6  201.38   12.67
   7   6  -6  115.58    9.33
   7  -6   6  129.33    9.46
  -7  -6  -6  122.26    7.98
   7   6  -6  115.89    8.28
   7   6   6  129.62    8.89
  -7   6  -6  130.70    8.67
   7   6   6  121.16    9.96
   8   6  -6  176.00   12.71
   8   6  -6  200.81   11.14
  -8   6  -6  174.39   10.03
   8   6   6  164.18   11.25
   9   6  -6   93.19    6.58
   9   6   6   99.13    7.41
   0   7  -6  579.99   24.21
   0  -7  -6  535.91   23.80
   0  -7   6  538.19   23.74
   0   7   6  571.69   24.05
  -1  -7  -6   36.58    4.94
   1   7  -6   35.91    4.96
  -1   7   6   34.73    4.92
  -1  -7   6   56.07    6.02
   2   7  -6   86.90    7.61
  -2   7   6   82.50    7.24
  -2  -7  -6   79.63    7.46
   2   7   6   70.22    7.01
  -2   7  -6   81.98    7.16
  -2  -7   6   77.46    7.72
  -3   7   6  122.64    9.48
   3   7  -6  138.49   12.98
  -3  -7  -6  128.49   10.15
  -3   7  -6  118.59    9.29
  -3  -7   6  124.56   10.53
   3   7   6  112.97   10.29
   3   7   6  113.58    9.13
   4   7  -6 1234.14   46.71
   4  -7   6 1258.25   47.18
  -4  -7  -6 1243.21   51.53
   4   7  -6 1295.71   48.64
  -4   7   6 1238.16   50.16
  -4  -7   6 1318.50   52.89
   4   7   6 1319.66   46.50
   4   7   6 1311.61   48.29
  -4   7  -6 1287.60   46.81
   4   7   6 1295.55   47.07
  -4   7  -6 1271.05   50.08
   5  -7   6  201.28   11.78
   5   7  -6  204.69   11.39
   5   7  -6  199.43   12.67
   5   7   6  200.04   10.71
  -5   7  -6  185.62   10.99
   5   7   6  205.42   11.32
   5   7   6  189.05   12.18
   6   7  -6  254.33   13.26
   6  -7   6  261.32   14.09
   6   7  -6  257.02   14.79
   6   7   6  245.47   13.16
  -6   7  -6  237.18   12.95
   6   7   6  220.44   14.12
   7   7  -6  141.36    8.97
  -7  -7  -6  137.54    8.42
   7   7  -6  129.83    9.82
   7   7   6  136.19   10.27
  -7   7  -6  108.71    8.18
   7   7   6  135.96    8.97
   8   7  -6   95.24    6.61
   8   7  -6   99.87    7.56
   8   7   6   77.87    7.50
   9   7  -6    8.29    2.56
   9   7   6    2.84    2.36
   0   8  -6  133.29    9.59
   0  -8  -6  124.60    9.34
   0   8   6  128.56    9.63
  -1   8   6  175.26   11.76
  -1  -8  -6  183.81   12.04
   1   8  -6  181.64   11.90
   1   8   6  182.50   11.96
  -1  -8   6  187.03   12.52
  -1   8  -6  187.22   11.91
   2  -8   6  625.82   26.44
  -2   8   6  662.61   28.69
   2   8  -6  669.88   29.05
   2   8  -6  647.47   26.91
  -2  -8  -6  634.22   29.11
  -2  -8   6  641.17   29.74
   2   8   6  606.63   26.60
   2  -8  -6  623.02   25.74
   2   8   6  649.87   28.72
   2   8   6  633.15   26.29
  -2   8  -6  631.59   27.86
  -3   8   6  152.65   11.32
   3  -8   6  148.06    9.46
   3   8  -6  160.98   10.66
   3   8  -6  168.00    9.46
  -3  -8  -6  156.84   12.03
  -3   8  -6  149.90    9.44
  -3  -8   6  145.56   12.29
   3   8   6  156.65   10.07
  -3   8  -6  154.51   11.37
   3   8   6  153.70    8.76
   4  -8   6  120.55    8.85
   4   8  -6  130.71   10.15
  -4   8  -6  157.67    9.64
   4   8   6  153.69   10.46
   4   8   6  158.75    9.03
   5   8  -6   10.92    4.11
   5   8  -6    9.86    3.29
   5  -8   6    6.20    2.78
  -5   8  -6    9.72    3.24
   5   8   6    5.08    2.54
   5   8   6    9.12    3.49
   5   8   6    8.56    2.73
   6   8  -6   47.22    6.19
  -6  -8  -6   51.25    6.21
   6   8  -6   59.11    7.78
   6   8   6   58.59    6.14
  -6   8  -6   63.26    6.31
   6   8   6   65.03    7.44
   7   8  -6    4.90    2.59
   7   8  -6    6.42    3.11
  -7  -8  -6    6.00    2.40
   7   8   6    9.12    3.45
   7   8   6    3.90    2.60
   8   8  -6  145.09    9.12
  -8  -8  -6  137.83    7.79
   8   8  -6  134.29    8.04
   8   8   6  165.53   10.03
   0   9  -6   13.55    3.98
   0   9   6   12.39    3.50
   0  -9  -6   10.42    2.89
   0   9   6   14.99    4.40
   0  -9   6   12.68    3.22
   0   9  -6   12.35    3.52
  -1   9   6    9.82    3.78
  -1   9   6    7.64    2.94
  -1  -9  -6    9.58    2.76
  -1  -9  -6    6.41    3.24
   1  -9   6   11.08    2.93
   1   9  -6   10.85    3.79
   1   9  -6   10.78    3.58
  -1   9  -6    6.99    3.12
  -1  -9   6   11.80    3.07
   1   9   6    9.41    3.88
   1  -9  -6    8.96    2.92
   1   9   6    9.20    2.93
  -1   9  -6   18.17    4.61
  -2  -9  -6  169.89   12.85
   2   9  -6  184.44   10.12
   2   9  -6  180.27   11.47
  -2   9   6  172.97   12.66
  -2   9   6  175.20   10.39
   2   9  -6  174.05   12.63
   2  -9   6  181.32   10.60
   2  -9  -6  166.17   10.24
  -2  -9   6  160.24    9.80
   2   9   6  184.37   11.08
   2   9   6  177.03   12.85
  -2  -9   6  159.47   12.81
  -2   9  -6  161.55   10.37
  -2   9  -6  178.08   12.40
   3   9  -6  129.76    9.97
   3   9  -6  133.07    8.69
   3  -9   6  135.13    9.09
   3   9   6  121.02    7.96
   3   9   6  118.04    9.05
  -3  -9   6  109.41    7.87
  -3   9  -6  119.26    8.78
   4   9  -6  814.01   34.75
   4   9  -6  814.61   32.82
   4  -9   6  805.56   33.32
   4   9   6  879.60   32.66
   4   9   6  878.23   34.74
  -4   9  -6  797.93   32.78
   5   9  -6  188.06   11.22
   5   9  -6  183.58   12.57
  -5   9  -6  164.34   11.16
   5   9   6  177.69   12.07
   6   9  -6   62.74    6.42
   6   9  -6   52.89    7.39
  -6  -9  -6   61.13    6.00
   6   9   6   84.75    6.80
   6   9   6   91.42    8.27
  -7  -9  -6   28.84    4.25
   7   9  -6   21.30    4.48
   7   9  -6   25.35    4.15
   7   9   6   35.64    5.54
   7   9   6   32.60    4.53
   8   9  -6  117.22    6.92
   8   9  -6  115.13    7.69
  -8  -9  -6  111.39    6.70
   8   9   6  129.17    8.16
   0 -10   6  592.99   24.77
   0 -10  -6  589.28   24.54
   0  10  -6  570.82   25.25
   0  10   6  580.85   25.05
  -1  10   6   10.23    3.64
   1 -10   6   11.48    3.37
   1  10  -6   13.11    3.97
  -1 -10   6    7.96    2.92
   1 -10  -6    8.56    3.04
   1  10   6    9.09    3.22
  -1  10  -6    7.83    3.32
   2  10  -6 1044.88   41.37
  -2  10   6 1056.11   40.30
   2  10  -6 1067.28   39.13
   2 -10   6 1050.95   40.23
  -2 -10  -6 1091.52   39.22
  -2  10  -6 1005.15   40.13
   2 -10  -6 1004.90   40.24
  -2 -10   6  992.72   39.23
   2  10   6 1051.06   40.74
  -3  10   6  229.75   12.94
   3  10  -6  216.68   13.85
   3 -10   6  217.76   12.71
   3  10  -6  225.85   12.19
  -3  10  -6  226.76   12.81
  -3 -10   6  201.43   11.55
   3  10   6  223.52   13.39
   4  10  -6  797.16   32.22
   4  10  -6  814.50   34.33
   4 -10   6  782.30   32.64
   4  10   6  841.81   34.05
   5  10  -6   44.16    5.72
   5  10  -6   44.43    6.97
  -5 -10  -6   44.06    5.83
   5  10   6   42.85    6.69
   6  10  -6   61.03    6.88
  -6 -10  -6   64.48    5.72
   6  10  -6   67.64    6.14
   6  10   6   44.62    6.50
   7  10  -6   39.32    5.39
  -7 -10  -6   41.72    4.73
   7  10  -6   43.09    5.31
   7  10   6   36.26    5.31
   7  10   6   46.30    5.48
   0  11  -6  205.25   12.66
   0 -11   6  203.87   12.12
   0 -11  -6  190.73   11.57
   0  11   6  201.56   12.25
   1  11  -6  248.38   14.73
  -1  11   6  259.89   14.36
   1 -11   6  269.86   14.46
  -1  11  -6  255.43   14.50
  -1 -11   6  256.29   13.95
   1  11   6  277.27   14.91
   1 -11  -6  266.68   14.25
  -2 -11  -6   46.24    5.48
   2  11  -6   36.63    6.01
   2 -11   6   43.16    5.99
  -2  11   6   42.66    6.14
   2  11   6   38.07    6.09
  -2  11  -6   40.69    5.95
  -2 -11   6   36.57    5.33
   3  11  -6  602.54   26.97
   3 -11   6  592.61   26.04
   3  11  -6  603.53   24.91
  -3  11   6  616.34   26.26
  -3 -11  -6  616.51   25.09
  -3 -11   6  571.13   24.81
   3  11   6  607.85   26.62
   4 -11   6   57.19    6.91
   4  11  -6   56.98    6.30
  -4 -11  -6   63.03    6.14
  -4  11   6   56.84    7.06
   4  11   6   66.01    7.39
   5  11  -6  102.07    7.87
  -5 -11  -6  112.01    7.72
   5  11  -6   99.39    9.10
  -5  11   6  106.53    8.68
   5  11   6  130.40    9.30
   6  11  -6   83.75    6.63
  -6  11   6   88.46    7.47
   6  11  -6   84.66    7.31
  -6 -11  -6   90.87    6.63
   6  11   6  103.57    7.83
   7  11  -6  201.33    9.74
  -7  11   6  205.08   10.46
  -7 -11  -6  190.25    9.61
   7  11  -6  196.57   10.70
   7  11   6  204.70   10.61
   0 -12   6  418.30   19.78
   0  12   6  423.71   19.88
   0  12  -6  403.91   19.89
  -1  12   6  211.65   12.62
   1  12  -6  210.02   12.97
   1 -12   6  219.66   12.77
   1  12   6  207.84   12.71
  -1  12  -6  187.90   12.30
  -1 -12   6  188.27   11.95
  -2 -12  -6  831.94   33.33
   2  12  -6  869.10   35.62
  -2  12   6  877.38   34.86
   2 -12   6  903.78   35.24
   2  12   6  859.66   35.13
  -2 -12   6  861.59   34.27
   3  12  -6  145.31   10.72
   3  12  -6  138.23    9.09
  -3  12   6  164.84   10.83
   3 -12   6  163.49   10.52
  -3 -12  -6  154.70    9.50
   3  12   6  143.15   10.53
   4  12  -6  127.13    9.77
  -4 -12  -6  125.80    8.46
   4 -12   6  121.18    8.77
   4  12  -6  115.30    8.35
  -4  12   6  133.21    9.43
   4  12   6  166.70   10.33
  -5  12   6  125.03    8.51
   5  12  -6  113.17    8.61
   5  12  -6  115.23    7.60
  -5 -12  -6  112.98    7.57
   5  12   6  117.75    8.69
  -6  12   6  387.64   17.01
  -6 -12  -6  385.76   16.45
   6  12  -6  396.98   16.43
   6  12  -6  383.41   17.19
   6  12   6  414.60   17.45
   0  13   6  372.33   18.03
   0  13  -6  349.87   17.77
   0 -13   6  381.43   18.15
   1 -13   6  293.97   15.98
  -1  13   6  307.97   15.99
   1  13  -6  305.71   16.25
   1  13   6  332.20   16.41
  -1 -13   6  357.21   16.56
  -2  13   6   86.47    7.59
   2  13  -6   74.97    7.56
   2 -13   6   75.93    7.33
   2  13   6   87.37    7.72
  -2 -13   6   84.61    7.28
  -3 -13  -6  234.70   11.63
   3  13  -6  226.09   12.84
  -3  13   6  238.98   12.79
   3 -13   6  237.12   12.54
   3  13   6  196.26   12.17
   4  13  -6   48.72    5.14
  -4 -13  -6   50.10    5.02
  -4  13   6   57.48    6.01
   4 -13   6   56.07    5.36
   4  13  -6   54.03    6.45
   4  13   6   62.87    5.98
  -5 -13  -6   30.39    3.92
   5  13  -6   29.59    4.39
  -5  13   6   21.68    3.79
   5  13  -6   25.65    3.73
   5  13   6   27.31    4.14
   0  14   6  191.45   11.07
   0 -14   6  187.67   11.35
   1  14  -6  165.73   13.18
  -1  14   6  175.41   10.43
   1 -14   6  163.63   10.28
   1  14   6  159.09    9.91
  -1 -14   6  167.07   10.13
   2 -14   6   78.48    6.60
   2  14  -6   77.31    6.87
  -2  14   6   88.36    6.94
  -2 -14   6   62.87    6.28
   2  14   6   71.01    6.57
  -3  14   6   12.03    3.70
   3 -14   6   15.17    3.34
   3  14  -6   13.31    3.47
   3  14   6    9.01    2.95
  -4  14   6  170.24    9.20
   4  14  -6  158.32    9.08
  -4 -14  -6  155.74    8.30
   4  14   6  177.05    9.40
   0 -15   6  399.50   17.32
   0  15   6  393.43   17.03
   1 -15   6  252.74   12.46
  -1  15   6  239.01   11.99
  -1 -15   6  250.08   12.02
   1  15   6  243.50   12.00
   2 -15   6   43.74    5.11
  -2  15   6   51.55    5.14
   2  15   6   42.57    4.81
   0   0   7    0.37    0.90
   0   0  -7   -0.41    1.16
   1   0   7 1389.16   48.04
  -1   0   7 1431.29   48.08
  -1   0  -7 1431.99   49.38
   1   0  -7 1403.57   49.94
  -2   0   7  281.71   10.88
  -2   0   7  284.61   11.26
   2   0  -7  276.58   12.89
  -2   0  -7  268.50   12.08
  -3   0   7 2866.75   99.82
  -3   0  -7 2947.47  100.46
   3   0  -7 3057.51  101.81
   4   0  -7  184.61   10.46
  -4   0   7  175.28    9.76
  -4   0  -7  180.83    9.61
  -5   0   7  766.22   31.21
   6   0   7   82.83    7.04
   6   0   7   87.61    6.85
  -6   0  -7   89.25    8.70
   7   0   7   96.64    8.14
   7   0   7   96.32    7.61
   8   0   7  155.20   10.61
   0  -1   7 7669.95  255.13
   0   1   7 7837.27  255.07
   0   1  -7 7826.60  256.99
   0  -1  -7 7675.73  256.67
  -1  -1  -7 1435.36   48.78
  -1   1   7 1394.80   47.32
   1  -1   7 1412.15   47.49
   1   1  -7 1393.85   49.31
  -1  -1   7 1205.84   47.01
  -1   1  -7 1414.46   48.58
  -1   1  -7 1390.86   46.95
   1   1   7 1411.63   47.10
   1  -1  -7 1439.24   49.18
  -2  -1  -7  708.00   25.74
  -2   1   7  649.89   23.83
   2   1  -7  697.78   26.36
  -2   1  -7  659.01   24.57
  -2  -1   7  681.87   24.02
  -2   1  -7  645.15   24.88
   2  -1  -7  652.84   25.84
  -3   1   7 1361.46   50.31
   3   1  -7 1510.37   52.61
  -3  -1  -7 1478.27   51.50
  -3   1  -7 1460.64   51.17
  -3   1  -7 1408.15   50.33
   3  -1  -7 1426.66   51.54
  -3  -1   7 1437.86   49.56
  -4   1   7  989.87   35.64
   4   1  -7  953.27   36.53
  -4  -1  -7  948.44   35.48
  -4   1  -7  896.86   35.69
  -4  -1   7  895.26   33.38
   4  -1  -7  904.82   35.20
  -5   1   7  772.06   32.19
  -5  -1   7  778.84   32.56
  -5   1  -7  823.00   33.06
   6  -1   7 1367.77   50.61
   6  -1   7 1413.46   51.09
  -6   1  -7 1386.34   54.38
   6   1   7 1321.09   53.19
   6   1   7 1362.30   50.89
   7  -1   7  179.78   11.26
   7  -1   7  190.05   11.68
   7   1   7  188.53   11.84
   8  -1   7   99.89    8.12
   8   1   7  114.40    8.96
 -10   1  -7   84.94    5.73
   0   2   7  731.89   25.06
   0  -2  -7  729.24   27.02
   0   2   7  691.78   25.30
   0  -2   7  711.41   25.54
   0   2  -7  725.92   27.20
   0   2  -7  745.22   25.17
  -1   2   7   45.31    2.93
   1   2  -7   40.02    4.20
  -1  -2  -7   38.18    3.90
   1  -2  -7   48.46    4.22
  -1   2  -7   50.25    3.33
  -1  -2   7   52.71    3.25
  -1   2  -7   51.17    4.09
   1   2   7   56.62    3.17
   2   2  -7  244.92   12.95
  -2  -2  -7  253.90   12.55
  -2   2   7  231.02   10.95
  -2   2  -7  292.11   12.02
  -2  -2   7  309.87   11.17
  -2   2  -7  303.12   12.03
   2  -2  -7  288.10   12.88
   3   2  -7 1008.03   39.04
  -3   2   7  963.21   36.88
  -3  -2  -7 1030.56   38.34
  -3  -2   7 1013.28   35.73
  -3   2  -7 1053.18   37.89
   3  -2  -7 1052.96   37.89
  -3   2  -7 1047.89   40.25
  -4  -2  -7  121.99    8.00
   4   2  -7  114.78    8.37
  -4   2   7  117.26    7.49
  -4   2  -7   84.63    7.02
  -4  -2   7   81.11    5.30
  -5  -2  -7   43.65    5.47
  -5   2   7   43.43    5.52
  -5   2  -7   65.89    6.66
  -5  -2   7   66.19    6.83
   6  -2   7  273.40   14.22
   6   2  -7  264.23   14.35
   6  -2   7  264.06   14.24
  -6   2  -7  293.01   17.08
   6   2   7  282.80   13.71
   6   2   7  281.31   14.68
   7  -2   7  202.10   12.82
   7   2   7  255.85   13.91
   8  -2   7  111.85    8.58
   8   2   7   99.12    8.63
   0   3   7 6088.40  202.89
   0  -3  -7 6429.54  205.17
   0   3  -7 6033.80  205.01
   0   3   7 6062.99  203.22
   1  -3  -7   24.06    3.12
  -1   3  -7   22.35    2.57
  -1  -3   7   23.05    2.30
   1   3   7   23.28    2.59
   1   3   7   24.42    2.14
  -1   3  -7   26.07    2.99
   2   3  -7  324.16   15.50
  -2   3   7  309.89   13.46
  -2  -3  -7  328.94   15.02
  -2   3  -7  337.83   14.15
  -2   3  -7  339.93   13.71
   2  -3  -7  335.76   14.82
  -2  -3   7  332.66   12.74
  -3   3   7 3042.67  108.97
   3   3  -7 3120.63  111.27
  -3  -3  -7 3213.74  110.68
  -3  -3   7 3222.73  107.16
   3  -3  -7 3422.27  109.42
  -3   3  -7 3245.43  109.78
  -4  -3  -7   41.10    5.00
  -4   3   7   43.03    4.85
  -5   3   7  440.01   20.78
  -5  -3  -7  427.47   20.70
   5  -3   7  405.48   18.56
  -5   3  -7  431.30   20.80
  -5  -3   7  418.07   21.43
   5   3   7  416.09   18.99
   6   3  -7  220.82   11.99
   6  -3   7  218.64   12.47
   6   3  -7  220.25   11.33
   6   3   7  211.70   12.42
   6   3   7  219.49   11.78
   7   3  -7  619.04   26.48
   7  -3   7  682.70   28.20
   7   3   7  638.80   26.54
   7   3   7  634.17   27.87
   8   3  -7  238.07   12.77
   8  -3   7  272.23   14.35
   8   3   7  234.73   14.05
  -9   3  -7   37.38    4.83
   9   3   7   45.03    5.36
   0   4   7  158.45    7.32
   0  -4  -7  170.62    9.22
   0   4   7  171.62    8.24
   0   4  -7  179.14    8.63
   0   4  -7  161.30    9.10
   1   4  -7  273.59   14.02
  -1  -4  -7  275.43   13.79
   1   4  -7  281.22   12.83
  -1   4   7  280.90   12.70
  -1   4  -7  312.41   13.24
   1   4   7  313.31   11.52
   1  -4  -7  318.78   13.79
  -1   4  -7  314.19   13.02
   1   4   7  326.62   13.20
   2   4  -7  108.48    7.78
  -2   4   7  106.51    6.40
  -2  -4  -7  111.63    7.49
  -2   4  -7  101.54    6.51
   2  -4  -7   91.11    6.48
  -2  -4   7   90.38    5.07
   3   4  -7  265.23   14.76
  -3   4   7  285.49   13.36
  -3  -4  -7  271.08   14.34
  -3   4  -7  289.32   13.88
  -4   4   7  912.33   35.30
  -4  -4  -7  901.18   36.44
  -4   4  -7  890.52   35.58
  -4  -4   7  864.16   36.90
   5   4  -7  246.91   12.02
   5  -4   7  238.66   12.57
   5   4  -7  230.07   12.65
  -5   4   7  247.28   17.20
  -5  -4  -7  250.18   14.87
  -5  -4   7  233.44   15.17
   5   4   7  237.05   11.92
   5   4   7  232.55   12.72
  -5   4  -7  231.81   14.22
  -6  -4  -7  214.79   11.04
   6   4  -7  229.81   12.61
   6   4  -7  232.58   11.85
   6  -4   7  222.20   12.79
   6   4   7  211.09   11.72
   6   4   7  224.50   12.99
   7   4  -7  276.02   14.90
   7  -4   7  302.87   15.99
   7   4   7  306.76   14.90
   7   4   7  279.39   15.89
   8   4  -7   19.87    3.96
  -8   4  -7   38.35    5.26
   8   4   7   30.78    5.40
   9   4   7   30.83    4.86
  -9   4  -7   40.69    4.44
   0   5  -7  383.62   17.37
   0  -5  -7  396.79   17.52
   0   5   7  392.45   16.66
   0   5  -7  412.45   17.10
   1   5  -7 1263.88   45.32
   1   5  -7 1240.36   46.54
  -1  -5  -7 1232.81   46.19
  -1   5   7 1322.20   45.36
   1   5   7 1269.78   45.28
  -1   5  -7 1218.22   44.96
   1  -5  -7 1240.60   45.60
  -1   5  -7 1211.39   44.75
  -2   5   7  176.99    9.78
   2   5  -7  168.27   10.96
  -2  -5  -7  178.05   10.78
  -2   5  -7  191.52   10.03
   2  -5  -7  189.33   11.51
  -3   5   7 1574.50   55.98
  -3  -5  -7 1537.45   57.51
  -3   5  -7 1511.66   56.13
  -4   5   7   31.38    5.20
  -4  -5  -7   30.67    5.61
  -4   5  -7   52.46    5.91
  -4  -5   7   39.04    5.86
   5   5  -7  697.09   28.09
   5   5  -7  728.84   29.68
  -5  -5  -7  697.17   32.18
   5  -5   7  692.15   29.01
   5   5   7  732.84   29.58
  -5  -5   7  733.85   33.62
  -5   5  -7  721.20   31.81
   5   5   7  730.95   28.35
  -5   5  -7  730.66   28.45
   6   5  -7   70.17    7.20
  -6  -5  -7   70.14    5.80
   6  -5   7   72.54    7.06
   6   5  -7   68.34    6.32
  -6   5  -7   80.47    6.77
   6   5   7   73.53    6.42
   6   5   7   71.59    7.16
   7  -5   7  466.80   21.84
   7   5  -7  462.25   20.38
   7   5  -7  461.88   21.55
   7   5   7  476.95   20.93
  -7   5  -7  476.45   20.89
   7   5   7  458.05   22.33
   8   5  -7  192.26   11.30
   8   5   7  203.79   12.41
  -8   5  -7  191.02   10.84
   9   5  -7    1.31    2.01
  -9   5  -7    3.61    2.16
   9   5   7    4.16    2.65
   0   6  -7   17.02    3.55
   0   6  -7   14.93    3.36
   0   6   7    8.76    2.66
   0  -6  -7    7.82    2.50
  -1  -6  -7    7.19    2.66
  -1   6   7    8.11    2.64
   1   6  -7    6.48    2.44
   1  -6  -7   16.63    3.40
   1   6   7   13.48    3.10
  -1   6  -7   15.93    3.25
  -2  -6  -7   58.87    6.24
   2   6  -7   63.78    6.02
  -2   6   7   57.65    5.65
  -2   6  -7   67.36    5.96
  -2  -6   7   65.99    6.75
  -3   6   7  265.67   14.25
  -3  -6  -7  254.37   15.08
  -3   6  -7  283.34   14.55
  -3  -6   7  275.91   16.03
   4  -6   7  516.59   21.80
   4   6  -7  517.86   21.46
  -4  -6  -7  485.00   24.78
  -4   6   7  506.02   23.72
   4   6  -7  496.81   22.65
   4   6   7  533.24   22.46
  -4   6  -7  533.06   24.18
   4   6   7  537.14   20.97
  -4  -6   7  537.82   26.15
  -4   6  -7  499.41   21.23
   5   6  -7  234.38   13.43
   5   6  -7  222.40   11.98
   5  -6   7  226.72   12.52
   5   6   7  211.35   12.63
   5   6   7  215.56   11.72
  -5   6  -7  227.07   11.92
   6  -6   7  248.91   13.70
   6   6  -7  240.66   13.97
  -6  -6  -7  237.61   12.09
   6   6  -7  250.22   12.84
   6   6   7  207.70   12.19
   6   6   7  215.19   13.48
  -6   6  -7  224.93   12.39
   7  -6   7  299.15   16.40
   7   6  -7  314.80   16.72
  -7  -6  -7  310.99   15.02
   7   6  -7  298.34   15.38
   7   6   7  360.97   18.01
  -7   6  -7  349.59   16.03
   7   6   7  353.55   16.24
   8   6  -7  132.78    8.95
   8   6  -7  135.62   10.53
   8   6   7  142.31    9.90
  -8   6  -7  129.28    8.42
   9   6  -7   53.44    4.95
   9   6   7   54.86    5.64
   0  -7   7   65.18    6.26
   0   7   7   69.69    6.40
   0  -7  -7   65.56    6.37
   0   7  -7   70.34    6.35
  -1  -7  -7  225.53   12.89
  -1   7   7  229.45   12.43
   1   7  -7  222.01   12.39
   1   7   7  200.07   11.98
  -1  -7   7  190.58   12.36
  -1   7  -7  192.70   11.63
   2   7  -7  478.29   22.12
  -2  -7  -7  487.77   22.93
  -2   7   7  503.09   22.02
  -2  -7   7  460.76   23.16
  -2   7  -7  463.17   21.58
   3   7  -7  747.00   30.30
  -3   7   7  718.06   30.99
  -3  -7  -7  720.11   32.43
   3   7  -7  710.56   28.36
  -3  -7   7  749.45   33.33
  -3   7  -7  740.29   31.10
   3   7   7  731.52   29.32
  -3   7  -7  753.78   29.06
   3   7   7  728.14   27.94
  -4   7   7   44.86    6.85
   4  -7   7   51.00    5.55
  -4  -7  -7   47.35    7.04
   4   7  -7   51.42    5.99
   4   7  -7   56.24    7.03
   4   7   7   56.05    6.06
  -4  -7   7   56.19    8.01
   4   7   7   64.22    5.46
  -4   7  -7   64.29    5.75
  -4   7  -7   58.61    7.03
   5   7  -7  309.92   14.96
   5  -7   7  312.73   15.51
   5   7  -7  286.60   16.14
  -5   7  -7  289.81   14.68
   5   7   7  282.82   14.35
   5   7   7  297.92   15.98
   6  -7   7   26.88    4.94
   6   7  -7   26.64    5.36
  -6  -7  -7   31.26    4.62
   6   7  -7   31.38    5.04
  -6   7  -7   29.85    4.88
   6   7   7   38.80    6.26
   6   7   7   33.15    5.04
  -7  -7  -7  343.79   16.42
   7   7  -7  328.79   17.86
   7   7  -7  347.25   16.77
   7   7   7  406.44   19.34
   7   7   7  401.94   17.49
  -7   7  -7  384.81   17.18
   8   7  -7  116.26    8.16
   8   7  -7  117.94    7.46
   8   7   7  111.25    8.64
   9   7   7   25.43    3.97
   0  -8  -7    1.76    2.23
   0   8  -7    2.61    2.37
   0   8   7    3.60    2.62
  -1   8   7  158.35   10.80
   1   8  -7  159.45   10.96
  -1  -8  -7  159.58   11.38
   1   8   7  144.21   11.50
  -1  -8   7  150.84   11.22
  -1   8  -7  161.60   10.88
   1   8   7  156.74   11.04
   2   8  -7 1260.15   45.23
   2  -8   7 1299.33   45.91
   2   8  -7 1284.47   49.05
   2   8  -7 1293.07   47.39
  -2  -8  -7 1239.99   49.70
  -2   8   7 1288.35   48.98
  -2   8  -7 1186.57   47.85
  -2  -8   7 1241.30   50.50
  -2   8  -7 1182.45   45.74
   2   8   7 1199.74   46.24
   3   8  -7  155.40    9.14
  -3   8   7  149.61   11.32
   3  -8   7  146.88    9.18
   3   8  -7  152.40   10.45
  -3  -8  -7  135.93   11.42
  -3  -8   7  135.55   11.87
  -3   8  -7  136.79   10.73
  -3   8  -7  133.56    9.07
   3   8   7  137.23    9.51
   4  -8   7  485.66   21.09
   4   8  -7  501.86   22.99
   4   8  -7  496.20   21.08
   4   8   7  464.34   22.05
  -4   8  -7  457.58   20.94
   5   8  -7   87.10    7.47
   5   8  -7   82.90    8.59
   5  -8   7   94.25    7.58
  -5   8  -7   82.76    7.24
   5   8   7   79.51    7.07
   5   8   7   85.50    8.14
   6   8  -7  741.22   29.84
   6   8  -7  704.63   31.36
  -6  -8  -7  698.78   28.97
   6   8   7  772.94   31.89
  -6   8  -7  740.28   29.59
   6   8   7  740.20   29.45
   7   8  -7   31.39    4.69
  -7  -8  -7   46.44    5.25
   7   8  -7   37.03    5.65
  -7   8  -7   34.15    5.68
   7   8   7   36.14    4.94
   7   8   7   39.46    6.02
   8   8  -7   97.49    7.15
   8   8  -7  102.08    6.56
  -8  -8  -7   89.29    6.06
   8   8   7   96.34    7.67
   0  -9  -7   69.16    6.12
   0   9  -7   77.13    7.90
   0  -9   7   71.84    6.24
   0   9   7   72.97    6.88
   0   9  -7   74.51    7.01
   0   9   7   82.42    8.32
   1   9  -7  227.23   13.45
   1  -9   7  226.28   12.40
  -1   9   7  222.58   14.52
  -1  -9  -7  235.31   15.28
  -1   9   7  233.38   12.78
   1   9  -7  234.67   14.70
  -1  -9  -7  233.70   11.71
   1   9   7  277.87   15.96
   1  -9  -7  262.29   12.94
  -1   9  -7  249.88   14.88
  -1  -9   7  272.59   13.04
   1   9   7  267.54   13.53
  -1   9  -7  255.66   13.50
   2   9  -7   52.78    5.70
  -2   9   7   51.35    5.89
  -2  -9  -7   41.54    7.42
   2   9  -7   40.31    7.76
   2   9  -7   44.35    6.59
  -2   9   7   53.41    7.35
   2  -9   7   48.14    5.90
  -2  -9  -7   49.83    5.59
  -2  -9   7   40.42    7.49
  -2   9  -7   46.23    6.80
  -2  -9   7   50.67    5.18
  -2   9  -7   53.75    6.54
   2   9   7   47.12    5.73
  -3  -9  -7  549.60   22.81
   3  -9   7  537.07   23.42
   3   9  -7  545.21   25.06
   3   9  -7  555.54   23.10
   3   9   7  560.38   24.42
  -3   9  -7  535.46   23.57
  -3  -9   7  542.81   22.62
   4   9  -7  337.23   18.21
   4  -9   7  316.51   16.62
   4   9  -7  322.28   16.30
  -4  -9  -7  335.83   16.10
   4   9   7  368.88   18.19
  -4   9  -7  359.32   16.98
  -5  -9  -7   51.22    6.09
   5   9  -7   52.10    7.35
   5   9  -7   52.32    6.41
   5   9   7   62.06    7.32
  -5   9  -7   61.73    6.56
   6   9  -7  268.55   15.17
   6   9  -7  258.17   13.39
  -6  -9  -7  258.24   13.01
   6   9   7  243.15   12.99
  -6   9  -7  254.82   15.96
   6   9   7  259.17   14.85
  -7  -9  -7    3.35    2.22
   7   9  -7    1.36    2.52
   7   9  -7    2.58    2.29
   7   9   7    3.97    2.31
   7   9   7    6.67    3.02
   8   9  -7  127.44    7.10
  -8  -9  -7  126.17    6.93
   8   9  -7  126.85    7.89
   8   9   7  131.38    8.32
   0 -10   7  325.48   15.93
   0  10  -7  320.26   16.71
   0 -10  -7  329.00   15.71
   0  10   7  332.22   16.56
  -1  10   7  165.43   10.83
   1 -10   7  182.90   10.72
   1  10  -7  171.29   11.37
  -1  10  -7  164.45   10.83
   1  10   7  170.22   10.91
   1 -10  -7  158.16   10.24
  -1 -10   7  164.30   10.16
  -2  10   7 1728.24   63.23
  -2 -10  -7 1725.45   61.83
   2  10  -7 1713.65   64.40
   2 -10   7 1689.94   63.00
   2  10  -7 1779.56   62.13
  -2  10  -7 1728.34   63.41
   2  10   7 1755.99   63.82
  -2 -10   7 1785.29   62.78
   3  10  -7  114.56    8.28
  -3  10   7  114.68    9.13
  -3 -10  -7  110.55    7.98
   3  10  -7  110.27    9.69
   3 -10   7  111.04    8.62
   3  10   7  113.45    9.34
  -3  10  -7  102.54    8.64
  -3 -10   7  104.47    7.91
   4  10  -7  247.68   13.50
   4 -10   7  239.69   13.58
   4  10  -7  244.21   15.15
  -4 -10  -7  250.73   13.23
  -4  10  -7  258.24   14.02
   4  10   7  271.37   15.13
   5  10  -7   82.37    8.42
  -5 -10  -7   83.72    6.93
   5  10  -7   93.07    7.39
   5  10   7   86.17    8.17
   6  10  -7  771.40   31.62
   6  10  -7  756.62   29.86
  -6 -10  -7  758.19   29.77
   6  10   7  755.48   31.52
   7  10  -7   21.82    3.65
  -7  10   7   25.19    4.12
   7  10  -7   22.86    4.20
  -7 -10  -7   27.29    3.84
   7  10   7   30.94    4.87
   0  11  -7  357.72   18.34
   0 -11   7  360.69   17.65
   0  11   7  368.46   18.05
  -1  11   7   87.13    8.24
   1  11  -7   83.87    8.40
   1 -11   7   88.84    7.78
  -1  11  -7   93.21    8.29
  -1 -11   7   95.28    7.78
   1  11   7   93.21    8.40
   2 -11   7   65.77    6.90
  -2 -11  -7   63.83    6.15
   2  11  -7   63.23    7.88
  -2  11   7   60.60    7.06
  -2  11  -7   50.99    6.88
   2  11   7   53.07    6.93
  -2 -11   7   51.78    6.39
   3 -11   7  225.80   13.33
   3  11  -7  220.22   14.17
   3  11  -7  239.67   12.69
  -3 -11  -7  257.07   12.97
  -3  11   7  255.38   14.08
  -3  11  -7  241.96   13.70
  -3 -11   7  239.11   12.74
   3  11   7  244.42   14.25
   4  11  -7   43.39    5.55
   4 -11   7   49.97    6.24
  -4  11   7   49.58    6.43
   4  11  -7   57.16    7.68
  -4 -11  -7   49.32    5.86
   4  11   7   41.47    6.19
  -5 -11  -7   80.47    6.74
   5  11  -7   92.30    7.12
   5  11  -7   80.88    8.22
  -5  11   7   90.59    8.05
   5  11   7   89.93    7.88
   6  11  -7    6.85    2.65
   6  11  -7    5.76    2.83
  -6 -11  -7    5.04    2.39
  -6  11   7    8.35    3.23
   6  11   7    6.67    3.04
   7  11  -7   31.86    3.81
  -7 -11  -7   25.94    3.41
  -7  11   7   20.23    3.69
   7  11  -7   27.90    4.11
   7  11   7   21.42    3.70
   0  12   7  479.54   22.12
   0 -12   7  501.33   22.22
   0  12  -7  475.08   22.32
   1 -12   7  472.31   21.19
  -1  12   7  454.46   20.91
   1  12  -7  446.00   21.39
   1  12   7  448.70   21.10
  -1  12  -7  435.59   20.99
  -1 -12   7  442.62   20.71
   2  12  -7  682.32   29.65
   2 -12   7  738.87   29.37
  -2 -12  -7  707.40   27.67
  -2  12   7  721.63   29.18
  -2 -12   7  674.88   28.37
   2  12   7  662.58   29.07
  -2  12  -7  653.23   28.58
  -3 -12  -7   38.59    5.31
   3 -12   7   38.84    5.68
  -3  12   7   37.64    5.68
   3  12  -7   40.62    6.50
   3  12  -7   44.30    5.49
   3  12   7   47.21    6.44
  -3 -12   7   52.89    6.06
   4 -12   7  222.47   12.28
   4  12  -7  231.04   11.98
  -4 -12  -7  231.68   12.17
  -4  12   7  240.58   13.14
   4  12  -7  238.40   13.62
   4  12   7  232.20   13.27
  -5 -12  -7   52.05    5.16
  -5  12   7   60.94    6.18
   5  12  -7   53.41    6.05
   5  12  -7   54.20    5.31
   5  12   7   58.90    6.34
  -6 -12  -7  360.32   15.41
  -6  12   7  373.39   16.09
   6  12  -7  357.22   15.26
   6  12  -7  360.23   16.15
   6  12   7  369.90   16.30
   0  13   7  165.41   10.98
   0 -13   7  170.64   10.92
   0  13  -7  167.55   11.04
   1  13  -7   89.47    8.20
  -1  13   7   90.95    7.95
   1 -13   7   86.47    7.69
   1  13   7   93.99    8.14
  -1  13  -7   90.27    8.04
  -1 -13   7   95.75    7.84
   2 -13   7   53.05    6.71
  -2  13   7   43.82    5.91
   2  13  -7   48.88    6.60
  -2 -13   7   47.44    5.81
   2  13   7   52.06    6.53
  -3 -13  -7   39.35    4.88
  -3  13   7   41.02    5.56
   3  13  -7   31.67    5.29
   3 -13   7   39.26    5.17
   3  13   7   39.81    5.48
  -4 -13  -7  198.11   10.27
  -4  13   7  209.80   11.20
   4  13  -7  190.78    9.94
   4  13  -7  190.87   11.24
   4 -13   7  194.56   10.44
   4  13   7  192.34   10.99
  -5 -13  -7  141.26    7.69
   5  13  -7  134.97    8.30
   5  13  -7  130.40    7.39
  -5  13   7  134.47    8.42
   5  13   7  123.45    8.06
   0 -14   7   19.21    4.04
   0  14   7   22.83    4.27
   1  14  -7  128.87    8.89
   1 -14   7  135.59    9.18
  -1  14   7  135.36    9.13
   1  14   7  141.42    9.07
  -1 -14   7  146.12    9.13
  -2  14   7  317.05   14.85
   2  14  -7  300.46   14.80
   2 -14   7  308.73   14.79
   2  14   7  310.64   14.99
  -2 -14   7  295.97   14.26
  -3  14   7   66.50    5.87
   3 -14   7   57.59    5.38
   3  14  -7   60.38    5.88
   3  14   7   51.49    5.51
  -4  14   7   59.70    5.42
   4  14  -7   53.21    5.34
   4  14   7   58.67    5.52
   0  15   7    2.28    2.30
   0 -15   7   -0.69    2.19
  -1  15   7  173.13    9.46
   1 -15   7  156.05    9.57
   1  15   7  188.22    9.81
  -1 -15   7  183.33    9.60
   2 -15   7  158.14    9.02
  -2  15   7  164.98    9.00
   2  15   7  173.91    9.15
   0   0   8 7864.01  258.47
   0   0  -8 7825.56  260.42
  -1   0   8 3011.25   97.71
   1   0   8 2945.59   97.70
   1   0  -8 2848.66   99.81
  -1   0  -8 2887.75   99.22
   2   0  -8  144.59    8.63
  -2   0   8  148.32    7.08
  -2   0  -8  149.70    8.14
  -2   0   8  151.61    6.45
   3   0  -8  125.31    8.19
  -3   0  -8  126.85    7.49
  -3   0   8  125.14    6.68
  -3   0   8  123.93    6.66
  -4   0  -8  150.77    8.84
   4   0  -8  152.06    9.70
  -5   0  -8    4.66    2.39
  -6   0  -8  923.05   38.77
   6   0   8  915.07   35.68
   6   0   8  886.26   35.13
   7   0   8    4.69    2.73
   7   0   8    3.10    2.38
   8   0   8  105.82    8.46
   8   0   8   99.92   12.62
 -10   0  -8  167.01    8.50
   0   1  -8  208.78   10.37
   0  -1  -8  203.02   10.14
   0   1   8  214.16    8.82
   0  -1   8  208.01    8.79
  -1  -1  -8  457.73   18.18
   1  -1   8  443.99   16.72
  -1   1   8  450.44   16.60
   1   1  -8  433.69   18.54
  -1  -1   8  444.92   16.52
   1   1   8  440.39   16.37
  -1   1  -8  440.92   17.94
  -1   1  -8  417.48   15.92
   1  -1  -8  449.96   18.49
   2   1  -8 1530.21   55.26
  -2  -1  -8 1545.81   54.46
  -2   1   8 1388.35   51.88
  -2   1  -8 1533.27   52.99
  -2  -1   8 1597.18   52.62
  -2   1  -8 1575.80   54.01
   2  -1  -8 1567.67   55.05
  -3   1   8  860.86   32.26
   3   1  -8  875.92   34.83
  -3  -1  -8  894.42   33.92
  -3   1  -8  921.92   33.37
  -3   1  -8  899.47   33.04
   3  -1  -8  906.41   34.29
  -3  -1   8  899.77   31.93
   4   1  -8  394.28   18.78
  -4  -1  -8  395.14   17.88
  -4   1  -8  393.94   17.92
   4  -1  -8  405.80   18.11
  -4  -1   8  372.43   15.80
  -5   1  -8   26.51    4.82
   6  -1   8  291.52   15.05
   6  -1   8  291.84   14.95
  -6  -1  -8  315.75   18.27
   6   1   8  313.81   15.40
   6   1   8  283.94   14.40
  -6   1  -8  310.22   18.24
   7  -1   8   15.69    3.98
   7  -1   8   13.67    3.70
   7   1   8   14.45    3.88
   8  -1   8  334.35   16.76
   8   1   8  349.28   17.49
 -10   1  -8   80.38    7.12
   0  -2   8  310.31   12.53
   0   2   8  326.03   12.41
   0   2  -8  311.05   14.15
   0   2  -8  334.03   11.89
   0  -2  -8  324.56   14.11
   0   2   8  312.42   11.80
   1   2  -8  441.72   18.61
  -1  -2  -8  462.82   18.36
  -1   2   8  452.83   16.59
  -1   2   8  455.38   15.76
   1   2   8  412.84   16.04
  -1   2  -8  404.54   16.09
  -1   2  -8  423.70   17.78
   1  -2  -8  444.26   18.28
  -1  -2   8  423.38   16.29
   2   2  -8  236.35   11.98
  -2  -2  -8  239.55   11.56
  -2   2   8  214.71    9.36
   2  -2  -8  210.01   11.25
  -2  -2   8  223.47    9.47
  -2   2  -8  222.51   10.61
  -2   2  -8  213.10   10.01
   3   2  -8  343.32   17.16
  -3   2   8  339.21   14.96
  -3  -2  -8  342.48   16.39
   3  -2  -8  380.22   16.54
  -3   2  -8  382.98   16.03
  -3  -2   8  381.66   14.40
  -4  -2  -8  218.19   12.24
   4   2  -8  227.10   13.20
  -4  -2   8  209.71    9.81
  -4   2  -8  227.58   12.20
   5  -2   8  650.03   29.24
  -5  -2  -8  709.02   35.73
  -5   2  -8  664.80   28.93
  -5  -2   8  648.56   29.39
   6  -2   8  328.32   15.89
   6  -2   8  327.31   16.14
   6   2   8  309.04   16.01
   7  -2   8  281.02   15.46
   7   2   8  304.01   15.85
   8  -2   8   52.85    6.66
   8   2   8   71.44    7.12
  -9   2  -8  214.61   11.32
   0   3  -8  136.32    6.41
   0  -3  -8  124.57    7.57
   0   3  -8  119.49    7.50
   0   3   8  124.04    6.03
   0   3   8  124.33    6.08
   0  -3   8  126.92    6.35
  -1   3   8  312.57   13.76
  -1  -3  -8  316.55   15.57
   1   3  -8  294.35   15.58
  -1   3  -8  392.98   15.66
  -1   3  -8  384.55   14.36
  -1  -3   8  397.71   14.17
   1   3   8  384.88   13.73
   1  -3  -8  397.75   16.18
   2   3  -8  866.03   34.49
  -2  -3  -8  880.72   33.92
  -2   3   8  865.82   31.70
  -2   3  -8  903.54   32.48
  -2  -3   8  894.25   31.21
   2   3   8  877.92   30.91
   2  -3  -8  888.56   33.78
  -2   3  -8  892.86   32.47
  -3   3   8 1693.07   60.25
  -3  -3  -8 1764.84   62.49
  -3  -3   8 1692.78   58.74
  -3   3  -8 1702.08   61.00
   3  -3  -8 1763.07   61.29
  -4  -3  -8  289.89   15.45
   4   3  -8  283.99   16.13
  -4   3  -8  307.06   15.06
  -5  -3  -8 1199.45   47.37
  -5   3  -8 1214.25   47.18
   5   3   8 1249.80   44.16
   5   3   8 1183.53   44.78
  -5  -3   8 1187.15   48.30
   6   3  -8  144.33    9.33
   6  -3   8  154.59   10.10
   6   3  -8  151.42    9.01
   6   3   8  136.10    9.55
   6   3   8  140.66    8.98
   7   3  -8   57.79    6.09
   7  -3   8   50.98    6.69
   7   3   8   59.32    6.51
   8  -3   8   41.40    5.92
   8   3   8   42.83    6.18
  -9   3  -8  760.55   29.27
   9   3   8  752.37   30.32
   0   4   8    7.68    1.62
   0  -4  -8    6.64    2.21
   0   4   8    7.73    1.95
   0   4  -8    6.27    2.23
  -1  -4  -8    1.12    1.52
  -1   4   8    3.23    1.57
   1   4  -8    3.71    1.57
   1   4  -8    1.92    1.75
   1   4   8    1.22    1.00
   1   4   8    1.78    1.33
   1  -4  -8    1.18    1.54
  -1  -4   8    1.15    1.17
  -1   4  -8    7.54    1.98
  -1   4  -8    6.85    2.09
   2   4  -8   28.24    4.71
  -2   4   8   27.74    3.34
  -2  -4  -8   31.71    4.21
  -2  -4   8   23.52    2.60
  -2   4  -8   22.99    3.29
   2  -4  -8   24.74    4.05
  -3  -4  -8  398.31   18.82
  -3   4   8  377.87   16.95
   3   4  -8  389.78   19.44
  -3   4  -8  413.99   17.99
  -4  -4  -8   16.93    4.09
  -4   4  -8   14.49    3.50
   5   4  -8   73.43    6.65
  -5  -4  -8   65.87    7.43
   5  -4   8   61.81    5.84
   5   4  -8   63.25    5.65
  -5  -4  -8   60.08    5.08
  -5  -4   8   67.65    7.95
  -5   4  -8   59.25    6.91
   5   4   8   64.58    6.14
   5   4   8   60.19    5.49
   6  -4   8   40.59    5.89
   6   4  -8   34.29    5.22
   6   4  -8   39.70    5.02
  -6  -4  -8   42.83    4.96
   6   4   8   49.16    5.76
   6   4   8   45.00    5.58
   7   4  -8   50.55    6.37
   7  -4   8   45.05    6.48
   7   4  -8   50.52    7.01
   7   4   8   40.08    6.22
   8  -4   8   65.42    6.64
   8   4  -8   64.88    6.15
  -8   4  -8   61.40    6.25
   8   4   8   67.30    6.99
  -9   4  -8  207.72   10.49
   9   4   8  202.07   11.48
   0   5   8    4.83    1.97
   0   5   8    4.07    1.40
   0   5  -8    2.94    1.94
   0  -5  -8    5.29    2.24
   1   5  -8 2144.96   78.13
  -1  -5  -8 2207.76   77.92
   1   5  -8 2267.76   76.53
  -1   5   8 2137.30   76.09
   1  -5  -8 2201.05   77.34
  -1   5  -8 2212.35   76.56
   1   5   8 2169.94   76.27
  -1   5  -8 2272.69   76.39
  -2  -5  -8  280.29   14.58
  -2   5   8  280.64   13.17
   2   5  -8  263.74   14.78
   2  -5  -8  276.23   13.87
  -2   5  -8  270.70   13.10
  -3  -5  -8  569.29   25.49
  -3   5   8  571.09   23.75
  -3   5  -8  568.29   24.09
   4   5  -8  175.13   10.89
  -4  -5  -8  180.46   12.17
   4   5   8  164.71   13.87
  -4   5  -8  179.75   11.40
  -4   5  -8  158.88   11.52
  -4  -5   8  166.37   12.39
  -5  -5  -8 1104.83   47.22
   5   5  -8 1154.53   44.35
   5  -5   8 1167.99   43.93
  -5  -5  -8 1149.97   42.31
   5   5  -8 1141.85   42.94
   5   5   8 1177.47   44.25
   5   5   8 1177.77   42.91
  -5  -5   8 1160.58   48.59
  -5   5  -8 1201.88   43.30
  -5   5  -8 1161.43   46.54
   6  -5   8  302.62   15.51
   6   5  -8  281.61   14.27
   6   5  -8  297.20   15.65
  -6  -5  -8  290.15   13.66
  -6   5  -8  286.84   14.58
   6   5   8  276.51   15.38
   6   5   8  275.55   14.21
   7   5  -8  101.17    8.74
   7  -5   8  113.46    9.19
   7   5  -8  110.96    8.22
   7   5   8  136.66    8.89
  -7   5  -8  137.55    9.01
   7   5   8  139.18   10.18
   8   5  -8   33.34    4.95
   8   5   8   35.80    5.63
  -8   5  -8   35.58    4.93
   9   5   8  556.96   22.93
  -9   5  -8  528.74   21.29
   0  -6  -8  342.86   16.62
   0   6   8  322.50   13.52
   0   6  -8  330.84   16.26
   0   6  -8  364.81   15.98
   0   6   8  331.25   15.46
  -1   6   8  126.16    8.24
   1   6  -8  116.74    8.93
   1   6  -8  129.26    8.39
  -1  -6  -8  125.16    8.99
  -1   6  -8  128.68    8.16
   1  -6  -8  130.51    8.69
   1   6   8  128.34    8.35
  -2  -6  -8  465.94   22.10
  -2   6   8  467.53   20.69
  -2   6  -8  492.83   20.97
  -3   6   8   23.86    4.43
  -3  -6  -8   20.02    4.66
  -3  -6   8   15.47    4.41
  -3   6  -8   15.53    3.69
   4   6  -8 1263.54   46.03
   4  -6   8 1232.72   46.40
  -4  -6  -8 1223.96   50.41
   4   6  -8 1296.05   47.98
  -4   6  -8 1275.84   49.05
  -4  -6   8 1263.06   51.74
   4   6   8 1300.20   47.26
  -4   6  -8 1241.40   46.06
   5   6  -8  178.33   10.45
   5   6  -8  182.50   11.67
  -5  -6  -8  186.58   10.01
   5  -6   8  184.06   10.91
   5   6   8  163.27   10.76
   5   6   8  163.29    9.82
  -5   6  -8  165.28   10.10
   6   6  -8  367.94   17.13
   6  -6   8  354.57   17.79
  -6  -6  -8  344.25   16.15
   6   6  -8  350.21   18.26
  -6   6  -8  370.12   17.12
   6   6   8  366.71   16.83
   6   6   8  341.76   18.03
   7  -6   8   45.08    6.30
   7   6  -8   45.08    5.80
   7   6  -8   59.08    6.59
  -7  -6  -8   43.16    5.31
   7   6   8   51.36    6.92
  -7   6  -8   46.81    5.83
   7   6   8   52.37    5.57
   8   6  -8  160.58   10.89
   8   6  -8  171.59    9.85
  -8   6  -8  131.72    8.62
   8   6   8  138.92    9.91
   9   6   8  154.96    9.26
   0  -7   8  208.90   12.26
   0  -7  -8  215.08   12.72
   0   7   8  212.57   12.01
   0   7  -8  207.78   11.82
  -1   7   8  549.77   24.24
  -1  -7  -8  538.24   25.28
   1   7  -8  563.53   24.59
   1   7   8  591.56   24.89
  -1   7  -8  585.69   24.59
  -1  -7   8  587.36   26.04
  -2   7   8  158.90   10.72
  -2  -7  -8  164.52   11.60
   2   7  -8  162.10   11.48
  -2  -7   8  177.50   12.28
  -2   7  -8  169.79   10.78
  -3  -7  -8  419.57   21.66
   3   7  -8  465.95   20.30
   3   7  -8  437.45   18.09
  -3   7   8  459.98   22.81
  -3   7  -8  378.61   19.77
  -3   7  -8  380.95   17.93
   3   7   8  396.27   18.54
  -3  -7   8  390.95   21.98
   4  -7   8  186.88   10.91
   4   7  -8  208.42   11.14
   4   7  -8  193.14   12.30
  -4   7  -8  188.24   12.89
  -4   7  -8  187.58   10.84
   4   7   8  208.64   11.98
   5  -7   8  959.03   38.26
   5   7  -8  973.45   37.79
   5   7  -8  965.06   39.61
  -5  -7  -8  965.49   37.19
   5   7   8  978.26   37.19
  -5   7  -8 1034.64   38.11
   5   7   8 1003.05   39.36
  -6  -7  -8    2.33    1.98
   6   7  -8    1.67    2.52
   6   7  -8    2.79    2.88
   6  -7   8    6.37    3.04
   6   7   8    1.00    2.17
  -6   7  -8    1.46    2.25
   6   7   8    2.08    2.63
   7   7  -8   98.08    7.36
   7   7  -8   97.23    8.24
  -7  -7  -8   97.01    7.05
   7   7   8  101.00    8.55
  -7   7  -8   90.21    7.26
   7   7   8   82.03    6.87
   8   7  -8  104.28    7.54
   8   7  -8   94.25    6.82
   8   7   8  108.89    8.18
  -8   7  -8  101.19    7.04
   0  -8  -8  572.68   26.17
   0  -8   8  570.78   22.91
   0   8   8  565.60   25.40
   0   8  -8  561.26   24.99
   0   8  -8  573.51   24.17
   0   8   8  568.08   23.48
   1  -8   8   81.65    6.27
  -1   8   8  101.47    7.09
   1   8  -8   83.06    7.63
  -1  -8  -8   81.17    8.03
   1   8  -8   72.89    6.89
  -1   8   8   82.32    7.68
   1   8   8   68.41    7.29
  -1   8  -8   65.52    6.29
  -1   8  -8   72.03    7.21
   1   8   8   66.78    6.27
  -1  -8   8   67.03    7.51
   2   8  -8  100.71    8.25
  -2   8   8   90.30    8.44
  -2   8   8   90.32    6.76
   2  -8   8   80.95    6.45
   2   8  -8   89.11    6.69
  -2  -8  -8   89.96    6.32
  -2  -8  -8   87.41    8.86
  -2  -8   8   72.12    8.34
  -2   8  -8   78.29    6.66
   2   8   8   75.34    6.84
  -2   8  -8   71.64    7.51
   3  -8   8  173.34   10.13
   3   8  -8  174.32   11.67
  -3  -8  -8  164.75    9.43
   3   8  -8  182.20   10.11
  -3  -8   8  173.26   16.25
  -3   8  -8  151.74   10.04
  -3   8  -8  155.00   11.63
   3   8   8  159.96   10.40
   4   8  -8 2101.61   75.47
   4   8  -8 2137.11   77.89
  -4  -8  -8 2133.80   75.13
   4  -8   8 2073.59   75.49
  -4   8  -8 2157.36   75.99
   4   8   8 2220.72   77.32
   5   8  -8  203.62   11.65
   5   8  -8  210.86   13.42
   5  -8   8  204.17   11.74
  -5  -8  -8  213.12   11.27
  -5   8  -8  160.58   10.88
   5   8   8  178.57   12.18
   6   8  -8   77.39    6.95
   6   8  -8   77.54    8.11
  -6  -8  -8   67.19    6.02
   6  -8   8   76.14    6.80
   6   8   8   55.74    5.78
  -6   8  -8   53.54    6.19
   6   8   8   57.94    6.97
  -7  -8  -8   47.36    5.47
   7   8  -8   49.12    6.38
   7   8   8   57.93    5.48
   7   8   8   57.58    6.39
  -7   8  -8   56.27    5.73
   8   8  -8  452.01   18.27
   8   8  -8  444.73   19.16
  -8  -8  -8  461.13   18.14
   8   8   8  448.05   19.91
   0   9  -8  196.33   11.76
   0  -9   8  195.92   10.89
   0   9  -8  189.31   13.64
   0   9   8  185.48   12.97
   0   9   8  202.28   11.56
  -1  -9  -8  147.50    8.58
  -1   9   8  151.34    9.68
   1   9  -8  160.36   10.55
  -1  -9  -8  153.48   11.90
   1  -9   8  146.63    9.08
  -1   9   8  138.93   10.98
  -1  -9   8  138.61    8.84
   1   9   8  145.46    9.67
  -1   9  -8  131.12   10.41
   1   9   8  134.80   11.04
  -1   9  -8  141.22    9.74
   2   9  -8   69.26    6.23
  -2   9   8   72.06    6.93
   2  -9   8   67.75    6.27
  -2  -9  -8   73.19    6.03
   2   9  -8   68.09    7.42
  -2  -9   8   71.54    6.11
  -2   9  -8   71.94    7.00
   2   9   8   75.32    6.95
  -3   9   8  110.92    8.27
  -3  -9  -8  116.95    7.86
   3  -9   8  104.00    8.05
   3   9  -8  107.25    9.38
   3   9  -8  113.32    8.01
  -3  -9   8  104.97    7.51
  -3   9  -8  101.46    8.31
   3   9   8  104.74    8.65
   4   9  -8  421.73   19.17
   4   9  -8  430.29   21.24
  -4  -9  -8  401.57   18.62
  -4   9  -8  415.30   19.44
   4   9   8  422.42   20.52
   5   9  -8  103.21    8.07
   5   9  -8  100.66    9.49
  -5  -9  -8   92.15    7.33
   5   9   8  123.59    9.63
  -5   9  -8   96.17    8.14
  -6  -9  -8  175.75   10.42
   6   9  -8  206.93   12.73
   6   9  -8  199.99   11.12
   6   9   8  178.83   11.97
  -6   9  -8  182.23   10.90
   7   9  -8  125.23    8.91
  -7  -9  -8  117.38    7.54
   7   9  -8  122.06    7.90
   7   9   8  128.79    9.09
  -8   9   8   40.40    4.41
   8   9  -8   36.90    4.01
   8   9  -8   38.53    4.51
   8   9   8   42.75    4.86
   0 -10   8 1833.38   66.21
   0  10   8 1820.16   66.62
   0  10  -8 1891.70   67.68
   1 -10   8   75.18    6.80
   1  10  -8   71.36    7.71
  -1  10   8   69.30    7.23
  -1 -10  -8   64.56    6.18
  -1 -10   8   79.68    6.94
   1  10   8   71.21    7.23
  -1  10  -8   89.39    7.81
   2  10  -8   88.63    8.55
  -2 -10  -8   68.54    6.43
   2  10  -8   80.37    6.85
   2 -10   8   71.25    7.01
  -2  10   8   84.94    7.71
  -2 -10   8   70.43    6.67
   2  10   8   75.19    7.69
  -2  10  -8   71.30    7.42
  -3 -10  -8  221.97   12.09
  -3  10   8  237.76   13.46
   3  10  -8  248.38   12.75
   3 -10   8  227.44   12.82
   3  10  -8  230.71   14.25
   3  10   8  206.66   13.32
  -3  10  -8  211.04   12.88
  -3 -10   8  230.61   12.29
  -4  10   8 1018.46   38.66
   4  10  -8 1003.35   37.81
  -4 -10  -8  990.26   37.50
   4  10  -8  966.75   39.96
   4 -10   8  987.75   38.11
   4  10   8  965.87   39.37
  -4  10  -8  912.98   38.01
  -5  10   8   32.70    5.18
  -5 -10  -8   32.58    4.99
   5  10  -8   37.31    5.21
   5  10  -8   33.85    5.91
  -5  10  -8   44.70    5.97
   5  10   8   45.15    6.35
  -6 -10  -8  189.67   10.45
   6  10  -8  195.38   10.57
   6  10  -8  183.48   11.69
  -6  10   8  194.01   11.07
   6  10   8  178.60   11.55
   7  10  -8   92.31    6.37
  -7  10   8   81.63    6.78
  -7 -10  -8   87.74    6.15
   7  10  -8   94.05    7.20
   7  10   8   95.14    7.41
   0  11  -8  144.85   10.66
   0 -11   8  144.23    9.86
   0  11   8  147.79   10.29
   1  11  -8  159.67   11.69
  -1  11   8  162.13   11.34
   1 -11   8  179.89   11.38
  -1 -11   8  193.87   11.40
  -1  11  -8  203.77   12.22
   1  11   8  187.01   11.97
   2 -11   8   37.10    5.64
  -2  11   8   43.81    6.09
  -2 -11  -8   47.47    5.68
   2  11  -8   52.92    7.31
  -2 -11   8   37.22    5.41
  -2  11  -8   44.56    6.39
   2  11   8   42.74    6.61
   3 -11   8   29.49    5.16
  -3  11   8   28.47    5.14
   3  11  -8   25.98    5.39
   3  11  -8   38.36    5.27
  -3 -11  -8   31.00    4.89
  -3  11  -8   39.24    6.07
   3  11   8   39.44    6.34
  -3 -11   8   31.46    4.76
   4 -11   8   29.69    4.72
  -4 -11  -8   39.40    5.21
   4  11  -8   29.64    5.69
  -4  11   8   39.08    5.85
   4  11  -8   31.36    4.84
   4  11   8   42.97    6.13
  -4  11  -8   43.63    6.01
   5  11  -8  206.50   12.85
   5  11  -8  211.10   11.28
  -5 -11  -8  227.95   11.66
  -5  11   8  204.67   12.16
   5  11   8  202.18   12.50
  -6 -11  -8  103.65    6.88
   6  11  -8  100.65    7.73
  -6  11   8  102.89    7.68
   6  11  -8   99.38    7.04
   6  11   8   98.33    8.03
  -7  11   8  155.69    8.29
   7  11  -8  151.77    8.42
   7  11  -8  147.01    7.73
  -7 -11  -8  141.09    7.62
   7  11   8  140.59    8.52
   0  12   8  338.95   17.28
   0 -12   8  349.00   17.27
   0  12  -8  342.70   17.63
  -1  12   8  132.25    9.91
   1  12  -8  126.75   10.16
   1 -12   8  124.11    9.42
  -1 -12   8  149.94    9.88
  -1  12  -8  140.96   10.28
   1  12   8  145.38   10.27
  -2  12   8    8.18    3.49
   2  12  -8    8.87    3.65
  -2 -12  -8   12.62    3.46
   2 -12   8    7.32    3.16
  -2  12  -8    8.03    3.64
   2  12   8    7.78    3.25
  -2 -12   8   11.11    3.46
   3  12  -8   10.14    3.08
   3  12  -8    8.51    3.73
   3 -12   8    9.26    3.33
  -3  12   8    8.65    3.63
  -3 -12  -8   10.11    2.86
   3  12   8   -0.75    2.64
  -3  12  -8    3.01    3.04
  -3 -12   8    6.71    2.94
   4 -12   8  620.32   25.53
   4  12  -8  612.42   25.00
  -4 -12  -8  625.41   25.37
   4  12  -8  624.16   26.93
  -4  12   8  652.59   26.42
   4  12   8  633.93   26.78
   5  12  -8   29.31    4.15
  -5  12   8   22.38    4.21
  -5 -12  -8   28.30    4.06
   5  12  -8   29.41    4.90
   5  12   8   19.69    4.19
   6  12  -8   35.04    4.65
  -6 -12  -8   33.65    4.00
  -6  12   8   30.48    4.38
   6  12  -8   33.46    4.01
   6  12   8   40.72    4.81
   0  13   8   38.73    5.84
   0  13  -8   30.81    5.49
   0 -13   8   36.06    5.42
  -1  13   8  168.83   10.89
   1 -13   8  176.76   10.99
   1  13  -8  180.92   11.51
   1  13   8  188.19   11.41
  -1 -13   8  183.42   11.01
  -1  13  -8  172.09   11.16
  -2  13   8  317.28   15.77
   2  13  -8  322.91   16.28
   2 -13   8  316.53   15.87
  -2 -13   8  323.86   15.46
   2  13   8  306.16   15.89
  -2  13  -8  321.04   18.35
  -3  13   8   91.92    7.70
   3 -13   8   82.93    6.80
  -3 -13  -8   89.84    6.60
   3  13  -8   84.01    7.69
   3  13   8  101.47    7.83
  -4 -13  -8   50.31    4.78
   4  13  -8   41.48    5.52
   4 -13   8   44.32    5.04
  -4  13   8   51.82    5.85
   4  13  -8   48.43    4.83
   4  13   8   47.73    5.60
  -5 -13  -8  166.37    8.76
   5  13  -8  180.50    9.61
  -5  13   8  176.46    9.74
   5  13  -8  173.86    8.63
   5  13   8  167.86    9.49
   0  14  -8  288.76   14.59
   0 -14   8  302.64   14.86
   0  14   8  322.07   15.16
   1  14  -8  104.85    7.86
   1 -14   8  101.36    7.82
  -1  14   8  102.37    7.88
   1  14   8  103.17    7.73
  -1 -14   8  110.34    7.75
   2 -14   8   65.77    6.18
  -2  14   8   73.35    6.43
   2  14  -8   60.81    6.13
  -2 -14   8   62.96    5.74
   2  14   8   62.12    6.36
  -3  14   8   75.29    6.41
   3 -14   8   73.77    5.75
   3  14  -8   72.22    6.34
   3  14   8   64.99    6.04
   4  14  -8   33.61    4.38
  -4  14   8   45.59    4.76
   4  14   8   29.80    4.29
   0 -15   8   11.35    3.09
   0  15   8   10.81    2.99
  -1  15   8   17.07    3.57
   1 -15   8   26.31    4.23
  -1 -15   8   18.75    3.51
   1  15   8   19.10    3.60
  -2  15   8   59.33    5.39
   2 -15   8   57.47    5.17
   2  15   8   66.12    5.42
   0   0   9    2.07    1.18
   0   0  -9    0.48    1.21
  -1   0   9  757.06   26.96
   1   0  -9  770.97   29.39
  -1   0  -9  724.70   25.89
  -1   0  -9  760.24   28.76
   1   0   9  751.36   26.96
  -2   0   9  330.79   13.26
   2   0  -9  326.35   15.41
  -2   0  -9  319.96   14.54
   3   0  -9  811.47   32.25
  -3   0  -9  814.22   31.15
  -3   0   9  805.57   29.62
  -4   0   9   16.03    2.93
  -4   0  -9   14.45    3.42
   4   0  -9   17.18    3.81
  -5   0   9   35.92    4.30
  -5   0  -9   35.43    5.07
   6   0   9  113.15    8.16
   6   0   9  108.77    8.06
   7   0   9  635.19   27.00
   7   0   9  615.76   26.45
   8   0   9  383.11   18.30
   8   0   9  359.83   17.49
   0  -1   9   11.83    1.95
   0  -1  -9   16.07    3.09
   0   1   9   18.07    2.19
  -1  -1  -9  256.45   11.89
   1   1  -9  234.57   12.10
  -1   1   9  255.68   10.33
   1  -1   9  245.97   10.38
   1   1   9  260.25   10.17
  -1   1  -9  222.67    9.29
  -1  -1   9  233.15   10.07
  -1   1  -9  232.78   11.58
   1  -1  -9  238.78   12.10
  -2  -1  -9  734.66   28.19
  -2   1   9  709.72   26.38
   2   1  -9  706.36   28.87
   2  -1  -9  707.65   28.62
  -2   1  -9  723.61   27.77
  -2   1  -9  731.39   26.46
  -2  -1   9  739.13   26.23
   3   1  -9  116.13    8.72
  -3  -1  -9  114.50    8.00
  -3  -1   9  140.80    7.02
  -3   1  -9  141.05    7.78
  -3   1  -9  134.84    7.89
   3  -1  -9  139.48    8.90
  -4  -1  -9 1034.27   40.75
   4   1  -9 1033.12   42.02
   4  -1  -9 1098.78   41.47
  -4   1  -9 1106.91   40.78
  -4  -1   9 1095.19   38.73
  -5   1  -9  611.93   27.10
   6  -1   9   20.48    4.17
   6  -1   9   24.28    4.40
   6   1   9   31.92    4.68
   6   1   9   37.58    5.51
   7  -1   9  233.52   13.63
   7  -1   9  252.50   13.87
   7   1   9  259.60   14.19
   8  -1   9   24.41    4.52
   8   1   9   32.23    5.27
   0   2   9  458.78   16.88
   0   2  -9  444.38   18.93
   0  -2   9  448.39   17.03
   0  -2  -9  434.27   18.74
   1   2  -9 2806.56   99.21
  -1   2   9 2868.39   96.67
  -1  -2  -9 2852.68   98.82
  -1  -2   9 2971.94   96.64
   1   2   9 2872.94   96.33
   1  -2  -9 2947.30   99.13
  -1   2  -9 2773.82   95.99
  -1   2  -9 2941.61   98.67
   2   2  -9   27.87    4.55
  -2  -2  -9   21.34    3.72
  -2   2  -9   27.64    3.54
  -2  -2   9   29.68    2.83
   2  -2  -9   28.02    3.95
  -2   2  -9   27.16    3.01
   3   2  -9  622.21   26.32
  -3  -2  -9  655.76   25.76
  -3   2  -9  582.36   23.92
  -3  -2   9  595.32   22.69
   3  -2  -9  584.50   25.06
   4   2  -9  169.97   11.51
  -4  -2  -9  171.65   10.83
  -4  -2   9  185.25    8.77
  -4   2  -9  171.55   10.34
   5  -2   9   41.15    5.51
   5   2   9   56.90    5.18
  -5   2  -9   66.43    6.75
   5   2   9   61.33    5.66
   6  -2   9  245.57   13.03
   6  -2   9  232.75   13.14
   6   2   9  246.49   13.46
   7  -2   9  474.82   22.72
   7   2   9  531.87   23.24
   8  -2   9   19.07    4.06
   8   2   9   12.13    3.57
  -9   2  -9   21.75    3.74
   0   3  -9   55.45    5.14
   0  -3  -9   58.19    5.23
   0   3   9   59.17    3.89
   0   3   9   58.09    3.72
   0   3  -9   62.68    3.90
   0  -3   9   61.10    4.20
  -1   3   9  417.25   15.98
   1   3  -9  428.02   18.89
  -1   3   9  434.08   16.58
  -1  -3  -9  438.59   18.71
  -1   3  -9  420.83   16.34
   1   3   9  403.62   15.87
   1  -3  -9  416.15   18.50
  -1  -3   9  418.65   16.30
  -1   3  -9  422.70   17.99
  -2  -3  -9  630.95   26.31
   2   3  -9  620.92   26.84
   2   3   9  618.68   23.23
   2  -3  -9  660.88   26.48
  -2   3  -9  648.70   25.01
  -2   3  -9  647.90   24.49
  -2  -3   9  667.62   23.67
  -3  -3  -9 1210.11   45.67
   3  -3  -9 1197.12   44.77
  -3  -3   9 1208.41   42.07
  -3   3  -9 1191.11   43.99
  -4  -3  -9  228.47   13.50
   4   3  -9  214.81   13.96
  -4   3  -9  258.32   13.22
   5   3  -9   15.03    3.81
  -5  -3  -9   18.84    4.59
   5  -3   9   21.34    4.06
  -5  -3  -9   19.49    3.22
   5   3  -9   18.80    3.64
   5   3   9   15.02    3.13
  -5   3  -9   18.80    4.26
   5   3   9   18.03    3.76
  -5  -3   9   12.05    4.02
   6   3  -9   95.75    7.21
   6  -3   9  104.01    8.08
   6   3   9   88.85    7.59
   7  -3   9  410.65   19.83
   7   3   9  403.25   19.70
   8  -3   9   38.86    5.71
  -8   3  -9   58.62    6.06
   8   3   9   62.45    6.66
   9   3   9   13.18    3.28
  -9   3  -9   10.15    2.74
   0  -4  -9  655.32   26.68
   0   4   9  626.44   24.43
   0   4  -9  661.41   26.55
   0   4  -9  708.71   24.94
   0   4   9  650.06   24.08
   1   4  -9 1729.44   62.80
  -1   4   9 1683.25   59.75
  -1  -4  -9 1744.07   62.54
   1   4  -9 1787.40   62.68
  -1   4  -9 1714.73   61.33
  -1  -4   9 1770.96   59.64
   1  -4  -9 1753.74   62.25
   1   4   9 1656.11   58.87
  -1   4  -9 1783.14   60.21
  -2   4   9   33.22    4.57
  -2  -4  -9   33.53    4.60
   2   4  -9   26.33    4.75
  -2   4  -9   38.91    3.97
  -2  -4   9   45.09    3.53
   2  -4  -9   41.11    4.76
  -3  -4  -9  117.68    8.82
   3   4  -9  114.24    9.19
  -3   4  -9  109.82    7.66
  -4  -4  -9  320.78   17.49
  -4   4  -9  332.87   16.65
   5   4  -9  120.65    8.65
   5  -4   9  121.14    8.36
   5   4  -9  126.77    8.06
  -5  -4  -9  114.35    9.97
  -5  -4  -9  123.85    7.34
  -5  -4   9  111.75   10.45
  -5   4  -9  101.91    9.21
   5   4   9  115.50    8.40
   5   4   9  120.85    7.78
   6  -4   9  171.06   11.06
   6   4  -9  162.65   10.11
  -6  -4  -9  159.26    9.42
   6   4  -9  160.54   10.56
   6   4   9  196.26   10.56
   6   4   9  193.88   11.58
   7  -4   9  406.08   20.05
   7   4  -9  375.14   18.85
   7   4  -9  379.77   18.30
  -7   4  -9  458.07   19.67
   7   4   9  459.35   20.85
   8  -4   9   25.42    4.60
  -8   4  -9   15.37    3.71
   8   4   9   17.28    4.21
  -9   4  -9   49.67    4.99
   9   4   9   56.38    5.71
   0   5   9 1294.58   46.10
   0   5   9 1257.46   44.78
   0  -5  -9 1255.76   47.87
   0   5  -9 1334.27   46.32
   0   5  -9 1299.27   47.93
  -1  -5  -9  773.02   31.38
  -1   5   9  751.09   29.12
   1   5  -9  813.90   33.10
   1   5  -9  767.43   31.51
   1   5   9  763.85   29.38
  -1   5  -9  771.77   30.07
   1  -5  -9  778.83   31.01
  -1   5  -9  758.99   29.28
   2   5  -9  211.10   13.17
  -2   5   9  226.54   14.13
  -2  -5  -9  204.22   12.66
   2  -5  -9  243.58   12.83
  -2   5  -9  240.88   11.76
  -3  -5  -9  424.58   20.99
   3   5  -9  398.79   21.24
  -3   5  -9  451.22   19.53
  -4  -5  -9  997.69   36.02
   4   5  -9  985.68   37.96
   4  -5   9  951.88   36.71
  -4  -5  -9  979.71   40.80
   4   5  -9  950.85   36.38
  -4   5  -9  986.58   39.06
   4   5   9  971.24   37.11
  -4  -5   9 1001.82   41.73
  -4   5  -9  959.59   36.52
  -5  -5  -9  112.50    7.17
   5  -5   9  123.39    8.47
   5   5  -9  121.96    9.02
   5   5  -9  121.48    8.12
  -5   5  -9  101.72   14.16
   5   5   9   99.17    8.11
   5   5   9   93.29    7.02
  -5   5  -9   96.55    7.58
  -6  -5  -9  113.59    7.53
   6   5  -9  112.83    9.07
   6   5  -9  105.86    7.96
   6  -5   9  108.75    8.57
   6   5   9  105.06    8.63
   6   5   9  103.16    7.66
  -6   5  -9  105.44    8.10
   7   5  -9  209.04   12.67
   7   5  -9  216.81   11.95
   7  -5   9  220.92   13.02
  -7   5  -9  220.12   12.25
   7   5   9  224.37   13.49
   8   5  -9   60.03    5.74
  -8   5  -9   50.60    5.41
   8   5   9   50.49    6.06
  -9   5  -9    0.43    1.83
   9   5   9    1.78    2.44
   0  -6  -9  347.21   17.33
   0   6  -9  340.74   16.98
   0   6  -9  362.18   16.14
   0   6   9  359.39   16.15
   0   6   9  346.85   14.34
  -1   6   9  322.43   15.17
   1   6  -9  311.10   16.78
  -1  -6  -9  334.33   16.96
   1  -6  -9  318.33   16.34
  -1   6  -9  339.26   15.46
   1   6   9  333.61   15.59
   2   6  -9 3092.94  109.60
  -2  -6  -9 3161.37  109.06
  -2   6  -9 2996.91  106.36
  -3  -6  -9   28.78    5.62
  -3  -6  -9   37.00    4.74
   3   6  -9   36.07    5.66
  -3  -6   9   30.78    5.99
  -3   6  -9   28.59    4.87
  -3   6  -9   29.35    5.66
   4   6  -9  363.07   16.54
   4   6  -9  371.63   18.14
   4  -6   9  351.76   16.58
  -4  -6  -9  364.92   16.03
  -4  -6  -9  350.55   20.14
   4   6   9  370.78   17.36
  -4  -6   9  349.54   20.69
  -4   6  -9  389.18   16.88
  -4   6  -9  357.86   18.67
  -5  -6  -9  127.33    8.13
   5   6  -9  124.18    9.71
   5   6  -9  131.77    8.80
   5  -6   9  128.59    9.04
  -5   6  -9  129.90    8.78
   5   6   9  119.28    8.06
   5   6   9  130.01    9.35
   6   6  -9  152.19    9.84
  -6  -6  -9  147.07    9.17
   6   6  -9  160.01   11.15
   6  -6   9  155.88   10.45
   6   6   9  153.98   10.70
  -6   6  -9  154.60    9.86
   6   6   9  140.08    9.28
  -7  -6  -9   31.70    4.56
   7   6  -9   24.99    4.95
   7  -6   9   19.77    4.12
   7   6  -9   27.49    4.67
   7   6   9   26.75    5.02
  -7   6  -9   29.17    4.66
   8   6  -9  119.03    8.37
   8   6  -9  111.80    9.69
  -8   6  -9  146.63    8.57
   8   6   9  147.63    9.61
   9   6   9   26.33    4.24
   0   7  -9    8.77    3.97
   0  -7  -9    5.80    2.78
   0   7   9    8.23    2.92
  -1   7   9  939.44   36.61
  -1  -7  -9  966.37   38.72
  -1  -7   9  931.96   38.56
  -1   7  -9  927.96   36.70
   1   7   9  921.30   36.91
  -2  -7  -9  203.43   13.58
   2   7  -9  195.53   12.27
   2   7   9  221.88   12.18
  -2   7  -9  214.77   12.50
  -2   7  -9  223.73   11.82
  -2  -7   9  233.61   14.61
  -3  -7  -9  265.59   13.00
   3   7  -9  278.76   15.24
  -3  -7  -9  270.99   16.91
   3   7  -9  275.78   13.56
   3  -7   9  266.52   14.91
  -3   7  -9  287.01   14.02
  -3   7  -9  285.10   15.62
   3   7   9  306.58   14.60
  -3  -7   9  293.64   17.88
   4   7  -9  390.45   17.77
   4   7  -9  423.82   19.90
   4  -7   9  383.09   17.80
  -4  -7  -9  400.89   17.32
   4   7   9  371.69   18.43
  -4   7  -9  365.86   17.61
   5   7  -9  333.14   16.26
   5  -7   9  333.89   16.49
   5   7  -9  351.08   18.14
  -5  -7  -9  343.77   15.69
   5   7   9  310.55   16.86
  -5   7  -9  328.04   16.10
   6   7  -9  176.10   12.32
   6   7  -9  176.00   11.05
   6  -7   9  178.59   11.39
  -6  -7  -9  182.49   10.60
   6   7   9  192.83   10.81
   6   7   9  207.74   12.71
  -6   7  -9  199.96   11.32
   7   7  -9  214.60   12.78
  -7  -7  -9  223.48   11.42
   7  -7   9  216.44   12.32
   7   7  -9  224.00   11.96
   7   7   9  222.65   13.23
  -7   7  -9  217.31   11.99
   8   7  -9   35.56    4.91
   8   7  -9   34.92    4.45
   8   7   9   56.73    5.90
  -8   7  -9   56.87    5.23
   0   8  -9   51.49    6.38
   0  -8  -9   37.36    6.28
   0   8   9   39.25    5.20
   0   8   9   39.34    5.72
  -1   8   9   89.57    7.14
  -1  -8  -9   88.62    8.85
   1   8  -9   81.98    7.56
   1  -8   9   85.66    6.73
  -1  -8  -9   86.40    6.42
   1   8   9  110.37    8.97
   1   8   9  113.89    7.91
  -1   8  -9  117.98    8.21
  -1  -8   9  115.61    9.75
  -2   8   9 1155.52   42.22
  -2  -8  -9 1118.63   46.36
   2  -8   9 1120.08   41.60
   2   8  -9 1143.97   43.72
   2   8  -9 1177.62   41.57
  -2  -8  -9 1163.60   41.27
   2   8   9 1109.98   42.42
  -2   8  -9 1083.51   45.21
  -2   8  -9 1073.95   42.17
  -2  -8   9 1087.47   46.57
   3   8  -9  233.06   14.25
   3  -8   9  243.15   12.72
   3   8  -9  261.79   12.87
  -3  -8  -9  242.41   12.15
  -3   8  -9  227.34   12.89
   3   8   9  238.11   13.29
  -4  -8  -9  269.21   13.25
   4   8  -9  252.85   15.15
   4   8  -9  271.45   13.81
   4  -8   9  243.57   13.31
   4   8   9  252.98   14.42
  -4   8  -9  263.28   13.92
   5   8  -9   12.51    4.24
   5   8  -9   11.53    3.53
   5  -8   9   10.40    3.40
  -5  -8  -9    8.46    2.71
   5   8   9   12.66    3.87
  -5   8  -9    9.70    3.28
   6   8  -9  563.18   23.75
  -6  -8  -9  563.89   23.28
   6   8  -9  577.41   25.73
   6  -8   9  547.20   23.89
   6   8   9  551.46   25.16
  -6   8  -9  527.04   23.56
  -7  -8  -9   13.20    3.03
   7   8  -9   14.15    3.26
   7   8  -9   16.32    3.94
  -7   8  -9    8.42    2.86
   7   8   9    9.29    3.32
   8   8  -9  204.13   10.64
   8   8  -9  209.34    9.96
   8   8   9  201.55   11.27
   0   9   9  138.68    9.39
   0  -9   9  139.53    8.89
   0   9  -9  129.73    9.51
   1  -9   9   72.63    6.32
  -1  -9  -9   66.19    5.86
  -1  -9  -9   62.57    8.26
   1   9  -9   76.91    7.45
  -1   9   9   66.82    6.70
  -1  -9   9   73.87    6.22
   1   9   9   76.58    7.00
   1   9   9   69.18    7.92
  -1   9  -9   68.65    6.92
  -2   9   9  466.29   20.95
   2   9  -9  449.49   19.91
   2   9  -9  459.04   22.12
  -2  -9  -9  445.03   19.76
   2  -9   9  447.30   20.34
  -2   9  -9  489.23   21.55
   2   9   9  514.54   21.85
   3  -9   9  132.91    9.13
   3   9  -9  148.10    9.31
  -3  -9  -9  141.07    8.97
  -3   9   9  149.70    9.97
   3   9   9  138.53   10.15
  -3   9  -9  145.01    9.96
   4   9  -9  469.18   20.49
  -4  -9  -9  464.63   20.09
   4   9  -9  487.72   22.81
   4   9   9  431.28   21.43
  -4   9  -9  423.83   20.46
   5   9  -9    3.57    2.69
   5   9  -9    9.34    4.05
  -5  -9  -9    5.88    2.60
   5  -9   9    4.69    2.61
  -5   9  -9    3.74    2.86
   5   9   9    5.37    2.98
   6   9  -9  250.15   14.55
  -6  -9  -9  239.47   12.70
   6   9  -9  256.51   13.26
  -6   9  -9  249.30   13.20
   6   9   9  268.32   14.68
   7   9  -9    5.22    2.89
   7   9  -9    7.58    2.55
  -7  -9  -9    8.08    2.52
  -7   9  -9   10.12    3.65
   7   9   9    9.41    3.31
   8   9   9   48.65    5.07
   0 -10   9  288.68   14.47
   0  10  -9  272.22   15.35
   0  10   9  284.64   15.00
  -1 -10  -9  275.55   13.48
   1 -10   9  282.08   14.23
  -1  10   9  271.82   14.56
   1  10  -9  277.78   15.56
  -1  10  -9  245.81   14.44
   1  10   9  260.41   14.66
  -1 -10   9  265.93   13.96
   2 -10   9 1158.80   43.22
   2  10  -9 1129.35   42.07
  -2  10   9 1154.36   43.44
  -2 -10  -9 1134.52   42.27
   2  10  -9 1134.92   44.72
   2  10   9 1138.17   43.90
  -2 -10   9 1102.16   42.59
  -2  10  -9 1085.34   43.53
  -3 -10  -9  287.22   14.39
  -3  10   9  294.17   15.48
   3  10  -9  301.27   14.66
   3  10  -9  294.06   16.59
   3 -10   9  281.90   14.76
  -3  10  -9  274.40   15.27
   3  10   9  290.37   15.82
  -3 -10   9  274.74   14.21
  -4 -10  -9  236.23   12.70
  -4  10   9  226.58   13.54
   4 -10   9  233.47   14.03
   4  10  -9  247.82   14.90
   4  10  -9  248.90   13.08
  -4  10  -9  227.89   13.34
   4  10   9  240.47   14.16
   5  10  -9  194.02   11.13
  -5 -10  -9  177.23   10.61
   5  10  -9  186.68   12.45
  -5  10   9  196.89   11.80
  -5  10  -9  181.91   11.21
   5  10   9  184.23   11.94
   6  10  -9  274.67   12.89
  -6  10   9  256.85   13.39
   6  10  -9  253.40   14.03
  -6 -10  -9  244.94   12.42
  -6  10  -9  238.38   13.02
   6  10   9  252.19   13.85
   7  10  -9   11.01    3.11
  -7  10   9   11.88    3.16
   7  10  -9   15.45    3.08
  -7 -10  -9   11.06    2.74
   7  10   9   16.34    3.73
   0  11  -9  206.61   13.23
   0 -11   9  213.97   12.47
   0  11   9  227.02   13.10
  -1  11   9  166.97   11.22
   1  11  -9  162.39   11.67
   1 -11   9  161.01   10.71
   1  11   9  181.61   11.71
  -1 -11   9  186.34   11.02
  -1  11  -9  168.39   11.44
   2  11  -9   57.93    7.58
   2 -11   9   63.69    6.72
  -2  11   9   64.34    7.22
  -2 -11  -9   63.88    6.26
  -2  11  -9   67.80    7.34
   2  11   9   72.56    7.85
  -2 -11   9   79.57    6.90
  -3  11   9   62.75    7.24
   3 -11   9   65.07    6.49
  -3 -11  -9   62.11    6.17
   3  11  -9   51.72    6.26
   3  11  -9   62.66    8.02
  -3  11  -9   82.38    7.62
   3  11   9   76.48    7.76
  -3 -11   9   70.63    6.38
   4  11  -9   83.71    8.35
  -4 -11  -9   80.35    6.80
   4  11  -9   67.72    6.47
  -4  11   9   80.25    7.72
   4 -11   9   78.32    6.76
   4  11   9   96.91    8.27
  -4  11  -9   96.43    7.92
   5  11  -9  172.35   11.37
   5  11  -9  173.11    9.85
  -5  11   9  170.68   10.71
  -5 -11  -9  178.44    9.94
  -5  11  -9  167.21   10.88
   5  11   9  163.93   10.90
   6  11  -9    1.36    2.22
  -6  11   9    2.46    2.69
   6  11  -9    2.20    2.50
  -6 -11  -9    2.29    2.07
   6  11   9    0.95    2.46
   0  12   9  218.37   12.89
   0  12  -9  210.89   12.89
   0 -12   9  196.23   12.12
  -1  12   9   70.74    7.30
   1 -12   9   80.91    7.21
   1  12  -9   76.16    7.95
  -1 -12   9   72.64    7.02
  -1  12  -9   64.40    7.23
   1  12   9   59.80    7.06
  -2  12   9   47.01    6.36
   2  12  -9   49.47    6.86
   2 -12   9   53.29    6.59
  -2 -12  -9   50.24    5.81
   2  12   9   62.62    6.79
  -2  12  -9   63.55    6.88
  -2 -12   9   59.38    6.16
   3  12  -9   32.94    5.81
  -3  12   9   30.94    5.25
   3  12  -9   29.01    4.31
  -3 -12  -9   31.41    4.63
   3 -12   9   33.81    5.28
   3  12   9   30.42    5.20
  -3 -12   9   29.88    4.72
  -3  12  -9   32.51    5.18
   4  12  -9  208.87   10.99
  -4 -12  -9  211.08   11.23
   4  12  -9  209.72   12.52
   4 -12   9  194.70   10.95
  -4  12   9  222.65   12.22
   4  12   9  216.88   12.34
  -5 -12  -9   37.69    4.53
   5  12  -9   37.96    4.63
  -5  12   9   38.24    5.09
   5  12  -9   41.16    5.58
   5  12   9   48.24    5.97
  -6 -12  -9   60.47    4.85
   6  12  -9   61.36    5.01
   6  12  -9   68.25    5.71
  -6  12   9   59.65    5.43
   6  12   9   56.69    5.51
   0 -13   9   47.76    6.10
   0  13   9   59.28    6.48
   0  13  -9   55.60    6.92
   1 -13   9  343.16   16.45
  -1  13   9  353.06   16.70
   1  13  -9  336.13   16.92
   1  13   9  335.60   16.71
  -1 -13   9  314.79   15.97
  -1  13  -9  322.49   16.43
   2 -13   9  332.56   16.04
  -2  13   9  325.19   16.02
   2  13  -9  316.26   16.38
  -2  13  -9  336.01   16.12
   2  13   9  330.44   16.31
  -2 -13   9  340.19   15.76
   3 -13   9   72.77    6.14
  -3  13   9   85.67    7.03
   3  13  -9   76.91    7.05
  -3 -13  -9   66.52    5.77
  -3 -13   9   65.22    5.90
   3  13   9   75.54    6.91
  -4  13   9   71.47    6.56
   4  13  -9   75.57    5.54
   4 -13   9   73.97    5.65
  -4 -13  -9   68.74    5.53
   4  13  -9   69.25    6.59
   4  13   9   74.63    6.49
  -5  13   9  376.78   16.00
   5  13  -9  377.43   16.10
  -5 -13  -9  364.98   15.34
   5  13  -9  370.89   15.78
   5  13   9  378.70   16.23
   0 -14   9    2.43    2.22
   0  14  -9    1.69    2.61
   0  14   9    0.05    2.34
  -1  14   9   99.07    7.36
   1  14  -9   85.24    7.06
   1 -14   9   90.16    7.15
  -1 -14   9   83.44    6.73
  -1  14  -9   74.94    6.96
   1  14   9   88.64    7.11
   2 -14   9    0.05    2.09
   2  14  -9    0.99    2.42
  -2  14   9   -0.99    2.39
   2  14   9   -1.23    2.17
  -2 -14   9    3.54    2.22
  -3  14   9   81.41    6.54
   3 -14   9   73.35    5.64
   3  14  -9   74.28    6.27
   3  14   9   67.46    6.05
   0  15   9   37.74    4.57
   0 -15   9   37.70    4.58
   1 -15   9  165.16    9.10
  -1  15   9  167.97    9.41
  -1 -15   9  181.53    9.25
   1  15   9  186.35    9.61
   0   0  10  539.77   19.80
   0   0 -10  514.80   21.90
   1   0 -10 1452.74   52.76
   1   0  10 1475.36   50.03
  -1   0 -10 1484.92   52.32
  -1   0  10 1376.41   49.94
  -2   0  10  338.80   13.80
  -2   0 -10  335.47   13.55
  -2   0 -10  325.50   15.32
   2   0 -10  332.43   16.18
  -3   0 -10 1004.54   37.13
  -3   0  10  983.07   35.26
  -3   0 -10  954.57   35.80
   3   0 -10  949.45   38.11
  -4   0  10  878.04   32.82
  -4   0 -10  862.79   34.24
   4   0 -10  899.27   36.09
  -5   0  10  440.42   18.97
  -5   0 -10  447.17   21.18
   5   0  10  441.03   19.64
   5   0  10  427.85   19.18
   6   0  10   24.15    4.32
   6   0  10   26.49    4.69
   7   0  10   10.75    3.39
   7   0  10   11.88    3.36
   8   0  10   32.62    4.91
   0  -1  10 1103.48   39.09
   0   1  10 1133.79   39.07
   0   1 -10 1094.95   41.52
   0  -1 -10 1132.15   41.58
   1   1 -10 1420.78   51.60
  -1  -1 -10 1428.44   51.03
  -1   1  10 1432.05   48.78
   1  -1  10 1444.50   48.99
  -1   1 -10 1369.63   50.78
   1  -1 -10 1400.35   51.55
  -1  -1  10 1391.13   48.67
   1   1  10 1377.40   48.54
  -2  -1 -10   93.52    6.82
  -2   1  10   85.44    5.36
   2   1 -10   78.22    6.84
  -2   1 -10   85.83    5.15
   2  -1 -10   84.61    6.95
  -2   1 -10   87.37    6.38
  -2  -1  10   91.78    5.40
  -3   1  10 1150.71   41.08
   3   1 -10 1102.50   43.98
  -3  -1 -10 1115.64   42.89
  -3   1 -10 1207.91   41.86
   3  -1 -10 1090.71   43.52
  -3   1 -10 1172.07   42.48
  -3  -1  10 1151.86   40.62
  -4   1  10  326.00   14.60
   4   1 -10  311.79   16.98
  -4  -1 -10  310.10   15.85
   4  -1 -10  321.01   16.54
  -4   1 -10  321.41   15.60
  -4  -1  10  316.52   13.92
   5  -1  10   75.14    6.25
   5  -1  10   70.52    7.57
  -5   1  10   74.04    6.22
   5   1 -10   71.81    7.76
   5   1  10   56.01    5.38
  -5   1 -10   56.58    6.52
   5   1  10   55.15    5.56
   6  -1  10   50.37    5.62
   6  -1  10   52.33    5.80
   6   1  10   50.71    5.61
   6   1  10   45.81    5.73
   7  -1  10  689.07   30.20
   7  -1  10  721.71   30.13
   7   1  10  785.34   30.93
   7   1  10  726.57   32.49
   8  -1  10   20.56    4.18
   8   1  10   22.67    4.41
   0   2 -10 2394.92   80.49
   0   2  10 2040.54   77.33
   0  -2 -10 2383.02   80.38
   0  -2  10 2360.64   77.86
  -1  -2 -10 1767.81   64.80
  -1   2  10 1792.14   62.50
  -1   2 -10 1845.22   64.69
  -1  -2  10 1867.03   62.49
   1   2  10 1821.66   62.17
   1  -2 -10 1853.71   65.29
  -2  -2 -10  819.62   31.38
  -2   2  10  821.64   29.18
   2  -2 -10  763.48   31.44
   2   2  10  765.12   28.50
  -2   2 -10  783.16   30.51
  -2   2 -10  770.71   28.76
  -2  -2  10  796.65   28.64
   3   2 -10  734.34   32.65
  -3  -2 -10  778.64   32.01
   3  -2 -10  822.02   32.36
  -3   2 -10  797.07   30.36
  -3  -2  10  850.43   29.42
   4   2 -10  443.19   21.93
  -4  -2 -10  457.97   21.10
  -4  -2  10  453.64   18.17
  -4   2 -10  424.55   19.77
   5   2 -10  373.27   16.53
   5  -2  10  369.57   17.34
   5   2  10  395.43   17.51
  -5   2 -10  382.53   19.07
   5   2  10  365.13   17.20
   6  -2  10  527.79   23.04
   6  -2  10  557.91   23.88
   6   2  10  529.45   23.56
   7  -2  10   31.20    5.26
   7   2  10   29.21    5.20
   8  -2  10   85.83    7.50
   8   2  10   89.39    7.61
  -9   2 -10  124.61    8.02
   0   3 -10   -0.20    1.35
   0  -3 -10    0.86    1.60
   0  -3  10    1.84    1.41
   0   3  10    1.87    1.25
  -1  -3 -10   10.11    2.75
   1   3 -10   13.16    3.26
  -1   3  10   11.89    2.19
  -1  -3  10   15.29    2.40
   1   3  10   14.37    2.21
  -1   3 -10   22.61    3.68
   1  -3 -10   12.16    3.13
  -2  -3 -10  225.81   12.36
   2   3 -10  234.06   13.05
  -2  -3  10  214.50    9.77
  -2   3 -10  213.28   11.08
   2   3  10  214.67    9.56
   2  -3 -10  213.25   12.18
  -2   3 -10  210.65   10.20
  -3  -3 -10 1075.89   40.80
   3   3 -10 1027.17   41.36
   3  -3 -10 1031.10   39.92
  -3  -3  10 1011.34   36.73
  -3   3 -10 1009.41   38.38
  -4  -3 -10  259.24   14.89
   4   3 -10  257.83   15.66
  -4   3 -10  253.11   13.62
  -5  -3 -10   78.53    8.28
   5  -3  10   82.40    6.88
  -5  -3 -10   76.86    5.73
   5   3 -10   80.75    6.21
  -5   3 -10   70.70    7.38
   5   3  10   89.97    6.78
  -5  -3  10   74.58    8.34
   5   3  10   80.03    6.15
   6   3 -10  107.53    7.77
   6  -3  10   94.09    7.92
   6   3  10  104.99    8.15
   7  -3  10   64.89    7.07
   7   3  10   79.68    7.36
   8  -3  10  205.54   11.94
  -8   3 -10  188.09   11.25
   8   3  10  203.73   12.21
   9   3  10   61.67    5.82
  -9   3 -10   63.60    5.46
   0  -4 -10   17.73    3.67
   0   4  10   17.11    2.53
   0   4 -10   15.96    3.52
  -1   4  10 1751.20   62.07
  -1  -4 -10 1774.35   65.08
   1   4 -10 1890.16   65.86
  -1   4 -10 1817.06   64.09
  -1  -4  10 1789.27   62.01
   1  -4 -10 1831.09   65.27
   1   4  10 1754.81   61.32
   2   4 -10  646.38   27.99
  -2  -4 -10  671.99   27.70
   2  -4 -10  631.71   27.22
  -2  -4  10  645.74   24.08
  -2   4 -10  621.67   24.81
  -3  -4 -10  652.57   28.43
   3   4 -10  660.00   29.25
  -3   4 -10  646.19   26.41
  -4  -4 -10  250.81   14.82
   4   4 -10  230.56   15.22
   4  -4  10  236.16   11.92
   4   4 -10  233.15   11.76
  -4   4 -10  230.59   11.80
  -4   4 -10  228.07   13.22
  -5  -4 -10  786.68   34.26
   5  -4  10  754.22   30.37
   5   4 -10  732.57   30.47
  -5  -4 -10  745.62   28.97
   5   4 -10  784.54   29.80
   5   4  10  748.58   29.30
  -5   4 -10  731.44   32.51
  -5  -4  10  701.64   35.39
  -5   4 -10  782.22   30.05
   5   4  10  794.80   30.80
  -6  -4 -10  189.78   10.28
   6   4 -10  196.02   11.05
   6  -4  10  203.24   12.10
   6   4 -10  197.44   11.71
   6   4  10  183.64   11.72
  -6   4 -10  180.68   11.12
   7  -4  10  275.03   14.88
   7   4 -10  262.81   13.37
  -7   4 -10  245.99   13.73
   7   4  10  267.06   14.79
   8  -4  10  183.88   11.19
  -8   4 -10  187.02   10.76
   8   4  10  188.67   11.53
  -9   4 -10  122.71    7.55
   9   4  10  121.81    8.06
   0   5  10    3.02    1.42
   0   5 -10    3.14    2.04
   0  -5 -10    5.35    2.39
  -1  -5 -10   65.88    6.54
  -1   5  10   61.77    4.74
   1   5 -10   68.31    6.70
   1  -5 -10   61.62    6.17
  -1   5 -10   62.51    5.77
  -2  -5 -10  239.97   13.65
   2   5 -10  233.67   13.89
   2  -5 -10  213.12   12.78
  -2   5 -10  217.02   11.49
  -3  -5 -10  126.84   10.05
  -3   5 -10  134.32    8.91
  -4  -5 -10   70.58    8.00
   4  -5  10   64.31    6.01
   4   5 -10   73.58    6.25
  -4  -5 -10   73.13    5.75
   4   5 -10   65.18    6.90
   4   5  10  101.69    7.26
  -4  -5  10   91.18    9.18
  -4   5 -10   85.82    7.63
  -4   5 -10   99.49    6.95
   5  -5  10  282.79   14.16
  -5  -5 -10  265.61   12.91
   5   5 -10  254.84   14.47
   5   5 -10  274.97   13.63
   5   5  10  249.22   12.88
  -5   5 -10  270.06   13.70
   5   5  10  265.92   14.32
   6   5 -10  355.13   17.52
   6  -5  10  414.37   19.04
  -6  -5 -10  383.77   17.11
   6   5 -10  372.61   18.78
   6   5  10  397.38   19.10
  -6   5 -10  374.38   17.88
   7   5 -10   78.29    6.92
   7   5 -10   82.20    7.45
   7  -5  10   86.15    7.63
  -7   5 -10   76.94    6.93
   7   5  10   75.18    7.48
   8  -5  10   79.21    6.77
   8   5  10   69.48    6.79
  -8   5 -10   73.09    6.30
   9   5  10   33.92    4.60
  -9   5 -10   31.58    3.98
   0   6 -10  465.13   21.40
   0  -6 -10  468.52   21.89
   1   6 -10  797.72   33.72
  -1   6  10  785.04   30.06
  -1  -6 -10  805.42   33.73
   1   6  10  834.54   31.76
   1  -6 -10  813.83   33.45
  -2  -6 -10  197.26   12.93
   2   6 -10  206.75   13.47
   3   6 -10  378.66   18.48
   3   6 -10  366.77   16.77
  -3  -6 -10  395.05   16.58
  -3  -6 -10  393.57   20.67
   3   6  10  388.29   17.47
  -3   6 -10  396.10   17.31
   4   6 -10  525.28   23.45
   4   6 -10  507.88   21.67
  -4  -6 -10  501.75   21.01
  -4  -6 -10  518.02   29.73
   4  -6  10  514.79   21.81
   4   6  10  500.27   22.20
  -4   6 -10  517.59   21.87
  -4  -6  10  504.98   32.86
   5   6 -10   94.33    7.61
   5  -6  10   95.67    7.82
  -5  -6 -10   95.07    6.97
   5   6 -10   95.57    8.64
  -5   6 -10   97.14    7.67
   5   6  10  100.98    8.27
   6   6 -10   14.08    3.68
  -6  -6 -10   19.20    3.68
   6   6 -10   14.58    4.26
   6  -6  10   15.70    3.72
  -6   6 -10   20.86    4.27
   6   6  10   26.86    4.92
   6   6  10   23.68    4.19
   7   6 -10   56.50    5.85
  -7  -6 -10   59.34    5.47
   7   6 -10   59.12    6.51
   7  -6  10   61.35    6.40
   7   6  10   68.94    7.21
  -7   6 -10   64.29    6.37
   8   6 -10   46.82    7.43
   8   6 -10   60.67    5.79
  -8   6 -10   71.92    5.90
   8   6  10   73.83    6.69
   0  -7 -10  533.64   24.95
   1   7 -10  194.55   15.90
  -1   7  10  161.75   11.97
  -1  -7 -10  166.41   11.88
  -1   7 -10  159.96   11.99
  -2  -7 -10  179.52    9.50
   2   7 -10  181.20   11.49
   2   7 -10  196.85    9.97
  -2  -7 -10  175.36   12.58
   2  -7  10  179.16    9.85
  -2   7  10  177.80    9.93
  -2  -7  10  164.22   12.46
   2   7  10  177.87   10.33
  -2   7 -10  163.71   10.17
  -3  -7 -10  164.09    9.52
   3   7 -10  173.26   10.06
  -3  -7 -10  160.01   12.68
   3   7 -10  165.53   11.34
  -3  -7  10  181.15   13.67
   3   7  10  190.66   10.94
  -3   7 -10  199.17   10.90
   4  -7  10  416.85   19.04
   4   7 -10  443.37   19.27
  -4  -7 -10  430.08   18.58
   4   7 -10  437.42   21.02
   4   7  10  407.33   19.70
  -4   7 -10  407.90   19.12
   5   7 -10  291.35   16.58
   5  -7  10  290.14   15.25
   5   7 -10  321.04   15.48
  -5  -7 -10  318.07   14.88
  -5   7 -10  283.96   15.02
   5   7  10  307.15   16.15
   6  -7  10  184.66   11.40
   6   7 -10  180.63   12.36
  -6  -7 -10  198.63   10.86
   6   7 -10  191.41   11.32
   6   7  10  189.77   12.16
  -6   7 -10  183.00   11.17
   7   7 -10   80.09    6.85
  -7  -7 -10   85.41    6.45
   7   7 -10   73.68    7.19
   7  -7  10   81.98    7.02
  -7   7 -10   88.39    7.06
   7   7  10   96.01    8.12
   8   7 -10   41.15    4.52
   8   7 -10   35.80    4.71
  -8   7 -10   41.74    4.86
   8   7  10   37.95    5.25
   0  -8 -10   28.16    5.86
   0   8  10   36.53    5.15
   0   8 -10   36.12    5.43
   1  -8  10  180.97   10.24
  -1  -8 -10  184.53    9.90
   1   8 -10  173.92   11.35
   1   8 -10  195.49   11.18
  -1  -8 -10  181.28   13.23
  -1   8  10  178.03   10.64
  -1   8 -10  199.06   11.46
   1   8  10  195.07   10.90
  -1  -8  10  196.51   13.45
  -2   8  10  280.52   13.79
   2   8 -10  275.31   15.07
   2   8 -10  278.60   13.23
   2  -8  10  269.58   13.18
  -2  -8 -10  259.10   16.82
  -2  -8 -10  277.58   13.11
  -2  -8  10  247.18   16.77
   2   8  10  266.98   14.04
  -2   8 -10  246.19   13.72
   3   8 -10   43.03    5.51
  -3  -8 -10   38.39    4.95
   3  -8  10   46.67    5.80
   3   8 -10   36.27    6.13
   3   8  10   55.95    6.28
  -3   8 -10   58.12    6.14
   4   8 -10  207.29   13.43
   4   8 -10  181.94   11.30
   4  -8  10  191.84   11.25
  -4  -8 -10  218.05   11.56
  -4   8 -10  212.27   12.16
   4   8  10  207.36   12.63
   5  -8  10  289.92   14.83
  -5  -8 -10  298.05   14.50
   5   8 -10  305.69   16.86
   5   8 -10  272.61   14.54
   5   8  10  281.39   15.65
  -5   8 -10  273.90   14.83
   6   8 -10  113.19    8.32
   6   8 -10  106.03    9.26
   6  -8  10  101.58    8.02
  -6  -8 -10  114.00    7.89
  -6   8 -10  113.69    8.38
   6   8  10  115.39    9.19
   7   8 -10   20.08    3.52
   7   8 -10   23.72    4.37
  -7  -8 -10   21.46    3.51
  -7   8 -10   13.06    3.33
   7   8  10   12.96    3.75
   8   8 -10   90.13    5.79
   8   8 -10   88.63    6.28
  -8   8  10   82.49    5.86
   8   8  10   90.48    7.39
  -8   8 -10   89.94    6.81
   0   9  10    7.10    2.98
   0   9 -10    4.36    2.90
   0  -9  10    3.46    2.38
   1   9 -10   21.11    4.66
  -1  -9 -10   27.57    4.35
   1  -9  10   27.89    4.51
  -1   9  10   19.55    4.29
  -1   9 -10   25.68    4.97
  -1  -9  10   27.29    4.21
   1   9  10   26.33    4.68
  -2   9  10  415.11   19.15
   2  -9  10  399.99   18.60
   2   9 -10  405.44   18.30
  -2  -9 -10  421.97   18.39
   2   9 -10  424.78   20.72
   2   9  10  431.41   19.75
  -2   9 -10  411.28   19.70
  -3   9  10  434.53   20.61
   3   9 -10  463.10   20.21
   3  -9  10  423.60   19.88
   3   9 -10  456.48   22.36
  -3  -9 -10  453.37   19.97
  -3   9 -10  469.26   21.19
   3   9  10  479.75   21.57
  -4   9  10  297.82   15.24
   4   9 -10  298.99   14.93
   4   9 -10  305.69   17.00
  -4  -9 -10  308.54   14.84
   4   9  10  313.15   16.34
  -4  -9  10  266.92   13.83
  -4   9 -10  273.63   15.02
   5   9 -10   59.51    6.74
   5   9 -10   68.67    8.45
   5  -9  10   58.82    5.96
  -5  -9 -10   70.64    6.22
  -5   9 -10   56.78    6.41
   5   9  10   67.69    7.07
  -6  -9 -10   21.81    3.80
   6   9 -10   22.24    4.12
   6   9 -10   24.85    5.16
   6   9  10   12.23    3.81
  -6   9 -10   18.11    3.98
  -7   9  10   79.67    6.36
   7   9 -10   73.88    5.92
   7   9 -10   74.04    6.63
  -7  -9 -10   77.12    5.74
  -7   9 -10   66.58    5.89
   7   9  10   72.89    6.74
   0 -10  10   40.04    5.41
   0  10 -10   33.75    5.83
   0  10  10   36.44    5.57
  -1  10  10    1.12    2.83
  -1 -10 -10    4.06    2.60
   1  10 -10    4.22    3.47
   1 -10  10    0.97    2.19
  -1 -10  10   -1.05    1.98
  -1  10 -10   -0.10    2.28
   1  10  10    0.52    2.56
  -2 -10 -10  995.43   37.71
   2  10 -10  959.26   37.30
   2 -10  10  977.63   38.31
   2  10 -10  985.45   40.08
  -2  10  10 1015.61   38.82
   2  10  10 1021.68   39.49
  -2  10 -10  971.70   39.18
  -2 -10  10  982.58   38.13
   3  10 -10  282.57   16.20
   3 -10  10  274.25   14.26
  -3 -10 -10  273.51   14.01
  -3  10  10  274.33   14.85
   3  10 -10  267.85   13.94
   3  10  10  287.36   15.58
  -3  10 -10  265.58   14.90
  -3 -10  10  280.69   14.13
  -4 -10 -10  145.57    9.30
   4  10 -10  141.90    9.42
   4  10 -10  145.03   11.02
  -4  10  10  135.42    9.99
  -4  10 -10  140.43   10.00
  -4 -10  10  138.48   10.07
   4  10  10  135.53   10.23
  -5  10  10   55.74    6.60
   5  10 -10   54.58    7.33
   5  10 -10   48.84    5.97
  -5 -10 -10   43.41    5.53
  -5  10 -10   57.01    6.43
   5  10  10   66.78    6.93
   6  10 -10  271.48   14.43
  -6  10  10  267.37   13.72
  -6 -10 -10  271.54   13.04
   6  10 -10  263.09   13.06
  -6  10 -10  275.46   13.42
   6  10  10  282.78   14.52
  -7 -10 -10   45.90    4.38
   7  10 -10   49.87    5.20
   7  10 -10   52.30    4.78
  -7  10  10   43.76    5.02
   7  10  10   44.81    5.43
   0  11 -10    8.04    3.76
   0 -11  10    6.44    2.86
   0  11  10    7.65    3.32
   1 -11  10   53.48    6.65
   1  11 -10   58.40    7.64
  -1  11  10   53.37    6.71
  -1 -11  10   38.76    5.50
  -1  11 -10   38.24    6.22
   1  11  10   35.57    5.81
  -2 -11 -10   10.14    3.05
   2 -11  10   11.36    3.51
   2  11 -10    7.37    3.89
  -2  11  10    5.93    3.43
   2  11  10    6.94    3.34
  -2 -11  10    7.49    2.83
  -2  11 -10   10.59    3.72
   3 -11  10  310.72   15.80
   3  11 -10  327.13   17.58
  -3 -11 -10  327.74   15.77
   3  11 -10  311.52   15.35
  -3  11  10  335.25   16.71
  -3  11 -10  327.30   16.75
   3  11  10  335.31   17.27
  -3 -11  10  326.53   15.59
  -4 -11 -10   46.51    5.74
   4  11 -10   55.45    7.31
   4  11 -10   51.96    5.93
  -4  11  10   47.38    6.19
   4  11  10   57.17    7.21
  -4  11 -10   57.60    6.55
   5  11 -10   -0.65    2.00
  -5 -11 -10    0.59    1.71
   5  11 -10   -2.33    2.33
  -5  11  10    1.59    2.57
  -5  11 -10    2.16    2.65
   5  11  10    0.93    2.40
  -6  11  10   37.08    4.74
   6  11 -10   40.94    4.66
  -6 -11 -10   45.22    4.81
   6  11 -10   39.28    5.13
   6  11  10   35.43    5.02
   0 -12  10  153.04   10.12
   0  12 -10  150.23   10.74
   0  12  10  154.60   10.59
   1 -12  10  340.94   16.29
  -1  12  10  337.52   16.63
   1  12 -10  325.57   17.11
  -1  12 -10  308.64   16.61
   1  12  10  308.76   16.45
  -1 -12  10  307.94   15.85
  -2  12  10  506.72   22.57
   2  12 -10  499.22   23.31
   2 -12  10  533.72   22.50
  -2 -12 -10  513.38   21.40
  -2  12 -10  503.54   22.76
  -2 -12  10  496.31   21.96
   2  12  10  508.96   22.96
  -3  12  10  109.30    8.78
   3 -12  10  105.78    8.15
   3  12 -10  112.61    9.18
  -3 -12 -10  105.86    7.71
   3  12 -10  111.98    7.57
  -3 -12  10  137.56    8.52
   3  12  10  130.93    9.31
  -3  12 -10  122.34    8.80
   4  12 -10  119.67    9.03
  -4 -12 -10  113.35    7.71
   4 -12  10  106.47    8.91
  -4  12  10  127.07    8.72
   4  12 -10  125.05    7.70
   4  12  10  124.98    8.77
  -4  12 -10  120.76    8.27
   5  12 -10  102.00    6.93
  -5  12  10  104.24    7.61
   5  12 -10  110.28    8.04
  -5 -12 -10  103.01    6.94
   5  12  10  128.61    8.48
   0 -13  10  646.08   26.83
   0  13  10  659.93   27.16
   0  13 -10  649.24   27.39
   1  13 -10  415.14   19.50
  -1  13  10  406.62   19.05
   1 -13  10  409.59   18.79
   1  13  10  427.44   19.38
  -1 -13  10  414.85   18.67
  -1  13 -10  408.20   19.10
  -2  13  10   68.81    6.64
   2  13 -10   66.94    6.76
   2 -13  10   68.72    6.05
  -2 -13  10   44.36    5.43
   2  13  10   48.48    5.94
  -2  13 -10   45.24    5.88
  -3  13  10  155.19    9.73
   3 -13  10  154.70    9.22
  -3 -13 -10  150.66    8.82
   3  13 -10  161.81   10.22
  -3 -13  10  177.36    9.43
  -3  13 -10  167.76    9.90
   3  13  10  176.84   10.32
  -4 -13 -10  104.02    6.80
   4  13 -10  112.70    8.05
  -4  13  10  108.95    7.57
   4  13 -10  107.84    6.58
   4  13  10  128.02    8.10
   0  14  10  248.00   12.87
   0  14 -10  246.70   12.67
   0 -14  10  257.19   12.69
   1 -14  10   62.69    5.99
  -1  14  10   70.51    6.34
   1  14 -10   57.95    5.93
  -1  14 -10   55.57    5.89
  -1 -14  10   59.50    5.67
   1  14  10   59.76    6.09
  -2  14  10  150.77    9.22
   2  14 -10  144.98    9.09
   2 -14  10  154.30    8.78
  -2 -14  10  152.38    8.63
   2  14  10  148.34    9.07
   3 -14  10   10.99    2.59
  -3  14  10    8.97    3.14
   3  14 -10   10.58    3.23
   3  14  10    8.14    2.96
   0  15  10  760.00   28.98
   0 -15  10  787.52   28.99
   0   0 -11    0.97    1.54
   0   0  11    0.98    1.17
   1   0 -11  414.98   19.00
  -1   0  11  415.38   16.39
  -1   0 -11  405.52   18.42
   1   0  11  415.41   16.40
  -2   0  11 1887.21   64.53
   2   0 -11 1877.99   67.82
  -2   0 -11 1850.41   66.74
  -3   0  11  177.72    9.01
   3   0 -11  169.26   11.15
  -3   0 -11  175.48   10.41
   4   0 -11    4.05    2.62
  -4   0  11    0.03    1.50
  -4   0 -11    2.12    1.78
  -5   0  11 1690.01   59.08
   5   0  11 1608.73   58.68
   5   0  11 1621.52   59.12
   6   0  11  601.01   25.27
   6   0  11  587.42   25.28
   7   0  11   32.92    5.28
   7   0  11   32.10    5.12
   8   0  11  355.48   16.85
   0   1  11 3648.26  119.20
   0  -1 -11 3580.94  122.08
   0   1 -11 3443.84  122.00
   1   1 -11  736.00   31.85
  -1   1  11  753.93   29.23
  -1  -1 -11  754.35   31.49
   1  -1  11  731.96   29.28
   1   1  11  889.45   29.52
  -1  -1  11  875.29   29.56
  -1   1 -11  841.88   31.98
   1  -1 -11  881.47   32.80
   2   1 -11  406.92   19.44
  -2  -1 -11  412.46   18.78
  -2   1  11  415.52   16.80
  -2   1 -11  410.59   18.46
   2  -1 -11  412.52   19.38
  -2  -1  11  420.40   16.66
  -3   1  11  830.23   30.70
  -3  -1 -11  840.01   32.99
   3   1 -11  778.90   33.59
   3  -1 -11  822.19   33.72
  -3  -1  11  826.16   30.33
  -3   1 -11  804.55   32.08
  -4   1  11  510.55   21.10
   4   1 -11  482.08   24.04
  -4  -1 -11  485.98   22.77
  -4  -1  11  514.27   20.63
  -4   1 -11  533.01   25.32
   4  -1 -11  523.51   23.91
   5   1 -11   79.95    8.74
   5  -1  11   91.76    6.85
  -5   1  11   77.97    6.60
   5   1  11   72.00    6.31
   5   1  11   71.62    6.42
   6  -1  11  232.96   12.86
   6  -1  11  234.16   12.51
   6   1  11  213.35   12.28
   6   1  11  216.25   12.39
   7  -1  11  524.90   22.61
   7  -1  11  527.12   23.18
   7   1  11  502.32   22.80
   7   1  11  465.99   21.92
   8  -1  11    6.08    2.82
   8   1  11    6.85    2.80
  -9   1 -11  598.08   24.01
   0   2  11 2505.28   80.38
   0  -2 -11 2081.72   82.69
   0  -2  11 2422.31   80.58
   0   2 -11 2452.56   83.47
   1   2 -11  272.22   14.80
  -1   2  11  287.16   12.59
  -1  -2 -11  271.75   14.47
  -1   2 -11  313.68   14.85
   1  -2 -11  316.50   15.35
   1   2  11  303.45   12.44
  -1  -2  11  315.96   12.77
  -2   2  11 3369.13  111.50
   2   2 -11 3315.10  114.98
  -2  -2 -11 3331.87  114.24
  -2   2 -11 3266.85  113.34
  -2  -2  11 3311.98  110.99
   2  -2 -11 3237.13  114.59
   2   2  11 3250.28  110.92
  -3  -2 -11   37.71    4.99
   3   2 -11   35.26    5.21
  -3   2  11   33.58    3.90
  -3  -2  11   34.08    3.54
   3  -2 -11   27.44    4.83
   4   2 -11  439.58   22.45
  -4  -2 -11  460.70   21.48
  -4   2  11  470.08   19.52
  -4  -2  11  406.65   17.99
  -5   2  11  289.91   14.48
   5  -2  11  273.36   13.91
   5   2 -11  275.90   13.35
   5   2  11  261.80   13.49
   5   2  11  280.85   14.01
   6  -2  11  728.81   30.29
   6   2  11  738.45   30.23
   7  -2  11   52.26    6.67
   7   2  11   26.46    5.03
   8  -2  11  504.19   22.23
   8   2  11  494.26   22.10
  -9   2 -11  114.51    7.46
   0  -3 -11    0.35    1.57
   0   3 -11    2.94    1.98
   0  -3  11    2.64    1.44
   0   3  11    1.36    1.26
  -1  -3 -11  877.09   35.05
   1   3 -11  829.52   34.98
  -1   3  11  850.58   32.22
  -1   3 -11  923.84   34.68
   1   3  11  893.27   31.85
   1  -3 -11  917.95   35.35
  -1  -3  11  922.04   32.33
  -2  -3 -11  428.38   20.12
   2   3 -11  420.23   20.72
  -2   3  11  431.82   17.82
  -2  -3  11  440.81   17.30
   2  -3 -11  435.81   20.42
   2   3  11  430.90   17.02
  -2   3 -11  440.64   19.11
  -3  -3 -11 1319.29   50.05
  -3   3  11 1290.67   47.13
   3   3 -11 1232.02   50.50
   3  -3 -11 1318.37   49.67
  -3  -3  11 1338.24   46.06
   4   3 -11  154.52   11.87
   4  -3  11  156.31    9.18
  -4  -3 -11  163.54   11.45
   4   3 -11  136.87   12.12
   5  -3  11  342.15   16.26
  -5  -3 -11  345.70   14.78
   5   3 -11  335.03   15.29
  -5  -3 -11  321.63   18.58
   5   3  11  291.22   15.33
   6   3 -11  189.38   11.12
   6  -3  11  210.24   12.30
   6   3  11  210.25   12.25
   7  -3  11  574.40   24.15
   7   3  11  478.16   23.03
   8  -3  11   56.40    6.11
   8   3  11   68.40    6.82
  -8   3 -11   80.84    6.87
  -9   3 -11  468.08   19.28
   0   4  11   56.72    4.24
   0  -4 -11   54.84    5.83
   0   4 -11   62.93    6.05
   1   4 -11  570.52   24.39
  -1   4  11  541.46   20.81
  -1  -4 -11  553.95   23.86
   1   4  11  508.45   20.06
   1  -4 -11  515.46   23.52
  -1  -4  11  514.12   20.64
  -1   4 -11  520.01   22.64
  -2   4  11   13.89    2.79
   2   4 -11   13.06    3.78
  -2  -4 -11   16.57    4.00
   2  -4 -11    6.35    2.90
  -2  -4  11   11.90    2.44
   3   4 -11 1258.25   50.26
  -3  -4 -11 1275.87   49.63
   4   4 -11  809.93   37.11
   4  -4  11  872.67   32.85
  -4  -4 -11  852.70   31.90
  -4  -4 -11  916.34   37.24
  -4   4 -11  837.20   32.57
   4   4  11  818.59   32.61
  -5  -4 -11 1218.83   43.43
   5   4 -11 1210.80   44.14
   5   4 -11 1189.73   45.01
   5  -4  11 1223.13   44.86
   5   4  11 1130.93   44.55
  -5   4 -11 1152.62   44.20
   6  -4  11  104.05    8.28
  -6  -4 -11  109.20    7.24
   6   4 -11  100.95    7.78
   6   4  11   79.54    7.62
  -6   4 -11   91.81    7.76
   7   4 -11  366.98   16.39
   7  -4  11  374.58   17.77
   7   4  11  312.73   16.91
  -7   4 -11  322.84   16.54
   8  -4  11  185.17   11.12
  -8   4 -11  197.40   10.90
   8   4  11  192.29   11.46
  -9   4 -11  215.57   10.65
   9   4  11  214.02   11.04
   0   5  11  274.43   11.98
   0   5 -11  279.74   14.79
   0  -5 -11  260.78   14.67
   1   5 -11  428.61   20.48
  -1  -5 -11  420.99   20.16
  -1   5  11  415.87   17.10
  -1   5 -11  394.70   18.87
   1  -5 -11  404.89   20.09
  -2   5  11  475.77   20.09
  -2  -5 -11  505.42   23.37
   2  -5 -11  477.21   22.88
  -3  -5 -11 2044.07   72.20
  -3  -5 -11 2100.06   77.19
   3   5 -11 2106.42   78.00
   3   5 -11 2076.25   72.46
  -3   5 -11 2063.00   72.68
   4  -5  11  108.74    7.74
   4   5 -11  111.19    8.64
  -4  -5 -11  107.64    7.11
  -4  -5 -11  110.07   10.08
  -4   5 -11  101.37    7.49
   4   5  11  103.11    7.65
   5   5 -11  123.84    9.76
   5  -5  11  140.21    9.46
  -5  -5 -11  142.10    8.63
   5   5 -11  136.55    9.20
  -5   5 -11  149.87    9.46
   5   5  11  151.50    9.96
  -6  -5 -11    0.42    1.76
   6   5 -11    1.02    2.99
   6   5 -11    1.80    2.38
   6  -5  11    0.24    1.88
  -6   5 -11    2.57    2.43
   6   5  11    3.30    2.52
   7   5 -11  604.47   25.44
   7  -5  11  640.41   26.92
   7   5 -11  614.60   27.11
  -7   5 -11  612.61   25.96
   7   5  11  645.31   27.27
   8  -5  11   30.04    4.53
  -8   5 -11   37.79    5.03
   8   5  11   30.91    4.95
   9   5  11   76.52    5.88
  -9   5 -11   75.21    5.48
   0  -6 -11   60.85    6.67
   0   6 -11   57.57    6.41
  -1  -6 -11  220.17   13.51
  -1   6  11  206.35   10.44
   1   6 -11  202.88   13.22
   1  -6 -11  221.64   13.50
  -2   6  11  503.36   20.85
   2   6 -11  499.03   24.57
  -2  -6 -11  503.88   24.30
  -2   6 -11  472.67   21.35
   3  -6  11 1280.79   47.81
  -3  -6 -11 1297.00   52.74
   3   6 -11 1325.85   47.97
   3   6 -11 1331.03   49.94
  -3  -6 -11 1303.24   47.52
   3   6  11 1382.00   48.77
  -3   6 -11 1313.45   48.26
   4  -6  11   44.28    5.60
   4   6 -11   50.62    7.06
  -4  -6 -11   45.20    5.28
   4   6 -11   40.34    5.31
  -4   6 -11   56.54    5.82
   4   6  11   47.48    5.53
   5  -6  11  308.44   15.77
   5   6 -11  300.38   16.66
   5   6 -11  318.52   15.68
  -5  -6 -11  329.49   15.13
  -5   6 -11  312.04   15.65
   5   6  11  316.84   16.35
   6  -6  11   71.37    6.87
   6   6 -11   76.13    7.80
  -6  -6 -11   67.24    5.99
   6   6 -11   72.84    6.87
   6   6  11   71.13    7.12
  -6   6 -11   68.32    6.77
   7  -6  11  182.97   10.98
   7   6 -11  172.04   10.22
   7   6 -11  185.22   11.15
  -7  -6 -11  174.88    9.68
   7   6  11  164.30   11.14
  -7   6 -11  160.42   10.28
   8   6  11   80.44    6.82
  -8   6 -11   71.10    6.03
   0  -7 -11  192.30   13.04
   0   7  11  198.75   13.51
   0   7 -11  195.75   11.37
  -1  -7 -11  103.90    9.24
   1   7 -11   93.78    7.62
  -1   7  11   92.44    6.90
  -1  -7 -11   87.52    6.28
  -1   7 -11   77.15    7.06
   1   7  11   89.07    6.82
   2  -7  11   99.44    6.88
  -2  -7 -11   97.74    9.48
  -2  -7 -11  107.90    6.96
   2   7 -11   98.84    6.99
  -2   7  11   95.87    7.33
   2   7 -11   97.88    8.51
  -2   7  11   97.55    7.20
   2   7  11   98.48    7.44
  -2   7 -11   89.89    7.48
   3   7 -11  861.64   35.23
  -3  -7 -11  881.92   32.83
   3   7 -11  879.78   33.11
   3   7  11  839.91   33.68
  -3   7 -11  813.30   33.43
   4  -7  11  439.80   20.31
  -4  -7 -11  477.21   20.22
   4   7 -11  460.32   22.34
   4   7 -11  472.34   20.53
   4   7  11  467.99   21.29
  -4   7 -11  473.43   20.96
   5   7 -11   78.51    7.24
   5   7 -11   89.08    8.71
  -5  -7 -11   81.92    6.73
   5  -7  11   87.66    7.34
   5   7  11   72.96    7.32
  -5   7 -11   70.31    6.99
   6   7 -11   95.65    8.94
  -6  -7 -11  112.59    7.81
   6   7 -11   92.99    7.91
   6  -7  11  103.50    8.23
   6   7  11  132.16    9.45
  -6   7 -11  123.94    8.68
   7   7 -11  291.81   14.34
   7   7 -11  307.01   15.29
   7  -7  11  297.26   14.72
  -7  -7 -11  310.95   13.95
  -7   7 -11  287.49   14.43
   7   7  11  283.20   15.38
   8   7 -11   22.80    3.41
   8   7 -11   23.13    3.65
  -8   7 -11   22.38    3.67
   8   7  11   25.00    4.22
   0  -8 -11  155.74   14.42
   0  -8 -11  150.03    9.45
   0   8 -11  151.33   10.13
   0   8  11  154.57    9.53
   1   8 -11   68.35    6.97
   1  -8  11   73.90    5.92
  -1  -8 -11   67.73    5.66
  -1   8  11   75.00    6.58
  -1  -8 -11   65.82    8.07
   1   8 -11   70.26    5.99
   1   8  11   48.36    5.82
  -1  -8  11   49.52    7.25
  -1   8 -11   49.46    6.32
  -2   8  11  539.76   23.14
   2   8 -11  569.60   25.00
   2   8 -11  566.33   22.77
   2  -8  11  543.55   22.63
  -2  -8 -11  551.19   22.53
  -2   8 -11  538.93   23.75
   2   8  11  520.26   23.31
   3   8 -11  353.32   16.48
   3  -8  11  336.58   16.14
   3   8 -11  356.78   18.61
  -3  -8 -11  355.71   16.22
  -3   8  11  331.38   16.55
  -3   8 -11  352.58   17.24
   3   8  11  356.61   17.38
   4  -8  11  474.41   21.18
   4   8 -11  481.69   21.46
  -4  -8 -11  480.85   21.13
   4   8 -11  472.42   23.38
  -4   8 -11  511.45   22.27
   4   8  11  516.70   22.80
   5   8 -11  398.67   19.99
   5   8 -11  386.43   17.96
   5  -8  11  369.08   17.76
  -5  -8 -11  379.12   17.51
  -5   8 -11  378.54   18.27
   5   8  11  364.08   18.68
  -6  -8 -11   78.94    6.53
   6   8 -11   81.81    8.00
   6   8 -11   81.42    7.05
   6  -8  11   79.29    6.82
   6   8  11   81.32    7.61
  -6   8 -11   84.26    7.20
   7   8 -11  109.87    7.31
  -7  -8 -11  112.32    7.11
   7   8 -11  121.38    8.41
  -7   8 -11  101.96    7.56
   7   8  11  102.66    8.16
   8   8  11  185.15   10.10
   0   9 -11   20.30    4.64
   0  -9  11   22.83    4.16
   0   9  11   28.86    4.84
  -1  -9 -11  135.75    8.74
   1   9 -11  125.30    9.92
  -1   9  11  128.71    9.37
   1  -9  11  139.76    9.05
  -1   9 -11  155.85   10.48
   1   9  11  145.01    9.82
   2   9 -11  214.79   11.61
  -2   9  11  210.33   12.27
   2   9 -11  224.24   13.80
  -2  -9 -11  214.85   11.63
   2  -9  11  207.91   11.73
   2   9  11  215.40   12.69
  -2   9 -11  225.09   13.10
  -3   9  11   47.53    6.18
   3   9 -11   39.18    5.41
  -3  -9 -11   50.56    6.06
   3   9 -11   42.29    7.07
   3  -9  11   45.98    5.76
   3   9  11   44.66    6.22
  -3   9 -11   51.26    6.86
  -4   9  11   62.10    7.24
   4   9 -11   64.51    6.52
  -4  -9 -11   62.15    6.10
   4   9 -11   61.74    8.31
   4   9  11   82.97    7.74
  -4   9 -11   70.42    6.99
   5   9 -11   21.90    4.21
  -5  -9 -11   16.66    3.59
  -5   9  11   24.41    4.61
   5   9 -11   27.98    5.71
   5  -9  11   19.23    3.83
  -5   9 -11   23.56    4.57
   5   9  11   23.82    4.79
  -6   9  11   20.62    4.24
   6   9 -11   16.88    4.37
   6   9 -11   16.49    3.71
  -6  -9 -11   18.17    3.55
   6   9  11   28.67    5.04
  -6   9 -11   30.46    4.54
   7   9 -11    3.33    2.16
  -7   9  11    4.50    2.71
  -7  -9 -11    5.61    2.20
   7   9 -11    6.09    2.69
   7   9  11    7.70    3.10
  -7   9 -11    6.77    2.82
   0  10  11  239.50   13.53
   0  10 -11  238.28   14.16
   0 -10  11  239.51   13.03
   1  10 -11  154.96   11.43
  -1 -10 -11  152.12    9.65
   1 -10  11  165.11   10.20
  -1  10  11  162.48   10.90
  -1 -10  11  158.00   10.02
   1  10  11  153.37   10.66
  -1  10 -11  166.44   11.13
   2 -10  11 1036.90   39.83
  -2 -10 -11 1058.71   39.35
   2  10 -11 1061.54   41.88
  -2  10  11 1041.41   40.28
   2  10 -11 1006.23   38.82
  -2 -10  11 1013.58   39.63
   2  10  11 1060.10   40.98
  -2  10 -11 1015.18   40.85
  -3  10  11   33.45    5.43
   3 -10  11   38.10    5.30
   3  10 -11   32.89    6.09
   3  10 -11   27.59    4.63
  -3 -10 -11   36.48    5.25
  -3 -10  11   21.68    4.14
   3  10  11   20.37    4.62
  -3  10 -11   22.51    4.88
  -4  10  11  250.62   13.84
   4  10 -11  230.34   12.93
  -4 -10 -11  239.00   12.92
   4  10 -11  237.63   14.76
  -4 -10  11  244.59   12.63
   4  10  11  273.23   14.67
  -4  10 -11  261.61   14.07
   5  10 -11   34.84    4.93
   5  10 -11   33.00    5.67
  -5  10  11   31.53    5.24
  -5 -10 -11   42.01    5.34
  -5  10 -11   28.84    4.96
   5  10  11   35.86    5.59
  -6 -10 -11  116.67    7.35
   6  10 -11  118.65    7.53
   6  10 -11  121.49    8.45
  -6  10  11  106.27    7.75
  -6  10 -11   90.91    7.22
   6  10  11   99.85    7.94
  -7 -10 -11    1.70    1.76
   7  10 -11    0.47    2.02
   7  10 -11   -1.07    1.86
   7  10  11    1.28    2.46
   0  11  11   -1.36    2.49
   0 -11  11    1.02    2.10
   0  11 -11   -0.65    2.64
   1  11 -11   74.60    7.83
   1 -11  11   65.91    6.55
  -1  11  11   65.11    7.12
  -1  11 -11   55.92    7.22
  -1 -11  11   62.68    6.37
   1  11  11   66.30    7.19
   2  11 -11   28.12    5.80
  -2 -11 -11   25.76    4.33
  -2  11  11   27.59    5.06
   2 -11  11   27.84    4.75
  -2 -11  11   21.16    4.07
   2  11  11   27.85    5.03
  -2  11 -11   20.75    4.74
   3 -11  11    5.39    2.59
  -3 -11 -11    7.06    2.68
  -3  11  11    6.94    3.43
   3  11 -11    6.72    2.85
   3  11 -11    4.41    3.14
  -3 -11  11    2.21    2.27
  -3  11 -11    4.04    2.97
   3  11  11    3.76    3.01
  -4  11  11   41.36    5.82
   4  11 -11   38.90    5.17
  -4 -11 -11   41.84    5.22
   4  11 -11   41.77    6.45
  -4  11 -11   49.00    6.27
   4  11  11   46.39    6.31
  -5 -11 -11   59.41    5.40
   5  11 -11   54.88    5.32
   5  11 -11   57.80    6.54
  -5  11  11   49.34    5.80
   5  11  11   54.97    6.19
  -5  11 -11   54.18    5.86
  -6 -11 -11   61.46    5.44
   6  11 -11   71.95    6.08
   6  11 -11   71.40    5.69
  -6  11  11   60.63    5.73
   6  11  11   86.49    6.88
   0  12 -11  219.58   13.25
   0 -12  11  238.48   12.89
   0  12  11  214.11   12.94
   1 -12  11  219.82   12.28
   1  12 -11  213.04   13.19
  -1  12  11  212.14   12.57
  -1  12 -11  221.79   13.13
   1  12  11  219.50   12.88
  -1 -12  11  223.58   12.40
  -2  12  11   85.23    7.60
   2 -12  11   79.75    6.84
  -2 -12 -11   77.23    6.39
   2  12 -11   81.21    7.84
   2  12  11   61.85    6.99
  -2  12 -11   66.33    7.84
  -2 -12  11   59.73    6.24
  -3 -12 -11  122.92    8.02
   3  12 -11  114.76    7.57
   3 -12  11  123.20    8.42
   3  12 -11  118.43    9.18
  -3  12  11  122.33    8.95
  -3  12 -11  113.43    8.55
   3  12  11  123.08    9.05
  -3 -12  11  121.71    8.03
  -4 -12 -11   94.90    6.68
   4  12 -11   89.56    6.37
   4  12 -11   91.23    7.79
  -4  12  11   94.27    7.51
   4  12  11   97.19    7.62
  -4  12 -11   85.73    7.03
  -5 -12 -11   18.82    3.32
   5  12 -11   19.05    3.33
   5  12 -11   15.98    3.68
  -5  12  11   13.45    3.44
   5  12  11   17.42    3.99
   0 -13  11   16.10    3.69
   0  13 -11   11.90    3.81
   0  13  11   15.77    3.94
   1 -13  11  215.07   11.65
  -1  13  11  219.06   12.11
   1  13 -11  223.75   12.47
   1  13  11  206.30   11.82
  -1 -13  11  188.54   11.16
  -1  13 -11  203.09   11.91
   2  13 -11    9.93    3.37
  -2  13  11    6.90    2.93
   2 -13  11    9.23    2.85
   2  13  11   10.45    3.42
  -2  13 -11   12.01    3.57
  -2 -13  11   11.17    3.19
  -3 -13 -11   64.07    5.41
   3 -13  11   59.83    5.39
  -3  13  11   70.50    6.33
   3  13 -11   66.87    6.58
   3  13  11   71.97    6.49
  -3 -13  11   71.94    5.72
  -3  13 -11   67.17    6.26
   4  13 -11  128.74    7.18
  -4  13  11  137.89    8.36
   4  13 -11  133.64    8.72
  -4 -13 -11  128.78    7.47
   4  13  11  139.11    8.68
   0  14 -11   14.63    3.53
   0 -14  11   16.52    3.42
   0  14  11   16.32    3.74
  -1  14  11   12.22    3.52
   1 -14  11    6.46    2.80
   1  14 -11    6.46    3.02
  -1 -14  11    8.92    2.90
  -1  14 -11   10.00    3.22
   1  14  11   10.50    3.27
   2  14 -11    1.68    2.52
  -2  14  11    4.32    2.84
   2 -14  11    1.24    1.97
  -2 -14  11    2.05    2.16
  -2  14 -11    3.17    2.72
   2  14  11    5.32    2.85
   3  14 -11   20.18    3.61
  -3  14  11   20.58    3.67
   3  14  11   24.28    3.77
   0   0 -12 7364.17  247.58
   0   0  12 7374.69  244.10
  -1   0 -12  168.47   10.24
   1   0  12  164.28    8.30
  -1   0  12  154.31    8.09
  -2   0 -12  692.15   28.55
  -2   0  12  706.39   26.19
   2   0 -12  664.94   29.06
  -3   0 -12   66.20    6.29
   3   0 -12   58.22    6.54
  -3   0  12   56.84    4.81
  -4   0  12 2475.28   84.85
   4   0 -12 2418.32   89.08
   5   0  12   16.08    3.65
  -5   0  12   11.74    3.23
   6   0  12  893.28   34.57
   6   0  12  850.90   34.70
   7   0  12  404.70   19.35
   7   0  12  413.31   19.18
   8   0  12  410.75   18.61
  -9   0 -12   13.79    3.03
   0   1  12 3121.11  103.66
   0   1 -12 2976.63  106.78
   0  -1  12 3087.34  103.79
   0  -1 -12 3105.76  107.03
  -1  -1 -12  255.76   13.67
   1  -1  12  259.92   11.47
  -1   1  12  262.88   11.46
   1   1 -12  254.97   13.88
  -1  -1  12  244.39   11.17
   1  -1 -12  238.64   13.60
  -1   1 -12  242.15   13.36
   1   1  12  240.08   11.06
  -2  -1 -12  248.91   13.87
  -2   1  12  250.19   11.86
   2   1 -12  254.14   14.52
  -2  -1  12  285.46   12.10
   2  -1 -12  273.19   14.80
  -2   1 -12  273.12   13.98
   3   1 -12  168.82   11.02
   3  -1 -12  117.52    9.58
  -3  -1  12  128.53    7.66
  -3   1 -12  126.73    8.90
   4  -1  12   99.37    8.10
  -4  -1 -12  103.07    8.51
   4   1 -12  107.57    9.52
  -4   1  12  111.17    7.37
   4  -1 -12   88.55    8.69
  -4  -1  12   82.34    6.41
   5   1 -12  281.28   13.67
  -5   1  12  277.67   14.50
   5  -1  12  283.04   14.47
   5   1 -12  269.22   22.81
   5   1  12  318.41   14.71
   5   1  12  303.01   14.61
   6  -1  12  133.22    9.18
   6   1  12  118.89    8.58
   6   1  12  117.27    8.71
   7  -1  12  184.93   11.58
   7   1  12  181.09   11.09
   7   1  12  179.24   11.26
   8  -1  12   78.17    6.76
   8   1  12   65.95    6.35
  -9   1 -12  125.98    7.89
   0   2  12  779.56   28.41
   0  -2  12  757.95   28.63
   0  -2 -12  761.36   31.44
   0   2 -12  779.60   31.48
   1   2 -12  318.65   16.52
  -1   2  12  338.91   14.05
  -1  -2 -12  339.07   16.53
   1   2  12  316.40   13.56
   1  -2 -12  328.73   16.67
  -1   2 -12  322.96   16.09
  -1  -2  12  329.49   13.90
   2   2 -12  155.07   10.81
  -2  -2 -12  157.10   10.42
  -2   2  12  169.27    8.82
   2  -2 -12  172.57   11.16
  -2   2 -12  160.08   10.08
   2   2  12  159.27    8.29
  -2  -2  12  171.42    8.54
  -3   2  12  172.36    9.60
  -3  -2 -12  173.54   11.45
  -3  -2  12  181.20    9.23
   3  -2 -12  190.22   12.06
   4   2 -12 1800.54   70.60
   4  -2  12 1861.27   66.11
   4   2 -12 1822.42   67.76
  -4   2  12 1934.86   66.70
  -4  -2 -12 1881.75   69.44
  -4  -2  12 1908.56   65.53
   5   2 -12   67.28    8.64
   5  -2  12   74.66    6.41
   5   2 -12   59.38    5.92
   5   2  12   77.30    6.39
   5   2  12   69.69    6.32
   6  -2  12  276.90   14.37
   6   2  12  224.97   17.28
   6   2  12  258.27   13.82
   7  -2  12  292.18   15.39
   7   2  12  272.66   14.77
   8  -2  12  224.45   12.40
  -8   2 -12  231.82   12.28
   8   2  12  204.14   11.93
  -9   2 -12   36.38    4.46
   0   3 -12   45.09    5.35
   0   3  12   40.15    3.72
   0  -3 -12   43.43    5.36
   0  -3  12   41.48    4.02
  -1  -3 -12 1018.50   38.33
  -1   3  12  995.27   34.97
   1   3 -12  981.94   38.35
  -1   3 -12  949.45   37.29
  -1  -3  12  919.26   34.71
   1   3  12  917.43   34.30
   1  -3 -12  919.84   37.95
  -2   3  12    6.30    2.10
   2   3 -12    2.60    2.36
  -2  -3 -12    4.63    2.47
   2  -3 -12    5.70    2.66
   2   3  12    6.92    1.93
  -2  -3  12    5.21    1.91
  -2   3 -12    5.96    2.60
   3   3 -12  720.44   31.38
  -3  -3 -12  730.45   30.57
  -3   3  12  755.13   27.79
   3  -3 -12  635.31   29.53
  -3  -3  12  636.29   26.16
   4  -3  12  209.90   11.05
   4   3 -12  199.96   14.10
  -4   3  12  204.79   11.45
  -4  -3 -12  215.40   13.70
  -4  -3 -12  203.18   10.11
   4   3  12  183.01   10.86
  -4   3 -12  189.96   10.61
   5   3 -12  765.95   30.87
  -5  -3 -12  767.86   30.13
   5  -3  12  808.85   31.95
   5   3  12  830.66   31.85
   6  -3  12  193.47   11.78
   6   3 -12  195.30   11.06
   6   3  12  189.70   11.69
   7  -3  12  130.05    9.46
   7   3  12  121.70    9.06
  -7   3 -12  126.43    9.03
   8  -3  12   56.28    5.93
   8   3  12   60.01    6.12
  -8   3 -12   59.16    5.84
  -9   3 -12  161.39    8.83
   0   4 -12   12.07    3.39
   0  -4 -12   10.30    3.16
   0   4  12   16.32    2.72
  -1   4  12  442.50   17.66
  -1  -4 -12  427.19   20.55
   1   4 -12  434.39   20.86
   1  -4 -12  423.91   20.50
  -1  -4  12  431.07   17.61
  -1   4 -12  415.03   19.53
   1   4  12  406.37   16.88
   2   4 -12   96.52    8.67
  -2   4  12   98.79    6.55
  -2  -4 -12   93.07    8.25
   2  -4 -12   91.85    8.32
  -2  -4  12   87.04    5.98
  -3  -4 -12  427.13   21.65
   3   4 -12  419.01   22.17
  -3   4  12  433.32   18.86
  -4   4  12   12.22    3.49
   4  -4  12   20.91    3.96
   4   4 -12   14.31    4.74
  -4  -4 -12   14.81    4.62
   4   4 -12   15.51    3.32
  -4  -4 -12   15.29    3.14
   4   4  12   21.60    3.76
  -4   4 -12   22.96    3.97
   5   4 -12  526.83   22.43
   5  -4  12  527.70   22.95
  -5  -4 -12  528.11   21.75
   5   4  12  536.57   23.05
  -5   4 -12  521.95   22.67
   6   4 -12   45.11    5.93
  -6  -4 -12   41.70    5.25
   6  -4  12   43.58    6.03
   6   4  12   47.37    5.71
  -6   4 -12   38.17    5.60
   7  -4  12  527.39   22.62
   7   4 -12  488.80   20.96
   7   4  12  460.56   21.83
  -7   4 -12  482.98   21.56
   8  -4  12   34.63    4.89
  -8   4 -12   34.06    4.71
   8   4  12   38.46    5.26
  -9   4 -12  167.40    8.78
   0  -5 -12  901.64   37.61
   0   5  12  917.03   33.82
   0   5 -12  949.44   37.48
  -1   5  12  753.90   27.52
  -1  -5 -12  732.91   31.05
   1   5 -12  757.56   31.37
   1  -5 -12  654.61   30.40
  -1   5 -12  660.79   29.70
  -2  -5 -12  159.99   11.28
  -2   5  12  146.44    8.61
   2  -5 -12  128.45   10.73
  -3  -5 -12 1047.21   38.46
   3   5 -12 1026.50   40.36
  -3  -5 -12 1035.60   43.33
   3  -5  12 1039.65   38.75
   3   5 -12 1046.57   44.11
  -3   5  12 1050.49   39.70
   3   5  12 1044.86   39.00
  -3   5 -12 1070.23   39.29
   4   5 -12 1129.47   42.85
  -4  -5 -12 1143.19   42.35
   4  -5  12 1162.84   43.28
   4   5 -12 1131.02   44.26
   4   5  12 1159.76   43.25
  -4   5 -12 1194.91   43.27
   5   5 -12  973.19   39.02
  -5  -5 -12  974.09   37.14
   5   5 -12  963.51   37.75
   5  -5  12  991.18   38.29
   5   5  12  999.20   38.68
  -5   5 -12 1006.16   38.10
   6  -5  12  450.05   20.71
   6   5 -12  447.01   20.89
  -6  -5 -12  446.16   19.24
   6   5 -12  457.18   20.11
   6   5  12  430.04   20.69
  -6   5 -12  426.15   19.98
   7   5 -12  273.80   13.17
   7  -5  12  276.88   14.14
  -7   5 -12  220.39   12.84
   7   5  12  228.51   13.51
   8  -5  12   29.38    4.32
  -8   5 -12   32.08    4.49
   8   5  12   26.21    4.33
   0  -6 -12  888.68   38.27
   0   6 -12  964.19   38.12
   1   6 -12  116.11    9.78
  -1  -6 -12  106.87    9.39
  -1   6  12  113.57    7.27
   1  -6 -12  118.23    9.87
   2   6 -12    0.60    2.54
   2   6 -12    0.85    1.86
  -2  -6 -12    1.81    2.35
  -2  -6 -12    0.59    1.65
  -2   6  12    3.13    1.95
   2   6 -12    2.94    2.81
  -2   6 -12    1.14    2.14
   2   6  12    0.04    2.11
  -3  -6 -12  541.94   21.33
   3   6 -12  525.15   21.58
   3  -6  12  506.06   21.37
  -3   6  12  506.52   22.20
   3   6 -12  527.70   23.43
  -3  -6 -12  515.65   25.90
  -3   6 -12  481.45   21.67
   3   6  12  484.33   21.70
   4   6 -12  717.81   28.55
   4   6 -12  694.08   30.14
  -4  -6 -12  719.92   28.07
   4  -6  12  706.73   28.47
   4   6  12  688.63   28.89
  -4   6 -12  720.44   28.86
  -5  -6 -12  567.04   23.83
   5   6 -12  573.58   25.92
   5   6 -12  576.36   24.47
   5  -6  12  572.41   24.71
   5   6  12  571.30   25.26
  -5   6 -12  588.91   24.86
  -6  -6 -12  214.58   11.38
   6   6 -12  212.48   12.03
   6   6 -12  217.80   13.19
   6  -6  12  198.60   12.10
   6   6  12  212.41   12.76
  -6   6 -12  208.57   12.21
   7   6 -12    2.65    2.52
   7  -6  12    1.21    2.08
  -7  -6 -12    1.82    1.99
   7   6 -12    3.65    2.49
   7   6  12    8.23    3.17
  -7   6 -12    3.96    2.53
  -8   6 -12  116.16    7.63
   8   6  12  117.30    8.08
   0   7  12  190.19   10.43
   0   7 -12  186.46   11.22
   0  -7 -12  195.91   13.41
   0  -7 -12  187.09    9.96
  -1   7  12  625.02   25.49
   1   7 -12  662.39   29.91
   1   7 -12  616.54   26.76
  -1  -7 -12  622.07   29.64
   1   7 -12  652.66   25.23
  -1  -7 -12  639.62   25.19
   1   7  12  634.37   25.80
  -1   7 -12  650.92   26.67
   2  -7  12   78.37    6.12
  -2   7  12   73.58    6.32
  -2   7  12   74.92    6.62
  -2  -7 -12   80.45    8.79
  -2  -7 -12   77.65    6.14
   2   7 -12   82.80    6.59
   2   7 -12   87.82    8.14
   2   7  12   78.79    6.83
  -2   7 -12   80.17    6.94
  -3   7  12  456.20   20.11
  -3  -7 -12  477.30   20.15
   3   7 -12  484.95   22.56
   3   7 -12  468.60   20.38
   3   7  12  474.64   21.11
  -3   7 -12  465.27   21.03
   4  -7  12  480.10   21.13
  -4  -7 -12  478.87   20.79
   4   7 -12  498.20   23.32
   4   7 -12  474.99   21.10
  -4   7 -12  495.35   21.75
   4   7  12  475.98   21.83
   5  -7  12  166.00   10.21
   5   7 -12  165.93   11.62
  -5  -7 -12  154.01    9.56
   5   7 -12  159.37   10.10
   5   7  12  143.63   10.41
  -5   7 -12  134.74    9.85
   6   7 -12   31.03    5.08
   6   7 -12   30.89    5.69
   6  -7  12   31.76    5.02
  -6  -7 -12   32.35    4.69
   6   7  12   23.23    4.72
  -6   7 -12   21.38    4.34
   7   7 -12   54.50    6.06
   7  -7  12   72.37    6.23
   7   7 -12   64.79    6.45
  -7  -7 -12   62.85    5.40
   7   7  12   75.13    6.96
  -7   7 -12   74.01    6.44
   8   7 -12  169.68    8.87
  -8   7 -12  187.50    9.71
   8   7  12  193.06   10.37
   0   8  12  793.02   31.12
   0   8 -12  773.46   32.17
   0  -8 -12  796.76   30.42
   1   8 -12  256.20   12.35
   1  -8  12  239.99   12.34
   1   8 -12  248.04   14.16
  -1   8  12  244.93   12.98
  -1  -8 -12  251.50   12.41
   1   8  12  248.04   13.19
  -1   8 -12  246.21   13.62
  -2   8  12   67.82    6.43
   2   8 -12   64.90    6.00
   2   8 -12   65.84    7.36
   2  -8  12   59.55    5.82
  -2  -8 -12   63.52    5.87
   2   8  12   66.84    6.66
  -2   8 -12   64.70    6.85
   3   8 -12  272.88   15.80
  -3  -8 -12  263.81   13.46
   3   8 -12  265.98   13.64
  -3   8  12  250.58   13.80
   3   8  12  273.95   14.66
  -3   8 -12  287.52   14.84
   4   8 -12  469.84   22.89
  -4   8  12  453.62   20.70
   4   8 -12  483.80   20.94
  -4  -8 -12  487.88   20.70
   4  -8  12  477.51   20.65
  -4   8 -12  447.40   21.28
   4   8  12  457.59   21.54
   5   8 -12  466.07   22.55
  -5  -8 -12  430.53   20.04
   5  -8  12  424.17   20.25
   5   8 -12  458.74   20.65
  -5   8 -12  500.79   21.47
   5   8  12  501.20   22.18
   6   8 -12   86.68    8.03
  -6  -8 -12   86.48    6.80
  -6   8  12   85.25    7.05
   6   8 -12   96.21    7.41
   6  -8  12   84.15    6.96
  -6   8 -12   94.34    7.58
   6   8  12   98.42    8.16
  -7   8  12   22.85    4.79
   7   8 -12   37.63    4.63
  -7  -8 -12   30.01    4.01
   7   8 -12   28.17    4.55
   7   8  12   30.97    4.90
  -7   8 -12   26.53    4.28
   0   9 -12   10.49    3.77
   0   9  12   10.69    3.35
   0  -9  12   10.07    2.82
  -1  -9 -12   61.10    5.99
   1  -9  12   66.84    6.20
  -1   9  12   66.08    6.85
   1   9 -12   68.26    7.47
   1   9  12   63.54    6.70
  -1   9 -12   49.79    7.03
  -2   9  12    3.80    2.79
   2   9 -12    9.72    3.99
   2  -9  12   10.12    3.03
   2   9 -12    8.17    3.06
  -2  -9 -12   10.67    2.99
  -2   9 -12    8.19    3.35
   2   9  12    6.57    3.27
   3  -9  12   20.91    4.06
  -3  -9 -12   21.67    4.27
   3   9 -12   19.90    5.01
   3   9 -12   21.42    4.21
  -3   9  12   20.70    4.29
   3   9  12   18.09    4.19
  -3   9 -12   22.76    4.92
  -4   9  12  172.19   10.85
   4   9 -12  174.46   12.09
   4   9 -12  162.38   10.20
  -4  -9 -12  177.18   10.34
   4   9  12  144.32   10.64
  -4   9 -12  155.52   10.70
  -5  -9 -12  192.25   10.93
   5   9 -12  200.53   12.83
   5  -9  12  186.92   11.63
  -5   9  12  188.19   11.57
   5   9 -12  196.19   11.31
   5   9  12  204.64   12.49
  -5   9 -12  203.76   11.77
   6   9 -12   12.73    3.38
  -6  -9 -12   16.41    3.34
  -6   9  12   14.61    3.58
   6   9 -12   15.65    4.12
   6   9  12   14.84    3.76
  -6   9 -12   18.89    3.91
   7   9 -12   18.28    3.22
   7   9 -12   23.65    3.85
  -7   9  12   20.36    3.59
  -7  -9 -12   21.36    3.30
   7   9  12   24.06    4.24
  -7   9 -12   22.61    3.75
   0 -10  12  444.36   19.91
   0  10  12  434.37   20.24
   0  10 -12  429.81   21.10
   1  10 -12  516.29   23.85
  -1  10  12  504.66   22.38
  -1 -10 -12  500.53   21.48
   1 -10  12  506.49   21.99
   1  10  12  508.80   22.70
  -1  10 -12  495.73   23.14
  -1 -10  12  487.81   21.96
   2 -10  12   66.76    6.60
  -2  10  12   87.00    7.80
   2  10 -12   86.69    8.53
   2  10 -12   81.89    6.74
  -2 -10 -12   70.35    6.55
  -2  10 -12   78.38    8.01
  -2 -10  12   80.96    6.98
   2  10  12   74.74    7.41
   3 -10  12  149.00    9.70
  -3  10  12  151.46   10.52
   3  10 -12  143.72    9.54
  -3 -10 -12  151.57    9.75
   3  10 -12  156.23   11.63
  -3  10 -12  173.27   11.18
   3  10  12  189.26   11.70
  -3 -10  12  179.67   10.33
  -4  10  12  500.91   21.52
   4  10 -12  504.22   20.98
   4  10 -12  536.94   23.43
  -4 -10 -12  496.57   20.84
  -4 -10  12  429.41   19.90
  -4  10 -12  435.69   21.26
   4  10  12  444.45   21.67
   5  10 -12  336.01   17.25
  -5 -10 -12  328.79   15.62
  -5  10  12  323.52   15.96
   5  10 -12  325.65   15.59
   5  10  12  366.69   17.40
  -5  10 -12  354.44   16.54
  -6 -10 -12   19.58    3.47
   6  10 -12   19.91    3.84
   6  10 -12   19.10    3.51
  -6  10  12   18.81    3.58
  -6  10 -12   12.71    3.26
   6  10  12   19.33    4.01
   0  11  12    5.03    3.02
   0  11 -12    5.40    3.40
   0 -11  12    6.46    2.84
   1  11 -12  447.17   21.34
   1 -11  12  448.82   19.99
  -1  11  12  416.42   19.96
   1  11  12  437.39   20.60
  -1  11 -12  428.16   20.84
  -1 -11  12  439.32   19.75
  -2 -11 -12   18.14    3.98
   2 -11  12   27.90    4.69
   2  11 -12   24.28    5.24
  -2  11  12   29.37    5.17
   2  11  12   23.04    4.57
  -2 -11  12   26.38    4.45
  -2  11 -12   24.94    4.98
  -3  11  12  151.22   10.25
  -3 -11 -12  145.81    9.41
   3  11 -12  155.42    9.37
   3  11 -12  155.50   11.08
   3 -11  12  149.37    9.46
  -3 -11  12  163.34    9.64
  -3  11 -12  163.88   10.77
   3  11  12  171.58   10.93
   4  11 -12  305.11   14.19
   4  11 -12  319.41   16.02
  -4 -11 -12  306.43   14.28
  -4  11  12  283.47   14.60
  -4  11 -12  281.86   14.82
  -4 -11  12  273.19   13.50
   4  11  12  288.30   15.09
  -5 -11 -12  190.86    9.85
  -5  11  12  182.42   10.19
   5  11 -12  177.54    9.53
   5  11 -12  180.03   10.92
   5  11  12  168.55   10.55
  -5  11 -12  161.04    9.90
  -6  11  12   44.21    4.91
   6  11 -12   57.22    4.92
   6  11 -12   48.25    5.01
  -6 -11 -12   52.10    4.61
   6  11  12   44.33    5.23
   0  12 -12   41.22    6.20
   0  12  12   43.77    5.97
   0 -12  12   39.79    5.68
  -1  12  12   12.98    3.76
   1  12 -12    6.11    3.35
   1 -12  12    9.94    3.21
  -1  12 -12    4.83    3.29
   1  12  12    3.41    2.98
  -1 -12  12    4.74    2.68
  -2  12  12   36.27    5.26
   2  12 -12   35.62    5.57
   2 -12  12   29.73    4.72
  -2 -12 -12   30.73    4.55
  -2  12 -12   35.65    5.68
   2  12  12   39.11    5.67
  -2 -12  12   32.28    4.80
   3  12 -12  150.34   10.15
  -3  12  12  148.73    9.58
   3 -12  12  130.48    8.83
   3  12 -12  140.71    8.59
  -3 -12 -12  146.21    8.83
   3  12  12  154.98   10.01
  -3 -12  12  163.43    9.20
  -3  12 -12  165.67    9.99
   4  12 -12   92.12    6.39
   4  12 -12   98.50    7.85
  -4 -12 -12  109.92    7.06
  -4  12  12  106.39    7.58
  -4  12 -12  101.00    7.31
   4  12  12   93.50    7.51
  -5  12  12  127.78    8.05
   5  12 -12  131.65    7.52
  -5 -12 -12  128.29    7.58
   5  12 -12  134.27    8.48
   5  12  12  155.37    9.01
  -5  12 -12  156.39   10.58
   0 -13  12   36.09    5.00
   0  13  12   40.44    5.43
   0  13 -12   42.73    5.80
   1  13 -12  133.99    9.41
  -1  13  12  131.22    9.06
   1 -13  12  131.50    8.71
  -1 -13  12  164.09    9.28
   1  13  12  150.34    9.43
  -1  13 -12  145.49    9.56
   2  13 -12   18.95    4.27
  -2  13  12   11.14    3.46
   2 -13  12   15.90    3.39
  -2  13 -12   16.86    3.78
  -2 -13  12   18.40    3.52
   2  13  12   15.11    3.83
   3 -13  12   70.44    5.42
  -3 -13 -12   72.47    5.57
   3  13 -12   65.82    6.46
  -3  13  12   73.92    6.33
  -3 -13  12   68.87    5.57
  -3  13 -12   62.56    6.05
   3  13  12   65.83    6.33
  -4 -13 -12   24.62    3.35
  -4  13  12   19.47    3.64
   4  13 -12   23.33    4.06
   4  13  12   20.99    3.92
   0  14  12   31.23    4.59
   0  14 -12   27.84    4.33
   0 -14  12   29.64    4.23
   1 -14  12  350.63   15.11
   1  14 -12  336.70   15.25
  -1  14  12  344.37   15.28
  -1  14 -12  312.76   14.86
   1  14  12  321.86   15.20
  -1 -14  12  343.42   14.91
   2  14 -12    4.12    2.62
  -2  14  12    3.80    2.58
   2 -14  12    1.73    1.96
  -2  14 -12    7.51    4.22
   2  14  12    7.16    3.02
  -2 -14  12    5.59    2.45
   0   0 -13    1.44    1.88
   0   0  13    0.31    1.23
   1   0 -13   69.13    6.88
  -1   0 -13   78.85    7.06
  -1   0  13   75.62    5.26
   1   0  13   76.17    5.34
  -2   0  13 1589.61   55.32
   2   0 -13 1537.09   58.88
  -2   0 -13 1571.21   58.18
   3   0 -13  333.38   18.25
  -3   0 -13  328.90   17.26
  -3   0  13  353.18   15.34
   4   0  13  130.39    8.36
   4   0 -13  128.65   10.86
  -4   0  13  142.59    8.66
   5   0  13    0.29    1.95
   6   0  13   26.02    4.68
   7   0  13   14.12    3.44
   7   0  13   14.76    3.72
   8   0  13    3.79    2.37
  -9   0 -13   14.78    3.15
   0   1 -13  236.09   13.51
   0   1  13  238.51   11.01
   0  -1  13  244.04   11.20
   0  -1 -13  227.70   13.39
   1  -1  13  646.49   24.75
  -1   1  13  662.18   24.68
   1   1 -13  650.58   28.00
  -1  -1 -13  639.34   27.57
   1   1  13  625.90   24.38
  -1  -1  13  635.20   24.55
   1  -1 -13  633.95   27.88
  -1   1 -13  642.99   27.51
  -2  -1 -13  378.34   18.48
  -2   1  13  366.93   15.85
   2   1 -13  363.58   18.86
   2  -1 -13  363.00   18.85
  -2   1 -13  370.38   18.11
  -2  -1  13  370.08   15.72
  -3   1  13  136.21    8.09
   3   1 -13  132.92   10.35
  -3  -1 -13  142.73   10.06
  -3   1 -13  125.10    9.25
  -3  -1  13  125.17    7.70
   3  -1 -13  126.49   10.20
   4   1 -13   33.14    4.49
   4  -1  13   29.65    4.39
  -4   1  13   25.87    4.23
  -4  -1 -13   29.35    5.60
   4   1 -13   27.94    5.93
   4   1  13   30.57    4.63
  -4  -1  13   22.56    3.88
   4  -1 -13   21.07    5.13
   5  -1  13  352.66   16.70
   5   1 -13  343.59   15.79
   5   1  13  334.66   16.39
   6  -1  13  199.85   11.85
   6   1  13  187.37   11.24
   6   1  13  181.74   11.41
   7  -1  13   30.82    5.27
   7   1  13   44.61    5.41
   7   1  13   43.10    5.65
   8  -1  13   26.07    4.52
  -8   1 -13   40.23    5.31
  -9  -1 -13   46.93    4.62
  -9   1 -13   41.37    4.46
   0  -2 -13   74.11    7.00
   0  -2  13   71.89    5.33
   0   2 -13   75.16    6.99
   0   2  13   74.99    5.17
  -1   2  13    1.29    1.55
   1   2 -13    1.04    1.82
  -1  -2 -13    7.80    2.98
   1  -2 -13    1.37    1.90
   1   2  13    2.06    1.43
  -1  -2  13    1.67    1.46
  -1   2 -13    3.23    2.19
  -2   2  13   97.36    6.47
  -2  -2 -13   95.43    8.20
   2   2 -13   96.13    8.51
   2  -2 -13  101.71    8.61
  -2   2 -13   99.70    7.91
  -2  -2  13  100.13    6.37
  -3   2  13  352.97   15.96
  -3  -2 -13  345.30   18.24
   3   2 -13  354.22   19.36
   3  -2 -13  339.37   18.54
  -3  -2  13  349.28   15.26
  -4   2  13   75.33    6.45
   4   2 -13   65.41    8.08
  -4  -2 -13   70.95    5.49
   4   2 -13   74.65    6.01
   4  -2  13   73.11    6.05
  -4  -2 -13   76.82    7.94
   4   2  13   73.84    6.18
  -4  -2  13   66.92    5.74
   5   2 -13    5.16    2.71
   5  -2  13    4.16    2.24
   5   2  13    1.82    2.31
   5   2  13    3.73    2.29
   6   2 -13  106.64    8.08
   6  -2  13  109.76    8.46
   6   2  13   97.41    7.89
   6   2  13  108.34    8.08
   7  -2  13  264.63   14.60
  -7   2 -13  270.22   14.18
   7   2  13  269.50   14.29
   8  -2  13   43.70    5.69
   8   2  13   55.73    5.66
  -8   2 -13   52.70    5.59
  -9   2 -13   66.60    5.57
   0  -3 -13   51.90    6.00
   0   3 -13   45.92    5.67
   0  -3  13   50.21    4.51
   0   3  13   47.34    4.14
   1   3 -13   43.37    5.66
  -1  -3 -13   59.19    6.28
  -1   3  13   50.05    4.37
   1   3  13   42.09    3.84
  -1  -3  13   37.81    4.02
  -1   3 -13   35.30    5.01
   1  -3 -13   38.90    5.46
   2   3 -13  800.73   33.95
  -2   3  13  810.66   30.15
  -2  -3 -13  807.64   33.42
   2  -3 -13  757.02   33.35
  -2   3 -13  775.82   31.89
  -2  -3  13  774.36   29.50
   2   3  13  760.67   29.52
   3   3 -13  551.61   27.14
  -3   3  13  573.54   23.60
  -3  -3 -13  531.67   26.18
  -3  -3  13  592.15   22.85
   3  -3 -13  606.44   26.89
   4   3 -13  697.76   28.88
   4   3 -13  735.83   34.30
  -4   3  13  781.78   30.40
  -4  -3 -13  745.73   33.26
  -4  -3 -13  766.46   28.64
   4  -3  13  768.46   29.63
   4   3  13  762.39   30.07
  -4   3 -13  761.89   29.43
   4   3  13  690.90   28.86
  -5  -3 -13  380.14   16.55
   5  -3  13  375.80   17.78
   5   3 -13  372.48   17.25
   5   3  13  377.94   17.61
  -5   3 -13  371.18   17.49
   6  -3  13  136.61    9.82
   6   3 -13  144.08    9.36
   6   3  13  147.40    9.92
  -6   3 -13  146.43    9.82
   7  -3  13  184.92   11.40
   7   3  13  173.25   10.93
  -7   3 -13  178.63   10.96
   8  -3  13   28.20    4.56
  -8   3 -13   31.04    4.62
   8   3  13   28.82    4.52
  -9   3 -13   58.97    5.14
   0   4 -13   78.99    7.33
   0  -4 -13   74.73    7.36
   0   4  13   68.28    5.14
  -1  -4 -13   15.54    4.13
   1   4 -13   16.54    4.36
  -1   4  13   16.81    3.07
   1   4  13   22.90    3.26
   1  -4 -13   18.70    4.39
  -1   4 -13   21.40    4.22
  -1  -4  13   22.44    3.63
  -2  -4 -13  148.34   10.87
   2   4 -13  148.43   11.15
  -2   4  13  146.33    8.48
  -2  -4  13  123.34    7.71
   2  -4 -13  117.50   10.08
   3   4 -13   57.11    5.22
  -3  -4 -13   51.10    6.80
   3  -4  13   51.07    4.93
   3   4 -13   54.22    7.28
  -3   4  13   54.56    5.39
  -3  -4 -13   50.64    4.76
  -3   4 -13   53.57    5.25
   4  -4  13  423.11   18.47
   4   4 -13  410.14   18.23
  -4  -4 -13  392.47   21.84
  -4  -4 -13  430.08   17.86
   4   4  13  396.28   18.15
  -4   4 -13  399.84   18.22
   5   4 -13  172.26   10.41
   5  -4  13  174.70   10.90
  -5  -4 -13  178.40    9.96
   5   4  13  186.32   10.91
  -5   4 -13  180.62   10.76
   6  -4  13   85.61    7.47
  -6  -4 -13   92.25    6.86
   6   4 -13   78.25    7.15
  -6   4 -13   98.54    7.79
   6   4  13   88.69    7.64
   7   4 -13  124.30    8.62
   7  -4  13  135.06    9.51
   7   4  13  151.22    9.82
  -7   4 -13  146.16    9.46
   8  -4  13  244.66   12.61
   8   4  13  251.83   12.86
  -8   4 -13  241.15   12.36
   0  -5 -13   47.15    6.15
   0   5  13   44.49    4.19
   0   5 -13   41.96    5.87
  -1   5  13  103.94    6.99
   1   5 -13  112.69    9.57
  -1  -5 -13  103.88    9.23
   1  -5 -13  138.11   10.37
   2   5 -13 1317.88   48.00
  -2   5  13 1317.57   48.72
  -2  -5 -13 1288.05   47.86
  -2  -5 -13 1365.68   53.21
   2   5 -13 1352.18   53.41
   2  -5 -13 1378.03   59.87
  -2   5 -13 1365.53   48.75
  -3  -5 -13  218.00   14.87
  -3   5  13  235.20   12.38
   3   5 -13  224.74   13.00
   3  -5  13  235.11   11.70
  -3  -5 -13  239.97   11.48
   3   5 -13  219.32   15.36
   3   5 -13  256.42   12.11
   3   5  13  197.38   11.26
  -3   5 -13  196.57   11.47
   4   5 -13  173.95   10.23
   4   5 -13  180.58   11.41
  -4  -5 -13  172.36    9.69
   4  -5  13  182.66   10.49
   4   5  13  157.23    9.98
  -4   5 -13  156.46   10.08
   5   5 -13  144.27   10.78
   5   5 -13  154.99   10.08
   5  -5  13  143.59    9.86
  -5  -5 -13  146.57    9.29
  -5   5 -13  181.81   10.72
   5   5  13  195.74   11.07
  -6  -5 -13  259.92   12.96
   6   5 -13  256.07   13.64
   6  -5  13  271.28   14.35
  -6   5 -13  255.51   13.85
   6   5  13  253.07   14.15
   7  -5  13   57.45    6.10
   7   5 -13   45.35    5.51
  -7   5 -13   37.50    5.28
   7   5  13   36.41    5.23
   8  -5  13   71.96    5.99
   8   5  13   72.54    6.29
  -8   5 -13   71.06    5.95
   0  -6 -13   36.87    7.26
   0   6 -13   31.47    5.81
   0  -6 -13   29.40    5.91
   0   6 -13   35.61    5.31
   1   6 -13  348.43   16.62
  -1  -6 -13  346.05   19.08
   1   6 -13  334.08   18.73
  -1   6  13  341.41   15.27
   1   6 -13  334.99   14.85
  -1  -6 -13  339.80   15.05
   1  -6 -13  318.61   18.60
  -1   6 -13  323.39   15.83
  -2  -6 -13  401.57   21.69
   2   6 -13  392.58   21.78
   2   6 -13  405.50   17.59
   2   6 -13  414.35   19.49
  -2   6  13  403.96   18.02
  -2   6 -13  392.96   18.13
   2   6  13  399.73   17.66
   3   6 -13   80.17    8.00
  -3  -6 -13   89.42    6.65
   3  -6  13   84.10    6.68
   3   6 -13   92.17    7.15
   3   6  13   96.94    7.30
  -3   6 -13   98.67    7.52
   4   6 -13   63.69    6.32
  -4  -6 -13   61.78    5.73
   4   6 -13   67.65    7.39
   4  -6  13   57.81    5.81
  -4   6 -13   69.48    6.65
   4   6  13   67.60    6.37
  -5  -6 -13  214.07   11.53
   5  -6  13  225.48   12.38
   5   6 -13  216.12   12.16
   5   6 -13  203.74   13.11
   5   6  13  206.83   12.52
  -5   6 -13  207.48   12.19
   6   6 -13   93.26    8.64
  -6  -6 -13   97.43    7.22
   6   6 -13  102.82    8.00
   6  -6  13  101.35    8.00
  -6   6 -13  106.93    8.10
   6   6  13   98.23    8.18
   7   6 -13   36.47    4.91
   7  -6  13   38.47    5.25
  -7  -6 -13   33.35    4.38
   7   6  13   45.29    5.95
  -7   6 -13   41.14    5.30
  -8   6 -13  137.66    8.36
   8   6  13  140.09    8.60
   0  -7 -13   33.04    6.44
   0  -7 -13   35.49    4.71
   0   7  13   33.43    4.73
   0   7 -13   35.49    5.46
  -1   7  13  159.80    9.53
  -1  -7 -13  156.88   12.49
   1   7 -13  150.26   12.12
  -1  -7 -13  158.51    9.20
   1   7 -13  167.33    9.35
  -1   7 -13  170.25   10.55
   1   7  13  152.99    9.54
  -2   7  13  385.32   19.74
   2  -7  13  364.10   16.71
   2   7 -13  379.86   17.13
  -2   7  13  371.08   17.11
  -2  -7 -13  364.42   16.87
   2   7 -13  358.76   18.75
  -2   7 -13  405.67   18.31
   2   7  13  419.42   17.99
  -3  -7 -13  197.81   11.20
  -3   7  13  201.70   11.47
   3   7 -13  209.86   11.64
   3   7 -13  205.74   13.22
   3   7  13  227.85   12.44
  -3   7 -13  229.30   12.60
   4   7 -13   16.02    4.63
   4   7 -13   16.57    3.84
  -4  -7 -13   15.80    3.53
  -4   7  13   15.73    3.73
   4  -7  13   20.43    4.05
  -4   7 -13   22.58    4.61
   4   7  13   20.30    4.24
   5   7 -13  394.77   20.55
  -5  -7 -13  395.77   18.55
   5   7 -13  395.68   19.02
   5  -7  13  409.49   19.17
   5   7  13  455.46   20.51
  -5   7 -13  470.32   20.18
   6   7 -13  427.94   18.49
   6   7 -13  399.23   19.38
   6  -7  13  422.67   18.71
  -6  -7 -13  404.15   17.73
   6   7  13  374.25   18.82
  -6   7 -13  361.85   18.17
   7  -7  13   49.63    5.16
  -7  -7 -13   55.10    4.91
   7   7 -13   54.63    5.65
   7   7 -13   45.95    5.22
  -7   7 -13   54.26    5.56
   7   7  13   50.29    5.72
   8   7  13  105.14    7.16
  -8   7 -13  112.34    7.03
   0  -8 -13   57.64    6.26
   0   8  13   55.24    6.00
   0   8 -13   57.25    6.49
  -1  -8 -13   70.46    6.19
   1   8 -13   65.83    7.23
   1   8 -13   68.31    6.05
   1  -8  13   73.46    6.11
  -1   8  13   65.84    6.76
   1   8  13   98.61    7.45
  -1   8 -13   93.20    7.67
  -2   8  13  309.90   15.09
   2  -8  13  297.60   14.54
   2   8 -13  314.37   14.74
  -2  -8 -13  304.83   14.67
   2   8 -13  309.53   16.68
   2   8  13  298.78   15.27
  -2   8 -13  284.75   15.65
   3   8 -13  465.70   22.68
  -3   8  13  446.45   20.39
  -3  -8 -13  488.87   20.48
   3   8 -13  461.23   20.40
  -3   8 -13  471.80   21.42
   3   8  13  458.83   21.28
   4   8 -13   12.13    3.59
   4   8 -13   15.15    4.48
  -4   8  13   16.06    4.04
   4  -8  13   12.82    3.52
  -4  -8 -13   11.84    3.30
  -4   8 -13   14.62    4.22
   4   8  13   17.82    4.19
  -5  -8 -13  201.59   10.89
  -5   8  13  162.70   10.77
   5   8 -13  182.10   10.87
   5  -8  13  166.48   10.55
   5   8 -13  187.85   12.46
  -5   8 -13  190.49   11.54
   5   8  13  193.08   11.98
   6  -8  13  386.46   17.72
  -6  -8 -13  399.20   17.60
   6   8 -13  385.47   19.00
   6   8 -13  398.38   18.01
  -6   8  13  391.26   20.42
   6   8  13  426.92   19.30
  -6   8 -13  414.91   18.58
   7   8 -13  106.29    6.81
  -7  -8 -13  103.69    6.51
   7   8 -13   98.87    7.10
   7   8  13   99.16    7.53
  -7   8 -13   88.45    6.87
   0   9 -13   47.03    6.58
   0  -9  13   55.14    5.57
   0   9  13   57.27    6.25
  -1  -9 -13   14.12    3.55
   1   9 -13    9.77    3.77
  -1   9  13    9.87    3.41
   1  -9  13   14.14    3.39
  -1   9 -13   21.30    4.82
   1   9  13   21.39    4.27
   2  -9  13  356.77   17.29
   2   9 -13  373.22   17.35
  -2   9  13  377.06   17.95
  -2  -9 -13  378.51   17.51
   2   9 -13  380.12   19.63
  -2   9 -13  396.41   19.06
   2   9  13  410.41   18.70
  -3  -9 -13  247.06   13.05
   3   9 -13  235.27   12.82
  -3   9  13  232.27   13.20
   3   9 -13  231.46   14.67
   3  -9  13  236.17   12.69
  -3   9 -13  268.50   14.60
   3   9  13  263.75   14.25
   4   9 -13  512.98   23.80
   4   9 -13  500.68   21.72
  -4   9  13  478.11   21.69
  -4  -9 -13  494.10   21.59
   4   9  13  505.90   22.82
  -4   9 -13  506.53   22.74
   5   9 -13  210.44   11.30
  -5   9  13  179.45   10.96
   5   9 -13  197.07   12.43
  -5  -9 -13  201.61   10.87
  -5   9 -13  167.32   11.06
   5   9  13  192.09   11.92
  -6   9  13   28.12    4.25
   6   9 -13   26.43    4.76
  -6  -9 -13   32.05    4.24
   6   9 -13   28.33    4.22
  -6   9 -13   14.59    3.58
   6   9  13   18.18    3.93
  -7  -9 -13    5.41    2.22
   7   9 -13    5.19    2.32
   7   9 -13    5.36    2.36
  -7   9 -13    1.13    2.30
   7   9  13    4.19    2.39
   0  10  13  154.38   10.50
   0 -10  13  153.22    9.98
   0  10 -13  153.80   11.08
   1  10 -13  630.01   27.45
  -1 -10 -13  623.18   25.23
   1 -10  13  627.39   25.60
  -1  10  13  634.86   26.09
   1  10  13  589.19   26.05
  -1 -10  13  596.75   25.58
  -1  10 -13  566.93   26.44
   2  10 -13  140.25   10.92
  -2  10  13  140.96   10.06
   2  10 -13  140.21    9.03
  -2 -10 -13  133.73    9.24
   2 -10  13  149.59    9.60
  -2 -10  13  162.18    9.87
   2  10  13  168.47   10.75
  -2  10 -13  157.25   10.93
  -3  10  13  999.80   37.89
   3 -10  13  929.47   36.85
  -3 -10 -13  970.79   37.25
   3  10 -13  994.09   37.11
   3  10 -13 1030.67   39.95
  -3  10 -13  945.70   38.38
   3  10  13  988.14   38.60
  -3 -10  13  934.26   37.03
   4  10 -13  126.22    9.89
  -4 -10 -13  124.44    8.38
   4  10 -13  117.60    8.32
  -4  10  13  124.63    8.99
  -4 -10  13  122.09    8.14
  -4  10 -13  135.54    9.47
   4  10  13  124.79    9.25
   5  10 -13  400.93   18.75
  -5 -10 -13  377.21   17.11
  -5  10  13  383.35   17.38
   5  10 -13  397.25   17.27
   5  10  13  404.10   18.61
  -5  10 -13  374.91   17.80
  -6  10  13   66.17    5.74
   6  10 -13   66.31    5.88
  -6 -10 -13   69.25    5.53
   6  10 -13   64.24    5.64
  -6  10 -13   71.65    5.98
   6  10  13   82.27    6.68
   0 -11  13    3.59    2.57
   0  11  13    2.03    2.81
   0  11 -13    2.06    2.91
   1 -11  13  252.58   13.58
  -1  11  13  243.35   13.83
   1  11 -13  262.82   15.01
   1  11  13  266.26   14.45
  -1 -11  13  272.40   13.81
  -1  11 -13  275.35   15.03
   2  11 -13  189.88   12.13
  -2 -11 -13  169.18   10.04
  -2  11  13  165.80   10.76
   2 -11  13  172.38   10.34
  -2  11 -13  169.56   11.25
   2  11  13  179.71   11.28
  -2 -11  13  179.52   10.62
   3  11 -13  245.32   13.93
  -3  11  13  235.71   12.95
  -3 -11 -13  241.29   12.33
   3 -11  13  232.20   12.09
   3  11 -13  217.74   11.73
  -3 -11  13  238.65   12.28
  -3  11 -13  217.57   12.98
   3  11  13  246.05   13.43
   4  11 -13  292.04   15.42
  -4  11  13  289.05   14.46
  -4 -11 -13  304.94   14.19
   4  11 -13  308.79   14.07
  -4  11 -13  296.07   14.90
   4  11  13  288.15   14.92
  -4 -11  13  295.97   13.64
  -5  11  13   37.71    4.85
   5  11 -13   50.29    4.87
   5  11 -13   41.31    5.57
  -5 -11 -13   42.53    4.87
  -5  11 -13   48.62    5.43
   5  11  13   48.29    5.81
   6  11 -13   31.80    4.57
  -6 -11 -13   27.46    3.61
   6  11 -13   28.66    3.51
   6  11  13   22.70    3.67
   0 -12  13   48.12    5.93
   0  12 -13   54.64    7.11
   0  12  13   62.17    6.62
  -1  12  13  365.53   17.87
   1  12 -13  381.42   18.75
   1 -12  13  374.36   17.51
  -1  12 -13  391.44   18.74
   1  12  13  410.49   18.41
  -1 -12  13  384.96   17.68
   2  12 -13   40.54    5.84
   2 -12  13   37.66    5.02
  -2  12  13   37.83    5.36
  -2 -12 -13   32.43    4.64
   2  12  13   46.53    5.83
  -2  12 -13   38.83    5.80
  -2 -12  13   49.40    5.30
  -3  12  13  718.35   28.87
   3  12 -13  762.35   30.10
   3 -12  13  716.68   28.43
  -3 -12 -13  716.93   28.38
   3  12  13  752.70   29.61
  -3 -12  13  748.92   28.55
  -3  12 -13  739.65   29.42
   4  12 -13    2.95    2.69
   4  12 -13    1.71    2.11
  -4 -12 -13   -1.01    1.76
  -4  12  13    1.27    2.42
  -4  12 -13    1.34    2.39
   4  12  13    2.01    2.22
   5  12 -13  215.75   10.07
  -5 -12 -13  210.92   10.19
   5  12 -13  218.09   10.85
   5  12  13  217.27   10.86
   0  13 -13  276.98   13.96
   0 -13  13  282.22   13.29
   0  13  13  240.29   13.23
   1 -13  13    3.58    2.42
   1  13 -13    2.34    2.65
  -1  13  13    4.65    2.73
  -1  13 -13    3.62    2.82
   1  13  13    4.53    2.63
  -1 -13  13    4.63    2.50
   2 -13  13   42.74    4.88
  -2  13  13   39.13    5.06
   2  13 -13   38.72    5.32
  -2 -13  13   43.26    4.92
   2  13  13   39.36    5.17
  -2  13 -13   32.22    4.85
  -3 -13 -13    4.62    2.19
  -3  13  13    7.87    2.94
   3 -13  13    6.04    2.03
   3  13 -13    5.58    3.13
  -3  13 -13    6.51    2.95
   3  13  13    8.76    3.05
  -3 -13  13    6.57    2.47
   0  14  13   14.54    3.47
   0 -14  13   16.81    3.38
   0  14 -13   14.44    3.49
   1 -14  13  131.25    7.67
   1  14 -13  131.05    7.94
  -1  14  13  133.25    8.00
  -1  14 -13  111.19    7.52
  -1 -14  13  118.00    7.36
   1  14  13  110.76    7.69
   2  14 -13   31.92    4.25
  -2  14  13   33.30    4.25
   2  14  13   38.12    4.46
   0   0  14  771.30   28.94
   0   0 -14  764.23   32.43
   1   0 -14  197.21   12.52
   1   0  14  189.45    9.76
  -1   0  14  187.35    9.68
  -1   0 -14  191.33   12.16
  -2   0 -14    2.66    2.35
  -2   0  14    3.35    1.75
   2   0 -14    2.70    2.44
  -3   0 -14   21.87    4.72
   3   0 -14   21.14    4.86
  -3   0  14   21.93    3.72
  -4   0  14  898.13   33.59
   4   0 -14  804.88   32.20
   4   0 -14  819.86   37.40
   4   0  14  883.27   33.16
   5   0  14   19.78    4.02
   6   0  14  170.42   10.97
   7   0  14   10.50    3.36
   8   0  14  118.82    8.26
  -8   0 -14  152.90    8.98
  -9   0 -14   17.88    3.01
   0  -1 -14  944.49   38.63
   0   1  14  946.36   34.93
   0   1 -14  952.62   38.57
   0  -1  14  954.01   35.05
   1   1 -14  215.88   13.64
  -1   1  14  219.91   10.98
   1  -1  14  217.07   11.11
  -1  -1 -14  212.58   13.33
   1  -1 -14  248.32   14.29
  -1  -1  14  244.15   11.32
  -1   1 -14  242.06   13.83
   1   1  14  237.45   11.12
   2   1 -14  106.72    9.12
  -2  -1 -14   97.01    8.53
  -2   1  14   95.79    6.71
  -2  -1  14   96.92    6.51
   2  -1 -14   93.19    8.60
  -2   1 -14   95.72    8.32
  -3  -1 -14   56.45    6.83
  -3   1  14   50.60    5.16
   3   1 -14   57.44    7.03
  -3   1 -14   65.72    6.92
  -3  -1  14   66.96    5.51
   3  -1 -14   66.88    7.59
   4  -1  14    9.42    2.80
   4   1 -14   10.43    3.99
  -4   1  14    6.41    2.68
   4   1 -14    7.88    2.66
   4  -1 -14    6.99    3.81
   4   1  14    6.57    2.41
   4  -1 -14    3.65    3.24
  -4  -1  14    6.10    2.52
   5  -1  14  372.00   17.27
   5   1 -14  345.82   16.21
   5   1  14  340.14   16.78
   6  -1  14  286.07   14.99
   6   1  14  262.59   14.45
   7  -1  14   93.94    7.85
   7   1  14   90.10    7.42
   7   1  14   92.10    7.43
   8  -1  14   23.39    4.01
  -8   1 -14   28.35    4.47
  -9  -1 -14   28.19    3.69
  -9   1 -14   27.16    3.66
   0  -2  14 1146.57   41.63
   0   2  14 1115.86   41.19
   0  -2 -14 1149.30   45.29
   0   2 -14 1164.24   45.16
   1   2 -14  299.19   16.50
  -1  -2 -14  306.99   16.63
  -1   2  14  301.49   13.54
   1   2  14  289.85   13.21
  -1   2 -14  286.65   15.82
  -1  -2  14  296.80   13.51
   1  -2 -14  294.08   16.59
   2   2 -14   62.52    7.18
  -2  -2 -14   51.89    6.47
  -2   2  14   57.49    5.17
   2  -2 -14   76.07    7.68
  -2  -2  14   69.08    5.41
  -2   2 -14   75.92    7.16
   3   2 -14    7.90    3.67
  -3   2  14    9.69    2.80
   3  -2  14   10.69    2.61
  -3  -2 -14   17.80    4.58
   3   2 -14   10.84    2.80
   3  -2 -14   18.44    4.71
  -3  -2  14   15.85    3.18
   4   2 -14  709.75   28.77
   4   2 -14  746.54   34.43
  -4  -2 -14  769.09   33.38
  -4  -2 -14  771.22   28.58
  -4   2  14  761.00   30.14
   4  -2  14  750.96   29.39
   4   2  14  728.17   29.20
  -4   2 -14  736.75   29.09
  -4  -2  14  694.65   30.24
   5   2 -14  124.37    8.34
   5  -2  14  115.27    8.43
  -5   2 -14  109.38    8.21
   5   2  14  122.68    8.52
   6  -2  14  418.19   20.28
   6   2 -14  396.32   19.22
  -6   2 -14  481.44   20.56
   6   2  14  460.27   20.28
   6   2  14  466.58   20.47
   7  -2  14   16.83    4.03
  -7   2 -14   19.33    4.16
   7   2  14   17.06    3.86
   8  -2  14  147.52    8.97
  -8   2 -14  126.50    8.36
   8   2  14  126.90    8.26
  -9  -2 -14    7.64    2.37
  -9   2 -14    7.76    2.41
   0  -3 -14  142.58   10.47
   0   3 -14  135.29   10.09
   0   3  14  131.51    7.66
   1   3 -14  126.68   10.05
  -1   3  14  147.08    8.18
  -1  -3 -14  144.14   10.45
   1   3  14  118.69    7.24
   1  -3 -14  123.66   10.07
  -1   3 -14  120.95    9.34
  -1  -3  14  125.57    7.74
   2   3 -14   90.06    8.72
  -2  -3 -14   86.96    8.35
  -2   3  14   85.49    6.33
   2  -3 -14   80.71    8.30
  -2  -3  14   78.97    6.03
  -2   3 -14   85.76    8.98
  -3  -3 -14   77.12    8.22
  -3   3  14   80.14    6.55
   3   3 -14   76.44    8.50
   3  -3  14   82.92    6.27
  -3  -3 -14   82.61    5.95
   3   3 -14   79.71    6.20
  -3  -3  14   75.92    6.00
   3  -3 -14   72.79    8.16
  -3   3 -14   74.02    6.08
   3   3  14   74.44    5.96
  -4  -3 -14   53.55    5.04
  -4  -3 -14   52.30    7.31
   4   3 -14   53.08    5.37
   4  -3  14   60.02    5.75
   4   3  14   50.82    5.26
  -4   3 -14   46.72    5.24
  -5  -3 -14   61.80    5.41
   5   3 -14   48.53    5.90
   5  -3  14   60.46    5.91
   5   3  14   63.39    7.51
  -5   3 -14   58.81    6.18
   5   3  14   46.24    5.65
   6   3 -14  337.87   16.36
   6  -3  14  371.75   17.53
   6   3  14  337.25   16.79
  -6   3 -14  335.69   16.79
   7  -3  14  101.85    8.10
   7   3  14  100.51    7.94
  -7   3 -14  113.09    8.19
   8  -3  14  236.58   12.08
   8   3  14  210.74   11.45
  -8   3 -14  231.18   11.75
   0  -4 -14    8.12    3.30
   0   4  14   13.57    2.75
   0   4 -14   12.93    3.87
  -1  -4 -14   39.03    6.62
  -1   4  14   40.00    4.36
   1   4 -14   42.15    6.11
  -1   4 -14   52.36    6.10
   1   4  14   48.01    4.32
   1  -4 -14   52.39    6.61
  -2   4  14  627.49   25.35
   2   4 -14  625.96   24.81
   2   4 -14  638.01   29.55
  -2  -4 -14  630.93   24.57
  -2  -4 -14  618.38   28.89
   2  -4 -14  620.63   29.18
  -2  -4  14  628.11   24.95
  -3   4  14  109.38    7.89
   3  -4  14   98.35    7.04
  -3  -4 -14  103.74    9.87
   3   4 -14   99.19    7.15
  -3  -4 -14   94.28    6.86
  -3   4 -14  122.61    7.95
   3   4  14  114.90    7.38
  -4  -4 -14  607.41   23.87
   4  -4  14  600.47   24.52
   4   4 -14  606.59   24.42
  -4   4 -14  557.73   24.16
   4   4  14  553.69   24.11
  -5  -4 -14   50.50    5.67
   5   4 -14   45.65    5.65
   5  -4  14   45.36    5.91
   5   4  14   48.69    5.63
  -5   4 -14   44.53    5.80
   6  -4  14  514.90   22.52
  -6  -4 -14  522.18   21.29
   6   4 -14  510.98   21.89
   6   4  14  475.05   22.09
  -6   4 -14  473.77   21.84
   7  -4  14    1.16    2.14
   7   4 -14    4.96    2.48
   7   4  14    4.23    2.59
  -7   4 -14    2.62    2.32
   8  -4  14  111.01    7.45
   8   4  14   90.45    6.83
  -8   4 -14   96.06    7.07
   0  -5 -14   10.90    3.87
   0   5 -14    6.59    3.22
   0   5  14    7.80    2.26
   1   5 -14  224.30   14.65
   1   5 -14  227.88   11.51
  -1  -5 -14  229.10   14.85
  -1   5  14  223.07   11.59
  -1  -5 -14  219.21   11.26
   1  -5 -14  263.88   15.78
  -1   5 -14  235.63   12.15
   2   5 -14  198.81   10.29
  -2  -5 -14  196.89   10.20
  -2  -5 -14  187.07   13.45
  -2   5  14  188.91   10.63
   2   5 -14  198.96   11.83
   2  -5  14  179.07    9.76
   2   5 -14  196.81   13.89
  -2   5 -14  182.24   10.64
   2   5  14  168.69    9.93
   3   5 -14  348.42   16.72
   3  -5  14  364.02   16.77
  -3  -5 -14  364.16   16.53
  -3   5  14  380.95   21.19
   3   5 -14  364.27   18.23
  -3   5 -14  405.09   17.57
   3   5  14  379.80   16.97
   4   5 -14  508.11   24.49
   4   5 -14  518.22   21.81
   4  -5  14  522.04   21.85
  -4  -5 -14  520.39   21.28
   4   5  14  451.95   21.23
  -4   5 -14  482.81   21.80
  -5  -5 -14   31.04    4.70
   5  -5  14   36.85    5.41
   5   5 -14   33.98    5.13
   5   5  14   47.85    5.64
  -5   5 -14   52.17    6.34
   6  -5  14  320.71   16.05
  -6  -5 -14  312.66   14.76
   6   5 -14  316.60   15.55
   6   5  14  303.30   15.71
  -6   5 -14  321.88   16.00
   7   5 -14   18.93    3.77
   7  -5  14   11.57    3.30
  -7   5 -14   20.29    4.08
   7   5  14   19.34    3.92
   8  -5  14  231.89   11.68
   8   5  14  234.01   11.85
  -8   5 -14  243.09   11.90
   0  -6 -14   33.65    6.56
   0   6 -14   40.92    5.45
   0   6 -14   35.61    6.35
   0  -6 -14   28.07    4.24
  -1  -6 -14  114.89   10.43
  -1   6  14  110.11    7.58
   1   6 -14  109.87   10.19
  -1  -6 -14  113.13    7.44
   1   6 -14  120.68    8.84
   1   6 -14  113.50    7.38
   1  -6 -14  118.04    7.86
   1  -6 -14  116.93   10.65
  -1   6 -14  125.69    8.56
   2   6 -14   82.29    6.54
   2   6 -14   72.39    8.79
  -2   6  14   73.15    6.52
  -2  -6 -14   71.62   13.43
  -2  -6 -14   77.98    6.22
   2   6 -14   71.09    7.54
  -2   6 -14   84.60    7.04
   2   6  14   82.11    6.50
   3   6 -14  611.06   26.89
  -3  -6 -14  624.41   24.87
   3  -6  14  609.47   24.76
   3   6 -14  614.07   25.17
  -3   6 -14  606.87   25.67
   3   6  14  588.58   25.03
   4  -6  14  101.56    7.76
  -4  -6 -14  100.41    7.62
   4   6 -14   98.31    9.07
   4   6 -14  108.58    8.20
   4   6  14  134.06    8.87
  -4   6 -14  148.88    9.57
   5   6 -14  318.79   15.56
   5  -6  14  300.64   15.42
   5   6 -14  307.19   16.63
  -5  -6 -14  313.08   15.00
  -5   6 -14  316.20   15.93
   5   6  14  304.30   15.82
   6  -6  14    3.73    2.50
  -6  -6 -14    4.80    2.28
   6   6 -14    5.83    2.73
  -6   6 -14    7.95    3.10
   6   6  14    5.91    2.77
   7   6 -14  229.47   11.88
  -7  -6 -14  213.44   13.16
   7  -6  14  236.16   12.36
   7   6  14  246.72   12.72
  -7   6 -14  246.02   12.56
  -8   6 -14    0.40    2.06
   8   6  14    1.59    2.13
   0  -7 -14   70.11    8.86
   0   7  14   73.75    6.38
   0   7 -14   73.58    7.20
   0  -7 -14   81.64    6.54
  -1  -7 -14   43.76    5.34
   1   7 -14   43.03    5.22
  -1   7  14   49.06    7.10
   1   7 -14   45.41    6.32
   1   7  14   61.69    5.85
  -1   7 -14   73.57    6.83
   2  -7  14   47.60    5.46
   2   7 -14   49.51    6.82
   2   7 -14   49.20    5.80
  -2  -7 -14   47.12    5.61
  -2   7 -14   61.47    6.29
   2   7  14   58.26    5.76
   3   7 -14  386.83   17.10
   3   7 -14  385.04   19.08
  -3  -7 -14  374.45   16.78
   3   7  14  315.20   16.68
  -3   7 -14  345.44   17.50
   4   7 -14  344.46   18.19
   4  -7  14  343.52   16.22
   4   7 -14  345.78   16.54
  -4  -7 -14  349.14   16.23
  -4   7 -14  324.21   16.84
   4   7  14  334.06   16.69
   5  -7  14  404.52   18.61
   5   7 -14  414.75   20.20
  -5  -7 -14  400.84   18.15
   5   7 -14  402.72   18.60
  -5   7 -14  404.28   19.20
   5   7  14  388.99   19.12
  -6  -7 -14   49.40    5.66
   6   7 -14   54.08    6.90
   6   7 -14   58.34    5.81
   6  -7  14   54.22    5.79
  -6   7 -14   55.55    6.09
   6   7  14   59.96    6.34
   7   7 -14  240.91   12.23
  -7  -7 -14  241.23   11.84
   7  -7  14  245.47   12.48
   7   7  14  286.35   13.47
  -7   7 -14  280.95   13.17
   0  -8 -14  102.49    7.64
   0   8  14  114.09    8.17
   0   8 -14  109.60    8.76
   1  -8  14  120.26    7.92
  -1   8  14  128.85    8.51
   1   8 -14  118.41    7.82
  -1  -8 -14  122.90    8.15
   1   8 -14  121.85    9.56
   1   8  14  105.58    8.25
  -1   8 -14   91.43    8.42
  -2   8  14   24.04    4.33
   2   8 -14   23.39    4.03
  -2  -8 -14   19.97    3.94
   2   8 -14   23.32    5.34
   2  -8  14   18.40    3.77
   2   8  14   23.52    4.39
  -2   8 -14   18.43    4.58
   3   8 -14   64.97    8.12
   3   8 -14   64.23    6.41
  -3   8  14   67.71    6.74
  -3  -8 -14   75.38    6.47
  -3   8 -14  100.10    8.18
  -4  -8 -14   22.73    4.26
   4   8 -14   19.33    3.96
  -4   8  14   23.51    4.61
   4   8 -14   30.53    5.77
   4   8  14   15.63    3.80
  -4   8 -14   16.52    4.40
  -5  -8 -14   10.62    3.20
   5  -8  14   14.18    3.47
   5   8 -14   12.22    3.31
   5   8 -14   12.91    4.22
   5   8  14    8.67    3.38
  -5   8 -14    7.12    3.25
   6   8 -14  109.74    8.57
   6   8 -14  119.93    8.06
   6  -8  14  122.98    7.90
  -6  -8 -14  122.94    7.78
  -6   8 -14  114.41    8.36
   6   8  14  127.97    8.81
  -7  -8 -14  151.98    8.51
   7   8 -14  157.49    8.73
  -7   8 -14  178.98    9.55
   7   8  14  183.54    9.86
   0  -9  14  507.92   21.66
   0   9 -14  488.63   23.07
   0   9  14  510.01   22.28
   1   9 -14   20.23    4.92
   1  -9  14   17.98    3.80
  -1  -9 -14   22.45    4.21
  -1   9  14   17.62    4.16
  -1   9 -14   35.94    5.95
   1   9  14   38.01    5.55
  -2   9  14  502.30   22.08
   2  -9  14  492.05   21.52
  -2  -9 -14  489.72   21.64
   2   9 -14  513.72   23.95
   2   9 -14  497.53   21.51
  -2   9 -14  533.00   23.41
   2   9  14  506.43   22.55
  -3  -9 -14  155.82    9.59
  -3   9  14  137.89    9.56
   3   9 -14  153.35    9.49
   3   9 -14  157.08   11.38
  -3   9 -14  132.47   10.15
   3   9  14  135.19    9.73
   4   9 -14  434.81   21.55
  -4   9  14  439.17   19.88
  -4  -9 -14  455.31   19.93
   4   9 -14  438.10   19.82
   4   9  14  460.46   20.81
  -4   9 -14  472.60   21.24
  -5   9  14  190.65   11.19
   5   9 -14  195.07   11.05
   5   9 -14  206.24   12.41
  -5  -9 -14  206.33   11.08
  -5   9 -14  210.03   11.99
   5   9  14  205.12   12.06
   6   9 -14  299.52   13.69
  -6  -9 -14  297.45   13.46
   6   9 -14  298.08   14.26
  -6   9 -14  285.19   14.05
   6   9  14  274.71   14.19
   7   9 -14   96.03    5.76
   7   9  14   77.34    6.01
   0  10  14    0.32    2.50
   0 -10  14   -0.36    2.05
   0  10 -14    0.51    2.65
  -1  10  14  201.71   12.14
   1 -10  14  200.52   11.64
   1  10 -14  204.39   13.24
  -1 -10 -14  189.21   11.48
  -1  10 -14  238.27   13.54
  -1 -10  14  235.19   12.49
   1  10  14  236.82   12.89
   2  10 -14  122.80    9.91
   2 -10  14  120.82    8.29
  -2 -10 -14  122.74    8.40
  -2  10  14  119.45    8.60
   2  10 -14  119.48    7.96
  -2 -10  14  110.08    8.11
  -2  10 -14   96.92    8.79
   2  10  14  101.08    8.57
  -3  10  14  299.19   15.30
   3  10 -14  320.77   14.92
   3  10 -14  310.87   16.82
   3 -10  14  295.66   14.57
  -3 -10 -14  315.80   15.13
  -3  10 -14  299.62   16.04
  -3 -10  14  324.33   15.18
   3  10  14  311.07   15.97
   4  10 -14   47.77    5.59
  -4 -10 -14   52.30    5.91
   4  10 -14   63.64    7.84
  -4  10  14   51.16    6.09
   4  10  14   65.26    6.55
  -4 -10  14   67.09    5.78
  -4  10 -14   61.84    6.51
   5  10 -14  143.08    8.21
  -5 -10 -14  118.73    7.78
   5  10 -14  120.17    8.80
  -5  10  14  122.45    8.09
   5  10  14  125.11    8.71
  -5  10 -14  126.29    8.46
   6  10 -14  210.27   10.23
   6  10 -14  200.40   10.43
  -6 -10 -14  205.19   10.13
  -6  10 -14  196.93   10.41
   6  10  14  211.40   10.95
   0 -11  14   21.12    4.05
   0  11 -14   17.04    4.55
   0  11  14   15.72    4.08
  -1  11  14   12.29    3.79
   1 -11  14   11.14    3.05
   1  11 -14   11.70    4.21
  -1  11 -14   11.01    3.93
  -1 -11  14   13.43    3.47
   1  11  14   14.31    3.97
  -2 -11 -14  230.00   11.89
  -2  11  14  224.63   12.28
   2 -11  14  239.24   12.04
   2  11 -14  242.07   13.65
  -2 -11  14  201.61   11.70
   2  11  14  203.81   12.37
  -2  11 -14  192.59   12.36
  -3  11  14  127.56    8.75
  -3 -11 -14  127.74    8.39
   3  11 -14  130.46    9.63
   3 -11  14  134.68    8.34
   3  11 -14  136.04    8.26
  -3 -11  14  133.31    8.47
   3  11  14  135.19    9.39
  -3  11 -14  139.56    9.46
  -4  11  14   71.47    6.68
   4  11 -14   94.64    7.67
  -4 -11 -14   76.10    6.23
   4  11 -14   78.71    6.36
  -4  11 -14   96.10    7.41
   4  11  14  102.12    7.54
  -4 -11  14  100.59    6.60
  -5 -11 -14  161.76    8.80
  -5  11  14  154.47    8.71
   5  11 -14  169.80    9.75
   5  11 -14  161.05    8.58
  -5  11 -14  150.11    9.04
   5  11  14  159.15    9.41
   0  12  14  152.41   10.02
   0 -12  14  170.98   10.02
   0  12 -14  167.61   10.81
  -1  12  14  698.91   27.98
   1 -12  14  702.76   27.63
   1  12 -14  694.23   28.80
  -1 -12  14  699.07   27.69
  -1  12 -14  663.00   28.51
   1  12  14  683.66   28.01
  -2  12  14   60.99    6.24
   2  12 -14   67.03    6.65
   2 -12  14   63.20    5.62
  -2 -12 -14   59.72    5.44
   2  12  14   49.77    5.91
  -2  12 -14   48.12    6.29
  -2 -12  14   53.38    5.45
  -3  12  14  154.35    9.07
   3  12 -14  153.32    9.70
   3 -12  14  134.33    8.34
  -3 -12 -14  143.45    8.60
  -3 -12  14  150.16    8.66
   3  12  14  153.05    9.45
  -3  12 -14  160.02    9.57
  -4 -12 -14   86.57    6.11
  -4  12  14   81.99    6.28
   4  12 -14   72.12    6.51
   4  12 -14   84.94    5.63
   4  12  14   84.58    6.82
  -4  12 -14   86.87    6.62
   0  13  14   28.35    4.26
   0 -13  14   28.51    4.22
   0  13 -14   24.63    4.51
   1  13 -14  132.44    8.92
   1 -13  14  142.15    8.36
  -1  13  14  138.08    8.65
  -1  13 -14  131.13    8.89
  -1 -13  14  141.02    8.43
   1  13  14  131.59    8.66
   2 -13  14  408.96   17.05
   2  13 -14  420.16   18.07
  -2  13  14  417.35   17.46
  -2 -13  14  396.05   17.08
   2  13  14  403.51   17.64
  -2  13 -14  384.29   17.51
  -3  13  14   37.58    4.46
   3  13 -14   44.79    5.10
  -3 -13  14   30.57    3.81
   3  13  14   28.94    4.19
  -3  13 -14   28.60    4.21
   0  14  14    0.55    2.27
   0 -14  14    0.67    1.77
   0  14 -14   -1.16    2.38
  -1  14  14  284.97   15.30
   1  14 -14  265.22   12.65
   1 -14  14  259.02   12.31
   1  14  14  270.94   12.56
  -1 -14  14  275.91   12.15
   0   0  15    0.45    1.37
   0   0 -15    2.62    2.44
  -1   0  15 1202.34   43.66
   1   0 -15 1200.11   47.80
  -1   0 -15 1222.14   47.85
   1   0  15 1175.28   43.62
   2   0 -15 3592.21  128.59
  -2   0  15 3647.59  123.96
  -2   0 -15 3696.79  128.13
   3   0 -15    2.25    2.50
  -3   0  15    0.06    1.67
   3   0 -15    2.31    1.89
  -3   0 -15    0.36    2.23
   3   0  15    0.81    1.50
   4   0 -15  274.70   13.29
   4   0 -15  247.17   16.98
   4   0  15  283.66   13.77
  -4   0  15  263.20   13.89
   5   0  15  518.94   22.72
   6   0  15 1365.37   51.29
   7   0  15  115.71    8.42
   8   0  15    3.18    2.31
  -8   0 -15    5.53    2.51
   0  -1 -15  179.30   12.56
   0  -1  15  199.18   10.12
   0   1 -15  185.47   12.45
   0   1  15  184.20    9.77
  -1   1  15  414.00   17.48
  -1  -1 -15  413.34   20.88
   1   1 -15  423.24   21.10
   1  -1  15  416.67   17.73
   1   1  15  400.56   17.38
  -1  -1  15  398.70   17.37
  -1   1 -15  391.10   20.29
   1  -1 -15  393.66   20.79
   2   1 -15  138.34   10.97
  -2   1  15  140.47    8.38
  -2  -1 -15  137.06   10.54
   2  -1 -15  137.92   10.88
  -2   1 -15  119.67    9.92
  -2  -1  15  124.12    7.98
   3   1 -15  175.91    9.53
   3   1 -15  170.55   12.68
  -3  -1 -15  164.79    9.04
  -3  -1 -15  173.35   12.43
   3  -1  15  163.97    9.33
  -3   1  15  171.37   10.13
   3   1  15  167.89    9.38
   3  -1 -15  160.65    9.35
   3  -1 -15  168.35   12.69
  -3  -1  15  163.96    9.60
   4   1 -15  405.66   23.15
   4  -1  15  411.34   18.60
   4   1 -15  407.72   18.17
  -4  -1  15  418.86   18.72
   4   1  15  417.41   18.66
   4  -1 -15  404.94   18.09
  -4   1 -15  424.98   18.26
   5   1 -15  257.69   13.67
   5  -1  15  279.69   14.57
   5   1  15  300.13   14.79
   6  -1  15  471.89   21.25
   6   1  15  443.01   20.75
   7  -1  15  258.14   13.66
  -7   1 -15  258.46   13.33
   7   1  15  231.01   12.87
   8  -1  15  163.71    9.60
  -8  -1 -15  166.70    9.43
  -8   1 -15  168.16    9.52
   0  -2 -15  331.39   18.55
   0   2  15  349.25   15.36
   0  -2  15  357.69   15.76
   0   2 -15  350.58   18.58
  -1  -2 -15  221.59   13.98
   1   2 -15  193.43   13.42
  -1   2  15  197.49   10.76
  -1   2 -15  231.49   13.83
   1  -2 -15  218.89   14.11
   1   2  15  220.76   10.89
  -1  -2  15  230.47   11.25
  -2   2  15 1941.09   67.39
  -2  -2 -15 1922.71   71.66
   2   2 -15 1861.59   71.51
  -2   2 -15 1880.95   70.20
   2  -2 -15 1925.86   71.84
  -2  -2  15 1857.58   66.66
  -3   2  15  328.32   15.42
  -3  -2 -15  308.64   14.29
  -3  -2 -15  305.24   17.92
   3   2 -15  330.86   14.79
   3  -2  15  318.00   14.66
   3  -2 -15  306.02   14.35
   3   2  15  298.92   14.40
   3  -2 -15  306.91   18.42
  -3  -2  15  314.80   14.82
  -3   2 -15  312.20   14.43
   4  -2  15  228.11   12.00
   4   2 -15  216.69   11.67
  -4  -2 -15  193.12   10.96
  -4  -2 -15  212.06   17.02
   4   2  15  233.96   12.16
  -4   2 -15  248.85   12.26
   5  -2  15  353.59   16.75
   5   2 -15  338.69   16.12
  -5   2 -15  343.41   16.37
   5   2  15  315.83   16.18
   6   2 -15  805.74   32.68
   6  -2  15  851.76   33.95
   6   2  15  802.78   33.28
  -6   2 -15  913.15   33.95
   7  -2  15  164.59   10.66
  -7   2 -15  185.15   10.70
   8  -2  15  527.16   22.10
  -8   2 -15  536.94   21.92
   0   3 -15   15.00    4.14
   0   3  15   10.38    2.54
   0  -3 -15   13.47    4.10
   1   3 -15  511.16   24.58
  -1   3  15  509.22   20.86
  -1  -3 -15  514.20   24.85
  -1  -3  15  503.24   20.95
   1   3  15  473.46   20.31
  -1   3 -15  495.41   23.53
   1  -3 -15  500.46   24.90
   2  -3  15   44.26    4.36
  -2  -3 -15   50.32    4.81
   2   3 -15   44.91    5.06
  -2   3  15   47.46    4.94
   2   3 -15   45.81    6.79
  -2  -3 -15   40.80    6.92
  -2  -3  15   37.73    4.52
   2   3  15   47.81    5.02
   2  -3 -15   39.72    7.06
  -3   3  15 1349.45   49.19
   3   3 -15 1328.33   54.05
   3  -3  15 1360.98   48.34
  -3  -3 -15 1366.78   48.02
   3   3 -15 1337.79   48.22
  -3  -3 -15 1298.06   53.13
  -3   3 -15 1335.56   48.15
   3  -3 -15 1240.63   59.25
  -3  -3  15 1304.60   48.20
   3   3  15 1309.33   47.99
   4  -3  15  283.07   14.53
   4   3 -15  279.14   14.21
  -4  -3 -15  285.52   13.92
   4   3  15  311.25   14.64
  -4   3 -15  314.07   14.74
   5   3 -15   16.67    3.85
  -5  -3 -15   24.98    4.09
   5  -3  15   22.10    4.14
  -5   3 -15   24.07    4.39
   5   3  15   26.14    4.54
   6   3 -15   87.09    7.32
   6  -3  15   86.88    7.51
  -6   3 -15   97.79    7.77
   6   3  15   83.94    7.16
   7  -3  15  198.62   11.77
   7   3  15  204.78   11.52
  -7   3 -15  217.21   11.72
   8  -3  15   37.96    4.72
   8   3  15   31.08    4.17
  -8   3 -15   28.37    4.13
   0   4 -15   86.42    8.40
   0  -4 -15   85.03    7.42
   0   4  15   79.40    6.02
   0  -4 -15   86.61    8.65
  -1   4  15  304.14   14.42
   1   4 -15  317.34   18.03
   1   4 -15  290.77   13.75
  -1  -4 -15  294.08   17.63
  -1  -4 -15  300.93   14.06
  -1   4 -15  312.68   16.98
   1  -4 -15  318.25   18.33
  -2  -4 -15  782.87   30.60
  -2  -4 -15  784.83   35.53
  -2   4  15  793.15   31.43
   2   4 -15  797.31   30.80
   2   4 -15  775.31   35.67
   2  -4  15  783.67   30.51
  -2  -4  15  836.56   31.26
   2   4  15  805.74   30.52
   2  -4 -15  846.20   36.42
   2  -4 -15  794.54   30.72
  -2   4 -15  815.70   31.11
   3  -4  15   53.88    5.27
  -3  -4 -15   51.44    5.01
   3   4 -15   48.75    5.74
  -3   4  15   47.12    7.70
  -3  -4 -15   42.58    8.79
  -3   4 -15   46.18    5.22
   3   4  15   44.75    4.86
   4   4 -15  428.97   19.28
  -4  -4 -15  448.71   18.94
   4  -4  15  438.78   19.44
  -4   4 -15  409.31   19.20
  -5  -4 -15  225.18   11.55
   5  -4  15  225.54   12.48
   5   4 -15  221.62   12.11
   5   4  15  197.86   11.75
  -5   4 -15  192.60   11.83
   6   4 -15   57.81    6.40
   6  -4  15   57.41    6.03
  -6  -4 -15   54.48    6.43
  -6   4 -15   56.02    6.91
   6   4  15   50.81    5.82
   7   4 -15   21.19    3.88
   7  -4  15   22.56    4.08
   7   4  15   17.30    3.77
  -7   4 -15   22.76    4.26
   8  -4  15  118.08    7.60
   8   4  15  117.23    7.42
  -8   4 -15  128.32    7.88
   0  -5 -15  282.90   17.62
   0   5 -15  291.82   17.19
   0   5  15  296.18   14.90
   0   5 -15  301.32   14.78
   0   5 -15  300.05   13.49
   0  -5 -15  289.53   13.79
   1   5 -15  183.67   10.20
  -1  -5 -15  177.49   13.42
  -1  -5 -15  181.69   10.24
   1   5 -15  183.89   13.50
  -1   5  15  184.47   10.58
   1   5 -15  182.08   11.40
   1  -5 -15  222.53   10.94
   1  -5 -15  214.62   14.55
  -1   5 -15  223.24   11.46
   2   5 -15   63.28    7.34
   2  -5  15   52.88    5.01
  -2  -5 -15   45.94    7.96
   2   5 -15   51.96    7.55
  -2   5  15   49.96    5.48
  -2  -5 -15   54.28    5.16
   2   5 -15   53.08    5.19
   2   5  15   56.82    5.11
  -2   5 -15   56.83    5.81
  -3  -5 -15  703.74   27.94
   3   5 -15  709.99   32.29
   3  -5  15  693.00   28.05
  -3   5 -15  715.56   28.70
   4   5 -15 1361.95   50.79
   4  -5  15 1359.44   50.74
  -4  -5 -15 1365.29   50.30
  -4   5 -15 1416.87   51.23
   4   5  15 1388.57   50.88
   5   5 -15  414.68   18.82
   5  -5  15  395.99   18.74
  -5  -5 -15  415.02   18.23
   5   5  15  396.08   18.78
  -5   5 -15  411.23   19.19
  -6  -5 -15   48.56    5.56
   6   5 -15   50.90    6.06
   6  -5  15   50.94    6.33
  -6   5 -15   46.28    5.94
   6   5  15   46.74    5.66
   7  -5  15  365.15   16.76
   7   5 -15  335.87   15.80
   7   5  15  345.98   16.38
  -7   5 -15  374.92   16.72
   8  -5  15  263.66   12.08
   8   5  15  233.31   11.63
  -8   5 -15  257.10   12.15
   0  -6 -15  166.86    9.61
   0   6 -15  163.66   10.51
   0  -6 -15  155.74   12.82
   0   6 -15  162.89    9.91
   1   6 -15  127.60   11.46
   1   6 -15  140.04    8.50
  -1  -6 -15  145.20    8.84
  -1   6  15  135.92   10.87
   1   6 -15  143.86    9.88
   1  -6 -15  147.99    8.97
  -1   6 -15  148.33    9.80
   1  -6 -15  145.10   12.39
   2   6 -15  145.66    8.92
  -2  -6 -15  133.34    8.52
   2   6 -15  121.68    9.78
  -2   6 -15  140.70    9.45
   3  -6  15  283.57   13.79
  -3  -6 -15  289.96   14.06
   3   6 -15  285.19   14.26
   3   6 -15  278.77   15.68
  -3   6 -15  276.14   14.63
   3   6  15  270.11   13.97
   4   6 -15  320.33   17.44
  -4  -6 -15  334.71   16.04
   4  -6  15  329.36   16.08
   4   6 -15  337.43   16.34
   4   6  15  350.19   16.61
  -4   6 -15  363.13   17.18
   5  -6  15  481.07   21.08
   5   6 -15  470.47   20.91
  -5  -6 -15  482.02   20.57
   5   6  15  456.51   21.12
  -5   6 -15  472.75   21.39
  -6  -6 -15   27.19    4.21
   6  -6  15   25.25    4.41
   6   6 -15   21.79    3.97
  -6   6 -15   24.32    4.52
   6   6  15   26.48    4.56
   7  -6  15    9.88    2.72
   7   6 -15    9.57    2.80
  -7   6 -15   13.65    3.31
   7   6  15   16.30    3.45
  -8   6 -15   42.87    4.66
   0   7 -15   51.94    6.69
   0  -7 -15   58.44    5.74
   1   7 -15  324.27   17.55
  -1  -7 -15  342.97   16.35
   1   7 -15  338.15   15.97
  -1   7 -15  391.78   18.07
   1   7  15  379.72   16.94
   2   7 -15  520.69   21.68
  -2  -7 -15  504.13   21.50
   2   7 -15  504.68   23.41
   2  -7  15  506.05   21.13
   2   7  15  488.08   21.62
  -2   7 -15  510.20   22.73
   3   7 -15   29.22    4.58
  -3  -7 -15   25.68    4.29
   3   7 -15   25.66    5.47
  -3   7 -15   35.58    5.56
   3   7  15   29.81    5.00
   4  -7  15   31.86    4.76
  -4  -7 -15   30.31    4.83
   4   7 -15   29.87    5.64
   4   7 -15   33.66    5.23
   4   7  15   47.40    5.63
  -4   7 -15   47.21    6.26
   5   7 -15  239.26   12.65
   5  -7  15  219.97   12.19
  -5  -7 -15  229.05   12.07
   5   7 -15  228.77   13.52
   5   7  15  215.49   12.53
  -5   7 -15  220.04   12.75
   6  -7  15   49.01    5.45
   6   7 -15   56.80    5.78
  -6  -7 -15   52.70    5.31
  -6   7 -15   74.31    6.57
   6   7  15   76.39    6.61
   7  -7  15   93.74    6.48
  -7  -7 -15   88.71    5.97
   7   7 -15   87.85    6.32
   7   7  15   87.21    6.63
  -7   7 -15   86.42    6.83
   0  -8 -15    9.73    3.18
   0   8 -15   10.61    3.62
   0   8  15    9.83    3.30
   1   8 -15   76.89    7.89
   1   8 -15   77.55    6.37
  -1   8  15   68.29    6.66
   1  -8  15   74.27    6.32
  -1  -8 -15   75.53    6.73
  -1   8 -15   89.87    8.04
   1   8  15   89.88    7.31
   2   8 -15 1065.93   41.37
   2  -8  15  979.67   38.38
   2   8 -15 1018.13   38.70
  -2  -8 -15 1015.18   38.91
  -2   8 -15 1039.76   40.51
   2   8  15 1033.91   39.47
  -3  -8 -15  115.34    8.23
   3   8 -15  113.00    9.67
   3   8 -15  103.82    7.99
  -3   8 -15  117.37    9.31
   3   8  15  115.38    8.74
   4   8 -15   65.29    7.45
   4   8 -15   67.92    6.61
  -4  -8 -15   59.14    5.99
   4   8  15   63.21    6.59
  -4   8 -15   72.25    7.07
   5   8 -15   61.37    7.28
  -5  -8 -15   57.93    5.57
   5  -8  15   49.09    5.46
   5   8 -15   51.99    6.05
   5   8  15   42.83    5.93
  -5   8 -15   45.58    6.07
   6   8 -15   25.58    4.43
   6   8 -15   23.43    4.01
   6  -8  15   20.18    3.57
  -6  -8 -15   17.33    3.33
  -6   8 -15   29.28    4.48
   6   8  15   27.56    4.45
   7   8 -15   33.12    3.84
  -7  -8 -15   29.84    3.68
  -7   8 -15   33.79    4.41
   7   8  15   37.87    4.52
   0  -9  15  359.92   16.44
   0  -9 -15  330.95   16.20
   0   9  15  333.00   16.65
   0   9 -15  354.66   17.94
   1   9 -15  531.39   24.30
  -1   9  15  512.21   22.43
  -1  -9 -15  516.77   22.39
   1  -9  15  526.45   22.32
   1   9  15  516.51   22.82
  -1   9 -15  523.05   23.84
   2  -9  15  252.30   13.05
  -2   9  15  254.42   13.32
   2   9 -15  235.89   12.83
  -2  -9 -15  276.15   13.72
   2   9 -15  274.78   15.37
  -2   9 -15  258.55   14.58
   2   9  15  246.70   13.71
  -3  -9 -15   23.06    4.25
   3   9 -15   24.45    4.26
   3   9 -15   28.24    5.52
  -3   9  15   25.24    4.56
  -3   9 -15   34.09    5.70
   3   9  15   35.78    5.53
  -4  -9 -15  372.05   16.97
   4   9 -15  361.31   16.90
   4   9 -15  367.28   18.53
  -4   9 -15  369.13   18.05
   4   9  15  364.83   17.62
  -5  -9 -15  177.93    9.73
   5   9 -15  174.82    9.82
   5   9 -15  181.57   10.91
  -5   9 -15  150.96   10.04
   5   9  15  147.99    9.82
  -5  -9  15  164.16   12.36
  -6  -9 -15   57.18    5.11
   6   9 -15   54.56    5.25
   6   9 -15   55.38    5.25
   6   9  15   55.29    5.45
  -6   9 -15   53.94    5.67
   0 -10  15   70.19    6.62
   0  10 -15   74.96    7.82
   0  10  15   73.47    6.89
  -1 -10 -15   12.93    3.49
   1 -10  15   15.16    3.47
  -1  10  15   13.45    3.73
   1  10 -15   15.02    4.36
  -1 -10  15    9.15    3.12
   1  10  15    7.00    3.19
  -1  10 -15    2.67    2.85
  -2 -10 -15    3.89    2.47
   2  10 -15    1.63    2.28
   2 -10  15    0.26    2.02
  -2  10  15    2.82    2.65
   2  10 -15    8.42    3.57
  -2 -10  15    1.85    2.22
   2  10  15    2.66    2.62
  -2  10 -15    4.99    3.13
   3  10 -15   60.34    7.47
  -3  10  15   72.20    6.53
   3  10 -15   63.59    5.94
  -3 -10 -15   58.70    5.84
  -3  10 -15   59.99    6.79
   3  10  15   61.01    6.51
  -3 -10  15   62.70    6.00
   4  10 -15    2.36    2.42
  -4 -10 -15    1.11    1.93
  -4  10  15    1.64    2.75
   4  10 -15    3.01    2.83
  -4 -10  15    9.01    2.75
  -4  10 -15    7.01    3.00
   4  10  15    9.30    3.14
  -5 -10 -15   89.64    6.46
   5  10 -15   83.82    7.09
   5  10 -15   76.23    6.09
  -5  10 -15   85.87    6.94
   5  10  15   85.42    6.84
  -6 -10 -15   35.14    3.97
   6  10 -15   37.36    4.05
   6  10  15   32.21    4.22
  -6  10 -15   39.74    4.59
   0  11  15  168.13   10.76
   0  11 -15  189.75   11.92
   0 -11  15  188.46   10.72
   1 -11  15  127.61    8.64
  -1  11  15  124.18    9.18
   1  11 -15  130.49    9.85
   1  11  15  145.99    9.50
  -1 -11  15  147.32    9.09
  -1  11 -15  141.65   10.04
   2  11 -15  145.24   10.20
   2 -11  15  147.57    8.92
  -2  11  15  150.28    9.47
  -2 -11 -15  149.59    9.10
  -2 -11  15  149.40    9.28
   2  11  15  141.41    9.67
  -2  11 -15  134.26    9.82
  -3  11  15   96.99    7.27
  -3 -11 -15  102.49    7.25
   3  11 -15   90.23    6.57
   3  11 -15   95.09    7.96
  -3 -11  15  106.29    7.19
   3  11  15   98.42    7.68
  -3  11 -15   91.24    7.71
  -4  11  15  200.01   10.61
   4  11 -15  198.20   11.47
   4  11 -15  206.15   10.50
  -4 -11 -15  212.19   10.88
   4  11  15  227.46   11.68
  -4 -11  15  220.15   10.49
  -4  11 -15  211.93   11.47
   5  11 -15   40.29    4.25
  -5 -11 -15   45.24    4.56
   5  11 -15   41.79    4.73
  -5  11 -15   30.62    4.27
   5  11  15   36.25    4.59
   0  12  15  253.58   13.06
   0  12 -15  244.13   13.48
   0 -12  15  249.03   12.67
   1  12 -15   46.55    6.22
   1 -12  15   52.81    5.28
  -1  12  15   47.57    5.64
  -1 -12  15   61.00    5.69
  -1  12 -15   64.22    6.50
   1  12  15   70.02    6.29
  -2 -12 -15   16.46    3.25
   2  12 -15   15.54    4.07
  -2  12  15   19.58    3.91
   2 -12  15   15.29    3.27
  -2 -12  15   16.72    3.30
   2  12  15   12.02    3.38
  -2  12 -15   14.54    3.70
  -3  12  15  158.09    9.38
   3  12 -15  176.09   10.26
  -3 -12 -15  158.83    9.02
  -3  12 -15  179.49   10.20
   3  12  15  177.69    9.86
  -3 -12  15  184.12    9.38
   4  12 -15    6.18    2.72
   4  12 -15    7.50    3.35
  -4 -12 -15    7.40    2.42
   4  12  15    8.97    2.92
  -4  12 -15    6.89    2.80
   0  13 -15  245.91   12.72
   0  13  15  244.74   12.25
   0 -13  15  259.13   12.13
  -1  13  15  140.25    8.59
   1 -13  15  148.96    8.22
   1  13 -15  143.46    9.11
  -1  13 -15  138.24    8.83
   1  13  15  127.05    8.39
  -1 -13  15  139.49    8.28
   2 -13  15   89.28    6.13
  -2  13  15   94.74    6.62
   2  13 -15   85.82    7.14
   2  13  15   87.05    6.54
  -2 -13  15   93.99    6.32
  -2  13 -15   90.29    6.80
   0   0 -16 3614.04  127.54
   0   0  16 3596.86  122.71
  -1   0  16  138.44    8.41
   1   0  16  130.86    8.25
  -1   0 -16  130.25   10.77
   1   0 -16  139.06   11.05
   2   0 -16  374.67   20.50
  -2   0 -16  370.37   20.10
  -2   0 -16  352.01   18.91
   2   0 -16  377.12   16.24
  -2   0  16  362.88   16.65
   2   0  16  368.08   16.09
   3   0 -16    4.22    2.17
  -3   0  16    2.70    2.15
   3   0 -16    4.24    3.33
   3   0  16    2.88    1.82
  -3   0 -16    6.33    2.26
  -3   0 -16    2.92    2.89
   4   0 -16 1172.19   43.79
  -4   0 -16 1135.72   43.27
   4   0  16 1238.51   44.48
   5   0 -16   17.92    3.90
   5   0  16   27.28    4.71
   6   0  16  110.00    8.57
  -7   0 -16   38.16    5.20
   7   0  16   36.32    5.09
  -8   0 -16  478.35   19.75
   8   0  16  480.74   19.78
   0  -1  16   21.02    3.72
   0   1  16   26.63    3.87
   0  -1 -16   24.75    5.36
   0   1 -16   20.16    4.82
   1   1 -16  527.53   26.01
  -1  -1 -16  544.10   26.27
  -1   1  16  551.53   22.51
  -1  -1  16  546.28   22.48
  -1   1 -16  560.03   26.16
   1   1  16  543.85   22.35
   1  -1 -16  534.89   26.34
  -2  -1 -16  410.10   21.96
   2  -1  16  415.88   17.86
  -2   1  16  417.05   18.62
  -2  -1 -16  433.24   18.03
   2   1 -16  414.54   22.37
   2   1 -16  401.46   17.95
  -2   1 -16  448.50   22.13
   2   1  16  434.82   18.04
   2  -1 -16  420.39   18.04
   2  -1 -16  427.99   22.51
  -2  -1  16  425.87   18.63
  -3   1  16  624.95   26.58
  -3  -1 -16  656.74   25.55
  -3  -1 -16  623.80   29.98
   3  -1  16  656.82   26.07
   3   1 -16  650.25   25.89
  -3   1 -16  639.81   25.72
   3  -1 -16  661.33   31.19
   3   1  16  660.59   26.04
   3  -1 -16  675.81   26.07
  -3  -1  16  644.70   26.42
   4  -1  16  120.69    8.19
  -4  -1 -16  120.84    8.15
   4   1 -16  109.90    7.73
  -4   1 -16   95.67    7.37
   4   1  16  100.54    7.58
   4  -1 -16   94.61    7.43
   5  -1  16   88.13    7.43
   5   1 -16   79.28    6.89
   5   1  16   83.08    7.26
  -5   1 -16   85.89    7.23
   6   1  16   33.35    5.33
  -6   1 -16   48.15    6.02
  -7  -1 -16  189.41   10.70
   7  -1  16  183.77   11.11
   7   1  16  190.60   10.93
  -7   1 -16  214.34   11.32
   8  -1  16   70.82    5.78
  -8  -1 -16   74.44    5.75
  -8   1 -16   63.92    5.55
   0   2  16  754.69   29.64
   0  -2 -16  766.01   34.28
   0  -2  16  788.66   30.17
   0   2 -16  764.16   33.63
   1   2 -16  256.37   12.91
  -1   2  16  252.91   13.22
  -1  -2 -16  258.78   16.55
  -1  -2 -16  269.53   13.15
   1   2 -16  264.94   16.55
   1  -2 -16  306.70   17.55
  -1  -2  16  303.39   13.94
  -1   2 -16  296.07   16.74
   1   2  16  305.62   13.76
   1  -2 -16  308.97   15.27
  -2  -2 -16  389.82   20.99
  -2  -2 -16  380.78   16.63
   2   2 -16  367.24   16.46
   2  -2  16  372.90   16.43
   2   2 -16  380.16   20.93
  -2   2  16  378.61   17.26
  -2  -2  16  383.00   17.12
  -2   2 -16  382.14   19.95
   2   2  16  373.58   16.48
   2  -2 -16  385.97   21.18
   2  -2 -16  364.43   16.58
   3   2 -16  285.96   18.59
   3  -2  16  292.78   14.32
  -3   2  16  295.03   15.23
  -3  -2 -16  298.78   18.31
   3   2 -16  289.24   14.25
  -3  -2 -16  310.54   14.29
   3  -2 -16  314.50   18.91
   3  -2 -16  296.81   14.26
  -3   2 -16  305.50   14.29
  -3  -2  16  309.42   14.80
   3   2  16  321.84   14.60
  -4  -2 -16 2589.29   89.65
   4   2 -16 2559.63   90.08
   4  -2  16 2598.19   90.54
  -4   2 -16 2587.70   90.13
   4   2  16 2631.33   90.64
   5  -2  16  308.99   15.24
   5   2 -16  314.62   15.01
  -5   2 -16  290.14   14.74
   5   2  16  266.46   14.62
   6  -2  16  167.95   10.22
   6   2 -16  151.72    9.50
   6   2  16  125.03    9.26
  -6   2 -16  138.33    9.49
   7  -2  16  209.72   11.97
  -7   2 -16  219.01   11.75
   8  -2  16  400.02   17.71
  -8  -2 -16  401.52   17.22
  -8   2 -16  446.38   17.91
   0  -3 -16    6.21    2.40
   0  -3 -16    2.37    2.65
   0   3 -16   -0.56    1.75
   0   3  16    1.15    1.54
   0   3 -16    1.30    2.36
   1  -3  16  871.43   33.33
  -1   3  16  905.68   34.41
   1   3 -16  934.28   39.01
   1   3 -16  909.27   33.70
  -1  -3 -16  936.14   39.28
  -1  -3 -16  894.52   33.86
   1   3  16  860.62   33.85
   1  -3 -16  908.91   39.30
   1  -3 -16  864.93   33.79
  -1   3 -16  917.11   38.01
  -1  -3  16  896.05   34.52
   2   3 -16 1026.29   43.09
  -2  -3 -16  992.32   42.78
  -2   3  16 1003.42   38.20
  -2  -3 -16  981.93   37.17
   2  -3  16  985.33   37.02
   2   3 -16  998.19   37.18
  -2   3 -16 1028.26   37.42
   2  -3 -16  995.14   42.74
  -2  -3  16  996.49   37.77
   2  -3 -16  969.83   37.16
   2   3  16  974.59   36.94
   3   3 -16  346.01   16.07
  -3  -3 -16  375.54   16.26
   3  -3  16  359.63   16.17
   3  -3 -16  318.88   15.60
   3   3  16  348.49   15.98
  -3   3 -16  346.19   16.13
  -3  -3  16  336.96   16.16
  -4  -3 -16  473.54   19.46
   4  -3  16  454.72   19.88
   4   3 -16  448.15   19.54
  -4   3 -16  414.35   19.33
   4   3  16  405.88   19.22
  -5  -3 -16  373.96   17.01
   5   3 -16  362.07   17.54
   5  -3  16  367.79   17.84
  -5   3 -16  404.78   18.12
   5   3  16  380.74   17.74
   6  -3  16   59.61    6.18
   6   3 -16   58.04    6.51
   7  -3  16  213.36   11.93
  -7   3 -16  215.29   11.67
  -8  -3 -16   49.97    4.54
   8  -3  16   49.83    4.93
  -8   3 -16   58.36    5.23
   0  -4 -16   21.37    3.61
   0   4 -16   25.27    4.48
   0  -4 -16   23.24    5.54
   0   4 -16   22.10    5.19
   0   4 -16   25.28    3.64
   0   4  16   25.80    4.01
   1  -4  16  266.57   12.69
  -1  -4 -16  293.66   13.56
  -1  -4 -16  272.21   17.29
  -1   4  16  273.96   13.67
   1   4 -16  281.96   13.22
   1   4 -16  278.25   17.30
   1  -4 -16  284.78   13.52
  -1   4 -16  278.47   16.33
  -1   4 -16  265.48   13.54
   1  -4 -16  276.96   17.65
   2  -4  16  293.01   13.70
  -2  -4 -16  281.50   17.89
   2   4 -16  268.56   17.73
  -2  -4 -16  282.28   13.85
  -2   4  16  276.97   14.49
   2   4 -16  293.86   13.99
  -2   4 -16  303.57   14.38
  -2  -4  16  293.49   14.32
   2   4  16  290.57   13.61
   2  -4 -16  290.16   18.24
   2  -4 -16  291.87   14.00
  -3  -4 -16  441.83   19.10
   3   4 -16  462.27   19.31
   3  -4  16  428.85   19.01
  -3   4 -16  439.98   19.45
   3   4  16  402.95   18.63
  -4  -4 -16 1452.32   53.13
   4  -4  16 1388.76   53.40
   4   4 -16 1469.64   53.57
   4   4  16 1498.00   53.43
  -4   4 -16 1506.79   53.99
   5   4 -16  202.54   11.44
  -5  -4 -16  201.28   10.99
   5  -4  16  194.30   11.57
  -5   4 -16  176.45   11.32
   6   4 -16   30.60    4.68
   6  -4  16   34.30    5.03
  -6   4 -16   34.83    5.26
   7  -4  16  100.92    7.36
   7   4 -16   96.62    6.84
  -7   4 -16   89.56    7.08
   7   4  16   88.04    8.11
   8  -4  16   57.46    5.11
  -8   4 -16   64.61    5.46
   0   5 -16  277.62   14.05
   0  -5 -16  255.83   12.92
   0  -5 -16  254.16   16.95
   0   5 -16  268.98   12.66
   0   5 -16  266.98   16.57
   1   5 -16  752.65   27.76
   1   5 -16  671.83   32.25
  -1  -5 -16  717.71   34.79
   1   5 -16  723.75   29.01
  -1  -5 -16  711.48   27.80
  -1   5  16  684.46   27.99
   1  -5 -16  671.09   33.07
   1  -5 -16  697.26   27.81
  -1   5 -16  667.44   28.23
  -2  -5 -16 1066.73   39.95
   2   5 -16 1126.73   42.19
   2   5 -16 1101.87   39.88
   2  -5  16 1080.64   39.48
   2  -5 -16 1029.38   39.96
  -2   5 -16 1064.44   40.52
   2   5  16  988.20   39.15
  -3  -5 -16  221.73   12.01
   3  -5  16  228.55   12.17
   3   5 -16  228.37   12.35
  -3   5 -16  234.65   12.87
   4  -5  16  537.63   23.28
   4   5 -16  548.73   23.50
  -4  -5 -16  558.36   23.17
  -4   5 -16  544.37   23.81
   5  -5  16  182.30   10.92
  -5  -5 -16  182.37   10.57
   5   5 -16  181.85   10.98
  -5   5 -16  195.73   11.51
   5   5  16  179.36   10.95
  -6  -5 -16  305.83   14.53
   6   5 -16  306.30   15.05
   6  -5  16  312.83   15.48
   6   5  16  311.98   15.31
  -6   5 -16  313.82   15.48
   7  -5  16   61.41    5.80
  -7   5 -16   65.64    5.94
   7   5  16   63.99    5.93
   8  -5  16   75.99    5.57
  -8   5 -16   84.79    6.09
   0  -6 -16   45.38    5.62
   0   6 -16   46.06    6.23
   0   6 -16   40.76    4.84
   1   6 -16  111.71    7.46
   1   6 -16  108.77    8.73
  -1  -6 -16  108.06    7.69
  -1   6 -16   98.97    8.23
   1  -6 -16   93.13    7.40
  -2  -6 -16  229.74   12.48
   2   6 -16  238.34   13.94
   2   6 -16  237.09   12.52
  -2   6 -16  254.99   13.49
   3   6 -16  170.45   10.36
   3  -6  16  160.93    9.68
   3   6 -16  178.22   11.85
  -3  -6 -16  161.03    9.89
  -3   6 -16  165.89   10.87
   4   6 -16   50.83    9.44
   4   6 -16   38.50    5.27
  -4  -6 -16   49.72    6.06
   4  -6  16   50.81    5.36
   4   6  16   51.87    6.48
  -4   6 -16   49.29    6.40
   5  -6  16   39.75    5.38
  -5  -6 -16   36.15    5.05
   5   6 -16   48.28    6.03
   5   6  16   49.94    5.67
  -5   6 -16   50.76    6.46
   6  -6  16  122.36    8.40
   6   6 -16  118.90    8.25
  -6  -6 -16  116.23    7.88
   6   6  16  133.59    8.80
  -6   6 -16  132.88    8.93
   7  -6  16   49.13    5.03
   7   6 -16   48.63    4.79
   7   6  16   50.91    5.19
  -7   6 -16   55.58    5.49
   0  -7 -16   57.03    6.39
   0   7 -16   48.79    6.36
   1   7 -16  134.89    8.54
  -1  -7 -16  132.09    8.78
   1   7 -16  142.08   10.16
   1  -7 -16  122.55    8.65
  -1   7 -16  121.27    9.30
  -2  -7 -16 1137.12   42.33
   2   7 -16 1116.88   44.05
   2   7 -16 1149.07   42.17
   2  -7  16 1116.61   41.48
  -2   7 -16 1107.85   43.40
   2   7  16 1108.66   46.90
   3   7 -16   57.26    6.48
   3   7 -16   61.72    7.92
  -3  -7 -16   48.28    5.94
  -3   7 -16   64.70    6.82
   3   7  16   65.99    6.44
  -4  -7 -16  377.77   17.45
   4   7 -16  382.57   17.76
   4  -7  16  385.36   17.41
   4   7 -16  390.97   19.19
   4   7  16  354.32   17.63
  -4   7 -16  378.01   18.49
   5  -7  16  133.27    8.83
   5   7 -16  137.70    9.09
   5   7 -16  133.16    9.97
  -5  -7 -16  137.13    8.81
   5   7  16  135.86    9.19
  -5   7 -16  142.93    9.70
  -6  -7 -16   74.68    5.86
   6   7 -16   72.50    6.06
   6  -7  16   73.67    6.15
  -6   7 -16   62.15    6.22
   6   7  16   58.35    5.97
  -7  -7 -16    7.92    2.26
   7   7 -16    7.72    2.54
   7  -7  16    5.94    2.26
  -7   7 -16    8.04    2.97
   7   7  16    5.85    2.49
   0   8 -16   31.91    5.38
   0  -8 -16   41.42    5.45
  -1  -8 -16  262.30   13.21
   1  -8  16  255.75   12.59
   1   8 -16  247.73   14.33
   1   8 -16  246.50   12.30
   1   8  16  222.59   12.68
  -1   8 -16  212.73   13.58
   2  -8  16   43.25    5.16
   2   8 -16   42.67    5.34
   2   8 -16   47.64    6.83
  -2  -8 -16   44.75    5.86
  -2   8 -16   37.01    6.16
   2   8  16   34.22    5.24
  -3  -8 -16   13.48    3.53
   3   8 -16   13.11    3.56
   3   8 -16   16.47    4.36
  -3   8 -16   12.97    3.99
   3   8  16    8.39    3.09
   4   8 -16  280.59   15.60
  -4  -8 -16  278.66   14.18
   4   8 -16  301.32   14.67
   4   8  16  291.03   14.78
  -4   8 -16  291.60   15.36
   5  -8  16  203.88   11.25
   5   8 -16  214.69   11.61
  -5  -8 -16  205.02   11.34
   5   8 -16  210.34   12.37
  -5   8 -16  243.79   12.68
   5   8  16  227.94   12.16
   6   8 -16   53.91    5.32
   6  -8  16   49.51    4.82
  -6  -8 -16   52.30    5.03
  -6   8 -16   71.33    6.17
   6   8  16   65.57    5.75
   7   8 -16   30.63    4.74
  -7   8 -16   29.92    4.02
   0   9 -16  286.98   15.64
   0  -9  16  280.45   13.94
   0   9  16  275.50   14.15
   0  -9 -16  261.23   13.84
   1   9 -16  207.97   13.27
  -1   9  16  193.20   11.70
  -1  -9 -16  207.56   11.82
   1  -9  16  212.29   11.72
  -1   9 -16  220.55   13.09
   1   9  16  228.66   12.25
   2   9 -16  437.09   19.10
   2  -9  16  420.62   18.93
  -2  -9 -16  454.19   19.81
   2   9 -16  459.42   21.40
   2   9  16  422.15   19.79
  -2   9 -16  422.05   20.67
  -3  -9 -16   24.41    4.44
   3   9 -16   20.93    5.03
   3   9 -16   25.55    4.43
   3   9  16   28.59    4.94
  -3   9 -16   23.34    4.70
  -4  -9 -16  161.04    9.57
   4   9 -16  164.59    9.63
   4   9 -16  146.71   10.42
   4   9  16  153.63    9.83
  -4   9 -16  157.67   10.40
  -5  -9 -16  117.61    7.56
   5   9 -16  114.38    7.55
   5   9 -16  123.80    8.56
   5   9  16  101.55    7.50
  -5   9 -16  105.60    7.92
  -5  -9  16   96.54    6.65
  -6  -9 -16  131.44    7.59
   6   9 -16  137.41    7.84
   6   9 -16  129.54    9.40
  -6   9 -16  127.25    8.14
   6   9  16  132.00    8.06
   0  10  16   42.44    5.64
   0 -10  16   35.24    5.02
   0  10 -16   33.69    5.79
   1 -10  16  138.13    8.65
  -1  10  16  132.81    9.07
   1  10 -16  146.81   10.23
  -1 -10 -16  131.70    8.68
  -1 -10  16  125.47    8.64
   1  10  16  104.05    8.37
  -1  10 -16  110.05    9.19
  -2 -10 -16   29.33    4.66
   2  10 -16   29.54    4.25
   2  10 -16   23.65    5.03
  -2  10  16   24.90    4.46
   2 -10  16   26.52    4.25
   2  10  16   35.08    5.34
  -2  10 -16   29.68    5.06
  -2 -10  16   27.89    4.41
   3  10 -16   95.93    8.22
   3  10 -16   97.55    7.00
  -3 -10 -16   94.35    7.28
   3  10  16  101.91    7.87
  -3 -10  16   99.73    7.32
  -3  10 -16  105.44    8.43
   4  10 -16    5.97    3.10
   4  10 -16    4.38    2.56
  -4 -10 -16    7.50    2.60
  -4 -10  16    4.40    2.33
   4  10  16    0.43    2.44
  -4  10 -16    0.90    2.47
   5  10 -16  188.41   10.68
  -5 -10 -16  184.96   10.14
   5  10 -16  190.18    9.99
  -5  10 -16  223.28   11.20
   5  10  16  218.17   10.87
   0  11 -16   24.09    4.82
   0 -11  16   29.22    4.51
   0  11  16   29.94    4.89
   1 -11  16  331.11   15.51
   1  11 -16  323.53   16.65
  -1  11  16  328.96   15.65
  -1  11 -16  343.69   16.88
  -1 -11  16  342.94   15.68
   1  11  16  333.46   15.94
   2  11 -16  106.24    8.38
  -2 -11 -16  106.48    7.33
  -2  11  16  102.49    7.62
   2 -11  16  103.13    7.04
  -2 -11  16   96.47    7.20
   2  11  16  101.23    7.72
  -2  11 -16   94.89    7.97
   3  11 -16   87.06    7.29
  -3 -11 -16   85.64    6.64
   3  11 -16   86.54    6.30
  -3  11  16   91.17    7.13
  -3 -11  16  112.51    7.09
  -3  11 -16  116.46    8.04
   4  11 -16   20.39    3.97
  -4 -11 -16   25.59    3.79
   4  11 -16   19.90    3.41
   4  11  16   24.45    4.03
  -4 -11  16   23.30    3.40
  -4  11 -16   26.35    4.31
  -5 -11 -16  296.99   12.50
   5  11 -16  286.97   12.72
  -5  11 -16  263.14   13.38
   0 -12  16   88.34    6.67
   0  12  16   93.47    6.92
   0  12 -16   87.92    7.42
   1 -12  16  107.40    7.17
   1  12 -16  115.92    8.33
  -1  12  16  105.78    7.54
   1  12  16  113.99    7.87
  -1  12 -16  108.73    8.14
  -1 -12  16  114.23    7.55
   2  12 -16   15.65    3.72
   2 -12  16   20.35    3.29
  -2 -12 -16   19.89    3.42
  -2  12 -16   23.15    4.28
   2  12  16   18.32    3.70
  -2 -12  16   20.69    3.60
  -3 -12 -16  185.46    9.63
  -3  12  16  187.91   10.38
   3  12 -16  184.30   10.45
  -3  12 -16  208.48   10.81
   3  12  16  211.87   10.47
  -3 -12  16  209.05    9.97
   0  13  16   39.48    4.80
   0 -13  16   41.08    4.39
   0  13 -16   38.88    4.97
   1  13 -16  164.23    9.83
  -1  13  16  152.28    8.72
   1 -13  16  169.94    8.71
   1  13  16  165.14    8.98
  -1 -13  16  179.46    9.13
  -1  13 -16  168.14    9.50
   2  13 -16    6.92    2.65
  -2 -13  16    5.19    2.16
  -2  13 -16    7.79    2.85
   0   0  17    0.07    1.57
   0   0 -17   -0.20    2.25
   0   0 -17   -0.53    1.57
  -1   0 -17   10.82    2.81
  -1   0 -17   12.26    4.31
   1   0 -17   12.22    4.19
   1   0  17   13.59    3.22
  -1   0  17   16.37    3.41
   1   0  17   10.04    2.54
   1   0 -17   11.85    2.77
   2   0 -17   33.95    4.55
   2   0 -17   38.63    7.12
  -2   0 -17   35.18    4.60
  -2   0 -17   41.34    7.16
   2   0  17   33.97    4.49
  -2   0  17   36.43    4.98
   3   0 -17    8.86    2.72
  -3   0 -17   14.61    4.91
  -3   0 -17   17.02    3.38
   3   0  17   15.94    3.35
   4   0  17  126.48    8.65
   4   0 -17  118.92    8.37
  -5   0 -17    5.49    2.60
   5   0  17    6.65    2.79
   5   0 -17    4.68    2.73
  -6   0 -17  447.57   20.05
   6   0  17  468.87   21.00
  -7   0 -17   13.53    3.23
   7   0  17   13.54    3.24
  -8   0 -17   73.17    5.43
   8   0  17   66.34    5.30
   0   1  17   33.90    4.82
   0  -1 -17   25.15    4.14
   0  -1 -17   29.22    6.15
   0  -1  17   34.85    4.73
   0   1 -17   33.45    4.40
   0   1 -17   33.07    6.41
   0  -1  17   30.31    4.04
  -1  -1 -17  524.31   21.69
  -1   1  17  522.68   22.29
   1  -1  17  522.56   21.37
   1   1 -17  531.06   26.22
  -1  -1 -17  542.94   26.81
   1   1 -17  527.39   21.57
  -1   1 -17  528.97   26.05
   1  -1 -17  536.88   21.79
   1   1  17  529.21   21.51
   1   1  17  536.77   22.31
   1  -1 -17  501.75   26.08
  -1   1 -17  538.69   21.60
  -1  -1  17  536.68   22.46
  -2   1  17  337.25   16.55
   2   1 -17  353.17   20.50
   2  -1  17  349.54   15.94
  -2  -1 -17  362.26   20.51
   2   1 -17  353.26   16.15
  -2  -1 -17  369.69   16.23
  -2   1 -17  361.97   15.81
  -2  -1  17  360.83   16.77
  -2   1 -17  353.84   19.93
   2  -1 -17  383.50   16.39
   2   1  17  375.57   16.24
   2  -1 -17  361.37   20.57
   3  -1  17   24.05    4.13
  -3  -1 -17   21.30    3.94
   3   1 -17   33.39    4.77
   3   1  17   25.72    4.06
   3  -1 -17   29.39    4.42
   4  -1  17   10.35    3.12
  -4  -1 -17    6.43    2.78
   4   1 -17    8.29    2.85
  -4   1 -17    6.12    2.67
   4  -1 -17    5.62    2.74
   4   1  17    7.91    2.82
  -5  -1 -17  129.02   11.06
   5   1 -17  127.29    8.78
   5  -1  17  140.37    9.38
   5   1  17  125.70    9.02
  -5   1 -17  126.70    8.77
   6  -1  17  168.24   10.73
  -6  -1 -17  163.32    9.97
  -6   1 -17  176.90   10.46
   6   1  17  179.33   10.89
  -7  -1 -17  134.67    8.41
   7  -1  17  138.85    8.95
   7   1  17  130.14    8.48
  -7   1 -17  132.02    8.47
   8  -1  17  206.24   10.32
  -8  -1 -17  204.51    9.97
  -8   1 -17  205.23   10.25
   0   2 -17   31.22    4.18
   0  -2  17   33.15    4.07
   0   2  17   34.57    4.22
   0  -2  17   37.46    5.00
   0   2 -17   28.70    5.75
   0  -2 -17   31.48    6.37
   0  -2 -17   30.03    4.18
  -1  -2 -17   28.09    4.09
  -1  -2 -17   23.97    5.67
  -1   2  17   25.32    4.21
   1  -2  17   25.17    3.90
   1   2 -17   22.59    5.38
   1   2 -17   26.03    3.96
   1  -2 -17   26.29    4.01
  -1   2 -17   30.00    4.16
   1   2  17   25.49    4.09
   1  -2 -17   22.19    5.47
  -1   2 -17   21.98    5.16
  -1  -2  17   31.12    4.75
   1   2  17   27.75    3.92
  -2  -2 -17  620.72   23.86
   2   2 -17  627.74   23.79
  -2  -2 -17  600.09   28.86
  -2   2  17  614.54   24.69
   2  -2  17  599.89   23.58
   2   2 -17  602.43   28.88
   2  -2 -17  566.25   23.58
   2   2  17  535.23   23.17
  -2  -2  17  552.84   24.05
  -2   2 -17  551.77   27.21
   2  -2 -17  552.75   28.46
  -2   2 -17  537.03   22.79
  -3  -2 -17  189.27   10.22
   3  -2  17  205.56   10.84
   3   2 -17  199.25   10.62
   3   2  17  158.28    9.89
   3  -2 -17  166.48   10.09
  -3   2 -17  171.32   10.15
   4   2 -17  103.73    7.70
   4  -2  17  116.92    8.13
  -4  -2 -17  102.04    7.26
   4   2  17  101.99    7.76
  -4   2 -17   96.17    7.51
   5  -2  17  476.10   21.40
   5   2 -17  461.77   20.87
   5   2  17  496.73   21.50
  -5   2 -17  478.54   21.04
   6  -2  17  326.21   15.96
   6   2 -17  313.16   15.20
   6   2  17  310.97   15.61
  -6   2 -17  321.63   15.59
   7  -2  17  275.98   13.84
  -7  -2 -17  258.54   12.78
  -7   2 -17  280.06   13.53
   8  -2  17   58.55    5.06
  -8  -2 -17   49.99    4.51
  -8   2 -17   79.23    5.61
   0  -3 -17  949.16   42.34
   0   3 -17 1030.40   36.83
   0  -3  17  983.84   36.23
   0   3  17  940.99   37.10
   0   3 -17 1000.64   41.99
   0  -3 -17 1011.13   37.24
  -1  -3 -17  257.73   12.71
   1  -3  17  252.58   12.17
   1   3 -17  252.90   16.38
  -1  -3 -17  258.23   16.85
   1   3 -17  251.85   12.40
  -1   3  17  237.67   12.80
   1  -3 -17  269.76   12.86
  -1   3 -17  259.46   16.04
  -1   3 -17  251.90   12.12
  -1  -3  17  262.38   13.31
   1   3  17  260.94   12.99
   1  -3 -17  236.81   16.35
   2  -3  17  234.42   12.46
   2   3 -17  245.16   12.75
  -2  -3 -17  236.06   12.65
  -2  -3 -17  241.04   23.83
   2   3  17  282.27   13.09
   2  -3 -17  268.26   17.46
  -2   3 -17  265.85   13.13
  -2  -3  17  269.53   13.63
   2  -3 -17  274.75   13.18
   3  -3  17   49.73    5.35
   3   3 -17   48.13    5.67
  -3  -3 -17   49.38    5.82
   3   3  17   46.93    5.10
   3  -3 -17   47.47    5.51
  -3   3 -17   51.53    5.59
  -4  -3 -17  477.17   20.56
   4   3 -17  490.79   21.05
   4  -3  17  488.46   21.23
   4   3  17  460.95   20.84
  -4   3 -17  470.46   21.06
   5   3 -17  340.40   16.50
  -5  -3 -17  340.08   15.82
   5  -3  17  323.37   16.46
   5   3  17  342.36   16.48
  -5   3 -17  362.45   16.82
   6  -3  17    5.74    2.60
   6   3 -17    4.61    2.68
  -6   3 -17   12.69    3.49
   7  -3  17  213.73   11.71
  -7   3 -17  224.96   11.76
   8  -3  17  548.04   21.93
  -8   3 -17  566.31   22.02
   0   4 -17   53.53    5.15
   0   4  17   55.08    5.48
   0  -4 -17   53.60    7.71
   0   4 -17   58.69    7.55
   0  -4 -17   54.64    5.46
  -1  -4 -17   84.07    6.63
   1   4 -17   90.23    6.83
  -1   4  17   88.38    7.05
   1  -4  17   90.18    6.48
   1  -4 -17   91.54    6.97
  -1   4 -17  101.44    6.74
  -1   4 -17   94.04    7.45
   1  -4 -17   87.69    9.80
  -2  -4 -17  223.69   11.52
   2  -4  17  214.31   11.02
   2   4 -17  208.56   11.26
  -2   4 -17  188.41   11.22
   2  -4 -17  189.34   10.92
   2   4  17  200.10   10.86
   3   4 -17  239.16   12.45
  -3  -4 -17  233.73   12.46
   3  -4  17  236.71   12.41
   3   4  17  224.30   12.14
  -3   4 -17  243.76   12.94
   4  -4  17  223.14   12.07
  -4  -4 -17  219.94   11.83
   4   4 -17  223.67   12.17
   4   4  17  196.04   11.51
  -4   4 -17  200.20   11.96
   5   4 -17  121.00    8.82
  -5  -4 -17  135.06    8.68
   5  -4  17  138.46    9.35
  -5   4 -17  132.74    9.24
   6   4 -17   31.98    4.89
   6  -4  17   33.73    4.97
  -6   4 -17   53.76    5.78
   7  -4  17   33.08    4.59
   7   4 -17   36.40    4.54
  -7   4 -17   34.21    4.63
   8  -4  17  108.72    6.54
  -8   4 -17   98.12    6.57
   0   5 -17  379.38   17.95
   0  -5 -17  366.33   17.04
   0   5 -17  372.41   16.40
  -1  -5 -17  524.74   22.04
   1   5 -17  529.96   21.69
   1   5 -17  523.26   23.00
  -1   5 -17  506.78   22.58
   1  -5 -17  501.52   21.93
   2   5 -17  849.52   32.86
  -2  -5 -17  862.11   33.25
   2  -5  17  859.62   32.62
   2   5  17  806.90   32.48
   2  -5 -17  855.03   33.12
  -2   5 -17  876.87   33.86
   3  -5  17   27.73    4.57
   3   5 -17   34.03    5.18
  -3  -5 -17   32.25    5.03
   3   5  17   46.97    5.02
  -3   5 -17   47.64    6.09
   4  -5  17  417.09   19.25
   4   5 -17  430.87   19.51
  -4  -5 -17  441.56   19.41
  -4   5 -17  422.85   19.76
   5  -5  17  121.45    8.50
   5   5 -17  126.17    8.72
  -5  -5 -17  118.45    8.19
  -5   5 -17  122.99    8.96
   6  -5  17  243.03   12.81
   6   5 -17  240.24   12.43
  -6  -5 -17  250.92   12.11
  -6   5 -17  222.82   12.59
   7  -5  17  105.99    7.30
   7   5 -17   92.75    6.67
  -7   5 -17  113.29    7.59
   0   6 -17   12.40    3.12
   0  -6 -17   21.59    4.08
   0   6 -17   22.76    4.70
   1   6 -17   64.48    6.96
  -1  -6 -17   57.33    5.77
   1   6 -17   57.20    6.08
   1  -6 -17   54.50    6.39
  -1   6 -17   52.40    6.80
  -2  -6 -17   81.85    7.05
   2   6 -17   89.97    7.13
   2   6 -17   81.58    7.96
   2   6  17   85.72    8.65
  -2   6 -17   85.67    7.72
   3   6 -17  170.08   13.03
  -3  -6 -17  169.16   10.21
   3  -6  17  164.44    9.73
   3   6 -17  158.58   10.13
  -3   6 -17  156.27   10.67
   4  -6  17   69.02    6.29
  -4  -6 -17   71.80    6.42
   4   6 -17   75.36    6.69
  -4   6 -17   61.66    6.79
   5   6 -17  112.69    8.09
   5  -6  17  114.00    8.01
  -5  -6 -17  107.81    7.79
  -5   6 -17  105.21    8.32
   6   6 -17  191.54   10.53
  -6  -6 -17  191.28   10.19
   6  -6  17  191.86   10.69
  -6   6 -17  199.15   11.12
   6   6  17  180.86   12.22
   7   6 -17   65.34    5.25
   7  -6  17   64.97    5.53
  -7   6 -17   74.88    6.16
   0   7 -17  505.36   22.89
   0  -7 -17  497.92   21.76
   1   7 -17   65.37    7.24
  -1  -7 -17   58.97    6.05
  -1   7 -17   62.05    6.91
   1  -7 -17   67.09    6.48
   2   7 -17  372.92   19.17
  -2  -7 -17  386.28   17.97
   2   7 -17  370.63   17.50
  -2   7 -17  418.07   19.35
   3   7 -17  177.52   12.07
  -3  -7 -17  182.51   10.86
   3   7 -17  180.12   10.66
  -3   7 -17  197.42   12.04
   4  -7  17  583.43   24.47
   4   7 -17  571.08   25.96
   4   7 -17  582.07   24.82
  -4  -7 -17  621.76   25.12
  -4   7 -17  622.40   26.00
   4   7  17  606.62   25.30
   5   7 -17  272.94   13.37
  -5  -7 -17  257.55   13.08
   5  -7  17  260.50   13.06
   5   7  17  247.15   13.16
  -5   7 -17  255.22   13.76
  -6  -7 -17  132.51    8.07
   6  -7  17  124.06    8.12
   6   7 -17  130.92    8.19
  -6   7 -17  158.96    9.27
   6   7  17  151.04    8.83
   7   7 -17   22.66    3.39
   7  -7  17   20.50    3.12
  -7   7 -17   17.38    3.42
   0   8 -17   67.94    7.20
   0  -8 -17   66.14    7.27
   1   8 -17   29.19    4.27
  -1  -8 -17   26.68    4.71
   1   8 -17   23.86    5.18
   1  -8  17   29.67    4.43
  -1   8 -17   25.15    5.07
  -2  -8 -17   10.43    3.29
   2   8 -17    4.56    2.56
   2   8 -17    6.89    3.46
   2  -8  17    7.65    2.72
  -2   8 -17    4.97    3.18
   3   8 -17  528.20   23.69
  -3  -8 -17  511.62   22.18
   3   8 -17  511.33   21.86
   3   8  17  497.63   22.02
  -3   8 -17  513.52   23.24
   4   8 -17   13.47    3.96
   4   8 -17    8.07    3.02
  -4  -8 -17   16.02    3.52
   4   8  17   12.86    3.64
  -4   8 -17   11.44    3.72
   5   8 -17  234.51   13.11
   5   8 -17  230.29   11.64
   5  -8  17  222.88   11.29
  -5  -8 -17  221.89   11.55
   5   8  17  204.54   11.51
  -5   8 -17  214.77   12.15
   6  -8  17   77.58    5.64
  -6  -8 -17   73.58    5.74
   6   8 -17   84.24    6.14
   6   8  17   87.27    6.32
  -6   8 -17   84.43    6.82
   0  -9 -17    1.87    2.34
   0   9 -17    0.73    2.73
   0  -9  17    1.98    2.10
   1   9 -17  203.73   12.61
  -1  -9 -17  179.24   10.95
   1  -9  17  192.23   10.95
   1   9  17  199.95   11.49
  -1   9 -17  211.36   12.60
   2  -9  17  426.81   19.14
   2   9 -17  454.75   21.43
  -2  -9 -17  464.37   20.16
   2   9 -17  433.91   19.28
  -2   9 -17  477.05   21.54
   2   9  17  455.91   20.11
  -3  -9 -17  618.52   25.41
   3   9 -17  597.35   24.77
   3   9 -17  604.36   26.64
   3   9  17  611.17   25.41
  -3   9 -17  643.80   26.55
   4   9 -17  235.85   11.77
   4   9 -17  238.66   12.89
  -4  -9 -17  226.21   11.84
  -4   9 -17  210.93   12.29
   4   9  17  215.93   12.00
   5   9 -17   89.81    6.50
   5   9 -17   88.29    7.04
  -5  -9 -17   92.14    6.53
  -5  -9  17   70.96    5.58
   5   9  17   82.92    6.42
  -5   9 -17   90.33    7.08
  -6  -9 -17   17.12    2.91
   6   9 -17    8.83    2.61
  -6   9 -17    7.42    2.76
   0  10 -17   30.19    5.35
   0 -10  17   36.24    5.02
   0  10  17   28.01    4.85
   1 -10  17  384.60   16.86
  -1 -10 -17  380.27   16.92
   1  10 -17  396.21   18.56
  -1 -10  17  354.92   16.79
   1  10  17  350.97   16.83
  -1  10 -17  337.14   17.77
   2  10 -17   41.39    5.91
   2 -10  17   41.50    5.09
   2  10 -17   39.91    4.92
  -2 -10 -17   52.77    5.86
  -2 -10  17   48.59    5.66
   2  10  17   44.71    5.44
  -2  10 -17   46.16    6.18
   3  10 -17  678.70   28.13
  -3 -10 -17  689.38   27.19
   3  10 -17  661.79   26.36
   3  10  17  677.38   27.19
  -3  10 -17  693.27   28.22
  -3 -10  17  695.51   27.05
   4  10 -17   12.95    3.48
   4  10 -17   18.16    3.31
  -4 -10 -17   18.24    3.50
  -4 -10  17    9.51    2.65
   4  10  17    7.82    2.90
  -4  10 -17   11.46    3.33
   5  10 -17  271.53   12.54
  -5 -10 -17  274.51   12.53
   5  10 -17  279.91   12.27
   5  10  17  261.26   12.43
  -5  10 -17  271.95   13.05
   0 -11  17   39.54    4.98
   0  11  17   39.54    5.06
   0  11 -17   35.90    5.44
   1 -11  17  211.28   11.40
  -1  11  17  192.40   11.32
   1  11 -17  214.56   12.58
  -1 -11  17  259.77   12.07
   1  11  17  252.57   12.36
  -1  11 -17  239.14   12.91
  -2 -11 -17  186.27   10.18
   2 -11  17  183.64    9.87
   2  11 -17  195.96   11.30
   2  11  17  185.99   10.49
  -2  11 -17  192.79   11.27
  -2 -11  17  208.15   10.53
   3  11 -17  161.21    9.72
  -3 -11 -17  155.19    8.92
   3  11 -17  152.71    8.29
  -3  11 -17  172.67   10.01
  -3 -11  17  169.34    9.02
   3  11  17  166.96    9.26
  -4 -11 -17   54.97    4.86
   4  11 -17   54.05    4.70
   4  11 -17   51.22    5.07
   4  11  17   51.98    5.00
  -4 -11  17   53.89    4.70
  -4  11 -17   59.03    5.60
   0 -12  17    1.96    2.16
   0  12 -17    0.37    2.42
   0  12  17    2.42    2.26
   1 -12  17   21.72    3.44
  -1  12  17   23.42    3.68
   1  12 -17   23.32    4.29
  -1  12 -17   26.22    4.44
   1  12  17   25.78    3.93
  -1 -12  17   31.00    4.07
   2 -12  17  197.83    9.67
   2  12 -17  204.91   10.86
   2  12  17  194.99   10.17
  -2  12 -17  199.76   10.99
  -2 -12  17  202.83   10.16
   3  12 -17  478.86   19.52
  -3 -12 -17  487.63   21.42
  -3 -12  17  484.66   18.88
  -3  12 -17  471.39   19.59
   3  12  17  467.15   21.73
   0 -13  17  151.96    7.95
   0  13 -17  145.97    8.59
   0   0 -18   -0.30    2.16
   0   0 -18    0.75    1.65
   0   0  18   -0.85    1.72
  -1   0 -18  237.50   11.86
   1   0 -18  229.96   11.81
   1   0  18  227.80   11.54
  -1   0 -18  231.79   15.80
  -1   0  18  230.20   12.42
   1   0 -18  238.00   16.01
  -2   0 -18  267.14   18.53
   2   0  18  270.75   13.32
   2   0 -18  287.03   13.74
  -2   0 -18  289.80   13.55
   3   0 -18  137.89    8.74
   3   0  18  137.84    8.73
  -3   0 -18  135.68    8.46
   4   0  18  389.82   18.26
   4   0 -18  393.69   18.04
  -5   0 -18   45.78    5.56
   5   0 -18   46.04    5.89
   5   0  18   47.42    6.18
  -6   0 -18    2.36    2.16
   6   0  18    3.88    2.52
   7   0  18    0.95    1.77
  -7   0 -18    0.83    1.80
  -8   0 -18  197.30    9.57
   0  -1 -18   67.51    5.65
   0   1 -18   62.76    7.95
   0  -1  18   56.86    5.09
   0   1 -18   65.01    5.64
   0  -1  18   63.42    5.97
   0  -1 -18   60.78    8.15
   0   1  18   59.01    5.77
   1   1 -18  555.79   22.92
   1   1 -18  540.74   27.83
  -1   1  18  526.42   23.52
  -1  -1 -18  569.28   23.19
  -1  -1 -18  559.75   28.38
   1  -1  18  568.96   22.81
   1  -1 -18  569.73   23.22
  -1   1 -18  575.24   27.96
   1   1  18  584.91   23.05
  -1  -1  18  569.81   23.94
   1  -1 -18  552.53   28.13
  -1   1 -18  593.30   23.12
  -2  -1 -18  171.96    9.76
   2  -1  18  157.83    9.40
   2   1 -18  165.29    9.58
   2  -1 -18  159.99    9.50
  -2   1 -18  160.08   12.80
  -2   1 -18  161.32    9.32
   2   1  18  165.83    9.57
   3   1 -18  107.67    7.66
   3  -1  18   98.20    7.40
  -3  -1 -18   96.17    7.28
   3  -1 -18  110.93    7.62
   3   1  18  116.13    7.80
  -4  -1 -18  203.24   11.12
   4  -1  18  202.39   11.70
   4   1 -18  204.95   11.58
   4   1  18  225.42   12.14
   4  -1 -18  210.42   11.58
  -4   1 -18  201.46   11.34
   5   1 -18   75.29    6.71
   5  -1  18   77.96    6.83
  -5   1 -18   57.99    6.01
   5   1  18   66.17    6.51
   6  -1  18  114.83    8.32
  -6  -1 -18  100.86    7.44
   6   1  18  114.72    8.29
  -6   1 -18  112.65    7.84
  -7  -1 -18  278.13   13.16
   7  -1  18  287.31   13.99
  -7   1 -18  289.08   13.56
   7   1  18  289.80   13.72
   8  -1  18   19.99    3.14
  -8   1 -18   23.95    3.34
   0  -2  18  236.80   11.56
   0   2  18  224.65   12.35
   0   2 -18  235.27   15.81
   0  -2 -18  248.73   16.56
   0   2 -18  234.73   11.79
   0  -2 -18  234.86   12.09
  -1  -2 -18  280.07   19.04
  -1  -2 -18  282.92   13.69
   1  -2  18  277.07   13.04
   1   2 -18  273.03   18.10
   1   2 -18  274.03   13.42
  -1   2  18  268.08   14.01
   1  -2 -18  263.36   13.41
  -1  -2  18  271.47   12.79
  -1   2 -18  270.21   17.07
   1  -2 -18  280.97   18.10
  -1   2 -18  283.08   13.24
   1   2  18  287.70   13.46
   1   2  18  267.04   13.83
   2  -2  18  258.79   13.10
  -2  -2 -18  260.08   13.44
   2   2 -18  254.51   13.16
   2   2  18  285.49   13.49
  -2   2 -18  291.69   13.21
   2  -2 -18  276.39   13.52
   3  -2  18   34.46    4.76
  -3  -2 -18   34.31    4.76
   3   2 -18   31.23    4.52
  -3   2 -18   31.51    4.59
   3  -2 -18   30.28    4.58
   3   2  18   32.42    4.61
   4  -2  18  142.25    9.50
  -4  -2 -18  152.06    9.29
   4   2 -18  149.94    9.50
  -4   2 -18  151.46    9.58
   4  -2 -18  157.40   10.35
   4   2  18  142.08    9.46
   5  -2  18   45.19    5.95
   5   2 -18   34.91    5.05
   5   2  18   39.19    5.44
  -5   2 -18   38.92    5.47
   6  -2  18   60.72    6.03
   6   2 -18   62.81    6.10
  -6   2 -18   73.12    6.38
   6   2  18   64.92    6.21
   7  -2  18   45.25    4.97
  -7   2 -18   50.52    5.05
   8  -2  18    8.30    2.20
  -8   2 -18   12.66    2.73
   0  -3  18   26.87    4.02
   0   3 -18   38.06    4.84
   0   3  18   21.74    4.06
   0   3 -18   29.51    6.76
   0  -3 -18   21.90    3.88
   1  -3  18   93.44    6.78
  -1  -3 -18   88.97    7.05
   1   3 -18   84.97    6.76
   1  -3 -18  107.45    7.43
  -1   3 -18  102.16   10.29
   1   3  18  101.74    7.83
   1   3  18  109.18    7.22
  -1   3 -18  111.88    7.16
   2   3 -18  429.03   18.45
  -2  -3 -18  405.33   18.25
   2  -3  18  411.60   18.03
   2   3  18  396.66   17.95
  -2   3 -18  393.30   18.19
   2  -3 -18  410.84   18.32
  -3  -3 -18  179.95   10.54
   3   3 -18  184.45   10.69
   3  -3  18  173.44   10.58
   3   3  18  192.60   10.73
   3  -3 -18  196.55   10.93
  -3   3 -18  189.57   10.95
  -4  -3 -18   66.85    6.02
   4  -3  18   64.74    6.24
   4   3 -18   73.25    6.59
  -4   3 -18   53.26    5.97
   4   3  18   49.48    6.10
   5   3 -18    3.04    2.59
  -5  -3 -18    3.27    2.32
   5  -3  18    5.51    2.44
  -5   3 -18    0.31    2.35
   5   3  18    1.56    2.19
   6  -3  18  317.45   15.36
   6   3 -18  310.67   14.80
  -6   3 -18  300.66   15.00
   7  -3  18   13.14    2.98
  -7   3 -18   14.73    3.26
   0  -4 -18    1.29    1.92
   0   4 -18    2.22    1.96
   1   4 -18   38.66    5.02
   1  -4  18   42.71    4.99
  -1  -4 -18   37.20    5.11
  -1   4 -18   43.93    4.98
  -1   4 -18   36.06    5.26
   1  -4 -18   29.47    4.61
   1   4  18   29.33    4.30
  -2  -4 -18  349.89   16.80
   2   4 -18  342.47   16.65
   2  -4  18  346.23   16.46
   2  -4 -18  377.85   17.11
  -2   4 -18  385.24   17.51
   2   4  18  393.16   16.98
   3  -4  18  193.53   11.16
   3   4 -18  186.29   11.04
  -3  -4 -18  206.32   11.44
   3   4  18  200.53   11.15
  -3   4 -18  211.97   11.91
  -4  -4 -18  379.73   17.46
   4  -4  18  368.02   17.54
   4   4 -18  379.57   17.74
  -4   4 -18  389.70   18.10
   4   4  18  368.23   17.37
   5   4 -18  174.21   10.68
  -5  -4 -18  188.48   10.51
   5  -4  18  194.18   11.22
  -5   4 -18  185.38   11.19
   6  -4  18  140.57    8.74
   6   4 -18  127.29    8.33
  -6   4 -18  101.72    7.97
   7   4 -18   63.69    5.70
   7  -4  18   74.85    5.97
  -7   4 -18   78.75    6.16
   0  -5 -18  612.35   25.67
   0   5 -18  637.83   25.09
   0   5 -18  618.07   26.34
   1   5 -18  257.18   12.83
  -1  -5 -18  236.86   12.93
  -1   5 -18  250.29   13.69
   1   5  18  255.38   12.81
   1  -5 -18  262.42   13.29
  -2  -5 -18  532.89   22.51
   2   5 -18  532.35   22.18
   2  -5  18  501.99   21.66
  -2   5 -18  492.20   22.53
   2   5  18  529.00   21.99
   2  -5 -18  541.95   22.47
   3   5 -18 1224.66   44.81
  -3  -5 -18 1191.30   44.70
   3  -5  18 1158.79   44.31
   3   5  18 1174.17   44.13
  -3   5 -18 1213.49   45.33
  -4  -5 -18  119.85    8.36
   4  -5  18  125.43    8.58
   4   5 -18  122.21    8.71
  -4   5 -18  108.47    8.70
   5   5 -18  278.46   13.74
   5  -5  18  270.57   13.66
  -5  -5 -18  245.55   12.99
  -5   5 -18  254.05   13.87
  -6  -5 -18    4.96    2.34
   6  -5  18    2.07    2.06
   6   5 -18    5.64    2.46
  -6   5 -18    8.38    2.92
   7  -5  18  263.85   12.22
   7   5 -18  238.71   11.35
  -7   5 -18  242.19   12.04
   0   6 -18    5.62    2.98
   0   6 -18    1.59    2.13
   0  -6 -18    3.08    2.32
   1   6 -18  225.57   13.44
  -1  -6 -18  247.41   12.76
   1   6 -18  235.51   12.09
  -1   6 -18  230.90   13.18
   1  -6 -18  235.64   12.60
   1   6  18  223.21   11.95
   2   6 -18  919.55   36.19
  -2  -6 -18  866.80   34.63
   2   6 -18  890.85   34.46
   2   6  18  870.26   33.96
  -2   6 -18  901.32   35.65
  -3  -6 -18   64.82    7.11
   3  -6  18   57.86    5.68
   3   6 -18   43.96    5.67
  -3   6 -18   71.32    6.94
  -4  -6 -18   36.44    5.20
   4   6 -18   27.39    4.49
   4  -6  18   34.39    4.91
  -4   6 -18   28.19    5.11
   5  -6  18   36.70    4.85
  -5  -6 -18   34.24    4.94
   5   6 -18   34.34    4.87
  -5   6 -18   37.04    5.59
  -6  -6 -18  280.54   13.10
   6  -6  18  287.10   13.70
   6   6 -18  272.82   13.41
  -6   6 -18  309.69   14.38
   7   6 -18  197.83    9.51
   7  -6  18  203.61    9.88
  -7   6 -18  195.79   10.17
   0  -7 -18  488.90   21.04
   0   7 -18  455.28   21.57
  -1  -7 -18  254.13   12.95
   1   7 -18  251.56   12.39
   1   7 -18  262.03   14.22
   1  -7 -18  208.38   12.21
  -1   7 -18  218.77   13.37
   1   7  18  212.48   11.85
   2   7 -18  125.19    9.90
  -2  -7 -18  128.93    8.87
   2   7 -18  122.11    8.51
  -2   7 -18  144.04   10.05
   3   7 -18 1214.86   44.46
   3   7 -18 1193.37   45.92
  -3  -7 -18 1158.63   44.53
  -3   7 -18 1197.68   45.74
   4   7 -18  255.01   13.26
  -4  -7 -18  250.84   13.20
   4  -7  18  246.31   12.75
  -4   7 -18  281.50   14.45
   5  -7  18  305.24   14.63
  -5  -7 -18  312.09   14.79
   5   7 -18  332.35   15.07
  -5   7 -18  322.39   15.56
  -6  -7 -18  185.50    9.41
   6   7 -18  176.79    9.51
   6  -7  18  171.72    9.41
  -6   7 -18  187.70   10.25
   0  -8 -18  224.30   12.35
   0   8 -18  219.99   13.20
   1   8 -18  112.38    7.59
   1   8 -18  104.62    9.03
   1  -8  18  105.96    7.58
  -1  -8 -18  112.56    8.19
  -1   8 -18  111.35    8.99
  -2  -8 -18   29.70    4.93
   2   8 -18   29.43    5.51
   2   8 -18   29.48    4.47
  -2   8 -18   33.39    5.78
  -3  -8 -18  107.28    8.08
   3   8 -18  110.89    7.97
   3   8 -18  117.14    9.32
  -3   8 -18  137.55    9.68
  -4  -8 -18   28.34    4.40
   4   8 -18   24.16    4.60
   4   8 -18   20.92    4.02
  -4   8 -18   12.83    3.71
  -5  -8 -18   22.92    3.76
   5   8 -18   22.36    3.81
   5  -8  18   19.76    3.66
  -5   8 -18   19.05    4.00
   6   8 -18   70.48    5.38
  -6  -8 -18   68.09    5.22
   6  -8  18   63.46    4.91
  -6   8 -18   71.00    6.08
   0  -9 -18    5.65    2.73
   0  -9  18    1.41    2.21
   0   9 -18    5.98    3.24
   1  -9  18  304.32   14.86
   1   9 -18  318.17   16.43
  -1  -9 -18  306.48   15.24
  -1  -9  18  331.37   15.28
  -1   9 -18  322.83   16.45
   2   9 -18   81.21    6.50
   2  -9  18   80.11    6.28
  -2  -9 -18   84.24    6.85
   2   9 -18   78.12    7.61
  -2   9 -18   79.10    7.57
   3   9 -18  205.98   12.38
   3   9 -18  211.94   11.35
  -3  -9 -18  221.05   11.81
  -3   9 -18  252.97   13.24
  -4  -9 -18  171.69    9.69
   4   9 -18  159.80   10.06
   4   9 -18  170.97    9.49
   4   9  18  173.60   10.20
  -4   9 -18  188.51   10.62
  -4  -9  18  167.57    9.27
  -5  -9 -18  246.91   11.57
   5   9 -18  240.00   11.37
  -5   9 -18  233.40   12.06
  -5  -9  18  227.37   10.80
   0  10 -18   23.65    4.81
   0 -10  18   24.56    4.09
   1 -10  18  169.69    9.85
  -1 -10 -18  176.33   10.21
   1  10 -18  184.07   11.37
  -1 -10  18  201.96   10.59
  -1  10 -18  174.60   11.21
  -2 -10 -18   20.29    3.78
   2  10 -18   19.20    4.27
   2 -10  18   23.71    3.77
  -2 -10  18   20.06    3.74
   2  10  18   21.40    4.25
  -2  10 -18   23.59    4.56
  -3 -10 -18  254.47   12.13
   3  10 -18  248.28   12.70
   3  10 -18  245.39   11.46
  -3 -10  18  233.78   11.78
  -3  10 -18  233.93   12.62
   3  10  18  212.32   11.53
  -4 -10 -18  472.49   19.08
   4  10 -18  457.27   19.32
   4  10 -18  456.89   18.57
  -4 -10  18  471.88   18.69
   4  10  18  441.60   18.87
  -4  10 -18  464.00   19.72
   5  10 -18  145.85    7.76
  -5 -10 -18  139.61    7.82
  -5  10 -18  161.60    8.60
   0  11 -18   77.65    6.89
   0 -11  18   70.04    5.78
   1 -11  18   34.62    4.34
   1  11 -18   38.54    5.37
  -1  11 -18   37.97    5.46
   1  11  18   30.42    5.27
  -1 -11  18   31.31    4.18
   2  11 -18   94.69    7.38
  -2 -11 -18   99.01    6.68
   2 -11  18   94.94    6.17
  -2 -11  18   86.43    6.36
  -2  11 -18   91.37    7.30
   2  11  18   91.86    6.66
   3  11 -18   34.61    4.59
   3  11 -18   31.65    4.38
  -3 -11 -18   30.56    3.99
  -3  11 -18   25.15    4.42
  -3 -11  18   29.12    3.82
   3  11  18   18.98    3.53
  -4 -11 -18   91.33    6.07
  -4  11 -18   97.31    6.69
   0 -12  18  410.09   16.99
   0  12 -18  404.43   17.79
   1 -12  18  153.39    8.01
   1  12 -18  152.45    8.92
   1  12  18  139.20   11.03
  -1 -12  18  136.59    8.10
  -1  12 -18  144.63    8.97
   2  12 -18  189.11   10.22
  -2 -12  18  220.06   10.15
  -2  12 -18  202.57   10.66
   0   0  19    3.98    2.19
   0   0 -19    0.43    1.82
   1   0  19  167.41    9.77
   1   0 -19  174.58    9.96
  -1   0 -19  172.34    9.97
   2   0  19  339.09   15.80
   2   0 -19  332.12   15.89
  -2   0 -19  344.78   15.74
   3   0 -19  621.99   25.12
  -3   0 -19  606.37   24.54
   3   0  19  589.96   25.06
   4   0 -19   62.31    6.35
   4   0  19   73.29    6.68
   5   0 -19  107.87    8.03
   5   0  19  118.53    8.53
   6   0  19  160.12    9.91
  -6   0 -19  159.27    9.34
   7   0  19   76.39    5.89
  -7   0 -19   63.79    5.47
   0   1 -19  695.95   26.89
   0  -1 -19  637.15   26.72
   0  -1  19  677.26   26.41
  -1  -1 -19  854.26   32.44
   1  -1  19  858.51   32.19
   1   1 -19  860.83   32.33
  -1   1 -19  854.30   32.21
   1   1  19  786.39   31.77
   1  -1 -19  788.02   32.14
   2  -1  19    0.54    1.74
  -2  -1 -19    1.84    2.06
   2   1 -19    1.68    1.93
   2  -1 -19    2.32    2.08
   2   1  19    4.00    2.26
  -2   1 -19    5.46    2.47
   3   1 -19   41.87    5.57
   3  -1  19   41.43    5.21
  -3  -1 -19   40.80    5.22
   3   1  19   37.36    5.15
   3  -1 -19   31.21    4.74
   4  -1  19  103.16    7.65
   4   1 -19  100.56    7.56
  -4  -1 -19   97.08    7.10
   4  -1 -19   83.03    7.12
   4   1  19   79.14    7.10
   5   1 -19   92.02    7.52
   5  -1  19   95.54    7.70
  -5   1 -19  105.59    7.69
   5   1  19  113.91    8.17
   6  -1  19  403.39   18.12
  -6   1 -19  395.57   17.52
   6   1  19  377.48   17.82
   7  -1  19  285.64   13.37
  -7   1 -19  275.28   12.84
   7   1  19  265.09   12.84
   0  -2  19  246.86   11.97
   0   2 -19  241.55   12.16
   0  -2 -19  223.42   12.17
  -1  -2 -19  117.87    8.39
   1   2 -19  113.58    8.14
   1  -2  19  116.68    7.97
  -1   2 -19  150.43    8.66
   1   2  19  153.77    8.88
   1  -2 -19  143.80    8.91
  -1  -2  19  146.09    8.31
  -2  -2 -19  959.83   36.30
   2  -2  19  938.29   35.82
   2   2 -19  944.68   35.92
   2  -2 -19  962.73   36.09
   2   2  19  921.85   35.90
  -2   2 -19  913.95   35.17
  -3  -2 -19  490.55   21.56
   3  -2  19  517.82   22.00
   3   2 -19  503.62   21.84
   3  -2 -19  513.07   21.75
   3   2  19  500.94   21.72
   4  -2  19  103.91    7.96
  -4  -2 -19  108.69    7.76
   4   2 -19  108.36    7.99
  -4   2 -19  107.34    7.89
   4   2  19  113.66    8.27
   4  -2 -19  108.41    7.91
   5  -2  19  176.87   10.57
   5   2 -19  157.63   10.12
   5   2  19  173.68   10.45
  -5   2 -19  169.26   10.25
   6   2 -19  332.22   15.86
   6  -2  19  362.27   16.67
  -6   2 -19  376.37   16.51
   6   2  19  339.81   16.24
   7  -2  19  273.26   12.80
  -7   2 -19  245.28   12.15
   0  -3 -19   55.37    5.57
   0  -3  19   53.78    4.93
   0   3 -19   51.51    5.20
  -1  -3 -19  605.94   25.49
   1  -3  19  609.59   24.75
   1   3 -19  617.26   25.05
  -1   3 -19  632.46   24.88
   1   3  19  630.26   25.27
   1  -3 -19  606.20   25.36
   2  -3  19    8.31    2.75
   2   3 -19   13.32    3.37
  -2  -3 -19    7.55    2.89
   2   3  19   17.33    3.66
   2  -3 -19   15.70    3.41
  -3  -3 -19  408.51   18.40
   3  -3  19  411.16   18.42
   3   3 -19  393.22   18.20
  -3   3 -19  406.67   18.43
   3  -3 -19  399.07   18.22
   3   3  19  384.12   18.03
   4  -3  19   71.25    6.61
   4   3 -19   78.81    6.89
  -4  -3 -19   73.71    6.46
  -4   3 -19   64.63    6.50
   4   3  19   62.38    6.16
   5  -3  19   31.86    4.66
   5   3 -19   37.44    5.21
  -5  -3 -19   34.80    4.68
  -5   3 -19   18.06    3.91
   5   3  19   21.38    4.03
   6   3 -19   65.80    5.84
   6  -3  19   60.77    5.88
  -6   3 -19   73.03    6.27
   7  -3  19  439.85   17.98
  -7   3 -19  395.19   17.45
   0   4 -19 1147.37   41.95
   0  -4 -19 1121.89   42.69
   1   4 -19  389.61   17.73
  -1  -4 -19  379.01   18.06
   1  -4  19  403.70   17.50
  -1   4 -19  397.85   17.24
   1   4  19  398.33   17.87
   1  -4 -19  411.99   18.25
   2  -4  19   71.66    6.30
  -2  -4 -19   71.64    6.55
   2   4 -19   72.00    6.44
   2  -4 -19   77.62    6.78
   2   4  19   74.85    6.49
  -2   4 -19   70.91    6.69
   3   4 -19  413.53   18.52
   3  -4  19  412.97   18.56
  -3  -4 -19  431.88   18.79
  -3   4 -19  396.60   18.77
   3  -4 -19  367.85   20.48
   3   4  19  404.92   18.31
  -4  -4 -19  339.75   16.45
   4  -4  19  342.25   16.69
   4   4 -19  347.43   16.83
   4   4  19  363.89   16.78
  -4   4 -19  381.90   17.52
  -5  -4 -19    6.74    2.59
   5  -4  19    6.63    2.77
   5   4 -19    6.99    2.80
  -5   4 -19   11.55    3.44
   6  -4  19  198.69   10.81
   6   4 -19  196.88   10.56
  -6   4 -19  184.93   10.66
   7  -4  19  111.85    7.08
  -7   4 -19   96.19    6.75
   0   5 -19   37.71    4.88
   0   5 -19   35.33    6.02
   0  -5 -19   31.69    5.11
   1   5 -19  285.77   13.60
  -1  -5 -19  278.82   14.09
  -1   5 -19  250.71   13.90
   1  -5 -19  256.37   13.59
   1   5  19  266.11   13.43
   2  -5  19   52.45    5.30
   2   5 -19   42.79    5.38
  -2  -5 -19   43.29    5.48
  -2   5 -19   37.98    5.69
   2   5  19   42.69    5.34
   2  -5 -19   43.58    5.72
   3   5 -19 1041.53   38.32
   3  -5  19 1020.91   37.98
  -3  -5 -19  988.71   38.14
   3   5  19  963.43   37.44
  -3   5 -19  947.68   38.35
   4   5 -19   11.15    3.12
  -4  -5 -19    6.61    2.60
   4  -5  19    6.08    2.92
  -4   5 -19   11.39    3.68
   5   5 -19  518.96   22.05
   5  -5  19  518.44   22.11
  -5  -5 -19  524.96   21.78
  -5   5 -19  518.56   22.47
   6   5 -19   33.65    4.39
   6  -5  19   34.98    4.62
  -6  -5 -19   29.61    4.00
  -6   5 -19   32.49    4.76
   7  -5  19  445.59   18.15
  -7   5 -19  444.63   18.34
   0   6 -19  179.26   10.07
   0   6 -19  183.19   11.50
   0  -6 -19  186.36   10.96
   1   6 -19  184.17   11.83
  -1  -6 -19  175.08   10.91
   1   6 -19  174.40   10.22
   1  -6 -19  190.66   10.95
  -1   6 -19  177.66   11.40
   1   6  19  190.56   10.61
   2   6 -19   29.76    4.78
  -2  -6 -19   41.69    5.73
   2   6  19   53.13    5.54
  -2   6 -19   63.53    6.68
   3  -6  19  119.91    8.35
   3   6 -19  134.78    8.95
  -3  -6 -19  121.44    8.68
  -3   6 -19  136.36    9.65
  -4  -6 -19  360.67   17.04
   4  -6  19  342.25   16.53
   4   6 -19  363.37   17.02
  -4   6 -19  408.12   18.09
  -5  -6 -19   48.75    4.98
   5   6 -19   49.16    5.58
   5  -6  19   47.19    5.07
  -5   6 -19   43.79    5.83
   6   6 -19   73.48    5.70
   6  -6  19   71.31    5.66
  -6  -6 -19   60.73    5.28
  -6   6 -19   77.61    6.35
   0   7 -19   14.90    3.97
   0  -7 -19   12.34    3.42
   1   7 -19  512.43   21.94
  -1  -7 -19  520.09   22.79
   1   7 -19  531.59   23.85
   1   7  19  528.62   21.91
   1  -7 -19  528.62   22.58
  -1   7 -19  547.62   23.84
  -2  -7 -19  136.87    8.98
   2   7 -19  127.14    9.76
   2   7 -19  130.39    8.65
  -2   7 -19  133.35    9.69
   3   7 -19  238.65   12.51
  -3  -7 -19  235.12   12.71
  -3   7 -19  244.87   13.62
   4   7 -19  101.88    7.44
  -4  -7 -19   93.72    7.28
   4  -7  19   98.28    7.05
  -4   7 -19  107.87    8.32
   5   7 -19  541.92   21.90
  -5  -7 -19  540.79   21.83
   5  -7  19  514.65   21.53
  -5   7 -19  542.48   22.72
   6  -7  19   23.22    3.34
   6   7 -19   19.28    3.32
  -6  -7 -19   16.93    3.10
  -6   7 -19   29.72    4.26
   0  -8 -19   45.76    6.00
   0   8 -19   39.51    6.01
   1   8 -19  113.66    7.75
   1  -8  19  118.32    7.94
   1   8 -19  114.26    9.06
  -1  -8 -19  115.80    8.43
  -1   8 -19  126.62    9.32
   2   8 -19  263.90   13.36
   2   8 -19  280.54   15.02
  -2  -8 -19  269.29   13.91
  -2   8 -19  300.77   15.34
  -3  -8 -19   22.58    3.94
   3   8 -19   19.55    4.28
   3   8 -19   23.11    3.96
  -3   8 -19   28.24    4.91
   4   8 -19  197.27   10.63
  -4  -8 -19  205.64   10.85
  -4   8 -19  193.67   11.41
   5   8 -19   15.79    3.16
  -5  -8 -19   13.92    3.09
  -5   8 -19   11.01    3.34
  -6   8 -19  102.44    6.64
   0  -9 -19   69.30    6.12
   0   9 -19   59.78    6.81
   0  -9  19   63.19    5.84
   1  -9  19  461.47   19.73
  -1  -9 -19  468.31   20.33
   1   9 -19  459.90   21.22
  -1   9 -19  463.61   21.25
  -1  -9  19  489.71   20.19
   2   9 -19   13.71    3.82
  -2  -9 -19   12.75    3.23
   2   9 -19   17.75    3.47
  -2   9 -19   10.31    3.42
  -3  -9 -19   86.47    6.58
   3   9 -19   90.47    6.51
   3   9 -19   85.50    7.05
  -3   9 -19   69.97    6.96
   4   9 -19   23.01    4.24
  -4  -9 -19   22.20    3.67
   4   9 -19   22.62    3.61
  -4   9 -19   25.74    4.42
  -4  -9  19   19.04    3.30
  -5  -9 -19  375.64   16.29
   5   9 -19  389.63   16.22
  -5   9 -19  392.39   17.06
  -5  -9  19  434.94   18.26
   0 -10  19   86.54    6.45
   0  10 -19   95.61    7.70
  -1 -10 -19   56.48    5.40
   1  10 -19   54.16    6.04
   1 -10  19   64.02    5.30
  -1  10 -19   50.04    6.30
  -1 -10  19   44.00    4.92
  -2 -10 -19  512.58   21.78
   2  10 -19  506.09   22.43
  -2 -10  19  564.24   22.03
  -2  10 -19  558.10   23.01
   3  10 -19   49.82    5.33
  -3 -10 -19   58.13    5.27
   3  10 -19   48.24    4.67
  -3 -10  19   54.41    5.08
  -3  10 -19   59.08    5.78
  -4 -10 -19   54.16    5.01
   4  10 -19   55.33    4.86
   4  10 -19   54.00    5.12
  -4  10 -19   63.91    5.82
  -4 -10  19   65.03    5.05
   0  11 -19   44.53    5.56
   0 -11  19   44.22    4.55
   1  11 -19  130.38    8.43
   1 -11  19  127.18    7.48
  -1  11 -19  124.65    8.48
  -1 -11  19  126.65    7.66
   2  11 -19  143.36    8.58
  -2 -11 -19  139.94    7.90
  -2  11 -19  141.41    8.87
  -2 -11  19  138.02    8.04
   3  11 -19  105.00    6.88
  -3 -11 -19  112.31    6.68
  -3 -11  19  104.89    6.49
  -3  11 -19  113.34    7.51
   0 -12  19  230.51   10.73
   0  12 -19  239.09   11.59
   1  12 -19   86.64    6.51
  -1 -12  19   95.52    6.04
  -1  12 -19   91.25    6.49
   0   0  20  502.03   21.26
   0   0 -20  507.96   21.62
   1   0  20 1104.98   41.17
  -1   0 -20 1115.29   41.41
   1   0 -20 1090.17   41.30
  -2   0 -20   21.25    3.99
   2   0  20   22.83    4.10
   2   0 -20   25.42    4.40
   3   0  20   74.97    6.60
  -3   0 -20   62.94    5.88
   3   0 -20   70.36    6.41
   4   0 -20 1472.82   54.11
   4   0  20 1498.84   54.62
   5   0 -20  313.24   15.10
   5   0  20  317.33   15.60
   6   0  20   60.19    5.76
   7   0  20    6.28    2.27
   0   1  20  275.63   13.76
   0  -1 -20  278.27   14.07
   0  -1  20  291.41   13.74
   0   1 -20  287.51   13.98
   1  -1  20   99.92    7.20
   1   1 -20  111.00    7.68
  -1  -1 -20  101.43    7.47
   1   1  20   97.05    7.19
  -1  -1  20   96.64    7.04
  -1   1 -20  103.90    7.45
   1  -1 -20  103.48    7.51
   2   1 -20   71.29    6.37
  -2  -1 -20   77.28    6.55
   2  -1  20   71.61    6.19
   2   1  20   75.60    6.42
  -2   1 -20   74.74    6.27
   2  -1 -20   75.76    6.53
   3   1 -20   43.54    5.54
   3  -1  20   56.28    5.74
  -3  -1 -20   50.57    5.84
   3  -1 -20   59.05    5.83
   3   1  20   57.61    5.78
   4   1 -20   72.07    6.41
  -4  -1 -20   61.17    5.74
   4  -1  20   60.21    5.97
   4  -1 -20   51.14    6.27
   4   1  20   50.07    6.28
   5  -1  20  116.79    8.25
   5   1 -20  113.87    8.08
   5   1  20  110.60    8.20
   6  -1  20   51.87    5.21
   6   1  20   48.27    5.25
  -6   1 -20   47.56    4.97
   7  -1  20   30.27    3.90
   7   1  20   26.06    3.60
  -7   1 -20   32.26    3.93
   0   2 -20  609.61   25.21
   0  -2  20  621.77   24.97
   0  -2 -20  632.86   25.73
   1  -2  20  360.98   17.00
  -1  -2 -20  353.05   17.34
   1   2 -20  368.86   17.21
  -1   2 -20  404.82   17.29
   1  -2 -20  409.72   17.93
   1   2  20  391.08   17.37
  -1  -2  20  390.26   16.77
   2   2 -20  164.04   10.13
  -2  -2 -20  160.59   10.14
   2  -2  20  160.74    9.91
   2   2  20  181.15   10.34
   2  -2 -20  190.70   10.62
  -2   2 -20  183.76    9.91
   3  -2  20  860.34   32.63
  -3  -2 -20  848.17   32.37
   3   2 -20  829.27   32.40
   3  -2 -20  759.91   31.80
   3   2  20  794.45   32.13
   4   2 -20  518.76   22.27
  -4  -2 -20  511.22   21.92
   4  -2  20  529.32   22.74
   4   2  20  520.61   22.55
  -4   2 -20  504.22   23.34
   4  -2 -20  535.33   22.30
   5  -2  20  771.36   29.66
   5   2 -20  721.58   29.08
   5   2  20  719.21   29.26
  -5   2 -20  708.85   28.86
   6   2 -20   19.62    3.61
   6  -2  20   16.53    3.28
  -6   2 -20   10.23    2.88
   6   2  20   12.94    3.26
   7  -2  20  160.18    8.84
  -7   2 -20  162.49    8.63
   0   3 -20    0.86    1.97
   0  -3  20    3.14    2.12
   0  -3 -20    2.24    2.21
   1  -3  20  316.17   14.79
   1   3 -20  319.16   15.14
  -1  -3 -20  316.26   15.57
   1  -3 -20  305.78   15.28
   1   3  20  316.87   15.13
  -1   3 -20  311.24   14.69
  -2  -3 -20  363.57   16.90
   2   3 -20  358.73   16.52
   2  -3  20  367.72   16.58
   2   3  20  323.96   16.15
   2  -3 -20  329.48   16.24
   3  -3  20  122.33    8.55
   3   3 -20  130.91    8.84
  -3  -3 -20  124.63    8.68
  -3   3 -20  127.59    9.13
   3   3  20  131.38    8.72
   3  -3 -20  141.97    8.96
   4   3 -20   21.24    4.19
   4  -3  20   17.67    3.88
  -4  -3 -20   21.27    3.95
  -4   3 -20   10.88    3.27
  -5  -3 -20  407.20   17.75
   5   3 -20  412.61   18.29
   5  -3  20  402.94   18.56
   5   3  20  403.50   18.19
  -5   3 -20  400.30   18.25
   6  -3  20   67.88    5.74
   6   3 -20   58.53    5.41
  -6   3 -20   56.26    5.47
   7  -3  20  148.05    8.26
  -7   3 -20  146.27    8.15
   0   4 -20    4.08    2.36
   0  -4 -20    1.12    2.23
   1  -4  20  128.96    8.05
  -1  -4 -20  131.17    8.73
   1   4 -20  129.63    8.39
  -1   4 -20  111.55    7.61
   1   4  20  106.80    7.91
   1  -4 -20  108.07    8.21
  -2  -4 -20  370.10   17.18
   2   4 -20  349.22   16.57
   2  -4  20  335.87   16.30
  -2   4 -20  350.37   17.12
   2   4  20  375.45   16.91
   2  -4 -20  353.49   16.74
  -3  -4 -20  248.78   13.01
   3  -4  20  229.67   12.55
   3   4 -20  236.29   12.59
   3  -4 -20  238.67   12.58
  -3   4 -20  231.04   12.85
   3   4  20  227.69   12.30
  -4  -4 -20  100.36    7.56
   4   4 -20  118.42    8.16
   4  -4  20  101.37    7.56
   4   4  20   84.91    7.14
  -4   4 -20  100.99    8.01
   5   4 -20  111.18    7.76
   5  -4  20  106.40    7.65
  -5  -4 -20  112.51    7.55
  -5   4 -20   99.16    7.65
   6  -4  20  158.00    9.04
   6   4 -20  145.15    8.55
  -6   4 -20  145.81    8.79
   7  -4  20   28.28    3.79
  -7   4 -20   35.49    4.17
   0  -5 -20  396.53   18.55
   0   5 -20  410.29   17.92
  -1  -5 -20  587.64   25.46
   1   5 -20  584.73   24.69
   1   5  20  636.38   25.20
  -1   5 -20  603.01   25.79
   1  -5 -20  625.14   25.54
  -2  -5 -20  498.89   22.19
   2  -5  20  521.89   21.63
   2   5 -20  513.92   21.77
   2   5  20  509.83   21.68
  -2   5 -20  486.02   22.29
   2  -5 -20  517.41   21.97
   3  -5  20  291.13   14.04
  -3  -5 -20  296.32   14.52
   3   5 -20  296.01   14.37
   3   5  20  257.76   13.50
  -3   5 -20  259.17   14.33
  -4  -5 -20  266.67   13.51
   4   5 -20  285.17   13.78
   4  -5  20  264.71   13.56
  -4   5 -20  240.87   13.51
   5   5 -20  269.49   13.15
  -5  -5 -20  268.65   12.98
   5  -5  20  263.04   13.11
  -5   5 -20  250.73   13.32
   6   5 -20  188.98    9.65
   6  -5  20  185.18    9.84
  -6   5 -20  170.28    9.82
   0  -6 -20  193.45   11.23
   0   6 -20  185.02   11.55
   0   6 -20  195.07   10.40
   1   6 -20    2.42    2.22
  -1  -6 -20    2.11    2.30
   1  -6 -20    1.35    2.08
   1   6  20    4.53    2.27
  -1   6 -20    1.47    2.64
  -2  -6 -20   44.00    5.91
   2   6 -20   51.75    5.84
   2  -6 -20   35.56    7.74
  -2   6 -20   35.08    5.39
   2   6  20   38.05    4.84
   3   6 -20  174.11   10.12
  -3  -6 -20  165.67   10.03
   3  -6  20  153.49    9.59
  -3   6 -20  155.02   10.41
   4   6 -20   68.64    6.13
  -4  -6 -20   66.62    6.03
   4  -6  20   74.96    6.05
  -4   6 -20   46.12    6.04
   5  -6  20   72.46    5.84
  -5  -6 -20   67.55    5.74
   5   6 -20   71.56    6.01
  -5   6 -20   62.37    6.01
   6  -6  20  244.08   11.45
  -6  -6 -20  232.26   10.96
   6   6 -20  226.36   11.11
  -6   6 -20  265.06   12.14
   0   7 -20  138.65    9.93
   0  -7 -20  143.44    9.37
   1   7 -20  225.30   13.32
   1  -7  20  224.07   11.82
   1   7 -20  236.09   12.27
  -1  -7 -20  226.57   12.75
   1  -7 -20  267.90   13.20
  -1   7 -20  265.44   13.88
   1   7  20  257.00   12.48
   2   7 -20  124.66    8.27
  -2  -7 -20  133.56    8.86
  -2   7 -20  117.07    8.99
   3   7 -20   20.07    3.93
  -3  -7 -20   20.65    3.93
  -3   7 -20   13.85    3.72
   4   7 -20  157.78    9.25
   4  -7  20  158.23    9.09
  -4  -7 -20  150.00    9.29
  -4   7 -20  182.57   10.49
   5  -7  20   37.32    4.34
   5   7 -20   35.64    4.45
  -5  -7 -20   41.23    4.75
  -5   7 -20   49.37    5.41
   6   7 -20   37.88    3.95
  -6   7 -20   29.39    4.07
   0  -8  20  435.75   18.48
   0   8  20  415.03   18.10
   0  -8 -20  424.40   18.88
   0   8 -20  419.77   19.72
   1   8 -20  142.45    9.71
   1  -8  20  136.37    8.33
   1   8 -20  136.28    8.31
  -1  -8 -20  141.39    9.07
  -1   8 -20  127.84    9.32
   2   8 -20  130.70    8.25
   2   8 -20  118.42    9.00
  -2  -8 -20  129.99    8.65
  -2   8 -20  145.90    9.58
  -3  -8 -20  141.09    8.72
   3   8 -20  137.41    8.39
  -3   8 -20  129.96    9.19
  -4  -8 -20   80.30    6.18
   4   8 -20   76.45    5.98
  -4   8 -20   72.04    6.40
   5   8 -20   52.89    5.16
  -5  -8 -20   56.49    5.02
  -5   8 -20   58.87    5.49
   0   9 -20  146.14    9.78
   0  -9 -20  142.79    8.81
   0  -9  20  151.80    8.83
   1  -9  20  132.43    7.96
  -1  -9 -20  131.89    8.50
   1   9 -20  134.70    9.20
  -1   9 -20  129.65    9.25
  -1  -9  20  141.81    8.42
  -2  -9 -20   90.86    6.85
   2   9 -20   91.10    7.38
   2   9 -20   95.22    6.59
  -2   9 -20  103.70    7.79
  -2  -9  20   95.64    6.74
  -3  -9 -20  104.90    7.27
   3   9 -20   98.69    7.45
   3   9 -20  104.06    6.92
  -3  -9  20  118.04    7.25
  -3   9 -20  127.34    8.25
   4   9 -20   56.89    5.05
  -4  -9 -20   59.05    5.30
  -4   9 -20   60.64    5.87
  -4  -9  20   60.81    4.98
   0 -10  20  218.49   10.78
   0  10 -20  216.64   11.82
   1  10 -20   19.40    4.02
   1 -10  20   17.99    3.18
  -1 -10 -20   18.28    3.37
  -1  10 -20   13.41    3.56
  -1 -10  20   13.38    3.02
  -2 -10 -20  150.14    8.88
   2  10 -20  152.57    9.45
  -2  10 -20  187.75   10.30
  -2 -10  20  181.21    9.38
   3  10 -20    8.61    2.78
   3  10 -20   10.74    2.68
  -3 -10 -20   13.10    2.83
  -3 -10  20   12.30    2.90
  -3  10 -20   12.18    3.32
  -4 -10 -20   47.74    4.42
   0  11 -20   85.90    6.68
   0 -11  20   91.19    6.00
   1 -11  20  224.17   10.58
   1  11 -20  222.44   11.42
  -1  11 -20  232.97   11.77
  -1 -11  20  252.77   11.22
   2  11 -20  154.37    8.55
  -2  11 -20  154.12    8.94
  -2 -11  20  160.01    8.43
   0   0 -21    3.50    2.17
   0   0  21   -0.27    1.60
  -1   0  21  348.27   16.13
   1   0  21  340.58   16.31
  -1   0 -21  359.80   16.60
   1   0 -21  355.77   16.55
   2   0  21  550.12   22.76
   2   0 -21  524.54   22.52
  -2   0 -21  515.26   22.32
   3   0  21  173.97   10.41
   3   0 -21  170.54   10.36
  -3   0 -21  167.77    9.86
   4   0  21   28.25    4.56
   4   0 -21   20.56    4.03
   5   0 -21   26.58    4.30
   5   0  21   32.81    4.73
   6   0  21  895.50   33.93
   7   0  21  262.33   11.86
   0   1 -21    3.00    2.41
   0   1  21    1.39    1.94
   0  -1  21    2.13    2.06
   0  -1 -21    2.75    2.23
   1  -1  21  427.61   18.72
   1   1 -21  442.89   19.16
  -1  -1 -21  444.38   19.28
  -1  -1  21  399.06   18.18
  -1   1 -21  420.22   18.66
   1  -1 -21  410.24   18.80
   1   1  21  412.02   18.70
  -2  -1 -21  288.77   14.40
   2   1 -21  275.67   14.24
   2  -1  21  294.67   14.43
  -2   1 -21  291.50   14.10
   2   1  21  296.68   14.57
  -2  -1  21  283.62   13.75
   2  -1 -21  294.98   14.66
   3  -1  21  234.56   12.62
   3   1 -21  240.36   12.51
  -3  -1 -21  230.65   12.10
   3   1  21  224.24   12.43
   3  -1 -21  203.32   11.87
   4  -1  21  170.95   10.40
  -4  -1 -21  166.48    9.67
   4   1 -21  178.55   10.32
   4   1  21  168.00   10.40
   4  -1 -21  173.04   10.26
   5  -1  21  241.21   12.92
   5   1 -21  234.18   12.52
   5   1  21  278.15   13.37
   6  -1  21   11.18    2.88
   6   1  21   14.66    3.07
   7  -1  21   76.45    5.50
   0   2  21  436.15   18.80
   0  -2  21  393.06   17.98
   0  -2 -21  404.40   18.75
   0   2 -21  423.73   18.62
   1  -2  21  687.11   26.61
  -1  -2 -21  701.62   27.21
   1   2 -21  660.71   26.55
  -1  -2  21  635.42   25.83
  -1   2 -21  657.49   26.27
   1   2  21  630.62   26.45
   1  -2 -21  602.23   26.45
  -2  -2 -21  118.68    8.26
   2   2 -21  102.43    7.88
   2  -2  21  108.77    7.87
   2   2  21  108.20    7.89
   2  -2 -21  110.04    7.96
  -2   2 -21   96.47    7.17
   3   2 -21  348.31   17.00
   3  -2  21  365.48   17.28
  -3  -2 -21  344.86   16.83
   3   2  21  377.87   17.34
   3  -2 -21  400.00   17.35
   4   2 -21  124.43    8.36
   4  -2  21  115.98    8.33
  -4  -2 -21  120.22    8.03
   4   2  21  109.80    8.21
   4  -2 -21  112.54    8.10
   5   2 -21  187.84   10.48
   5  -2  21  187.66   10.63
  -5   2 -21  175.81   11.22
   5   2  21  187.44   10.55
   6   2 -21  124.07    7.42
   6  -2  21  124.85    7.77
  -6   2 -21  108.58    7.26
   6   2  21  104.03    7.04
   7  -2  21  385.21   15.98
   0  -3 -21    1.02    2.08
   0   3  21    0.21    1.89
   0  -3  21    2.65    2.08
   0   3 -21    4.05    2.30
   1   3 -21  193.51   10.68
  -1  -3 -21  174.18   10.68
   1  -3  21  176.41   10.10
   1  -3 -21  169.43   10.52
   1   3  21  180.95   10.49
  -1   3 -21  178.75    9.99
   2  -3  21  354.75   17.16
  -2  -3 -21  378.07   17.76
   2   3 -21  353.19   17.28
   2   3  21  400.08   17.61
   2  -3 -21  400.02   17.73
   3   3 -21   81.71    6.87
   3  -3  21   85.71    6.86
  -3  -3 -21   88.62    7.05
   3  -3 -21   61.62    6.19
   3   3  21   74.37    6.59
   4  -3  21   40.14    5.28
  -4  -3 -21   36.32    5.02
   4   3 -21   34.62    4.78
  -4   3 -21   20.78    4.24
  -5  -3 -21   46.06    5.19
   5  -3  21   38.44    5.04
   5   3 -21   55.03    5.30
  -5   3 -21   38.00    5.09
   5   3  21   35.46    4.69
   6   3 -21    9.90    2.82
   6  -3  21   13.78    2.99
  -6   3 -21    8.95    2.75
   7  -3  21  157.79    8.18
   0  -4 -21  384.52   18.21
   0   4 -21  411.26   17.97
   1   4 -21  358.34   16.86
  -1  -4 -21  354.72   17.23
   1  -4  21  346.80   16.41
   1  -4 -21  386.54   17.48
   1   4  21  368.41   16.93
  -1   4 -21  372.81   16.37
   2   4 -21   70.14    6.37
  -2  -4 -21   70.90    6.57
   2  -4  21   63.94    5.91
   2   4  21   72.44    6.26
   2  -4 -21   63.78    6.20
   3   4 -21  104.24    7.97
  -3  -4 -21  109.23    8.23
   3  -4  21  105.00    7.90
   3   4  21  144.01    8.72
   3  -4 -21  129.06    8.38
  -3   4 -21  129.60    8.90
   4   4 -21   73.23    6.48
  -4  -4 -21   70.30    6.22
   4  -4  21   73.64    6.27
  -4   4 -21   70.93    6.48
   4   4  21   67.79    6.13
  -5  -4 -21   34.76    4.58
   5  -4  21   35.72    4.77
   5   4 -21   32.03    4.42
  -5   4 -21   41.06    5.14
   6  -4  21   25.07    3.77
   6   4 -21   20.73    3.48
  -6   4 -21   19.59    3.48
   0   5 -21  404.06   17.87
   0  -5 -21  412.28   18.76
  -1  -5 -21   15.94    3.79
   1   5 -21   13.66    3.21
   1  -5 -21   17.17    3.85
   1   5  21   14.40    3.51
  -2  -5 -21  375.34   17.96
   2  -5  21  365.10   17.11
   2   5 -21  391.14   17.60
   2  -5 -21  389.51   17.67
   2   5  21  401.71   17.60
  -2   5 -21  387.46   18.08
  -3  -5 -21    1.13    1.97
   3  -5  21    3.80    2.18
   3   5 -21    1.81    2.26
   3   5  21    0.76    1.94
  -3   5 -21   -0.24    2.05
   4   5 -21  257.66   12.80
   4  -5  21  257.45   12.83
  -4  -5 -21  252.62   12.84
  -4   5 -21  230.74   12.88
  -5  -5 -21   19.90    3.38
   5   5 -21   19.91    3.52
   5  -5  21   17.08    3.33
  -5   5 -21   23.54    3.98
   6   5 -21    2.18    1.89
   6  -5  21    1.85    1.95
  -6   5 -21    3.92    2.26
   0  -6 -21   42.10    5.53
   0   6 -21   47.59    5.32
   0   6  21   50.46    5.37
   1   6 -21    7.35    2.75
  -1  -6 -21   11.56    3.32
   1  -6 -21   10.49    3.14
  -1   6 -21    8.21    3.41
   1   6  21    8.04    2.80
  -2  -6 -21   77.69    6.70
   2   6 -21   70.72    6.34
   2  -6 -21   73.02    6.68
   2   6  21   61.24    5.80
  -2   6 -21   69.38    6.75
  -3  -6 -21   20.70    3.85
   3  -6  21   17.13    3.42
   3   6 -21   17.08    3.63
  -3   6 -21    8.91    3.25
   4  -6  21   25.48    3.92
  -4  -6 -21   30.43    4.56
   4   6 -21   26.93    4.03
  -4   6 -21   34.51    5.08
   5   6 -21  206.48   10.57
   5  -6  21  206.36   10.47
  -5  -6 -21  203.64   10.46
  -5   6 -21  213.75   11.16
   6   6 -21   41.11    4.00
   6  -6  21   37.99    4.04
  -6   6 -21   34.10    4.28
   0  -7 -21  236.45   12.48
   0   7 -21  234.87   13.08
   0   7  21  234.87   12.04
   1   7 -21  338.86   15.39
   1   7 -21  319.34   21.77
  -1  -7 -21  345.78   16.22
   1  -7  21  324.84   14.92
  -1   7 -21  357.23   16.73
   1  -7 -21  340.36   15.89
   1   7  21  331.55   15.28
   2   7 -21   54.36    5.45
  -2  -7 -21   65.92    6.01
  -2   7 -21   50.62    6.34
  -3  -7 -21   97.22    7.23
   3   7 -21   96.50    6.94
  -3   7 -21  101.88    7.76
  -4  -7 -21  121.02    7.70
   4   7 -21  107.06    7.36
  -4   7 -21  127.19    8.21
   5   7 -21   29.68    3.90
   5  -7  21   23.79    3.35
  -5  -7 -21   27.03    3.78
  -5   7 -21   23.80    3.75
   0  -8  21  123.60    7.58
   0   8 -21  106.10    8.42
   0  -8 -21  108.86    7.68
   0   8  21  117.08    7.35
   1  -8  21  510.91   21.25
   1   8 -21  534.10   22.73
  -1  -8 -21  531.35   22.22
   1   8 -21  524.56   22.66
  -1   8 -21  540.12   22.98
   2   8 -21   17.41    3.39
  -2  -8 -21   17.06    3.60
  -2   8 -21   15.92    3.80
  -3  -8 -21   43.21    5.08
   3   8 -21   44.60    4.92
  -3   8 -21   39.55    5.29
  -4  -8 -21   45.26    5.06
   4   8 -21   49.38    4.77
  -4   8 -21   45.50    5.42
  -5  -8 -21  111.74    6.49
   5   8 -21  106.86    6.43
  -5   8 -21  103.98    6.97
   0  -9  21    4.92    2.19
   0  -9 -21    1.59    2.05
   0   9 -21    2.29    2.43
   1  -9  21    4.85    2.06
   1   9 -21    6.05    2.76
  -1  -9 -21    5.52    2.39
  -1   9 -21    9.61    3.31
  -1  -9  21    7.25    2.49
  -2  -9 -21  186.76    9.96
   2   9 -21  174.12   10.19
   2   9 -21  181.64    9.29
  -2  -9  21  182.10    9.61
  -2   9 -21  190.26   10.65
   3   9 -21  546.46   21.71
  -3  -9 -21  581.46   22.53
  -3   9 -21  564.13   22.89
  -3  -9  21  557.24   22.02
   4   9 -21   37.60    4.03
  -4  -9 -21   40.82    4.40
  -4   9 -21   43.85    4.75
  -4  -9  21   39.94    4.09
   0 -10  21  211.90   10.26
   0  10 -21  204.82   11.04
   1 -10  21  248.07   11.25
  -1 -10 -21  245.21   11.42
   1  10 -21  249.66   12.23
  -1 -10  21  248.60   11.58
  -1  10 -21  237.89   12.26
  -2 -10 -21   58.91    4.96
   2  10 -21   56.77    5.15
  -2  10 -21   62.44    5.79
  -2 -10  21   65.63    5.24
  -3 -10 -21  140.25    7.45
  -3 -10  21  120.65    7.09
  -3  10 -21  125.75    7.79
   0 -11  21   64.12    4.86
   0  11 -21   70.74    5.68
  -1  11 -21  130.21    7.97
  -1 -11  21  149.52    7.59
   0   0  22   10.60    3.17
   0   0 -22   13.94    3.39
   1   0  22   25.24    4.12
  -1   0  22   19.33    3.77
  -1   0 -22   27.47    4.47
   1   0 -22   25.77    4.61
   2   0  22  176.25   10.48
  -2   0 -22  176.49   10.34
   2   0 -22  177.75   10.45
   3   0 -22    4.86    2.55
   3   0  22   12.76    3.28
  -3   0 -22    5.74    2.56
   4   0 -22  126.59    8.42
   4   0  22  133.85    8.76
   5   0  22   56.42    5.51
   5   0 -22   61.12    5.61
   6   0  22   56.57    5.01
   0  -1  22   69.37    6.14
   0   1  22   72.50    6.27
   0   1 -22   67.39    6.23
   0  -1 -22   68.02    6.36
   1  -1  22 1025.01   39.40
   1   1 -22 1034.72   39.53
  -1  -1 -22 1021.85   39.68
  -1   1  22 1045.30   39.41
   1  -1 -22 1063.30   39.74
  -1  -1  22 1044.43   38.98
  -1   1 -22 1064.64   39.45
   1   1  22 1044.94   39.62
  -2  -1 -22  365.31   16.30
   2  -1  22  348.20   16.03
   2   1 -22  351.94   16.10
   2  -1 -22  315.47   15.73
  -2  -1  22  308.38   15.08
  -2   1 -22  311.60   15.19
   2   1  22  318.23   15.75
  -3  -1 -22  169.79   10.40
   3   1 -22  165.79   10.65
   3  -1  22  167.15   10.66
  -3  -1  22  222.27   12.75
   3   1  22  214.21   11.45
   3  -1 -22  209.35   11.23
  -4  -1 -22   58.60    5.97
   4   1 -22   58.29    5.72
   4  -1  22   60.26    5.89
   4   1  22   62.53    5.90
   4  -1 -22   59.92    5.76
   5  -1  22   44.63    5.26
   5   1 -22   36.01    4.75
   5   1  22   23.16    3.99
   6  -1  22   24.64    3.79
   6   1  22   30.76    4.01
   0  -2  22   90.60    6.95
   0   2 -22  102.36    7.44
   0   2  22  101.31    7.59
   0  -2 -22   97.20    7.59
   1  -2  22  519.58   22.44
  -1  -2 -22  552.90   23.30
   1   2 -22  546.83   22.85
  -1  -2  22  532.94   22.18
  -1   2 -22  543.08   22.65
   1  -2 -22  532.35   22.93
   1   2  22  545.70   22.91
   2   2 -22  203.48   11.54
  -2  -2 -22  198.80   11.43
   2  -2  22  199.36   11.31
   2  -2 -22  197.81   11.53
   2   2  22  211.76   11.69
  -2   2 -22  221.01   11.20
  -3  -2 -22    5.47    2.59
   3  -2  22    9.65    2.98
   3   2 -22    6.82    2.73
   3   2  22    8.20    3.04
   3  -2 -22   11.12    3.14
  -4  -2 -22   51.64    5.16
   4   2 -22   45.62    5.60
   4  -2  22   48.26    5.77
   4  -2 -22   44.40    5.43
   4   2  22   49.19    5.23
   5  -2  22  171.88    9.81
   5   2 -22  170.24    9.52
   5   2  22  151.32    9.25
   6   2 -22  332.98   15.60
   6  -2  22  368.98   15.63
   6   2  22  354.59   15.07
   0   3  22   28.85    4.53
   0  -3 -22   35.37    5.18
   0   3 -22   34.98    4.73
   0  -3  22   31.53    4.36
   1  -3  22  303.65   14.58
  -1  -3 -22  280.67   14.80
   1   3 -22  289.51   14.74
  -1   3 -22  302.31   14.26
   1   3  22  320.39   15.15
   1  -3 -22  317.88   15.24
  -2  -3 -22  403.58   18.85
   2   3 -22  397.62   18.64
   2  -3  22  398.90   18.47
   2  -3 -22  427.69   18.94
   2   3  22  458.30   19.21
   3  -3  22   10.44    3.13
  -3  -3 -22   11.42    3.24
   3   3 -22   12.71    3.23
   3  -3 -22   24.48    4.19
   3   3  22   22.62    4.17
  -4  -3 -22   77.08    6.35
   4  -3  22   78.88    6.55
   4   3 -22   82.86    6.63
   4   3  22   70.32    6.21
   5  -3  22   52.27    5.26
   5   3 -22   47.01    4.88
  -5   3 -22   51.56    6.75
   5   3  22   52.24    4.94
   6  -3  22  386.64   16.20
   6   3 -22  360.70   15.45
  -6   3 -22  373.26   15.69
   0   4  22   64.98    6.22
   0  -4 -22   58.92    6.12
   0   4 -22   64.45    5.86
  -1  -4 -22  275.43   14.26
   1  -4  22  271.43   13.53
   1   4 -22  283.84   14.01
  -1   4 -22  265.72   13.32
   1  -4 -22  297.38   14.49
   1   4  22  287.39   14.19
   2   4 -22  631.34   25.45
  -2  -4 -22  609.99   25.76
   2  -4  22  623.29   25.19
   2  -4 -22  619.49   25.50
   2   4  22  617.61   25.45
  -3  -4 -22    1.25    1.91
   3  -4  22    1.51    2.19
   3   4 -22    2.79    2.43
   3  -4 -22    3.89    2.34
   3   4  22    2.43    2.19
   4  -4  22   52.47    5.20
   4   4 -22   52.29    5.32
  -4  -4 -22   44.07    5.28
   4   4  22   42.67    5.06
  -4   4 -22   45.02    5.52
   5   4 -22  197.59   10.15
   5  -4  22  189.84   10.10
  -5  -4 -22  188.75    9.75
  -5   4 -22  181.19   10.11
   6   4 -22  173.69    8.98
   6  -4  22  195.23    9.64
  -6   4 -22  185.92    9.42
   0   5  22   21.86    3.94
   0  -5 -22   23.41    4.17
   0   5 -22   26.26    4.10
   1   5 -22  278.80   13.58
  -1  -5 -22  271.13   14.10
   1  -5 -22  280.87   14.14
   1   5  22  276.41   13.83
  -2  -5 -22  239.88   13.05
   2   5 -22  243.12   12.76
   2  -5  22  221.59   12.19
   2   5  22  273.75   13.10
   2  -5 -22  273.13   13.14
  -3  -5 -22   20.05    3.90
   3   5 -22   19.70    3.72
   3  -5  22   22.97    3.80
  -3   5 -22   24.13    4.42
   3   5  22   18.19    3.46
  -4  -5 -22   85.96    6.64
   4  -5  22   88.53    6.51
   4   5 -22   95.11    6.70
  -4   5 -22   78.84    6.78
   5  -5  22  258.48   11.96
  -5  -5 -22  255.24   11.73
  -5   5 -22  228.90   11.97
   6   5 -22   75.22    5.75
   6  -5  22   73.55    5.22
   0   6 -22   14.29    3.27
   0  -6 -22   12.70    3.33
   0   6  22   11.62    3.01
  -1  -6 -22  139.54    9.21
   1   6 -22  136.87    8.70
   1  -6 -22  146.01    9.18
   1   6  22  151.95    8.97
   2   6 -22    6.34    2.69
  -2  -6 -22    7.47    2.78
   2  -6 -22   15.83    3.70
  -2   6 -22   15.27    3.63
   2   6  22   14.67    3.17
   3   6 -22   80.93    6.42
  -3  -6 -22   76.06    6.45
   3  -6  22   83.88    6.43
  -3   6 -22   86.93    6.98
   4   6 -22   44.28    5.04
  -4  -6 -22   42.27    5.09
   4  -6  22   38.04    4.45
  -4   6 -22   33.94    4.74
   5  -6  22  234.25   10.83
  -5  -6 -22  231.90   10.83
   5   6 -22  233.81   10.94
  -5   6 -22  210.85   11.07
   0   7 -22   11.23    5.04
   0  -7 -22    6.20    2.55
   0   7  22    8.69    2.58
   1   7 -22  126.50    8.00
   1  -7  22  131.69   10.91
  -1  -7 -22  135.94    8.66
   1   7  22  137.79    8.26
  -1   7 -22  132.77    8.95
   1  -7 -22  122.16    8.25
  -2  -7 -22  139.53    8.95
   2   7 -22  143.05    8.54
  -2   7 -22  161.99    9.69
   3   7 -22  379.89   16.16
  -3  -7 -22  364.62   16.38
  -3   7 -22  354.11   16.70
   4   7 -22    1.58    2.04
  -4  -7 -22    3.95    2.18
  -4   7 -22    4.81    2.47
  -5  -7 -22  213.38    9.72
   5   7 -22  204.46    9.62
  -5   7 -22  188.05    9.93
   0   8  22  442.16   18.49
   0   8 -22  456.40   19.68
   0  -8 -22  440.26   19.04
   0  -8  22  458.99   18.74
   1  -8  22  183.63    9.58
  -1  -8 -22  188.80   10.20
  -1   8  22  178.12    9.63
  -1   8 -22  193.97   10.77
   2   8 -22    5.62    2.30
  -2  -8 -22    4.32    2.19
  -2   8 -22    1.65    2.18
   3   8 -22   18.43    3.24
  -3  -8 -22   15.77    3.25
  -3   8 -22   19.14    3.70
   4   8 -22  181.33    8.97
  -4  -8 -22  183.04    9.25
  -4   8 -22  163.21    9.23
   0  -9  22    7.01    2.38
   0   9 -22    6.37    2.71
   0  -9 -22    5.60    2.35
   1   9 -22   75.54    6.31
  -1  -9 -22   93.30    6.24
   1  -9  22   85.89    5.73
  -1  -9  22   91.91    6.17
  -1   9 -22   83.83    6.74
   2   9 -22   68.34    6.00
  -2  -9 -22   70.41    5.54
  -2   9  22   57.47    4.88
  -2  -9  22   75.11    5.56
  -2   9 -22   79.32    6.21
   3   9 -22  124.88    6.79
  -3  -9 -22  125.91    7.20
  -3   9 -22  111.38    7.35
  -3  -9  22  108.23    6.89
   0  10 -22  438.01   18.50
   0 -10  22  462.35   17.91
   1  10 -22    9.00    2.82
  -1  10 -22   13.36    3.12
  -1 -10  22   13.99    2.63
  -2 -10  22  219.66   10.11
  -2  10 -22  218.01   10.74
   0   0  23   -0.87    1.74
   0   0 -23    2.54    2.16
  -1   0  23  418.37   18.52
  -1   0 -23  411.70   18.75
   1   0 -23  433.04   19.14
   1   0  23  423.07   18.87
  -2   0 -23   14.33    3.37
   2   0  23   13.23    3.39
   2   0 -23   25.37    4.34
  -2   0  23   17.25    3.47
   3   0  23  679.31   27.17
  -3   0 -23  641.74   26.07
  -3   0  23  639.96   26.08
   3   0 -23  687.32   26.94
   4   0  23    6.52    2.55
   4   0 -23    8.32    2.71
   5   0  23  123.35    7.69
   5   0 -23  107.59    7.33
   6   0  23  251.88   11.68
   0   1  23  103.11    7.64
   0  -1  23   99.73    7.29
   0  -1 -23  101.14    7.69
   0   1 -23   97.88    7.55
   1   1 -23  171.70   10.26
  -1  -1 -23  177.07   10.50
   1  -1  23  166.44   10.02
  -1   1  23  167.62   10.11
  -1   1 -23  182.73   10.28
  -1  -1  23  174.28    9.94
   1  -1 -23  171.58   10.35
   1   1  23  167.87   10.12
   2  -1  23  114.97    8.33
  -2  -1 -23  120.51    8.40
   2   1 -23  132.15    8.75
   2  -1 -23  128.35    8.63
  -2  -1  23  124.09    7.98
   2   1  23  137.19    8.81
  -2   1 -23  131.95    8.30
   3   1 -23  183.33   10.37
  -3  -1 -23  177.12    9.99
   3  -1  23  178.37   10.42
   3   1  23  165.54   10.18
   3  -1 -23  155.44    9.88
   4  -1  23  301.42   14.39
   4   1 -23  307.39   14.08
   4  -1 -23  268.90   13.53
   4   1  23  275.22   13.93
   5   1 -23  259.36   12.31
   5  -1  23  269.66   12.73
   5   1  23  239.69   12.29
   6  -1  23  254.55   11.86
   6   1  23  259.42   11.73
   0  -2 -23  249.69   13.30
   0   2  23  265.95   13.27
   0   2 -23  252.81   12.94
   0  -2  23  247.24   12.69
   1  -2  23   11.35    3.06
  -1   2  23   12.78    3.30
  -1  -2 -23   15.66    3.68
   1   2 -23   13.14    3.33
   1   2  23   11.39    3.36
  -1   2 -23   12.05    3.08
   1  -2 -23    8.10    2.99
  -1  -2  23   10.61    2.91
  -2  -2 -23   18.46    3.86
   2  -2  23   20.48    3.82
   2   2 -23   22.84    4.11
   2   2  23   16.81    3.55
  -2   2 -23   13.67    3.12
   2  -2 -23   15.12    3.58
   3  -2  23  166.02   10.02
   3   2 -23  174.16   10.12
  -3  -2 -23  171.32   10.05
   3   2  23  185.84   10.47
   3  -2 -23  166.97    9.95
   4  -2  23  338.01   15.71
  -4  -2 -23  326.93   14.98
   4   2 -23  333.29   15.43
   4   2  23  330.10   15.44
   4  -2 -23  337.78   15.21
   5  -2  23   32.31    4.49
   5   2 -23   32.17    4.13
   5   2  23   32.77    4.28
   6  -2  23   26.47    3.52
   6   2  23   14.84    3.04
   0  -3  23  491.47   20.69
   0  -3 -23  499.01   21.72
   0   3  23  494.57   21.34
   0   3 -23  504.48   21.16
   1  -3  23  250.38   12.91
  -1   3  23  256.99   13.38
  -1  -3 -23  256.40   13.61
   1   3 -23  270.28   13.44
  -1   3 -23  268.22   12.95
   1   3  23  271.52   13.67
   1  -3 -23  272.23   13.66
   2  -3  23  260.27   13.38
  -2  -3 -23  256.35   13.52
   2   3 -23  266.51   13.46
   2  -3 -23  271.75   13.69
   2   3  23  279.63   13.71
  -3  -3 -23  203.17   11.33
   3   3 -23  199.72   11.20
   3  -3  23  215.00   11.59
   3  -3 -23  213.65   11.34
   3   3  23  237.35   11.86
  -4  -3 -23  227.77   11.53
   4   3 -23  235.09   11.86
   4  -3  23  218.43   11.69
   4   3  23  237.40   11.82
   5   3 -23  212.35   10.58
   5  -3  23  229.86   11.02
   5   3  23  194.06   10.27
   6  -3  23   21.56    3.26
   0   4 -23   45.51    5.40
   0   4  23   57.80    5.74
   0  -4 -23   46.89    5.91
  -1  -4 -23   83.93    6.97
   1   4 -23   76.22    6.50
   1  -4  23   83.30    6.56
  -1   4 -23   80.09    6.24
   1   4  23   74.36    6.56
   1  -4 -23   75.76    6.56
   2  -4  23   82.29    6.54
  -2  -4 -23   76.67    6.68
   2   4 -23   85.30    6.76
   2  -4 -23   79.62    6.73
   2   4  23   89.22    6.83
  -3  -4 -23    3.03    2.29
   3  -4  23    1.05    1.85
   3   4 -23    3.04    2.30
   3  -4 -23    6.61    2.54
   3   4  23    4.20    2.30
   4   4 -23  464.67   19.32
  -4  -4 -23  469.62   19.21
   4  -4  23  455.27   19.39
   4   4  23  431.62   18.84
  -5  -4 -23   45.70    4.55
   5   4 -23   45.21    4.53
   5  -4  23   50.95    4.84
   0  -5 -23    3.61    2.51
   0   5  23    3.89    2.23
   0   5 -23    6.51    2.59
   1   5 -23  654.66   24.84
  -1  -5 -23  638.77   25.42
   1   5  23  589.06   24.75
   1  -5 -23  564.38   24.70
   2  -5  23  193.88   10.38
  -2  -5 -23  195.65   11.00
   2   5 -23  208.26   10.99
   2  -5 -23  200.35   10.88
   2   5  23  196.23   10.70
   3  -5  23  176.95    9.43
  -3  -5 -23  184.30    9.99
   3   5 -23  169.25    9.66
   3   5  23  142.90    8.99
  -4  -5 -23   42.09    4.88
   4  -5  23   43.29    4.46
   4   5 -23   41.53    4.68
  -4   5 -23   48.99    4.94
  -5  -5 -23   74.63    5.32
   5  -5  23   76.49    5.50
   5   5 -23   69.02    5.43
  -5   5 -23   73.73    5.60
   0   6 -23    1.19    2.21
   0   6  23    2.39    1.94
   0  -6 -23    1.30    1.98
   1   6 -23  133.64    8.40
  -1  -6 -23  139.01    8.79
  -1   6  23  137.27    8.61
   1   6  23  147.59    8.71
   1  -6 -23  146.52    8.83
  -2  -6 -23  170.94   10.09
   2   6 -23  174.58    9.86
   2   6  23  192.98    9.87
   2  -6 -23  188.30   12.56
   3   6 -23   60.51    5.27
  -3  -6 -23   61.55    5.52
  -3   6 -23   54.62    5.59
   4  -6  23  291.66   13.22
  -4  -6 -23  307.68   13.78
   4   6 -23  308.33   13.69
  -4   6 -23  315.41   14.10
   5   6 -23   19.63    3.10
  -5  -6 -23   22.89    3.47
   0  -7 -23  339.52   15.47
   0   7  23  337.01   15.11
  -1  -7 -23  550.71   22.00
  -1   7  23  548.53   21.62
   1   7 -23  532.50   21.06
   1   7  23  496.08   20.98
   1  -7 -23  519.16   21.42
   2   7 -23   -0.58    1.93
  -2  -7 -23    1.70    1.99
  -2   7 -23    3.85    2.41
  -3  -7 -23  138.78    8.07
   3   7 -23  141.98    7.88
  -3   7 -23  114.51    7.88
   4   7 -23  129.39    7.28
  -4  -7 -23  115.24    7.04
  -4   7 -23  109.65    7.18
   0  -8 -23   18.42    3.39
   0  -8  23   20.53    3.21
   0   8  23   16.74    3.15
  -1  -8 -23  109.44    7.08
  -1   8  23  103.90    6.56
  -1   8 -23  105.90    7.42
  -1  -8  23  102.43    6.58
   2   8 -23  905.25   33.19
  -2  -8 -23  902.03   33.85
  -2   8  23  940.38   33.55
  -2   8 -23  907.78   34.22
   3   8 -23  179.05    8.88
  -3  -8 -23  181.28    9.27
  -3   8 -23  175.58    9.42
   0  -9  23  122.38    6.81
   0   9 -23  124.43    7.53
  -1  -9 -23  164.73    8.42
  -1   9 -23  146.37    8.63
  -1  -9  23  164.19    8.36
  -2  -9 -23    1.36    1.78
  -2   9 -23    1.35    2.21
  -2  -9  23    1.43    1.89
   0   0 -24    2.81    2.29
   0   0  24   -1.09    1.86
   1   0 -24  687.06   27.34
   1   0  24  682.15   27.28
  -1   0 -24  652.37   27.04
  -1   0  24  677.71   27.00
   2   0 -24   11.79    3.03
   2   0  24   14.76    3.48
  -2   0  24   10.93    2.87
  -2   0 -24   10.32    2.86
  -3   0  24   39.28    4.72
  -3   0 -24   32.73    4.36
   3   0  24   41.87    5.27
   3   0 -24   34.20    4.69
   4   0  24   95.10    7.01
   4   0 -24   96.80    6.78
   5   0 -24  167.97    9.41
   5   0  24  185.93    9.59
   6   0  24    7.32    2.83
   0  -1  24  122.61    8.08
   0  -1 -24  114.99    8.14
   0   1  24  110.89    7.97
   0   1 -24  125.40    8.23
   1  -1  24  116.00    7.76
  -1   1  24  117.37    7.78
  -1  -1 -24  116.03    7.94
   1   1 -24  126.32    8.13
  -1   1 -24   95.30    7.38
  -1  -1  24   92.36    7.18
   1   1  24  102.08    7.60
   1  -1 -24   93.71    7.56
   2  -1  24   17.02    3.71
   2   1 -24   12.75    3.29
  -2  -1 -24   14.99    3.58
  -2   1  24   14.68    3.45
   2  -1 -24   25.09    4.23
  -2  -1  24   26.83    4.09
   2   1  24   31.03    4.55
  -2   1 -24   24.01    3.91
   3  -1  24   15.46    3.32
   3   1 -24   11.38    2.93
  -3   1  24    9.37    2.82
  -3  -1 -24   13.69    3.15
   3   1  24   18.02    3.68
   3  -1 -24   14.84    3.21
   4  -1  24   39.78    4.99
  -4   1  24   41.31    4.51
   4   1 -24   35.43    4.61
   4  -1 -24   49.92    4.85
   4   1  24   51.80    5.07
   5  -1  24   45.71    4.87
   5   1 -24   45.60    4.47
   5   1  24   58.39    4.80
   0  -2 -24   -0.65    1.73
   0   2  24    0.00    1.96
   0   2 -24    0.16    1.93
   0  -2  24    0.77    1.91
   1   2 -24  141.88    9.30
  -1  -2 -24  132.36    9.14
   1  -2  24  140.67    9.11
  -1   2  24  138.46    9.12
   1  -2 -24  174.95    9.91
  -1  -2  24  167.49    9.14
   1   2  24  158.37    9.50
  -1   2 -24  166.01    9.24
  -2  -2 -24  182.58   10.47
  -2   2  24  173.64   10.16
   2   2 -24  187.21   10.55
   2  -2  24  170.04   10.23
   2   2  24  189.59   10.55
   2  -2 -24  184.27   10.36
  -2   2 -24  182.57    9.77
   3  -2  24   50.32    5.24
  -3  -2 -24   45.73    5.30
   3   2 -24   48.26    5.47
   3   2  24   46.59    5.14
   3  -2 -24   41.01    5.09
   4   2 -24  108.35    7.20
  -4  -2 -24   98.00    6.68
   4  -2  24   96.86    6.93
   4   2  24  107.81    7.21
   4  -2 -24  100.90    6.82
   5  -2  24  329.69   14.40
   5   2 -24  320.04   13.86
   5   2  24  306.70   13.85
   0   3 -24  228.20   11.82
   0  -3 -24  227.49   12.13
   0   3  24  235.26   12.13
   0  -3  24  209.82   11.33
   1  -3  24   82.72    6.56
  -1   3  24   79.90    6.82
   1   3 -24   94.16    7.07
  -1  -3 -24   86.19    6.98
  -1   3 -24   78.93    6.33
   1   3  24   80.65    6.64
   1  -3 -24   87.48    6.91
   2  -3  24   54.46    5.30
  -2  -3 -24   49.96    5.71
   2   3 -24   44.53    5.20
   2   3  24   51.53    5.37
   2  -3 -24   48.50    5.54
   3  -3  24  162.51    9.21
  -3  -3 -24  151.47    9.05
   3   3 -24  163.12    9.26
   3   3  24  142.40    8.98
   3  -3 -24  134.02    8.67
   4  -3  24   69.25    5.53
  -4  -3 -24   65.87    5.44
   4   3 -24   71.83    5.78
   4   3  24   63.60    5.43
   5   3 -24   94.51    6.20
   5  -3  24   92.08    6.38
   5   3  24  103.83    6.24
   0   4  24 1036.37   38.74
   0   4 -24 1000.53   38.11
   0  -4 -24 1053.48   39.10
   1  -4  24   63.33    5.40
  -1   4  24   60.46    5.70
  -1  -4 -24   65.81    5.93
   1   4 -24   62.72    5.66
  -1   4 -24   48.36    5.26
   1   4  24   47.23    5.30
   1  -4 -24   48.08    5.60
  -2  -4 -24   16.88    3.68
   2   4 -24   15.40    3.44
   2  -4  24   14.04    3.20
   2  -4 -24   16.35    3.33
   2   4  24   16.09    3.37
   3   4 -24   22.80    4.06
  -3  -4 -24   25.11    4.03
   3  -4  24   21.67    3.47
   3   4  24   19.07    3.59
   3  -4 -24   15.30    3.33
   4   4 -24   93.59    6.28
  -4  -4 -24   83.04    6.08
   4  -4  24   86.54    6.19
   4   4  24   66.63    5.56
   5   4 -24   87.38    5.80
   5  -4  24   92.12    5.93
   0   5  24  826.21   31.19
   0  -5 -24  792.12   31.29
   0   5 -24  796.79   30.37
  -1  -5 -24  214.06   11.48
   1   5 -24  196.52   10.85
  -1   5  24  219.37   11.39
   1  -5 -24  207.92   11.18
   1   5  24  232.28   11.40
  -2  -5 -24   36.56    4.68
   2   5 -24   37.32    4.70
   2  -5 -24   30.88    4.34
   2   5  24   36.04    4.56
  -3  -5 -24   60.62    5.43
   3  -5  24   66.85    5.57
   3   5 -24   74.89    5.86
   3   5  24   68.24    5.51
   4   5 -24   85.24    6.03
   4  -5  24   80.22    5.76
  -4  -5 -24   86.17    6.01
   5   5 -24  257.25   11.30
   0  -6 -24  819.63   31.56
   0   6  24  824.64   31.25
  -1  -6 -24   10.92    2.91
  -1   6  24    9.46    2.71
   1   6 -24    9.46    2.81
   1   6  24    7.61    2.56
   1  -6 -24    7.12    2.54
  -2   6  24  148.85    8.55
   2   6 -24  145.34    8.38
  -2  -6 -24  136.82    8.46
   2   6  24  149.91    8.30
  -3  -6 -24   20.58    3.48
   3   6 -24   18.02    3.34
   4   6 -24  403.35   16.57
  -4  -6 -24  405.42   16.56
   0   7  24  255.78   11.94
   0  -7  24  251.93   11.51
   0  -7 -24  252.49   12.17
  -1   7  24  196.58    9.97
   1   7 -24  189.46    9.65
  -1  -7 -24  197.32   10.32
   1  -7 -24  202.31   10.09
   1   7  24  211.70   10.00
  -2   7  24  176.72    9.22
   2   7 -24  182.41    9.20
  -2  -7 -24  176.19    9.46
  -3  -7 -24   30.81    3.93
   3   7 -24   28.82    3.72
  -3   7 -24   34.95    5.58
   0  -8 -24  330.87   14.14
   0  -8  24  320.67   13.77
   0   8  24  340.08   15.69
  -1  -8 -24   79.81    5.68
  -1   8  24   78.86    5.42
  -1  -8  24   77.70    5.47
  -2  -8 -24   27.92    3.80
   2   8 -24   30.76    3.61
  -2   8  24   31.32    3.60
  -2  -8  24   37.97    3.85
  -2   8 -24   33.90    6.52
  -3  -8 -24  224.99   10.32
  -1  -9  24   58.04    4.88
   0   0 -25   -0.31    1.83
   0   0  25    0.62    1.93
  -1   0  25    9.61    3.03
   1   0 -25   16.50    3.52
  -1   0 -25   12.85    3.26
   1   0  25   15.36    3.29
   2   0 -25   12.13    3.22
  -2   0 -25   15.71    3.20
   2   0  25   14.29    3.27
  -3   0  25    7.94    2.62
   3   0  25    9.84    2.85
   3   0 -25   12.78    2.91
   4   0 -25    1.63    1.88
   4   0  25   -0.27    1.69
   5   0  25  122.96    7.31
   0  -1  25   47.46    5.12
   0  -1 -25   47.19    5.52
   0   1  25   49.89    5.26
   0   1 -25   47.23    5.40
   1  -1  25   49.75    5.22
   1   1 -25   54.84    5.49
  -1   1  25   54.56    5.54
  -1  -1 -25   52.71    5.36
  -1  -1  25   49.05    5.03
   1  -1 -25   51.70    5.26
  -1   1 -25   49.71    5.07
  -2   1  25   68.45    5.74
   2   1 -25   64.10    5.77
   2  -1  25   62.32    5.74
  -2  -1 -25   62.21    5.60
   2  -1 -25   59.45    5.59
  -2  -1  25   59.64    5.48
   2   1  25   55.73    5.67
  -2   1 -25   57.84    5.22
   3  -1  25  175.17    9.66
  -3   1  25  157.05    9.01
  -3  -1 -25  170.32    9.13
   3   1 -25  159.37    9.22
   3   1  25  171.66    9.67
   3  -1 -25  160.96    9.31
   4  -1  25   42.29    4.79
  -4   1  25   39.00    4.21
   4   1 -25   37.81    4.42
   4   1  25   46.73    4.66
   4  -1 -25   48.91    4.63
   5  -1  25   90.59    6.23
   5   1 -25   94.94    6.02
   5   1  25  105.84    6.44
   0   2 -25    3.01    2.19
   0   2  25    0.63    2.00
   0  -2 -25    1.02    2.07
   0  -2  25    1.30    1.98
   1  -2  25   39.12    4.85
  -1  -2 -25   26.29    4.14
   1   2 -25   32.72    4.57
  -1   2  25   30.77    4.47
   1   2  25   26.00    4.16
  -1  -2  25   27.04    3.94
   1  -2 -25   25.72    4.22
  -1   2 -25   25.74    4.05
   2   2 -25  101.11    7.12
  -2   2  25  109.18    7.26
   2  -2  25  106.83    7.31
  -2  -2 -25   98.82    7.05
  -2   2 -25   84.42    6.27
   2  -2 -25   86.67    6.69
   2   2  25   87.78    6.84
   3  -2  25  163.38    9.42
  -3  -2 -25  178.65    9.39
   3   2 -25  176.40    9.44
  -3   2  25  175.09    9.39
   3  -2 -25  150.68    9.08
   3   2  25  155.76    9.33
  -4   2  25  112.31    6.86
  -4  -2 -25  108.36    6.58
   4  -2  25  114.59    7.20
   4   2 -25  116.53    7.13
   4  -2 -25   97.36    7.82
   4   2  25  104.21    6.94
   5   2 -25   21.25    3.19
   5  -2  25   26.08    3.53
   5   2  25   27.83    3.57
   0  -3 -25  185.31   10.35
   0   3  25  178.15   10.23
   0   3 -25  191.24   10.25
   0  -3  25  180.77    9.78
  -1  -3 -25   48.50    5.64
   1   3 -25   58.77    5.45
   1  -3  25   48.76    5.07
  -1   3  25   53.27    5.30
   1  -3 -25   53.56    5.41
  -1   3 -25   50.11    4.94
   1   3  25   65.41    5.76
   2  -3  25    3.75    2.24
   2   3 -25    4.47    2.40
  -2   3  25    3.37    2.28
  -2  -3 -25    4.78    2.34
   2   3  25   11.97    2.92
   2  -3 -25    9.55    2.70
  -3  -3 -25  112.02    7.37
   3   3 -25  113.07    7.42
  -3   3  25  116.05    7.45
   3  -3  25  121.54    7.55
   3  -3 -25  113.29    7.28
   3   3  25  126.47    7.71
   4   3 -25    7.57    2.54
  -4   3  25   12.13    2.74
  -4  -3 -25   13.77    2.80
   4  -3  25   12.97    2.93
   4   3  25    8.65    2.41
   5  -3  25   23.93    3.23
   5   3 -25   25.61    3.72
   0  -4 -25  111.83    7.69
   0   4 -25  122.45    7.55
   0   4  25  118.65    7.83
   1   4 -25  328.22   14.71
  -1   4  25  326.37   14.90
   1  -4  25  306.59   17.41
  -1  -4 -25  306.98   14.95
   1   4  25  341.34   15.12
   1  -4 -25  324.48   14.93
  -1   4 -25  324.80   15.39
  -2   4  25  252.04   12.39
   2   4 -25  244.85   12.30
   2  -4  25  255.12   12.16
  -2  -4 -25  241.82   12.39
   2  -4 -25  267.45   12.34
   2   4  25  265.83   12.50
  -3   4  25  112.09    7.15
   3  -4  25  113.08    6.90
  -3  -4 -25  104.31    6.97
   3   4 -25  108.43    7.12
   3   4  25  104.68    6.94
  -4  -4 -25   70.37    5.32
   4  -4  25   78.87    5.53
   4   4 -25   80.29    5.69
   4   4  25   76.72    5.34
   0  -5 -25  157.72    8.96
   0   5  25  155.68    8.93
   0   5 -25  144.83    8.35
   1   5 -25  133.99    8.21
  -1  -5 -25  139.93    8.62
  -1   5  25  148.83    8.57
   1   5  25  154.17    8.71
   1  -5 -25  154.11    8.65
  -2  -5 -25  120.13    7.53
   2   5 -25  122.96    7.46
  -2   5  25  114.69    7.32
   2   5  25  112.99    7.21
   2  -5 -25  105.00    6.89
   3  -5  25   46.29    4.35
  -3   5  25   53.39    4.88
   3   5 -25   46.89    4.65
  -3  -5 -25   53.07    4.80
   3   5  25   40.55    4.27
  -4  -5 -25    4.99    2.07
   4   5 -25    5.26    2.26
   4  -5  25    6.48    2.05
   0  -6  25   42.68    4.22
   0  -6 -25   50.60    4.73
   0   6  25   41.05    4.56
  -1   6  25  128.49    7.51
   1   6 -25  116.02    7.09
  -1  -6 -25  128.61    7.71
   1  -6 -25  123.20    7.40
   1   6  25  113.39    7.12
  -2   6  25  380.77   16.02
  -2  -6 -25  370.23   16.12
   2   6 -25  379.68   15.76
   2   6  25  378.61   15.64
  -3   6  25  123.81    7.13
  -3  -6 -25  126.26    7.36
   3   6 -25  120.83    7.13
   0  -7  25   74.47    5.19
   0  -7 -25   77.39    5.49
   0   7  25   71.94    5.14
  -1  -7 -25   -0.26    1.61
  -1   7  25    2.13    1.80
   1  -7 -25    0.60    1.77
  -1  -7  25    0.47    1.51
   1   7  25    1.57    1.58
  -2  -7 -25   66.30    5.23
   2   7 -25   66.07    4.95
  -2   7  25   73.83    5.10
  -3  -7 -25    5.09    2.06
   3   7 -25    4.37    2.66
  -3   7  25    1.11    1.75
  -1  -8 -25  161.97    8.03
  -1  -8  25  150.09    8.33
   0   0  26   34.53    4.51
   0   0 -26   34.15    4.70
   1   0 -26   41.87    4.97
   1   0  26   52.11    5.19
  -1   0 -26   48.38    4.97
  -1   0  26   49.72    4.92
   2   0 -26    2.60    1.96
   2   0  26    3.27    2.17
  -2   0  26    1.02    2.12
  -2   0 -26    2.27    1.94
   3   0 -26    2.06    1.83
   3   0  26    2.63    2.02
  -3   0 -26    3.77    2.21
  -3   0  26    0.30    2.07
   4   0 -26  332.51   14.37
   4   0  26  348.10   14.84
   0   1 -26   18.41    3.37
   0  -1  26   16.73    3.30
   0   1  26   13.87    3.12
   0  -1 -26   16.92    3.49
   1   1 -26  877.61   33.48
  -1   1  26  883.39   33.36
  -1  -1 -26  859.53   33.36
   1  -1  26  912.68   33.44
   1  -1 -26  881.89   33.40
  -1   1 -26  854.61   32.97
  -1  -1  26  899.38   33.07
   1   1  26  881.58   33.46
  -2   1  26   12.00    2.90
  -2  -1 -26   11.86    2.90
   2  -1  26    7.54    2.66
   2   1 -26   12.36    2.94
  -2   1 -26    9.76    2.52
  -2  -1  26    9.95    2.60
   2  -1 -26   13.18    3.13
   2   1  26   16.28    3.26
   3   1 -26  396.35   17.00
  -3  -1 -26  399.64   16.65
   3  -1  26  404.77   17.33
  -3   1  26  415.60   16.88
   3   1  26  408.22   17.30
   3  -1 -26  397.92   16.96
   4   1 -26   34.49    4.03
   4  -1  26   31.92    4.09
   4  -1 -26   41.37    4.05
   4   1  26   39.81    4.11
   0   2  26  706.69   27.69
   0  -2  26  705.75   27.28
   0   2 -26  701.99   27.54
   0  -2 -26  723.77   27.99
  -1   2  26   16.52    3.24
  -1  -2 -26   22.12    3.76
   1  -2  26   15.70    3.18
   1   2 -26   18.58    3.62
   1  -2 -26   17.14    3.30
  -1   2 -26   19.58    3.40
  -1  -2  26   19.85    3.36
   1   2  26   19.14    3.52
   2  -2  26   49.28    4.80
  -2   2  26   45.12    4.71
  -2  -2 -26   44.72    4.62
   2   2 -26   46.23    4.78
   2  -2 -26   49.58    4.81
  -2   2 -26   45.42    5.64
   2   2  26   47.97    4.87
   3  -2  26   64.24    5.53
   3   2 -26   71.03    5.66
  -3   2  26   65.16    5.27
  -3  -2 -26   60.95    5.09
   3   2  26   77.77    5.83
   3  -2 -26   81.27    5.66
  -4   2  26  134.82    7.18
   4  -2  26  138.07    7.76
   4   2 -26  134.28    7.45
   4   2  26  127.95    7.44
   0   3 -26  446.63   18.53
   0  -3 -26  436.32   18.80
   0   3  26  447.04   18.80
  -1   3  26  150.00    8.82
   1   3 -26  153.43    8.70
   1  -3  26  137.33    8.22
  -1  -3 -26  145.05    8.70
   1   3  26  162.54    9.06
  -1   3 -26  161.90    8.60
   1  -3 -26  161.58    8.98
  -2  -3 -26   54.67    4.95
  -2   3  26   52.04    4.90
   2  -3  26   51.17    4.87
   2   3 -26   45.35    5.05
   2   3  26   52.00    4.91
   2  -3 -26   55.40    4.90
   3   3 -26  117.39    7.41
  -3   3  26  126.17    7.44
   3  -3  26  120.86    7.31
  -3  -3 -26  131.91    7.44
   3   3  26  126.91    7.49
   3  -3 -26  126.81    7.27
   4  -3  26   55.93    4.74
   4   3 -26   60.48    4.69
  -4   3  26   56.07    4.60
  -4  -3 -26   56.81    5.60
   0   4 -26   68.67    5.36
   0   4  26   75.91    5.86
   0  -4 -26   65.81    5.59
  -1  -4 -26  143.27    8.23
   1   4 -26  146.76    8.10
  -1   4  26  136.23    8.11
   1  -4 -26  119.43    7.72
   1   4  26  131.46    7.94
  -2   4  26  272.39   12.49
   2   4 -26  273.51   12.51
   2  -4  26  266.27   12.06
  -2  -4 -26  271.08   12.58
   2   4  26  263.42   12.37
   2  -4 -26  261.74   12.20
   3   4 -26   38.46    4.40
   3  -4  26   36.79    4.11
  -3  -4 -26   38.27    4.26
  -3   4  26   37.72    4.25
   3   4  26   43.61    4.07
   4   4 -26   30.44    3.53
  -4   4  26   29.92    3.43
   0   5 -26   -1.63    1.74
   0   5  26    2.25    1.79
   0  -5 -26   -2.03    1.49
  -1  -5 -26  163.31    9.18
  -1   5  26  163.83    9.16
   1   5 -26  181.51    9.16
   1   5  26  188.45    9.39
   1  -5 -26  190.71    9.41
  -2  -5 -26  161.45    8.66
   2   5 -26  154.90    8.35
  -2   5  26  156.73    8.36
   2   5  26  152.39    8.19
   2  -5 -26  146.04    7.96
   3   5 -26   12.53    2.82
  -3  -5 -26   15.62    2.88
  -3   5  26   16.40    3.10
   3   5  26   11.73    3.72
   0   6  26    6.21    2.20
   0  -6 -26    7.41    2.28
   1   6 -26  366.51   15.14
  -1  -6 -26  376.72   15.75
  -1   6  26  379.99   15.69
   1  -6 -26  381.88   15.51
   1   6  26  378.94   15.47
   2   6 -26   99.78    6.11
  -2   6  26  104.67    6.29
  -2  -6 -26  104.22    6.49
   2   6  26   96.70    7.85
   0  -7 -26   24.71    3.23
   0   7  26   28.02    4.09
  -1   7  26   87.07    5.46
  -1  -7 -26   82.26    5.44
   0   0  27    1.37    1.68
   0   0 -27    1.55    1.90
   1   0 -27   20.36    3.57
   1   0  27   25.95    3.79
  -1   0  27   22.98    3.49
  -1   0 -27   20.91    3.36
  -2   0  27  146.22    7.87
   2   0 -27  127.91    7.90
   2   0  27  148.37    8.40
  -2   0 -27  136.15    7.68
   3   0  27   22.46    3.53
   3   0 -27   21.45    3.19
   4   0  27    7.05    2.01
   0  -1  27    2.57    2.18
   0   1  27    3.37    2.04
   0   1 -27    2.24    2.24
   0  -1 -27    2.95    2.06
   1   1 -27  798.25   30.44
   1  -1  27  790.00   30.31
  -1   1  27  811.20   30.29
  -1  -1 -27  814.41   30.41
   1   1  27  805.22   30.51
   1  -1 -27  811.57   30.43
  -1   1 -27  805.29   30.09
  -1  -1  27  785.50   29.84
  -2   1  27   48.35    4.78
   2   1 -27   50.85    4.90
   2  -1  27   53.25    4.86
  -2  -1 -27   54.14    4.79
   2   1  27   54.43    5.13
  -2   1 -27   58.57    4.72
   2  -1 -27   61.82    5.19
  -3   1  27  474.66   18.56
   3   1 -27  467.00   18.85
   3  -1  27  464.76   19.03
  -3  -1 -27  463.39   18.33
   3   1  27  490.25   19.20
   3  -1 -27  464.67   18.64
   4  -1  27    6.44    2.20
   4   1  27    7.39    2.20
   0  -2 -27  126.64    7.72
   0  -2  27  125.78    7.46
   0   2 -27  129.36    7.73
   0   2  27  121.63    7.70
   1  -2  27   36.85    4.41
  -1   2  27   42.90    4.39
  -1  -2 -27   36.22    4.45
   1   2 -27   41.19    4.64
   1  -2 -27   45.42    5.01
   1   2  27   35.85    4.40
  -1   2 -27   36.41    4.26
  -2   2  27  333.21   14.41
   2  -2  27  336.29   14.44
   2   2 -27  337.42   14.47
  -2  -2 -27  323.63   14.29
   2   2  27  334.64   14.67
   2  -2 -27  307.47   14.11
  -3   2  27   76.72    5.30
  -3  -2 -27   61.81    4.98
   3  -2  27   70.17    5.29
   3   2 -27   69.91    5.38
   3   2  27   76.62    5.47
   3  -2 -27   78.92    5.24
   0   3  27   11.45    2.82
   0   3 -27    5.06    2.18
   0  -3 -27    9.22    2.61
   1  -3  27  422.05   17.80
   1   3 -27  422.70   18.00
  -1  -3 -27  436.60   18.31
  -1   3  27  449.68   18.41
  -1   3 -27  448.04   17.71
   1   3  27  474.05   18.59
   1  -3 -27  460.33   18.32
   2   3 -27  193.82   10.02
  -2  -3 -27  202.36   10.04
  -2   3  27  204.44   10.06
   2  -3  27  188.64    9.70
   2  -3 -27  213.21   10.07
   2   3  27  222.55   10.44
  -3   3  27  291.25   12.91
   3   3 -27  308.12   13.18
  -3  -3 -27  297.13   12.82
   3  -3  27  284.98   12.83
   3  -3 -27  329.17   16.32
   3   3  27  320.30   13.22
   0   4  27  360.78   15.44
   0   4 -27  357.77   14.96
   0  -4 -27  361.70   15.48
  -1   4  27   12.97    2.95
  -1  -4 -27   14.50    2.94
   1   4 -27   14.36    3.01
   1  -4 -27   12.31    2.63
   1   4  27   13.12    2.74
   2   4 -27   24.31    3.69
  -2  -4 -27   26.26    3.55
  -2   4  27   25.49    3.56
   2  -4  27   30.47    4.69
   2  -4 -27   32.67    3.66
   2   4  27   36.65    3.88
   3   4 -27   10.28    2.44
  -3  -4 -27   10.18    2.29
  -3   4  27    5.22    2.12
   0  -5 -27    3.32    2.02
   0   5  27    1.38    1.77
  -1  -5 -27   59.63    4.92
   1   5 -27   57.84    4.76
  -1   5  27   66.33    5.13
   1   5  27   79.26    5.22
   1  -5 -27   68.41    4.90
  -2  -5 -27   48.48    4.35
  -2   5  27   52.07    4.32
   2   5 -27   44.85    4.18
   2   5  27   52.67    4.65
   0  -6 -27  137.71    7.23
   0   6  27  132.60    7.09
  -1  -6 -27   81.97    5.35
  -1   6  27   85.10    5.35
   0   0  28    5.47    2.28
   0   0 -28    5.51    2.33
  -1   0  28   18.88    2.99
   1   0  28   19.24    3.19
   1   0 -28   21.22    3.53
  -1   0 -28   18.73    3.15
   2   0  28   32.08    3.81
  -2   0  28   28.58    3.42
   2   0 -28   24.49    3.48
  -2   0 -28   27.48    3.38
   3   0 -28   13.30    2.54
   3   0  28   12.86    2.60
   0  -1  28   59.64    4.89
   0   1  28   59.49    5.03
   0  -1 -28   55.25    4.97
   0   1 -28   56.40    5.01
  -1  -1 -28  304.64   13.30
   1   1 -28  307.47   13.43
   1  -1  28  289.86   13.25
  -1   1  28  298.41   13.24
   1  -1 -28  311.64   13.49
  -1   1 -28  301.35   13.12
  -1  -1  28  317.27   13.13
   1   1  28  302.36   13.52
  -2  -1 -28   34.06    3.80
  -2   1  28   31.84    3.81
   2   1 -28   37.94    4.19
   2  -1  28   33.22    3.90
   2  -1 -28   38.15    4.21
   2   1  28   38.04    4.38
  -2   1 -28   38.76    3.92
   3   1 -28  240.59   10.89
   3  -1  28  243.83   10.99
   3   1  28  259.06   11.20
   0   2 -28   90.38    5.99
   0  -2  28   84.25    5.76
   0   2  28   98.28    6.31
  -1   2  28    5.91    2.29
   1  -2  28    7.66    2.29
   1   2 -28    6.59    2.32
  -1  -2 -28    8.83    2.42
   1   2  28    9.56    2.68
   1  -2 -28    6.06    2.22
  -2   2  28   94.04    6.07
   2  -2  28  103.04    6.30
  -2  -2 -28   97.95    6.07
   2   2 -28  104.64    6.73
   2  -2 -28  106.96    6.29
   2   2  28  104.85    6.50
   0   3 -28  136.39    7.27
   0   3  28  132.68    7.64
   0  -3 -28  135.84    7.52
  -1   3  28  193.47    9.58
   1   3 -28  197.07    9.50
  -1  -3 -28  192.96    9.57
   1   3  28  196.45    9.55
   1  -3 -28  191.23    9.38
  -2   3  28   14.80    2.67
   2   3 -28   12.18    2.64
  -2  -3 -28   19.17    2.98
   2  -3 -28   17.51    2.85
   2   3  28   15.70    2.82
   0  -4 -28   17.90    2.83
   0   4  28   17.48    2.86
   1   4 -28   14.76    2.66
  -1  -4 -28   11.60    2.57
  -1   4  28   15.32    2.67
   1   4  28   18.08    2.88
   1  -4 -28   23.03    3.11
   0   0 -29   -0.12    1.83
   0   0  29    1.06    1.66
   1   0  29    3.00    1.92
   1   0 -29    2.70    1.99
  -1   0 -29    3.12    1.86
   0  -1 -29  117.81    6.65
   0  -1  29  103.46    8.29
   0   1 -29  109.90    6.34
   0   1  29  103.24    6.30
  -1   1  29  105.16    6.11
   1  -1  29  105.51    6.69
   1   1 -29  103.79    6.18
  -1  -1 -29  105.91    6.14
   1  -1 -29  102.94    6.20
   1   1  29  101.84    6.30
   0   2  29   49.32    4.41
   0  -2 -29   49.01    4.32
   0   2 -29   47.78    4.64
   1   2 -29    8.32    2.24
  -1  -2 -29    7.30    2.16
  -1   2  29   10.37    2.29
   1  -2 -29    8.24    2.19
   1   2  29   10.05    2.40
   0   0   0    0.00    0.00
;
_shelx_hkl_checksum              4123
loop_
_space_group_symop_operation_xyz
'x, y, z'
'x+1/2, -y+1/2, -z'
'-x, y+1/2, -z+1/2'
'-x+1/2, -y, z+1/2'
loop_
_atom_site_label
_atom_site_type_symbol
_atom_site_fract_x
_atom_site_fract_y
_atom_site_fract_z
_atom_site_U_iso_or_equiv
_atom_site_adp_type
_atom_site_occupancy
_atom_site_site_symmetry_order
_atom_site_calc_flag
_atom_site_refinement_flags_posn
_atom_site_refinement_flags_adp
S1 S -0.14701(7) 1.29307(4) 0.13564(2) 0.01607(13) Uani 1 1 d . .
S2 S -0.64333(7) 1.17870(4) 0.12340(2) 0.01824(13) Uani 1 1 d . .
S3 S 0.36916(7) 0.74155(4) 0.06427(2) 0.01500(13) Uani 1 1 d . .
S4 S -0.12637(7) 0.69775(4) 0.12721(2) 0.01911(13) Uani 1 1 d . .
O1 O -0.2049(2) 1.04411(12) 0.19400(6) 0.0182(4) Uani 1 1 d . .
O2 O -0.0235(2) 1.22156(12) 0.14841(6) 0.0185(4) Uani 1 1 d . .
O3 O -0.1368(2) 1.02647(11) 0.10616(6) 0.0193(4) Uani 1 1 d . .
O4 O 0.3769(2) 0.66418(11) 0.20783(6) 0.0184(3) Uani 1 1 d . .
O5 O 0.49845(19) 0.74886(13) 0.10305(6) 0.0202(4) Uani 1 1 d . .
N1 N 0.2003(2) 0.72251(14) 0.09521(7) 0.0151(4) Uani 1 1 d . .
O0AA O 0.3224(2) 0.82818(12) 0.20381(6) 0.0185(4) Uani 1 1 d . .
C1 C -0.1180(4) 0.94638(18) 0.26856(10) 0.0288(6) Uani 1 1 d . .
H1A H -0.1010 1.0071 0.2896 0.043 Uiso 1 1 calc R U
H1B H -0.0456 0.8951 0.2803 0.043 Uiso 1 1 calc R U
H1C H -0.2227 0.9229 0.2744 0.043 Uiso 1 1 calc R U
C2 C -0.0943(3) 0.96782(18) 0.20953(10) 0.0249(6) Uani 1 1 d . .
H2A H 0.0112 0.9918 0.2032 0.030 Uiso 1 1 calc R U
H2B H -0.1105 0.9069 0.1879 0.030 Uiso 1 1 calc R U
C3 C -0.2096(3) 1.06575(16) 0.14145(9) 0.0142(5) Uani 1 1 d . .
C4 C -0.3341(3) 1.14247(16) 0.12988(8) 0.0139(5) Uani 1 1 d . .
N5 N -0.3150(2) 1.23662(14) 0.12421(8) 0.0174(4) Uani 1 1 d . .
C6 C -0.1137(3) 1.33449(17) 0.06492(10) 0.0211(5) Uani 1 1 d . .
C7 C 0.0388(3) 1.3887(2) 0.06798(13) 0.0335(7) Uani 1 1 d . .
H7A H 0.0673 1.4123 0.0318 0.050 Uiso 1 1 calc R U
H7B H 0.1176 1.3432 0.0815 0.050 Uiso 1 1 calc R U
H7C H 0.0297 1.4454 0.0926 0.050 Uiso 1 1 calc R U
C8 C -0.2420(4) 1.4058(2) 0.04954(12) 0.0320(7) Uani 1 1 d . .
H8A H -0.2490 1.4587 0.0767 0.048 Uiso 1 1 calc R U
H8B H -0.3391 1.3696 0.0480 0.048 Uiso 1 1 calc R U
H8C H -0.2203 1.4351 0.0140 0.048 Uiso 1 1 calc R U
C9 C -0.4855(3) 1.10108(17) 0.12290(9) 0.0148(5) Uani 1 1 d . .
C10 C -0.7637(3) 1.08115(19) 0.11259(9) 0.0211(5) Uani 1 1 d . .
H10 H -0.8715 1.0877 0.1098 0.025 Uiso 1 1 calc R U
C11 C -0.6888(3) 0.99297(18) 0.10837(9) 0.0185(5) Uani 1 1 d . .
H11 H -0.7380 0.9312 0.1019 0.022 Uiso 1 1 calc R U
C12 C -0.5277(3) 1.00412(18) 0.11479(9) 0.0190(5) Uani 1 1 d . .
H12 H -0.4574 0.9504 0.1136 0.023 Uiso 1 1 calc R U
C13 C -0.1053(4) 1.2444(2) 0.02786(10) 0.0287(6) Uani 1 1 d . .
H13A H -0.0735 1.2655 -0.0084 0.043 Uiso 1 1 calc R U
H13B H -0.2061 1.2129 0.0258 0.043 Uiso 1 1 calc R U
H13C H -0.0309 1.1969 0.0423 0.043 Uiso 1 1 calc R U
C14 C 0.5248(3) 0.6190(2) -0.00075(10) 0.0223(5) Uani 1 1 d . .
H14A H 0.5364 0.5560 -0.0202 0.033 Uiso 1 1 calc R U
H14B H 0.6122 0.6287 0.0235 0.033 Uiso 1 1 calc R U
H14C H 0.5203 0.6737 -0.0269 0.033 Uiso 1 1 calc R U
C15 C 0.3771(3) 0.61686(16) 0.03249(9) 0.0169(5) Uani 1 1 d . .
C16 C 0.1824(3) 0.72281(15) 0.14696(8) 0.0134(5) Uani 1 1 d . .
C17 C 0.3093(3) 0.73347(16) 0.18908(8) 0.0139(5) Uani 1 1 d . .
C18 C 0.4406(3) 0.8503(2) 0.24413(10) 0.0256(6) Uani 1 1 d . .
H18A H 0.5434 0.8455 0.2276 0.031 Uiso 1 1 calc R U
H18B H 0.4346 0.8026 0.2746 0.031 Uiso 1 1 calc R U
C19 C 0.4115(4) 0.9543(2) 0.26386(12) 0.0329(7) Uani 1 1 d . .
H19A H 0.4123 1.0001 0.2330 0.049 Uiso 1 1 calc R U
H19B H 0.4915 0.9734 0.2896 0.049 Uiso 1 1 calc R U
H19C H 0.3116 0.9571 0.2818 0.049 Uiso 1 1 calc R U
C20 C 0.0315(3) 0.70884(16) 0.16896(9) 0.0142(5) Uani 1 1 d . .
C21 C -0.2444(3) 0.68263(18) 0.18188(10) 0.0215(5) Uani 1 1 d . .
H21 H -0.3517 0.6730 0.1791 0.026 Uiso 1 1 calc R U
C22 C -0.1679(3) 0.68587(17) 0.22967(9) 0.0198(5) Uani 1 1 d . .
H22 H -0.2156 0.6787 0.2640 0.024 Uiso 1 1 calc R U
C23 C -0.0097(3) 0.70112(17) 0.22263(9) 0.0166(5) Uani 1 1 d . .
H23 H 0.0609 0.7056 0.2518 0.020 Uiso 1 1 calc R U
C24 C 0.2376(3) 0.6066(2) -0.00385(9) 0.0213(5) Uani 1 1 d . .
H24A H 0.2333 0.6629 -0.0290 0.032 Uiso 1 1 calc R U
H24B H 0.1449 0.6057 0.0185 0.032 Uiso 1 1 calc R U
H24C H 0.2446 0.5445 -0.0245 0.032 Uiso 1 1 calc R U
C25 C 0.3846(3) 0.53810(17) 0.07670(9) 0.0203(5) Uani 1 1 d . .
H25A H 0.2904 0.5400 0.0982 0.030 Uiso 1 1 calc R U
H25B H 0.4725 0.5512 0.1003 0.030 Uiso 1 1 calc R U
H25C H 0.3957 0.4724 0.0601 0.030 Uiso 1 1 calc R U
loop_
_atom_site_aniso_label
_atom_site_aniso_U_11
_atom_site_aniso_U_22
_atom_site_aniso_U_33
_atom_site_aniso_U_23
_atom_site_aniso_U_13
_atom_site_aniso_U_12
S1 0.0163(3) 0.0152(2) 0.0167(2) -0.00182(19) -0.0018(2) -0.0014(2)
S2 0.0154(3) 0.0187(3) 0.0206(3) 0.0018(2) 0.0014(2) 0.0030(2)
S3 0.0136(3) 0.0164(3) 0.0150(2) 0.00134(19) 0.0017(2) -0.0006(2)
S4 0.0141(3) 0.0275(3) 0.0158(2) 0.0004(2) -0.0019(2) -0.0010(2)
O1 0.0202(10) 0.0175(8) 0.0170(8) 0.0019(6) -0.0013(7) 0.0046(7)
O2 0.0173(10) 0.0201(8) 0.0182(7) 0.0015(6) -0.0055(7) -0.0006(7)
O3 0.0152(9) 0.0225(8) 0.0204(8) -0.0063(6) -0.0001(7) 0.0031(7)
O4 0.0143(9) 0.0193(8) 0.0215(8) 0.0040(6) -0.0026(7) 0.0015(7)
O5 0.0162(9) 0.0250(9) 0.0195(8) 0.0001(7) -0.0003(7) -0.0045(7)
N1 0.0145(11) 0.0169(10) 0.0141(8) -0.0004(7) 0.0013(8) 0.0014(8)
O0AA 0.0196(10) 0.0162(8) 0.0197(8) -0.0038(6) -0.0051(7) -0.0015(6)
C1 0.0414(19) 0.0178(12) 0.0272(13) 0.0041(9) -0.0133(13) 0.0020(12)
C2 0.0264(16) 0.0200(12) 0.0283(13) 0.0012(10) -0.0056(11) 0.0093(10)
C3 0.0113(12) 0.0142(10) 0.0171(11) -0.0014(9) -0.0024(9) -0.0029(9)
C4 0.0141(13) 0.0179(11) 0.0098(9) -0.0004(8) 0.0014(9) 0.0011(9)
N5 0.0167(11) 0.0176(10) 0.0178(9) -0.0010(8) 0.0024(8) 0.0001(8)
C6 0.0195(15) 0.0218(11) 0.0221(11) 0.0077(9) -0.0002(11) -0.0021(10)
C7 0.0245(17) 0.0333(15) 0.0426(16) 0.0149(13) -0.0001(14) -0.0076(12)
C8 0.0287(17) 0.0296(15) 0.0378(15) 0.0127(12) -0.0058(13) 0.0029(12)
C9 0.0147(13) 0.0167(11) 0.0132(10) 0.0031(9) 0.0010(9) 0.0009(9)
C10 0.0134(14) 0.0309(13) 0.0190(11) 0.0050(10) -0.0009(10) 0.0000(10)
C11 0.0158(14) 0.0165(11) 0.0232(11) 0.0034(9) -0.0014(10) -0.0016(9)
C12 0.0172(14) 0.0171(11) 0.0225(11) 0.0027(10) -0.0013(10) 0.0014(10)
C13 0.0349(18) 0.0341(14) 0.0172(11) 0.0043(10) 0.0032(11) 0.0013(13)
C14 0.0197(14) 0.0252(13) 0.0219(12) 0.0001(10) 0.0062(11) 0.0009(10)
C15 0.0168(13) 0.0178(11) 0.0161(10) -0.0012(8) 0.0025(10) -0.0003(10)
C16 0.0151(13) 0.0099(10) 0.0151(10) -0.0007(8) -0.0011(9) 0.0028(8)
C17 0.0120(12) 0.0162(11) 0.0135(10) 0.0003(8) 0.0025(9) -0.0017(9)
C18 0.0205(15) 0.0317(14) 0.0246(12) -0.0078(11) -0.0056(11) -0.0038(11)
C19 0.0346(19) 0.0320(15) 0.0321(14) -0.0137(12) 0.0024(13) -0.0118(12)
C20 0.0148(13) 0.0120(10) 0.0157(10) 0.0003(8) -0.0014(9) 0.0015(9)
C21 0.0131(14) 0.0231(12) 0.0283(12) 0.0017(10) 0.0022(10) -0.0001(10)
C22 0.0187(15) 0.0218(12) 0.0189(11) 0.0022(9) 0.0057(10) 0.0027(10)
C23 0.0187(14) 0.0164(11) 0.0148(10) 0.0001(9) -0.0001(9) 0.0025(9)
C24 0.0209(15) 0.0258(13) 0.0170(11) -0.0030(10) 0.0010(10) -0.0001(10)
C25 0.0191(14) 0.0179(11) 0.0239(12) 0.0015(9) 0.0039(11) -0.0002(10)
loop_
_atom_type_symbol
_atom_type_description
_atom_type_scat_dispersion_real
_atom_type_scat_dispersion_imag
_atom_type_scat_source
C C 0.0181 0.0091 'International Tables Vol C Tables 4.2.6.8 and 6.1.1.4'
H H 0.0000 0.0000 'International Tables Vol C Tables 4.2.6.8 and 6.1.1.4'
N N 0.0311 0.0180 'International Tables Vol C Tables 4.2.6.8 and 6.1.1.4'
O O 0.0492 0.0322 'International Tables Vol C Tables 4.2.6.8 and 6.1.1.4'
S S 0.3331 0.5567 'International Tables Vol C Tables 4.2.6.8 and 6.1.1.4'
loop_
_geom_angle_atom_site_label_1
_geom_angle_atom_site_label_2
_geom_angle_atom_site_label_3
_geom_angle
O2 S1 N5 112.36(10)
O2 S1 C6 106.33(11)
N5 S1 C6 96.62(11)
C10 S2 C9 91.50(12)
O5 S3 N1 112.71(9)
O5 S3 C15 107.72(11)
N1 S3 C15 94.99(10)
C21 S4 C20 91.26(12)
C3 O1 C2 115.46(19)
C16 N1 S3 123.84(18)
C17 O0AA C18 116.14(18)
C2 C1 H1A 109.5
C2 C1 H1B 109.5
H1A C1 H1B 109.5
C2 C1 H1C 109.5
H1A C1 H1C 109.5
H1B C1 H1C 109.5
O1 C2 C1 107.4(2)
O1 C2 H2A 110.2
C1 C2 H2A 110.2
O1 C2 H2B 110.2
C1 C2 H2B 110.2
H2A C2 H2B 108.5
O3 C3 O1 126.5(2)
O3 C3 C4 122.7(2)
O1 C3 C4 110.62(19)
N5 C4 C9 119.0(2)
N5 C4 C3 126.4(2)
C9 C4 C3 114.48(19)
C4 N5 S1 122.79(18)
C13 C6 C7 111.7(2)
C13 C6 C8 112.8(2)
C7 C6 C8 110.8(2)
C13 C6 S1 109.52(16)
C7 C6 S1 103.58(18)
C8 C6 S1 107.95(18)
C6 C7 H7A 109.5
C6 C7 H7B 109.5
H7A C7 H7B 109.5
C6 C7 H7C 109.5
H7A C7 H7C 109.5
H7B C7 H7C 109.5
C6 C8 H8A 109.5
C6 C8 H8B 109.5
H8A C8 H8B 109.5
C6 C8 H8C 109.5
H8A C8 H8C 109.5
H8B C8 H8C 109.5
C12 C9 C4 129.1(2)
C12 C9 S2 111.17(19)
C4 C9 S2 119.77(17)
C11 C10 S2 112.8(2)
C11 C10 H10 123.6
S2 C10 H10 123.6
C10 C11 C12 112.1(2)
C10 C11 H11 124.0
C12 C11 H11 124.0
C9 C12 C11 112.5(2)
C9 C12 H12 123.8
C11 C12 H12 123.8
C6 C13 H13A 109.5
C6 C13 H13B 109.5
H13A C13 H13B 109.5
C6 C13 H13C 109.5
H13A C13 H13C 109.5
H13B C13 H13C 109.5
C15 C14 H14A 109.5
C15 C14 H14B 109.5
H14A C14 H14B 109.5
C15 C14 H14C 109.5
H14A C14 H14C 109.5
H14B C14 H14C 109.5
C24 C15 C25 113.2(2)
C24 C15 C14 111.26(18)
C25 C15 C14 111.2(2)
C24 C15 S3 107.58(17)
C25 C15 S3 109.19(15)
C14 C15 S3 103.96(16)
N1 C16 C20 119.0(2)
N1 C16 C17 126.0(2)
C20 C16 C17 114.95(18)
O4 C17 O0AA 126.7(2)
O4 C17 C16 123.3(2)
O0AA C17 C16 109.78(18)
O0AA C18 C19 106.8(2)
O0AA C18 H18A 110.4
C19 C18 H18A 110.4
O0AA C18 H18B 110.4
C19 C18 H18B 110.4
H18A C18 H18B 108.6
C18 C19 H19A 109.5
C18 C19 H19B 109.5
H19A C19 H19B 109.5
C18 C19 H19C 109.5
H19A C19 H19C 109.5
H19B C19 H19C 109.5
C23 C20 C16 127.8(2)
C23 C20 S4 110.99(18)
C16 C20 S4 121.23(16)
C22 C21 S4 112.6(2)
C22 C21 H21 123.7
S4 C21 H21 123.7
C21 C22 C23 112.4(2)
C21 C22 H22 123.8
C23 C22 H22 123.8
C20 C23 C22 112.7(2)
C20 C23 H23 123.6
C22 C23 H23 123.6
C15 C24 H24A 109.5
C15 C24 H24B 109.5
H24A C24 H24B 109.5
C15 C24 H24C 109.5
H24A C24 H24C 109.5
H24B C24 H24C 109.5
C15 C25 H25A 109.5
C15 C25 H25B 109.5
H25A C25 H25B 109.5
C15 C25 H25C 109.5
H25A C25 H25C 109.5
H25B C25 H25C 109.5
loop_
_geom_bond_atom_site_label_1
_geom_bond_atom_site_label_2
_geom_bond_distance
S1 O2 1.4812(18)
S1 N5 1.678(2)
S1 C6 1.856(2)
S2 C10 1.704(3)
S2 C9 1.731(2)
S3 O5 1.4849(17)
S3 N1 1.682(2)
S3 C15 1.854(2)
S4 C21 1.711(3)
S4 C20 1.730(2)
O1 C3 1.330(3)
O1 C2 1.462(3)
O3 C3 1.202(3)
O4 C17 1.198(3)
N1 C16 1.287(3)
O0AA C17 1.331(3)
O0AA C18 1.466(3)
C1 C2 1.500(4)
C1 H1A 0.9800
C1 H1B 0.9800
C1 H1C 0.9800
C2 H2A 0.9900
C2 H2B 0.9900
C3 C4 1.528(3)
C4 N5 1.286(3)
C4 C9 1.447(3)
C6 C13 1.521(4)
C6 C7 1.522(4)
C6 C8 1.525(4)
C7 H7A 0.9800
C7 H7B 0.9800
C7 H7C 0.9800
C8 H8A 0.9800
C8 H8B 0.9800
C8 H8C 0.9800
C9 C12 1.371(3)
C10 C11 1.360(4)
C10 H10 0.9500
C11 C12 1.426(4)
C11 H11 0.9500
C12 H12 0.9500
C13 H13A 0.9800
C13 H13B 0.9800
C13 H13C 0.9800
C14 C15 1.531(3)
C14 H14A 0.9800
C14 H14B 0.9800
C14 H14C 0.9800
C15 C24 1.521(4)
C15 C25 1.523(3)
C16 C20 1.440(3)
C16 C17 1.528(3)
C18 C19 1.504(4)
C18 H18A 0.9900
C18 H18B 0.9900
C19 H19A 0.9800
C19 H19B 0.9800
C19 H19C 0.9800
C20 C23 1.377(3)
C21 C22 1.357(3)
C21 H21 0.9500
C22 C23 1.410(4)
C22 H22 0.9500
C23 H23 0.9500
C24 H24A 0.9800
C24 H24B 0.9800
C24 H24C 0.9800
C25 H25A 0.9800
C25 H25B 0.9800
C25 H25C 0.9800
loop_
_geom_torsion_atom_site_label_1
_geom_torsion_atom_site_label_2
_geom_torsion_atom_site_label_3
_geom_torsion_atom_site_label_4
_geom_torsion
O5 S3 N1 C16 5.7(2)
C15 S3 N1 C16 117.3(2)
C3 O1 C2 C1 -174.0(2)
C2 O1 C3 O3 2.9(3)
C2 O1 C3 C4 177.31(19)
O3 C3 C4 N5 -87.1(3)
O1 C3 C4 N5 98.3(3)
O3 C3 C4 C9 90.4(3)
O1 C3 C4 C9 -84.2(2)
C9 C4 N5 S1 175.64(15)
C3 C4 N5 S1 -7.0(3)
O2 S1 N5 C4 4.6(2)
C6 S1 N5 C4 115.3(2)
O2 S1 C6 C13 55.0(2)
N5 S1 C6 C13 -60.7(2)
O2 S1 C6 C7 -64.30(19)
N5 S1 C6 C7 -179.96(17)
O2 S1 C6 C8 178.16(17)
N5 S1 C6 C8 62.50(19)
N5 C4 C9 C12 163.6(2)
C3 C4 C9 C12 -14.0(3)
N5 C4 C9 S2 -15.5(3)
C3 C4 C9 S2 166.84(15)
C10 S2 C9 C12 -0.18(18)
C10 S2 C9 C4 179.09(19)
C9 S2 C10 C11 -0.35(19)
S2 C10 C11 C12 0.8(3)
C4 C9 C12 C11 -178.5(2)
S2 C9 C12 C11 0.6(3)
C10 C11 C12 C9 -0.9(3)
O5 S3 C15 C24 175.64(15)
N1 S3 C15 C24 59.87(16)
O5 S3 C15 C25 52.4(2)
N1 S3 C15 C25 -63.35(19)
O5 S3 C15 C14 -66.27(17)
N1 S3 C15 C14 177.95(16)
S3 N1 C16 C20 178.00(16)
S3 N1 C16 C17 -4.2(3)
C18 O0AA C17 O4 5.2(3)
C18 O0AA C17 C16 -179.80(19)
N1 C16 C17 O4 -89.9(3)
C20 C16 C17 O4 88.0(3)
N1 C16 C17 O0AA 94.9(3)
C20 C16 C17 O0AA -87.2(2)
C17 O0AA C18 C19 -167.3(2)
N1 C16 C20 C23 175.9(2)
C17 C16 C20 C23 -2.1(3)
N1 C16 C20 S4 -3.2(3)
C17 C16 C20 S4 178.78(15)
C21 S4 C20 C23 -0.18(19)
C21 S4 C20 C16 179.03(19)
C20 S4 C21 C22 0.0(2)
S4 C21 C22 C23 0.1(3)
C16 C20 C23 C22 -178.9(2)
S4 C20 C23 C22 0.3(3)
C21 C22 C23 C20 -0.3(3)
