#------------------------------------------------------------------------------
#$Date: 2015-12-06 07:30:57 +0200 (Sun, 06 Dec 2015) $
#$Revision: 170758 $
#$URL: svn://www.crystallography.net/cod/cif/1/54/06/1540608.cif $
#------------------------------------------------------------------------------
#
# This file is available in the Crystallography Open Database (COD),
# http://www.crystallography.net/
#
# All data on this site have been placed in the public domain by the
# contributors.
#
data_1540608
loop_
_publ_author_name
'Marsini, Maurice A.'
'Reeves, Jonathan T.'
'Desrosiers, Jean-Nicolas'
'Herbage, Melissa A.'
'Savoie, Jolaine'
'Li, Zhibin'
'Fandrick, Keith R.'
'Sader, C. Avery'
'McKibben, Bryan'
'Gao, Donghong A.'
'Cui, Jianwen'
'Gonnella, Nina C.'
'Lee, Heewon'
'Wei, Xudong'
'Roschangar, Frank'
'Lu, Bruce Z.'
'Senanayake, Chris H.'
_publ_section_title
;
 Diastereoselective Synthesis of \a-Quaternary Aziridine-2-carboxylates
 via Aza-Corey-Chaykovsky Aziridination of N-tert-Butanesulfinyl Ketimino
 Esters.
;
_journal_issue                   22
_journal_name_full               'Organic letters'
_journal_page_first              5614
_journal_page_last               5617
_journal_paper_doi               10.1021/acs.orglett.5b02838
_journal_volume                  17
_journal_year                    2015
_chemical_formula_moiety         'C32 H37 Br Cl N3 O6 S2'
_chemical_formula_sum            'C32 H37 Br Cl N3 O6 S2'
_chemical_formula_weight         739.12
_space_group_crystal_system      triclinic
_space_group_IT_number           1
_space_group_name_Hall           'P 1'
_space_group_name_H-M_alt        'P 1'
_symmetry_space_group_name_Hall  'P 1'
_symmetry_space_group_name_H-M   'P 1'
_atom_sites_solution_hydrogens   mixed
_audit_creation_date             2015-10-29
_audit_creation_method
;
Olex2 1.2
(compiled 2015.09.30 svn.r3233 for OlexSys, GUI svn.r5103)
;
_cell_angle_alpha                75.0450(10)
_cell_angle_beta                 78.8930(10)
_cell_angle_gamma                69.6590(10)
_cell_formula_units_Z            2
_cell_length_a                   9.9554(3)
_cell_length_b                   13.0776(4)
_cell_length_c                   14.9103(4)
_cell_measurement_reflns_used    9419
_cell_measurement_temperature    100(2)
_cell_measurement_theta_max      66.499
_cell_measurement_theta_min      3.087
_cell_volume                     1747.12(9)
_computing_cell_refinement       'SAINT v8.34A (Bruker, 2013)'
_computing_data_reduction        'SAINT v8.34A (Bruker, 2013)'
_computing_molecular_graphics    'Olex2 (Dolomanov et al., 2009)'
_computing_publication_material  'Olex2 (Dolomanov et al., 2009)'
_computing_structure_refinement  'XL (Sheldrick, 2008)'
_computing_structure_solution    'ShelXS (Sheldrick, 2008)'
_diffrn_ambient_temperature      100.0
_diffrn_measured_fraction_theta_full 0.948
_diffrn_measured_fraction_theta_max 0.948
_diffrn_measurement_device_type  'Bruker APEX-II CCD'
_diffrn_measurement_method       '\f and \w scans'
_diffrn_radiation_type           CuK\a
_diffrn_radiation_wavelength     1.54178
_diffrn_reflns_av_R_equivalents  0.0286
_diffrn_reflns_av_unetI/netI     0.0532
_diffrn_reflns_laue_measured_fraction_full 0.948
_diffrn_reflns_laue_measured_fraction_max 0.948
_diffrn_reflns_limit_h_max       11
_diffrn_reflns_limit_h_min       -11
_diffrn_reflns_limit_k_max       15
_diffrn_reflns_limit_k_min       -15
_diffrn_reflns_limit_l_max       17
_diffrn_reflns_limit_l_min       -17
_diffrn_reflns_number            12422
_diffrn_reflns_point_group_measured_fraction_full 0.718
_diffrn_reflns_point_group_measured_fraction_max 0.718
_diffrn_reflns_theta_full        66.494
_diffrn_reflns_theta_max         66.494
_diffrn_reflns_theta_min         3.088
_diffrn_standards_number         0
_exptl_absorpt_coefficient_mu    3.803
_exptl_absorpt_correction_T_max  1.0000
_exptl_absorpt_correction_T_min  0.5833
_exptl_absorpt_correction_type   multi-scan
_exptl_crystal_colour            colourless
_exptl_crystal_colour_primary    colourless
_exptl_crystal_density_diffrn    1.405
_exptl_crystal_description       prism
_exptl_crystal_F_000             764
_refine_diff_density_max         1.286
_refine_diff_density_min         -0.840
_refine_diff_density_rms         0.080
_refine_ls_abs_structure_details
;
 Flack x determined using 2850 quotients [(I+)-(I-)]/[(I+)+(I-)]
 (Parsons, Flack and Wagner, Acta Cryst. B69 (2013) 249-259).
;
_refine_ls_abs_structure_Flack   0.032(7)
_refine_ls_extinction_coef       0.0054(3)
_refine_ls_extinction_expression Fc^*^=kFc[1+0.001xFc^2^\l^3^/sin(2\q)]^-1/4^
_refine_ls_extinction_method     'SHELXL-2014/7 (Sheldrick 2014'
_refine_ls_goodness_of_fit_ref   1.052
_refine_ls_hydrogen_treatment    mixed
_refine_ls_matrix_type           full
_refine_ls_number_parameters     839
_refine_ls_number_reflns         8863
_refine_ls_number_restraints     3
_refine_ls_restrained_S_all      1.052
_refine_ls_R_factor_all          0.0409
_refine_ls_R_factor_gt           0.0404
_refine_ls_shift/su_max          0.000
_refine_ls_shift/su_mean         0.000
_refine_ls_structure_factor_coef Fsqd
_refine_ls_weighting_details
'w=1/[\s^2^(Fo^2^)+(0.0646P)^2^+0.6682P] where P=(Fo^2^+2Fc^2^)/3'
_refine_ls_weighting_scheme      calc
_refine_ls_wR_factor_gt          0.1053
_refine_ls_wR_factor_ref         0.1058
_reflns_Friedel_coverage         0.514
_reflns_friedel_fraction_full    0.487
_reflns_friedel_fraction_max     0.487
_reflns_number_gt                8714
_reflns_number_total             8863
_reflns_threshold_expression     'I > 2\s(I)'
_cod_data_source_file            ol5b02838_si_004.cif
_cod_data_source_block           scan_0m_p1_a
_cod_database_code               1540608
_shelx_space_group_comment
;
The symmetry employed for this shelxl refinement is uniquely defined
by the following loop, which should always be used as a source of
symmetry information in preference to the above space-group names.
They are only intended as comments.
;
_olex2_refinement_description
;
1. Fixed Uiso
 At 1.2 times of:
  All C(H) groups, All C(H,H) groups, All C(H,H,H,H) groups, All N(H) groups
 At 1.5 times of:
  All C(H,H,H) groups
2. Others
 Sof(H34A)=Sof(H34B)=Sof(C2AA)=Sof(H2AA)=Sof(H2AB)=Sof(H2AC)=1-FVAR(1)
 Sof(H34C)=Sof(H34D)=Sof(C4)=Sof(H4A)=Sof(H4B)=Sof(H4C)=FVAR(1)
3.a Ternary CH refined with riding coordinates:
 C0AA(H0AA), C54(H54), C22(H22), C36(H36), C23(H23), C55(H55)
3.b Secondary CH2 refined with riding coordinates:
 C40(H40A,H40B), C8(H8A,H8B), C2(H2A,H2B), C34(H34A,H34B), C34(H34C,H34D)
3.c Aromatic/amide H refined with riding coordinates:
 N5(H5), N2(H2), N6(H6), N3(H3), C16(H16), C52(H52), C49(H49), C17(H17),
 C20(H20), C46(H46), C48(H48), C60(H60), C19(H19), C51(H51), C27(H27), C10(H10),
  C63(H63), C59(H59), C28(H28), C42(H42), C62(H62), C13(H13), C14(H14),
 C31(H31), C12(H12), C45(H45), C44(H44), C30(H30)
3.d Idealised Me refined as rotating group:
 C24(H24A,H24B,H24C), C5(H5A,H5B,H5C), C37(H37A,H37B,H37C), C56(H56A,H56B,
 H56C), C25(H25A,H25B,H25C), C57(H57A,H57B,H57C), C64(H64A,H64B,H64C), C32(H32A,
 H32B,H32C), C1(H1A,H1B,H1C), C2AA(H2AA,H2AB,H2AC), C4(H4A,H4B,H4C)
;
_shelx_res_file
;
    scan_0m_p1_a.res created by SHELXL-2014/7

TITL scan_0m_P1_a.res in P1
REM Old TITL scan_0m_P1 in P1
CELL 1.54178 9.9554 13.0776 14.9103 75.045 78.893 69.659
ZERR 2 0.0003 0.0004 0.0004 0.001 0.001 0.001
LATT -1
SFAC C H N O S Cl Br
UNIT 64 74 6 12 4 2 2

L.S. 10
PLAN  20
TEMP -173.15
BOND $H
MORE -1
CONF
fmap 2
acta
REM <olex2.extras>
REM <HklSrc "%.\\scan_0m_P1_a.hkl">
REM </olex2.extras>

WGHT    0.064605    0.668184
EXTI    0.005437
FVAR       0.65370   0.29575
BR2   7    0.262357   -0.097924    0.892309    11.00000    0.15765    0.02306 =
         0.05692    0.00708   -0.02149   -0.02394
BR1   7    0.059174    1.097919    0.097828    11.00000    0.10285    0.04098 =
         0.09248    0.00809   -0.03006    0.02337
S4    5    0.802260    0.443915    0.647167    11.00000    0.01317    0.01958 =
         0.01192   -0.00319   -0.00340   -0.00619
S2    5    1.043658    0.590355    0.333491    11.00000    0.01415    0.02562 =
         0.01706   -0.00941    0.00096   -0.00987
S1    5    0.489801    0.704616    0.203520    11.00000    0.02381    0.02101 =
         0.02142   -0.00305    0.00203   -0.01054
S3    5    0.285852    0.329025    0.777214    11.00000    0.02195    0.02245 =
         0.03122   -0.00475   -0.01210   -0.00256
CL2   6   -0.160772    0.996641    0.513953    11.00000    0.03620    0.02518 =
         0.03186   -0.00109   -0.00439    0.00464
CL1   6    0.458277    0.052439    0.485592    11.00000    0.05130    0.02953 =
         0.04596    0.01020   -0.00423   -0.02281
O7    4    0.903170    0.441251    0.564503    11.00000    0.01741    0.03013 =
         0.01917   -0.00746   -0.00156   -0.01065
O8    4    0.848305    0.447021    0.731693    11.00000    0.01505    0.02649 =
         0.01806   -0.00537   -0.00835   -0.00756
O3    4    0.720999    0.467712    0.398525    11.00000    0.01583    0.03179 =
         0.01304   -0.00171   -0.00368   -0.00961
O2    4    1.134322    0.587330    0.245913    11.00000    0.02029    0.02897 =
         0.02345   -0.01040    0.00426   -0.01238
O1    4    1.100460    0.595782    0.412891    11.00000    0.02102    0.03503 =
         0.02847   -0.01749   -0.00464   -0.01280
O9    4    0.400401    0.576676    0.591850    11.00000    0.01744    0.03337 =
         0.01564   -0.00057   -0.00491   -0.01142
O10   4    0.150792    0.546245    0.904566    11.00000    0.02083    0.03902 =
         0.01432   -0.00504   -0.00463   -0.01579
O4    4    0.633337    0.472667    0.090090    11.00000    0.01336    0.03054 =
         0.01584   -0.00559   -0.00155   -0.00873
O5    4    0.490798    0.456486   -0.085160    11.00000    0.02210    0.05470 =
         0.01371   -0.00894   -0.00189   -0.00787
N5    3    0.314137    0.559842    0.746405    11.00000    0.01432    0.02449 =
         0.01353   -0.00251   -0.00251   -0.00932
AFIX  43
H5    2    0.334736    0.555109    0.802439    11.00000   -1.20000
AFIX   0

N2    3    0.714044    0.470260    0.246254    11.00000    0.01258    0.02243 =
         0.01396   -0.00193   -0.00226   -0.00723
AFIX  43
H2    2    0.764077    0.470497    0.190729    11.00000   -1.20000
AFIX   0

O12   4   -0.164777    0.679105    0.958875    11.00000    0.05607    0.03248 =
         0.03346   -0.01673    0.01013   -0.01763
O11   4   -0.089770    0.545658    1.083301    11.00000    0.04326    0.07789 =
         0.01458   -0.01188    0.00340   -0.04312
N6    3   -0.031148    0.523827    0.850237    11.00000    0.01523    0.02670 =
         0.01068   -0.00447   -0.00178   -0.00976
AFIX  43
H6    2   -0.071372    0.530522    0.800505    11.00000   -1.20000
AFIX   0

N3    3    0.399118    0.495498    0.144287    11.00000    0.01330    0.02559 =
         0.01102   -0.00428   -0.00296   -0.00561
AFIX  43
H3    2    0.337453    0.488001    0.194528    11.00000   -1.20000
AFIX   0
O6    4    0.456281    0.332341    0.044474    11.00000    0.04717    0.02237 =
         0.03226   -0.00840   -0.00677   -0.00818
N1    3    0.996641    0.479020    0.362990    11.00000    0.01287    0.02152 =
         0.01165   -0.00361   -0.00303   -0.00693
H1    2    0.944848    0.468077    0.427082    11.00000   -1.20000

N4    3    0.666689    0.555914    0.623508    11.00000    0.01453    0.02129 =
         0.01233    0.00170   -0.00393   -0.00606
H4    2    0.639273    0.559548    0.573451    11.00000   -1.20000
C6    1    0.535770    0.481922    0.153902    11.00000    0.01760    0.01643 =
         0.01205   -0.00002   -0.00554   -0.00553
C53   1    0.413822    0.570879    0.674006    11.00000    0.01174    0.01843 =
         0.01585   -0.00097   -0.00308   -0.00567
C16   1    0.629084    0.268332    0.302342    11.00000    0.02154    0.02378 =
         0.01557   -0.00281   -0.00557   -0.00672
AFIX  43
H16   2    0.707877    0.265578    0.254558    11.00000   -1.20000
AFIX   0
C1AA  1    0.537978    0.371524    0.318856    11.00000    0.01693    0.02623 =
         0.01406   -0.00090   -0.00703   -0.01070

C47   1    0.084408    0.664924    0.680313    11.00000    0.01212    0.02338 =
         0.01641   -0.00743    0.00260   -0.00874
C0AA  1    0.350621    0.522364    0.052545    11.00000    0.01868    0.02791 =
         0.01196   -0.00356   -0.00756   -0.00975
AFIX  13
H0AA  2    0.250370    0.517946    0.062510    11.00000   -1.20000
AFIX   0

C35   1   -0.115141    0.574247    1.003216    11.00000    0.02222    0.04314 =
         0.01746   -0.01139    0.00685   -0.02172
C21   1    0.781454    0.463411    0.319313    11.00000    0.01452    0.01608 =
         0.01539    0.00011   -0.00584   -0.00615
C38   1    0.096131    0.541045    0.840083    11.00000    0.01848    0.01905 =
         0.01606   -0.00133   -0.00167   -0.00774
C52   1    0.060914    0.763314    0.709292    11.00000    0.02981    0.02754 =
         0.02698   -0.01335   -0.01258   -0.00457
AFIX  43
H52   2    0.098496    0.760460    0.764136    11.00000   -1.20000
AFIX   0
C49   1   -0.049396    0.771315    0.550781    11.00000    0.03108    0.02710 =
         0.01552   -0.00357   -0.00624   -0.00998
AFIX  43
H49   2   -0.087488    0.774430    0.496060    11.00000   -1.20000
AFIX   0

C17   1    0.607657    0.169409    0.353944    11.00000    0.03203    0.02112 =
         0.02736   -0.00118   -0.00985   -0.00772
AFIX  43
H17   2    0.671763    0.099485    0.342853    11.00000   -1.20000
AFIX   0
C7    1    0.563474    0.477234    0.254815    11.00000    0.01258    0.02089 =
         0.01249   -0.00244   -0.00429   -0.00754
C24   1    1.177893    0.301704    0.248000    11.00000    0.02091    0.02792 =
         0.03662   -0.01287   -0.00480   -0.00271
AFIX 137
H24A  2    1.177781    0.345382    0.183798    11.00000   -1.50000
H24B  2    1.225624    0.222506    0.247252    11.00000   -1.50000
H24C  2    1.229834    0.326154    0.283633    11.00000   -1.50000
AFIX   0
C20   1    0.423357    0.374130    0.388990    11.00000    0.01884    0.02461 =
         0.02041   -0.00104   -0.00410   -0.00655
AFIX  43
H20   2    0.360610    0.443597    0.401957    11.00000   -1.20000
AFIX   0

C46   1    0.172071    0.235220    0.673895    11.00000    0.03238    0.02053 =
         0.02709   -0.00818   -0.00686    0.00073
AFIX  43
H46   2    0.154781    0.302850    0.628332    11.00000   -1.20000
AFIX   0
C48   1    0.026764    0.669822    0.601364    11.00000    0.02868    0.02528 =
         0.01459   -0.00571   -0.00286   -0.01263
AFIX  43
H48   2    0.039617    0.603063    0.581840    11.00000   -1.20000
AFIX   0
C54   1    0.549174    0.581653    0.699760    11.00000    0.01302    0.01881 =
         0.01498   -0.00091   -0.00095   -0.00650
AFIX  13
H54   2    0.577398    0.526379    0.758707    11.00000   -1.20000
AFIX   0
C39   1    0.171914    0.555128    0.738013    11.00000    0.01100    0.02306 =
         0.01650   -0.00268   -0.00214   -0.00833

C22   1    0.944032    0.443296    0.295116    11.00000    0.01699    0.02037 =
         0.01424   -0.00375   -0.00440   -0.00806
AFIX  13
H22   2    0.961900    0.488768    0.231606    11.00000   -1.20000
AFIX   0

C36   1   -0.103977    0.493958    0.943363    11.00000    0.01614    0.02381 =
         0.01639   -0.00351    0.00042   -0.00977
AFIX  13
H36   2   -0.204319    0.500118    0.935786    11.00000   -1.20000
AFIX   0
C60   1    0.629865    0.215675    0.627375    11.00000    0.02975    0.03294 =
         0.03521   -0.01809   -0.00221   -0.01379
AFIX  43
H60   2    0.580674    0.204851    0.583703    11.00000   -1.20000
AFIX   0

C19   1    0.400009    0.275453    0.440348    11.00000    0.02665    0.03531 =
         0.02410    0.01021   -0.00499   -0.01806
AFIX  43
H19   2    0.321308    0.277593    0.488146    11.00000   -1.20000
AFIX   0

C51   1   -0.015833    0.864666    0.659850    11.00000    0.03093    0.02352 =
         0.03791   -0.01165   -0.00903   -0.00324
AFIX  43
H51   2   -0.031502    0.931415    0.680220    11.00000   -1.20000
AFIX   0
C50   1   -0.069908    0.867841    0.579881    11.00000    0.01935    0.02477 =
         0.01815   -0.00111    0.00009   -0.00324

C3    1    0.443685    0.435742   -0.004964    11.00000    0.01654    0.03222 =
         0.01744   -0.00576   -0.00598   -0.00801
C61   1    0.656752    0.136813    0.709183    11.00000    0.03334    0.02880 =
         0.03335   -0.01666    0.01376   -0.01621
C27   1    0.763516    0.718007    0.369473    11.00000    0.01952    0.02702 =
         0.02525   -0.00387   -0.00221   -0.00519
AFIX  43
H27   2    0.757398    0.660801    0.422850    11.00000   -1.20000
AFIX   0
C10   1    0.267577    0.893762    0.166941    11.00000    0.04158    0.02627 =
         0.04272   -0.00569   -0.00230   -0.01138
AFIX  43
H10   2    0.304619    0.894821    0.103149    11.00000   -1.20000
AFIX   0
C5    1    0.343628    0.638830    0.000622    11.00000    0.03935    0.02233 =
         0.03042    0.00161   -0.02182   -0.00818
AFIX 137
H5A   2    0.279294    0.692358    0.037859    11.00000   -1.50000
H5B   2    0.306651    0.653714   -0.059359    11.00000   -1.50000
H5C   2    0.440382    0.646299   -0.010465    11.00000   -1.50000
AFIX   0

C41   1    0.228640    0.225564    0.754779    11.00000    0.01754    0.02149 =
         0.02685   -0.00868    0.00186    0.00190
C58   1    0.743335    0.326176    0.671987    11.00000    0.02299    0.01799 =
         0.01592   -0.00531   -0.00233   -0.00862
C63   1    0.770724    0.249512    0.754658    11.00000    0.05651    0.03004 =
         0.01764   -0.00381   -0.00876   -0.01945
AFIX  43
H63   2    0.818447    0.260821    0.798892    11.00000   -1.20000
AFIX   0

C23   1    1.022558    0.318974    0.293739    11.00000    0.01917    0.02272 =
         0.02764   -0.00799   -0.00847   -0.00816
AFIX  13
H23   2    0.971548    0.296488    0.254224    11.00000   -1.20000
AFIX   0

C37   1   -0.030749    0.374215    0.989686    11.00000    0.02679    0.02971 =
         0.03433    0.00405    0.00298   -0.00561
AFIX 137
H37A  2   -0.023915    0.324600    0.948552    11.00000   -1.50000
H37B  2   -0.087289    0.354239    1.049093    11.00000   -1.50000
H37C  2    0.066248    0.366477    1.001326    11.00000   -1.50000
AFIX   0
C59   1    0.672603    0.310256    0.607110    11.00000    0.02487    0.02756 =
         0.02368   -0.00797   -0.00506   -0.00958
AFIX  43
H59   2    0.654019    0.363128    0.550133    11.00000   -1.20000
AFIX   0

C28   1    0.644922    0.812025    0.349644    11.00000    0.02751    0.03254 =
         0.03962   -0.01435   -0.00784   -0.00647
AFIX  43
H28   2    0.557495    0.818566    0.390187    11.00000   -1.20000
AFIX   0

C55   1    0.517752    0.700617    0.715694    11.00000    0.02141    0.01670 =
         0.02661   -0.00180   -0.00303   -0.00637
AFIX  13
H55   2    0.430746    0.715483    0.762778    11.00000   -1.20000
AFIX   0

C18   1    0.490708    0.175130    0.421895    11.00000    0.02935    0.02579 =
         0.02809    0.00835   -0.01417   -0.01842
C42   1    0.249987    0.127280    0.821980    11.00000    0.05072    0.02755 =
         0.03171   -0.00807   -0.01249   -0.00427
AFIX  43
H42   2    0.282780    0.121108    0.879501    11.00000   -1.20000
AFIX   0
C40   1    0.189854    0.452978    0.698580    11.00000    0.01565    0.01869 =
         0.01936   -0.00370   -0.00321   -0.00439
AFIX  23
H40A  2    0.244755    0.458563    0.635616    11.00000   -1.20000
H40B  2    0.094140    0.449238    0.693267    11.00000   -1.20000
AFIX   0
C62   1    0.726936    0.154663    0.772262    11.00000    0.06592    0.02431 =
         0.02281   -0.00116   -0.00161   -0.02171
AFIX  43
H62   2    0.745967    0.101324    0.828955    11.00000   -1.20000
AFIX   0

C11   1    0.147659    0.978420    0.192849    11.00000    0.04861    0.01783 =
         0.05842    0.00233   -0.00562   -0.00374
C9    1    0.331636    0.807523    0.237201    11.00000    0.02411    0.02186 =
         0.03182   -0.00399    0.00099   -0.01080
C56   1    0.482546    0.789971    0.626707    11.00000    0.04060    0.01578 =
         0.04802    0.00650   -0.00974   -0.00992
AFIX 137
H56A  2    0.569646    0.783859    0.581925    11.00000   -1.50000
H56B  2    0.447516    0.863973    0.642130    11.00000   -1.50000
H56C  2    0.407935    0.779289    0.599093    11.00000   -1.50000
AFIX   0

C25   1    1.016544    0.244655    0.390925    11.00000    0.04100    0.02338 =
         0.03558   -0.00032   -0.00658   -0.00855
AFIX 137
H25A  2    1.065782    0.166576    0.386672    11.00000   -1.50000
H25B  2    0.915699    0.254116    0.416694    11.00000   -1.50000
H25C  2    1.064286    0.265539    0.431830    11.00000   -1.50000
AFIX   0
C13   1    0.155396    0.894580    0.352679    11.00000    0.04498    0.03080 =
         0.05790   -0.01198    0.01796   -0.01140
AFIX  43
H13   2    0.117774    0.894264    0.416306    11.00000   -1.20000
AFIX   0
C14   1    0.275649    0.807824    0.329547    11.00000    0.03661    0.02870 =
         0.03381   -0.00778    0.00725   -0.00975
AFIX  43
H14   2    0.319513    0.748470    0.377494    11.00000   -1.20000
AFIX   0
C31   1    0.901053    0.793397    0.234722    11.00000    0.04320    0.03253 =
         0.03387   -0.00457    0.00562   -0.00759
AFIX  43
H31   2    0.989494    0.787647    0.195397    11.00000   -1.20000
AFIX   0
C26   1    0.890336    0.709011    0.310430    11.00000    0.02411    0.02244 =
         0.01786   -0.01092   -0.00220   -0.00644

C57   1    0.641221    0.708849    0.756294    11.00000    0.02774    0.02542 =
         0.03867   -0.01148   -0.00220   -0.01150
AFIX 137
H57A  2    0.658819    0.653166    0.814618    11.00000   -1.50000
H57B  2    0.616248    0.783571    0.768942    11.00000   -1.50000
H57C  2    0.728358    0.695130    0.711550    11.00000   -1.50000
AFIX   0

C12   1    0.090434    0.981291    0.283345    11.00000    0.04291    0.02143 =
         0.07927   -0.01056    0.00542   -0.00444
AFIX  43
H12   2    0.008461    1.041016    0.298313    11.00000   -1.20000
AFIX   0
C29   1    0.651151    0.896628    0.271996    11.00000    0.04279    0.02614 =
         0.03906   -0.01249   -0.02079   -0.00343

C45   1    0.140774    0.144984    0.659942    11.00000    0.04523    0.03091 =
         0.04176   -0.01481   -0.01213   -0.00718
AFIX  43
H45   2    0.101461    0.151965    0.604624    11.00000   -1.20000
AFIX   0

C8    1    0.465860    0.583462    0.288724    11.00000    0.01752    0.02048 =
         0.01478   -0.00126   -0.00345   -0.01059
AFIX  23
H8A   2    0.491070    0.583326    0.349832    11.00000   -1.20000
H8B   2    0.363816    0.585872    0.296793    11.00000   -1.20000
AFIX   0

C64   1    0.608618    0.035375    0.728958    11.00000    0.04991    0.03288 =
         0.04915   -0.01900    0.01897   -0.02557
AFIX 137
H64A  2    0.544092    0.044614    0.683404    11.00000   -1.50000
H64B  2    0.557408    0.026066    0.792110    11.00000   -1.50000
H64C  2    0.692989   -0.030653    0.724246    11.00000   -1.50000
AFIX   0
C44   1    0.165313    0.047164    0.723826    11.00000    0.04875    0.02510 =
         0.06398   -0.01376   -0.00937   -0.01263
AFIX  43
H44   2    0.143745   -0.014189    0.714118    11.00000   -1.20000
AFIX   0

C30   1    0.781537    0.886994    0.216304    11.00000    0.05964    0.02379 =
         0.03262   -0.00130    0.00110   -0.01059
AFIX  43
H30   2    0.789447    0.945528    0.164476    11.00000   -1.20000
AFIX   0

C43   1    0.222947    0.039987    0.803711    11.00000    0.06977    0.01910 =
         0.04163    0.00234   -0.00445   -0.00787
C2    1    0.540403    0.240253   -0.000515    11.00000    0.06385    0.03148 =
         0.06230   -0.02259   -0.01854   -0.00600
AFIX  23
H2A   2    0.533921    0.263509   -0.068622    11.00000   -1.20000
H2B   2    0.501476    0.177027    0.024182    11.00000   -1.20000
AFIX   0
C32   1    0.518191    0.995232    0.247780    11.00000    0.05222    0.02609 =
         0.06110   -0.00962   -0.03064   -0.00069
AFIX 137
H32A  2    0.472192    0.981481    0.201535    11.00000   -1.50000
H32B  2    0.546232    1.062740    0.221851    11.00000   -1.50000
H32C  2    0.450278    1.005159    0.304314    11.00000   -1.50000
AFIX   0

C34   1   -0.181118    0.764559    1.009544    11.00000    0.13271    0.06648 =
         0.07360   -0.05458    0.05965   -0.06434
PART 2
AFIX  23
H34A  2   -0.245275    0.753711    1.068359   -21.00000   -1.20000
H34B  2   -0.085851    0.756683    1.026090   -21.00000   -1.20000
AFIX  23
PART 0
PART 3
H34C  2   -0.280784    0.816747    1.008640    21.00000   -1.20000
H34D  2   -0.165209    0.729279    1.075500    21.00000   -1.20000
AFIX   0

PART 0
C1    1    0.690991    0.205258    0.016969    11.00000    0.07153    0.06599 =
         0.06073   -0.02450   -0.01987   -0.00228
AFIX 137
H1A   2    0.734497    0.262789   -0.017699    11.00000   -1.50000
H1B   2    0.743734    0.135094   -0.003633    11.00000   -1.50000
H1C   2    0.695697    0.194431    0.083961    11.00000   -1.50000
AFIX   0

PART 2
C2AA  1   -0.235602    0.866416    0.959993   -21.00000    0.30068    0.03637 =
         0.05570   -0.02018   -0.00808   -0.02579
AFIX 137
H2AA  2   -0.220091    0.864182    0.893502   -21.00000   -1.50000
H2AB  2   -0.187756    0.915797    0.970267   -21.00000   -1.50000
H2AC  2   -0.339223    0.894542    0.979592   -21.00000   -1.50000
AFIX   0
PART 0
PART 3
C4    1   -0.086495    0.822383    0.971614    21.00000    0.06714    0.03150 =
         0.04620   -0.02349   -0.00209   -0.02530
AFIX 137
H4A   2    0.012178    0.772361    0.978366    21.00000   -1.50000
H4B   2   -0.105949    0.883335    1.003950    21.00000   -1.50000
H4C   2   -0.097505    0.853135    0.905185    21.00000   -1.50000
AFIX   0
HKLF 4

REM  scan_0m_P1_a.res in P1
REM R1 =  0.0404 for    8714 Fo > 4sig(Fo)  and  0.0409 for all    8863 data
REM    839 parameters refined using      3 restraints

END

WGHT      0.0614      0.6809

REM Highest difference peak  1.286,  deepest hole -0.840,  1-sigma level  0.080
Q1    1   0.1581 -0.0721  0.9281  11.00000  0.05    1.29
Q2    1   0.0013  1.0795  0.0653  11.00000  0.05    1.01
Q3    1   0.0215  1.0864  0.1687  11.00000  0.05    0.49
Q4    1   0.1934  1.0794  0.0586  11.00000  0.05    0.39
Q5    1   0.0853  0.1034  0.6064  11.00000  0.05    0.39
Q6    1   0.4425  0.1748  0.0194  11.00000  0.05    0.34
Q7    1   1.1278  0.5796  0.2790  11.00000  0.05    0.33
Q8    1   0.2019 -0.0968  0.8410  11.00000  0.05    0.31
Q9    1   0.4715  0.0637  0.5317  11.00000  0.05    0.31
Q10   1   0.3108  0.2624  0.7626  11.00000  0.05    0.30
Q11   1   0.3902  0.1993  0.6425  11.00000  0.05    0.29
Q12   1   0.5064  0.7147  0.1344  11.00000  0.05    0.28
Q13   1   0.0528  0.8789  0.8697  11.00000  0.05    0.28
Q14   1   0.1767  0.8999  0.1451  11.00000  0.05    0.27
Q15   1   0.9018  0.4239  0.6065  11.00000  0.05    0.26
Q16   1  -0.0759  0.8146  0.5774  11.00000  0.05    0.25
Q17   1   0.5025  0.8183  0.3957  11.00000  0.05    0.25
Q18   1   0.4915  0.5239 -0.0874  11.00000  0.05    0.25
Q19   1   1.4332  0.2281  0.2726  11.00000  0.05    0.25
Q20   1   0.5963  0.2786 -0.0439  11.00000  0.05    0.25
;
_shelx_res_checksum              47837
_shelx_hkl_file
;
  -1   0   0  315.23   14.53
  -1   0   0  299.26   14.68
   1   0   0  271.56   13.96
  -2   0   0  435.51   22.09
  -2   0   0  414.80   22.34
   2   0   0  457.47   21.20
  -3   0   0  363.52   19.98
  -3   0   0  352.66   20.48
   3   0   0  359.54   18.48
  -4   0   0  184.14   13.33
  -4   0   0  196.41   14.30
  -5   0   0  950.33   50.48
  -5   0   0  909.18   48.85
   6   0   0  175.69   15.76
  -7   0   0   59.78    5.57
  -7   0   0   75.11    6.56
  -7   0   0   66.86    5.23
   7   0   0   68.43   10.39
  -8   0   0  211.75   13.53
  -8   0   0  205.73   12.57
  -8   0   0  200.28   11.67
  -9   0   0   91.19    7.18
  -9   0   0   99.76    6.70
  -9   0   0  103.51    8.36
 -10   0   0    3.35    1.24
 -10   0   0    4.24    1.66
  11   0   0   10.09    1.53
  10  -1   0   44.15    3.64
 -10   1   0   37.94    5.14
 -10   1   0   42.52    3.60
  -9   1   0   39.66    3.68
  -9   1   0   36.28    4.04
  -9   1   0   43.14    6.18
  -8   1   0   50.58    6.95
  -8   1   0   49.24    4.36
  -8   1   0   46.37    4.89
  -7   1   0   82.22    5.69
  -7   1   0   78.83    6.28
  -7   1   0   69.64    7.11
   6  -1   0    4.72    3.20
  -6   1   0    1.48    1.17
   5  -1   0   47.63    6.97
  -5   1   0   60.22    8.26
   4  -1   0   17.92    2.99
  -4   1   0   15.76    4.46
   3  -1   0  429.88   21.79
  -3   1   0  439.54   24.32
  -3   1   0  412.24   23.57
   2  -1   0 1277.97   59.37
  -2   1   0 1259.87   60.57
  -2   1   0 1333.44   61.46
   1  -1   0 1586.69   73.95
  -1   1   0 1619.08   74.45
  -1   1   0 1690.56   75.19
   0  -1   0 1986.89   85.54
   0  -1   0 1746.64   84.39
   0   1   0 1887.90   84.40
  -1  -1   0  292.56   13.75
  -1  -1   0  277.94   13.90
  -1  -1   0  251.90   13.26
  -2  -1   0 2058.99   91.36
   2   1   0 1956.58   91.30
  -3  -1   0  185.27   11.52
  -3  -1   0  185.39   12.75
   3   1   0  203.77   11.20
  -4  -1   0  885.73   44.14
  -4  -1   0  867.62   46.07
   4   1   0  901.61   43.20
  -5  -1   0 1731.07   83.72
  -5  -1   0 1783.40   86.90
   5   1   0 1702.59   82.01
  -6  -1   0   93.05   11.59
  -7  -1   0   74.19    5.58
  -7  -1   0   67.12    6.05
  -7  -1   0   69.36    6.10
   7   1   0   79.03   10.92
  -8  -1   0  300.41   16.98
  -8  -1   0  297.42   16.97
  -8  -1   0  291.34   15.92
  -9  -1   0    1.55    1.63
  -9  -1   0    1.65    1.32
 -10  -1   0   76.39    6.17
 -10  -1   0   75.75    5.35
 -11  -1   0   63.65    4.56
  11   1   0   61.35    4.11
  10  -2   0   46.29    3.38
 -10   2   0   30.59    4.75
   9  -2   0   34.91    3.58
  -9   2   0   32.43    5.61
  -8   2   0  182.82   13.93
  -8   2   0  187.68   11.28
  -8   2   0  205.56   10.99
  -7   2   0  306.76   15.65
  -7   2   0  302.40   18.57
  -7   2   0  286.83   16.09
   6  -2   0  271.12   20.55
  -6   2   0  269.54   14.02
  -6   2   0  256.72   14.47
  -6   2   0  286.33   16.62
  -6   2   0  264.01   26.27
   5  -2   0  230.53   17.65
  -5   2   0  275.67   21.48
   4  -2   0  418.92   23.00
   4  -2   0  414.56   24.82
  -4   2   0  461.64   28.29
   3  -2   0  696.24   36.67
   3  -2   0  720.64   35.61
  -3   2   0  767.70   39.85
   2  -2   0 3190.77  146.94
   2  -2   0 3283.70  146.58
   1  -2   0  922.77   48.52
   1  -2   0 1181.06   49.42
  -1   2   0 1069.41   50.73
   0  -2   0 1967.62   86.73
   0  -2   0 1902.44   86.85
   0   2   0 1858.84   87.02
  -1  -2   0  295.05   15.34
   1   2   0  321.52   14.97
  -2  -2   0 2591.55  129.22
  -2  -2   0 3029.98  130.44
  -2  -2   0 2992.28  131.10
  -3  -2   0 4558.52  206.59
  -3  -2   0 4613.88  209.24
   3   2   0 4596.27  207.45
  -4  -2   0 1541.16   72.15
  -4  -2   0 1535.85   75.50
   4   2   0 1531.22   72.47
  -5  -2   0  136.64   10.59
  -5  -2   0  137.96   13.08
   5   2   0  150.38   10.87
  -6  -2   0  417.79   29.03
  -7  -2   0  260.81   15.19
  -7  -2   0  259.60   14.35
  -7  -2   0  277.91   23.70
  -8  -2   0   30.30    4.64
  -8  -2   0   24.18    3.58
  -9  -2   0    9.72    2.94
  -9  -2   0   12.39    2.52
 -10  -2   0   14.35    2.53
 -10  -2   0   15.81    3.36
 -11  -2   0  184.62    9.83
 -11  -2   0  188.51   10.61
  10  -3   0   27.43    2.36
   9  -3   0   22.18    2.77
  -9   3   0   14.00    3.88
   8  -3   0   74.11    5.42
  -8   3   0   64.95    8.95
  -7   3   0  295.20   15.48
  -7   3   0  304.32   19.19
  -6   3   0   28.74    5.15
  -6   3   0   30.01   10.24
  -6   3   0   29.87    3.05
   5  -3   0  233.61   20.19
  -5   3   0  293.36   24.59
   4  -3   0   97.02    8.94
  -4   3   0  100.25   12.25
   3  -3   0  863.45   43.04
   3  -3   0  890.18   43.55
  -3   3   0  873.80   48.33
   2  -3   0 1161.05   61.65
   2  -3   0 1383.91   62.76
  -2   3   0 1441.30   66.51
   1  -3   0 2926.99  132.53
   1  -3   0 2955.65  134.10
  -1   3   0 2951.58  136.07
   0  -3   0 1177.15   53.77
   0   3   0 1192.89   56.10
  -1  -3   0 1711.36   77.39
  -1  -3   0 1716.16   78.66
   1   3   0 1660.31   77.43
  -2  -3   0 2299.24  101.65
  -2  -3   0 2205.06  101.72
   2   3   0 2108.61   99.74
  -3  -3   0 1470.70   66.40
  -3  -3   0 1473.91   69.44
   3   3   0 1369.96   68.08
  -4  -3   0 1046.87   47.17
  -4  -3   0 1062.44   51.50
   4   3   0  842.47   48.10
  -5  -3   0  398.23   25.72
   5   3   0  363.21   21.98
  -6  -3   0  150.33   15.31
  -7  -3   0   92.12    6.59
  -7  -3   0   90.60    7.26
  -7  -3   0   98.67   13.29
  -8  -3   0  218.23   13.54
  -8  -3   0  216.67   12.57
  -9  -3   0   51.21    5.76
  -9  -3   0   55.61    5.00
 -10  -3   0    4.81    2.33
 -10  -3   0    8.09    2.02
 -11  -3   0  170.46    9.40
 -11  -3   0  171.64   10.31
   9  -4   0   23.82    2.54
  -9   4   0   15.54    3.90
   8  -4   0  150.49    8.37
  -8   4   0  120.89   11.02
   7  -4   0  137.39    8.21
  -7   4   0  133.52   11.40
   6  -4   0  298.44   14.97
  -6   4   0  273.05   18.10
  -5   4   0  205.67   13.36
  -5   4   0  188.25   21.59
  -4   4   0  148.36   16.76
   3  -4   0 1030.86   50.04
   3  -4   0 1044.42   51.00
  -3   4   0 1000.91   57.13
   2  -4   0 1326.86   63.07
   2  -4   0 1328.87   61.08
  -2   4   0 1270.85   66.80
   1  -4   0 3085.89  134.80
   1  -4   0 2877.87  132.02
  -1   4   0 2821.93  136.79
   0  -4   0  408.70   18.44
   0  -4   0  388.31   20.87
   0   4   0  339.61   21.09
  -1  -4   0 4721.11  189.54
  -1  -4   0 3501.68  186.46
   1   4   0 4238.27  188.01
  -2  -4   0  269.49   16.18
  -2  -4   0  270.46   15.40
   2   4   0  260.82   14.33
  -3  -4   0 2087.67   95.88
   3   4   0 1988.76   92.94
  -4  -4   0  847.94   46.17
   4   4   0  902.40   45.04
  -5  -4   0  438.68   28.69
   5   4   0  455.11   26.06
  -6  -4   0  171.31   16.98
   6   4   0  195.11   14.48
  -7  -4   0  449.66   23.26
  -7  -4   0  456.54   33.38
  -7  -4   0  429.74   22.55
  -8  -4   0  316.16   17.28
  -8  -4   0  325.50   18.23
  -9  -4   0    0.71    1.42
  -9  -4   0    2.65    2.03
 -10  -4   0  159.35    9.64
 -10  -4   0  151.43   10.52
 -11  -4   0   16.02    3.07
 -11  -4   0   13.18    2.28
   9  -5   0   50.63    3.33
  -9   5   0   48.72    5.02
   8  -5   0  114.04    6.75
  -8   5   0  111.35    9.42
   7  -5   0   34.63    3.52
  -7   5   0   37.58    6.11
   6  -5   0   29.15    3.32
  -6   5   0   37.90    6.52
   5  -5   0  384.66   19.87
  -5   5   0  436.18   23.51
   4  -5   0  470.36   21.84
  -4   5   0  455.36   24.31
  -4   5   0  425.44   34.44
   3  -5   0  395.90   25.29
  -3   5   0  331.20   27.33
   2  -5   0   45.15    5.76
  -2   5   0   28.60    6.25
   1  -5   0  764.29   41.70
  -1   5   0  877.57   45.15
   0  -5   0 1418.68   68.67
   0  -5   0 1415.18   64.93
   0   5   0 1424.70   69.58
  -1  -5   0  653.14   34.36
  -1  -5   0  688.09   37.20
   1   5   0  818.69   37.35
  -2  -5   0  732.24   38.18
  -2  -5   0  804.21   40.33
   2   5   0  783.67   38.12
  -3  -5   0  339.48   20.59
  -3  -5   0  315.37   19.67
   3   5   0  324.82   17.56
  -4  -5   0 1159.80   59.27
   4   5   0 1151.23   58.53
  -5  -5   0  241.58   19.52
   5   5   0  280.40   18.76
  -6  -5   0   38.17    7.87
   6   5   0   48.97    6.99
  -7  -5   0   85.92    6.64
  -7  -5   0   87.68    6.80
  -7  -5   0   88.02   12.97
  -8  -5   0   66.75    5.96
  -8  -5   0   83.10    6.82
  -9  -5   0   56.04    5.32
  -9  -5   0   49.41    5.52
 -10  -5   0  296.86   16.25
 -10  -5   0  301.11   17.01
 -11  -5   0   47.74    4.77
 -11  -5   0   45.69    4.08
   8  -6   0  192.72    9.97
  -8   6   0  199.91   12.52
   7  -6   0  110.16    6.76
  -7   6   0  120.92    9.76
   6  -6   0   70.28    4.96
  -6   6   0   59.70    7.18
   5  -6   0  103.46    6.54
  -5   6   0  107.98    9.34
   4  -6   0  375.64   18.41
  -4   6   0  389.99   21.30
  -4   6   0  351.52   34.33
  -3   6   0  225.73   22.21
   2  -6   0  255.23   17.84
  -2   6   0  273.71   22.19
   1  -6   0   28.81    5.08
  -1   6   0   18.62    5.72
   0  -6   0  338.01   21.48
   0   6   0  338.90   22.33
  -1  -6   0 3297.43  152.26
   1   6   0 3221.95  151.72
  -2  -6   0   14.12    3.23
  -2  -6   0   11.93    3.95
   2   6   0   14.08    3.57
  -3  -6   0  896.39   47.77
  -3  -6   0  859.36   45.79
   3   6   0  945.07   44.61
  -4  -6   0  319.29   21.28
  -5  -6   0  250.08   19.54
   5   6   0  246.61   18.76
  -6  -6   0  454.95   31.36
   6   6   0  431.09   28.17
  -7  -6   0   29.94    4.08
  -7  -6   0   28.32    4.19
  -7  -6   0   25.29    8.49
  -8  -6   0  103.40    7.73
  -8  -6   0  102.66    7.81
  -9  -6   0   24.23    4.07
  -9  -6   0   28.26    4.40
 -10  -6   0   79.43    6.40
 -10  -6   0   78.97    6.52
 -11  -6   0   52.48    4.62
 -11  -6   0   46.96    4.35
  -8   7   0   23.24    3.40
   7  -7   0   79.50    4.87
  -7   7   0   77.57    7.06
   6  -7   0    1.60    1.09
  -6   7   0    0.02    1.84
   5  -7   0    7.05    1.68
  -5   7   0   15.46    4.15
   4  -7   0  350.20   17.69
  -4   7   0  368.66   20.79
   3  -7   0  857.00   39.37
  -3   7   0  843.68   41.96
  -3   7   0  843.12   55.18
   2  -7   0  263.25   19.69
  -2   7   0  270.96   23.86
   1  -7   0   21.88    5.81
  -1   7   0   30.49    7.01
   0  -7   0 1266.11   63.40
   0   7   0 1189.20   64.63
  -1  -7   0 1118.30   61.37
   1   7   0 1272.80   62.15
  -2  -7   0  622.94   35.15
   2   7   0  575.32   33.29
  -3  -7   0  248.18   18.98
   3   7   0  262.14   16.79
  -4  -7   0  489.89   30.68
  -5  -7   0  138.37   13.87
   5   7   0  139.95   13.85
  -6  -7   0  471.85   32.32
  -6  -7   0  488.98   24.53
  -6  -7   0  482.98   23.00
   6   7   0  426.59   30.40
  -7  -7   0  156.44   10.49
  -7  -7   0  150.96    8.96
  -8  -7   0   41.86    5.60
  -8  -7   0   37.38    4.34
  -9  -7   0  170.87   11.35
  -9  -7   0  177.36   10.79
 -10  -7   0   28.35    4.23
 -10  -7   0   33.14    4.06
 -11  -7   0  130.82    8.75
 -11  -7   0  163.72    8.69
   7  -8   0   85.46    4.94
  -7   8   0   90.40    6.73
   6  -8   0  188.89    9.77
  -6   8   0  184.91   12.18
   5  -8   0   69.08    4.60
  -5   8   0   63.76    6.87
   4  -8   0  302.39   16.44
  -4   8   0  387.40   20.26
   3  -8   0  133.60    7.57
  -3   8   0  135.14    9.91
   2  -8   0  541.12   26.14
  -2   8   0  569.21   28.54
   1  -8   0  528.81   25.90
   1  -8   0  571.59   34.47
   1  -8   0  543.00   26.40
   1  -8   0  522.43   27.26
  -1   8   0  585.70   38.19
   0  -8   0  688.73   40.08
   0   8   0  657.68   41.47
  -1  -8   0   94.85   10.86
   1   8   0   74.32    9.97
  -2  -8   0  305.22   22.63
   2   8   0  325.08   22.05
  -3  -8   0 1085.24   59.11
  -4  -8   0   96.24   11.50
  -4  -8   0  101.95    7.58
  -5  -8   0  198.70   12.62
  -5  -8   0  204.53   11.16
   5   8   0  191.88   17.88
  -6  -8   0   96.94    8.07
  -6  -8   0   97.91    6.68
   6   8   0   97.43   15.91
  -7  -8   0  249.73   13.55
  -7  -8   0  245.81   15.24
  -8  -8   0  142.64   10.38
  -9  -8   0   28.81    4.54
 -10  -8   0   20.10    3.58
 -11  -8   0   10.31    2.25
   6  -9   0   19.17    2.04
  -6   9   0   18.61    3.32
   5  -9   0  114.14    6.59
  -5   9   0  116.48    8.85
   4  -9   0   30.25    3.00
  -4   9   0   45.19    5.91
   3  -9   0   92.35    5.98
  -3   9   0  102.63    8.35
   2  -9   0  265.93   13.83
  -2   9   0  277.72   16.07
   1  -9   0  912.95   43.58
   1  -9   0  886.51   41.86
   1  -9   0  906.26   42.35
   0  -9   0 2344.43  104.74
   0  -9   0 2227.67  103.16
   0  -9   0 2270.55  113.69
   0  -9   0 2289.25  103.49
   0   9   0 2253.53  116.40
  -1  -9   0  574.98   27.68
  -1  -9   0  554.61   26.70
  -1  -9   0  516.54   34.76
  -1  -9   0  548.21   26.68
   1   9   0  545.32   36.10
  -2  -9   0  883.07   51.19
  -2  -9   0  882.70   42.35
  -2  -9   0  864.98   41.57
  -2  -9   0  897.63   42.16
  -3  -9   0  291.86   15.92
  -3  -9   0  296.97   16.56
  -3  -9   0  289.85   15.40
  -3  -9   0  289.58   23.20
  -4  -9   0  638.41   29.97
  -4  -9   0  600.09   38.88
  -4  -9   0  576.48   31.25
  -4  -9   0  639.60   30.41
  -5  -9   0  168.05    9.81
  -5  -9   0  168.89   10.10
  -5  -9   0  149.08   11.19
  -6  -9   0   36.51    5.61
  -6  -9   0   42.67    4.28
  -7  -9   0   37.45    4.37
  -7  -9   0   32.08    5.40
  -8  -9   0  547.23   30.02
  -8  -9   0  596.94   28.28
  -9  -9   0   19.07    3.86
 -10  -9   0    8.60    2.46
  -5  10   0  248.72   13.99
   4 -10   0   64.71    4.49
  -4  10   0   72.17    6.39
   3 -10   0   24.33    2.70
  -3  10   0   27.51    4.43
   2 -10   0  367.70   18.36
   1 -10   0  291.84   17.06
   1 -10   0  321.16   16.04
   1 -10   0  302.77   15.71
   0 -10   0  313.55   17.33
   0 -10   0  298.96   15.77
   0 -10   0  302.08   15.98
  -1 -10   0  135.64    8.48
  -1 -10   0  142.32    9.57
  -1 -10   0  132.35    8.44
  -2 -10   0  202.52   12.84
  -2 -10   0  224.37   12.58
  -2 -10   0  216.47   12.20
  -3 -10   0  350.43   18.66
  -3 -10   0  374.36   19.72
  -3 -10   0  357.76   19.40
  -4 -10   0  343.77   19.10
  -4 -10   0  345.77   18.44
  -4 -10   0  323.94   17.71
  -5 -10   0  229.72   13.04
  -5 -10   0  232.64   13.56
  -5 -10   0  234.83   14.70
  -6 -10   0  202.24   11.70
  -6 -10   0  190.92   13.16
  -7 -10   0   95.81    6.94
  -7 -10   0   99.58    8.53
  -8 -10   0  166.09   10.02
  -8 -10   0  166.65   11.49
  -9 -10   0   86.89    7.19
 -10 -10   0    5.94    2.00
   2 -11   0   35.86    4.59
   1 -11   0   51.31    4.27
   1 -11   0   45.06    5.12
   0 -11   0  271.34   14.77
   0 -11   0  283.84   15.04
   0 -11   0  282.36   16.27
  -1 -11   0   14.26    3.29
  -1 -11   0   14.01    2.71
  -1 -11   0   17.19    2.88
  -2 -11   0  640.28   32.48
  -2 -11   0  645.70   31.33
  -2 -11   0  631.13   31.49
  -3 -11   0   59.28    5.21
  -3 -11   0   60.99    5.93
  -3 -11   0   54.97    5.48
  -4 -11   0   17.56    3.64
  -4 -11   0   15.98    2.93
  -4 -11   0   14.11    3.25
  -5 -11   0   57.99    5.13
  -5 -11   0   61.64    5.76
  -5 -11   0   57.74    6.15
  -6 -11   0  228.95   14.36
  -6 -11   0  233.58   13.19
  -7 -11   0    3.28    1.59
  -7 -11   0    4.06    2.39
  -8 -11   0   38.88    4.29
  -8 -11   0   40.53    5.07
  -9 -11   0   35.34    4.24
   0 -12   0  134.97    9.41
   0 -12   0  130.30    8.12
  -1 -12   0  794.64   38.14
  -1 -12   0  801.90   39.59
  -2 -12   0  334.62   17.66
  -3 -12   0   10.54    2.49
  -3 -12   0    9.58    2.90
  -4 -12   0  202.64   12.39
  -4 -12   0  189.28   11.38
  -5 -12   0  188.93   11.10
  -5 -12   0  188.03   11.81
  -6 -12   0  154.02    9.39
  -7 -12   0  353.74   18.23
  -8 -12   0   29.82    3.42
  -1 -13   0  327.71   17.98
  -1 -13   0  320.88   16.67
  -2 -13   0  182.44   11.80
  -2 -13   0  185.85   10.65
  -3 -13   0   94.78    6.70
  -3 -13   0  100.14    7.71
  -4 -13   0   26.92    3.61
  -4 -13   0   26.42    4.10
  -5 -13   0  248.98   13.46
  -5 -13   0  243.73   14.15
  -6 -13   0   63.70    5.46
  -6 -13   0   62.90    4.91
  -7 -13   0  111.70    6.93
  -8 -13   0    7.66    1.69
   0  14   0   40.95    3.89
  -1 -14   0   14.42    2.18
   1  14   0   25.48    3.54
  -2 -14   0   75.44    6.22
  -2 -14   0   85.57    5.52
  -3 -14   0  233.09   13.33
  -3 -14   0  225.95   12.21
  -4 -14   0  354.49   17.85
  -4 -14   0  354.47   18.78
  -5 -14   0   55.32    5.05
  -5 -14   0   60.60    4.49
  -6 -14   0    6.05    1.60
  -7 -14   0   46.76    3.52
   3  15   0  251.83   13.44
  -4 -15   0   26.24    2.46
   4  15   0   25.51    3.22
  -6 -14   1   54.10    3.92
   5  14  -1   19.42    2.96
  -5 -14   1   14.71    2.26
  -4 -14   1   65.06    4.64
  -3 -14   1   40.85    3.58
   2  14  -1  220.69   12.00
  -2 -14   1  186.82   10.55
   1  14  -1  168.31    9.96
  -8 -13   1   89.35    5.41
  -7 -13   1  147.78    8.42
  -6 -13   1   15.79    2.53
  -5 -13   1   14.06    2.99
  -5 -13   1   14.66    2.48
  -4 -13   1   89.43    6.33
  -4 -13   1   89.97    7.17
  -3 -13   1  423.11   21.98
  -3 -13   1  399.97   20.65
  -2 -13   1   65.40    6.08
  -2 -13   1   64.14    5.12
  -1 -13   1   17.34    2.62
  -1 -13   1   22.17    3.69
   0  13  -1   66.85    5.67
  -1  13  -1   40.27    4.09
  -8 -12   1   14.31    2.39
  -8 -12   1   16.16    2.76
  -7 -12   1  124.54    8.41
  -7 -12   1  109.49    7.26
  -6 -12   1   53.51    4.62
  -6 -12   1   49.87    5.19
  -5 -12   1   32.08    4.04
  -5 -12   1   31.14    4.41
  -5 -12   1   31.60    4.59
  -4 -12   1   65.32    6.08
  -4 -12   1   63.37    5.27
  -4 -12   1   60.17    5.70
  -3 -12   1   74.80    6.22
  -3 -12   1   76.36    6.80
  -3 -12   1   79.13    5.93
  -2 -12   1    4.06    2.21
  -2 -12   1    4.21    1.83
  -2 -12   1    3.11    1.72
  -1 -12   1   55.70    4.89
  -1 -12   1   60.73    5.92
  -1 -12   1   56.65    4.81
   0 -12   1   26.60    3.38
   0 -12   1   29.32    4.48
  -1  12  -1  292.77   16.90
   1 -12   1  328.19   16.08
  -9 -11   1   73.29    5.63
  -9 -11   1   54.01    5.05
  -8 -11   1   19.36    2.97
  -7 -11   1    3.05    1.43
  -7 -11   1   -0.80    1.73
  -6 -11   1   56.93    6.28
  -6 -11   1   54.59    4.91
  -5 -11   1   53.08    5.95
  -5 -11   1   50.62    4.78
  -5 -11   1   57.94    5.58
  -4 -11   1  147.91   10.16
  -4 -11   1  131.88    9.60
  -4 -11   1  142.44    8.98
  -3 -11   1  155.16   10.68
  -3 -11   1  158.22    9.90
  -3 -11   1  165.17   10.61
  -2 -11   1  102.14    7.25
  -2 -11   1  110.85    7.79
  -2 -11   1  108.09    8.38
  -1 -11   1  637.61   31.59
  -1 -11   1  637.77   31.49
  -1 -11   1  671.24   33.14
   0 -11   1  177.59   10.01
   0 -11   1  156.92    9.84
   0 -11   1  176.87   11.46
   1 -11   1   20.18    3.72
   1 -11   1   18.90    2.89
   2 -11   1   49.08    4.11
   3 -11   1  318.19   15.98
   4 -11   1  201.35   10.38
 -10 -10   1   53.93    4.77
  -9 -10   1   50.24    5.40
  -8 -10   1    9.82    2.28
  -8 -10   1    9.70    3.34
  -7 -10   1   82.95    6.14
  -7 -10   1   76.35    7.72
  -6 -10   1  121.11   10.01
  -6 -10   1  123.46    8.14
  -5 -10   1   25.82    3.63
  -5 -10   1   26.40    5.03
  -5 -10   1   29.96    4.21
  -4 -10   1  302.57   17.38
  -4 -10   1  278.71   16.35
  -4 -10   1  294.55   15.76
  -3 -10   1  306.46   16.36
  -3 -10   1  308.71   17.35
  -3 -10   1  301.40   17.12
  -2 -10   1  277.33   16.39
  -2 -10   1  297.02   15.55
  -2 -10   1  289.91   15.92
  -1 -10   1   63.10    5.18
  -1 -10   1   67.68    5.36
  -1 -10   1   66.39    6.08
   0 -10   1  325.46   17.19
   0 -10   1  350.08   18.73
   0 -10   1  318.99   17.02
   1 -10   1  471.62   23.25
   1 -10   1  468.45   24.76
   2 -10   1   59.83    4.65
   3 -10   1   24.59    2.97
   4 -10   1   39.30    3.35
  -5  10  -1   16.23    4.18
   5 -10   1   13.96    1.93
 -10  -9   1   11.82    2.90
  -9  -9   1   14.56    3.53
  -8  -9   1    2.88    1.63
  -8  -9   1    0.45    2.06
  -7  -9   1  140.95   11.37
  -7  -9   1  166.10    9.67
  -6  -9   1   37.44    6.22
  -6  -9   1   60.92    4.92
  -5  -9   1  647.06   28.17
  -5  -9   1  477.52   29.43
  -4  -9   1   90.14    6.81
  -4  -9   1   96.66    6.54
  -4  -9   1   84.07    7.68
  -3  -9   1  695.76   33.27
  -3  -9   1  709.21   34.69
  -3  -9   1  703.33   34.04
  -3  -9   1  656.19   42.06
  -2  -9   1  872.99   40.94
  -2  -9   1  867.52   40.34
  -2  -9   1  840.43   41.14
  -2  -9   1  818.64   49.52
   1   9  -1  204.40   23.35
  -1  -9   1  211.12   12.40
  -1  -9   1  206.74   11.46
  -1  -9   1  199.96   18.45
  -1  -9   1  195.84   11.31
   0   9  -1  489.11   36.27
   0  -9   1  467.60   32.53
   0  -9   1  510.68   25.59
   0  -9   1  489.67   24.08
   0  -9   1  508.78   24.26
   1  -9   1  390.20   20.62
   1  -9   1  375.66   18.93
   2  -9   1  377.49   20.49
   2  -9   1  388.02   19.01
  -3   9  -1  376.83   20.95
   3  -9   1  375.93   18.68
  -4   9  -1   99.00    8.39
   4  -9   1  114.83    6.69
  -5   9  -1   82.93    7.11
   5  -9   1   83.93    5.28
  -6   9  -1  212.75   12.20
   6  -9   1  209.78   10.61
 -11  -8   1   36.78    3.73
 -10  -8   1   48.53    5.10
  -9  -8   1   11.66    3.02
  -8  -8   1  231.75   15.24
  -8  -8   1  248.54   13.29
  -7  -8   1  119.56    9.73
  -7  -8   1  121.46    7.86
  -6  -8   1  133.98   10.57
  -6  -8   1  151.32    8.89
   5   8  -1  186.27   17.56
  -5  -8   1  139.78   11.02
  -5  -8   1  167.75    9.75
   4   8  -1   26.64    7.56
  -4  -8   1   17.33    3.78
  -4  -8   1   27.58    3.38
  -3  -8   1  423.69   28.61
  -2  -8   1 1056.55   57.85
   1   8  -1  728.95   44.19
  -1  -8   1  807.57   44.84
   0   8  -1  339.59   25.89
   0  -8   1  348.92   18.23
   0  -8   1  336.09   24.02
  -1   8  -1  448.63   33.27
   1  -8   1  441.75   22.89
   1  -8   1  429.17   21.32
   1  -8   1  456.50   31.04
   2  -8   1  417.94   19.90
   2  -8   1  398.67   21.39
  -3   8  -1  254.95   16.07
   3  -8   1  282.57   13.87
  -4   8  -1  194.97   12.97
   4  -8   1  188.85   10.28
  -5   8  -1   32.54    5.19
   5  -8   1   33.54    3.07
  -6   8  -1   32.46    4.77
   6  -8   1   21.81    2.38
  -7   8  -1    7.70    2.19
   7  -8   1    5.88    1.23
 -11  -7   1   11.66    2.39
 -11  -7   1   21.11    2.64
 -10  -7   1  171.29    9.91
 -10  -7   1  148.45   10.22
  -9  -7   1  365.07   20.73
  -9  -7   1  389.13   20.07
  -8  -7   1  162.13   10.34
  -8  -7   1  162.40   11.28
  -7  -7   1  841.83   40.60
  -7  -7   1  878.57   42.74
   6   7  -1    2.08    2.86
  -6  -7   1    3.48    3.41
  -6  -7   1    3.41    2.10
  -6  -7   1    3.04    1.46
   5   7  -1   12.66    5.05
  -5  -7   1   11.87    4.83
  -5  -7   1   12.52    4.63
  -5  -7   1   12.75    2.29
   4   7  -1  581.73   35.77
  -3  -7   1  699.49   40.21
   2   7  -1  793.24   41.58
  -2  -7   1  740.10   42.85
   1   7  -1 1279.01   64.60
  -1  -7   1 1210.81   64.03
   0   7  -1 1034.66   57.88
   0  -7   1 1109.06   56.79
  -1   7  -1  354.81   25.75
   1  -7   1  290.01   21.45
  -2   7  -1 1138.52   66.36
   2  -7   1 1141.58   52.13
  -3   7  -1  293.77   17.48
   3  -7   1  314.91   15.31
  -4   7  -1  164.78   12.02
   4  -7   1  186.65    9.80
  -5   7  -1  323.89   19.95
   5  -7   1  354.50   17.18
  -6   7  -1   40.59    5.95
   6  -7   1   45.57    3.64
  -7   7  -1   58.14    5.93
   7  -7   1   60.68    4.03
  -8   7  -1  115.59    7.52
 -11  -6   1   31.58    3.56
 -11  -6   1   26.48    3.41
 -10  -6   1   95.12    7.40
 -10  -6   1  106.05    7.75
  -9  -6   1   22.39    3.83
  -9  -6   1   21.10    3.83
  -8  -6   1   60.03    5.59
  -8  -6   1   46.03    5.95
  -7  -6   1   82.11    6.83
  -7  -6   1   79.58    6.39
  -7  -6   1   71.93    5.36
   6   6  -1   81.88   10.03
  -6  -6   1   73.72    6.20
  -6  -6   1   71.44    5.13
  -6  -6   1   69.99   11.09
   5   6  -1  169.70   15.14
  -5  -6   1  167.43   15.96
   4   6  -1  217.78   16.90
  -4  -6   1  198.29   16.30
  -3  -6   1 1389.75   69.67
  -3  -6   1 1431.54   70.95
   2   6  -1 1677.19   81.79
  -2  -6   1 1693.32   81.45
  -2  -6   1 1770.51   84.37
   1   6  -1  870.00   48.28
  -1  -6   1 1011.93   49.52
   0   6  -1  595.24   35.27
   0  -6   1  625.16   34.33
  -1   6  -1 2919.32  147.45
   1  -6   1 3238.12  144.72
  -2   6  -1  444.85   31.22
   2  -6   1  413.20   25.78
  -3   6  -1  212.53   21.28
  -3   6  -1  221.36   16.96
   3  -6   1  206.94   10.93
  -4   6  -1  238.42   14.23
   4  -6   1  202.24   11.32
  -5   6  -1   10.97    3.49
   5  -6   1   24.03    2.90
  -6   6  -1   51.48    6.81
   6  -6   1   35.79    3.57
  -7   6  -1   36.81    5.76
   7  -6   1   45.85    3.70
  -8   6  -1   10.17    3.08
   8  -6   1   15.47    1.95
 -11  -5   1   29.64    3.24
 -11  -5   1   29.56    4.00
 -10  -5   1    4.93    2.43
 -10  -5   1    3.79    1.92
  -9  -5   1  315.40   18.17
  -9  -5   1  313.11   17.37
  -8  -5   1   46.23    5.39
  -8  -5   1   58.02    5.38
  -7  -5   1  369.30   33.07
  -7  -5   1  385.68   20.23
  -7  -5   1  380.24   20.32
   6   5  -1  243.84   18.73
  -6  -5   1  250.55   22.00
   5   5  -1  230.79   17.72
  -5  -5   1  253.20   20.08
   4   5  -1  939.34   47.68
  -4  -5   1  839.48   47.78
   3   5  -1  766.54   36.08
  -3  -5   1  713.24   38.70
  -3  -5   1  688.06   38.40
   2   5  -1 1035.06   48.95
  -2  -5   1 1017.45   51.19
  -2  -5   1  964.24   49.49
   1   5  -1 1782.64   84.76
  -1  -5   1 1791.34   83.06
  -1  -5   1 1778.83   85.40
   0   5  -1 2483.21  111.28
   0  -5   1 2496.19  110.04
   0  -5   1 2033.63  105.99
  -1   5  -1 1287.64   64.15
   1  -5   1 1200.41   60.88
   1  -5   1 1232.90   57.36
  -2   5  -1   10.14    4.68
   2  -5   1    4.37    2.42
  -3   5  -1 1431.78   77.90
  -4   5  -1  294.66   17.01
  -4   5  -1  283.14   26.29
   4  -5   1  296.06   14.71
  -5   5  -1  993.54   49.94
   5  -5   1 1021.73   46.86
  -6   5  -1  194.71   14.10
   6  -5   1  209.47   11.29
  -7   5  -1  144.52   11.09
   7  -5   1  127.53    7.95
  -8   5  -1    4.04    2.55
   8  -5   1    6.75    1.61
  -9   5  -1   18.82    3.33
   9  -5   1   13.30    1.72
 -11  -4   1  129.39    9.14
 -11  -4   1  157.77    8.50
 -10  -4   1  129.96    8.36
 -10  -4   1  125.45    9.52
  -9  -4   1   80.75    6.56
  -9  -4   1   90.57    7.84
  -8  -4   1   23.54    3.64
  -8  -4   1   19.55    3.96
  -7  -4   1  639.66   32.51
  -7  -4   1  642.77   43.94
  -7  -4   1  664.25   31.98
   6   4  -1  100.86   10.39
   5   4  -1  437.76   26.11
  -5  -4   1  432.90   29.02
   4   4  -1 1523.06   74.81
  -4  -4   1 1539.29   76.71
   3   4  -1  422.76   22.77
   3   4  -1  384.39   18.66
  -3  -4   1  322.01   21.82
   2   4  -1  419.33   21.94
  -2  -4   1  447.28   24.43
  -2  -4   1  437.30   23.78
   1   4  -1 4372.81  193.99
  -1  -4   1 4174.21  194.66
   0   4  -1  536.27   29.78
   0  -4   1  599.17   27.11
   0  -4   1  539.33   29.08
  -1   4  -1 2657.45  130.10
   1  -4   1 2884.83  127.86
  -2   4  -1  979.61   53.21
   2  -4   1  983.24   48.78
   2  -4   1 1018.46   47.51
  -3   4  -1  227.21   20.55
   3  -4   1  311.39   16.71
  -4   4  -1  157.65   17.28
  -5   4  -1   53.06    5.88
  -5   4  -1   48.49   10.86
   5  -4   1   51.16    3.97
  -6   4  -1  103.87    9.43
   6  -4   1  113.78    6.97
  -7   4  -1  155.00   11.86
   7  -4   1  136.63    8.52
  -8   4  -1  156.14   12.12
   8  -4   1  162.07    9.22
  -9   4  -1  122.60   11.07
   9  -4   1  119.87    7.20
 -11  -3   1   47.07    4.73
 -11  -3   1   51.66    3.91
 -10  -3   1   55.52    5.99
 -10  -3   1   59.03    4.91
  -9  -3   1  329.38   17.79
  -9  -3   1  337.95   19.39
  -8  -3   1   40.57    5.66
  -8  -3   1   42.81    4.46
  -7  -3   1   29.64    4.42
  -7  -3   1   24.67    7.94
  -7  -3   1   35.38    4.27
   6   3  -1  310.90   20.51
  -6  -3   1  289.60   23.72
   5   3  -1  316.61   20.20
  -5  -3   1  333.81   23.53
   4   3  -1  433.99   24.69
  -4  -3   1  443.30   26.95
   3   3  -1  820.71   40.42
   3   3  -1  743.40   36.70
  -3  -3   1  829.92   41.46
   2   3  -1  816.29   35.65
  -2  -3   1  735.20   37.89
  -2  -3   1  744.16   38.10
  -1  -3   1   98.61    7.36
  -1  -3   1   96.05    6.78
   0   3  -1   84.81    7.28
   0  -3   1   98.59    7.27
   0  -3   1  117.00    6.34
  -1   3  -1  638.42   32.19
   1  -3   1  586.43   29.73
   1  -3   1  579.80   28.86
   2  -3   1  990.41   46.91
   2  -3   1  978.49   47.12
  -3   3  -1 4143.84  189.09
   3  -3   1 3894.49  182.50
   3  -3   1 4027.91  183.43
  -4   3  -1 1391.49   72.86
   4  -3   1 1312.29   66.04
  -5   3  -1  371.98   30.24
   5  -3   1  424.03   25.21
  -6   3  -1   40.19    6.03
  -6   3  -1   47.25    3.81
  -6   3  -1   40.49   12.14
  -7   3  -1    9.95    3.65
  -8   3  -1   16.58    4.55
   8  -3   1   13.34    2.52
  -9   3  -1   28.24    5.25
   9  -3   1   37.07    3.42
 -10   3  -1   36.86    4.43
  10  -3   1   44.69    3.07
 -11  -2   1    2.86    1.11
 -11  -2   1    2.14    1.50
 -10  -2   1   31.25    4.56
 -10  -2   1   32.99    3.42
  -9  -2   1  170.62   11.49
  -9  -2   1  162.17   10.02
  -8  -2   1  149.00   10.23
  -8  -2   1  128.42    8.73
  -7  -2   1  226.67   21.40
  -7  -2   1  219.34   12.45
  -7  -2   1  218.91   13.37
   6   2  -1  411.18   26.02
  -6  -2   1  397.31   28.72
   5   2  -1  286.64   18.04
  -5  -2   1  269.87   20.54
   4   2  -1  216.59   15.05
  -4  -2   1  262.98   13.90
  -4  -2   1  277.86   18.26
   3   2  -1 1860.01   86.90
  -3  -2   1 1806.93   88.42
  -3  -2   1 1927.31   84.73
   2   2  -1 2521.43  121.09
  -2  -2   1 2785.65  121.98
   1   2  -1 3320.00  144.74
  -1  -2   1 3060.76  144.13
   0  -2   1  111.44    7.29
   0  -2   1  128.30    6.96
   1  -2   1  260.10   13.60
   1  -2   1  261.00   13.82
  -2   2  -1  119.94    9.83
   2  -2   1  114.67    7.90
   2  -2   1  112.88    7.21
   3  -2   1   53.31    5.69
   3  -2   1   53.54    4.60
  -4   2  -1 1010.16   55.74
   4  -2   1 1061.98   52.53
  -5   2  -1  320.34   24.33
   5  -2   1  294.94   20.50
  -6   2  -1  228.03   12.71
  -6   2  -1  249.02   23.24
  -6   2  -1  222.00   13.42
  -6   2  -1  243.27   15.07
   6  -2   1  273.17   19.76
  -7   2  -1  414.34   21.69
  -7   2  -1  435.42   24.36
  -7   2  -1  434.70   21.30
  -8   2  -1   90.67    6.22
  -8   2  -1   91.11    8.91
  -9   2  -1   28.49    5.35
   9  -2   1   25.58    3.21
  10  -2   1  156.29    8.48
 -11  -1   1   73.60    5.00
 -10  -1   1   17.17    2.51
 -10  -1   1   22.13    3.51
  -9  -1   1   43.74    4.15
  -9  -1   1   45.79    5.15
  -8  -1   1  150.80    9.43
  -8  -1   1  152.91   10.53
  -7  -1   1  108.35    8.03
  -7  -1   1  104.19    7.17
  -7  -1   1  109.69   14.12
  -6  -1   1  957.72   54.47
   5   1  -1  571.68   30.21
  -5  -1   1  539.37   33.50
  -4  -1   1 2618.33  121.16
  -4  -1   1 2652.33  124.85
   3   1  -1 2974.08  137.90
  -3  -1   1 3050.03  137.08
  -3  -1   1 3052.24  140.02
  -2  -1   1 3923.23  169.58
  -2  -1   1 3539.04  167.13
   1   1  -1 1068.70   50.47
  -1  -1   1 1121.01   50.72
   0   1  -1  213.12   11.33
   0  -1   1  233.68   11.32
   0  -1   1  224.30   11.28
  -1   1  -1 1087.92   47.13
   1  -1   1  843.19   44.89
   1  -1   1 1041.54   45.84
  -2   1  -1 1594.87   71.57
   2  -1   1 1472.94   68.39
   2  -1   1 1453.98   70.00
  -3   1  -1 1722.01   79.39
   3  -1   1 1523.51   74.93
   3  -1   1 1682.75   77.67
   4  -1   1    5.42    2.48
  -5   1  -1  163.56   15.13
   5  -1   1  175.33   14.15
  -6   1  -1 1261.99   58.86
  -6   1  -1 1275.34   69.86
   6  -1   1 1296.61   67.34
  -7   1  -1   97.76    6.51
  -7   1  -1   93.05    6.94
  -7   1  -1  102.52    8.40
  -8   1  -1  223.95   12.08
  -8   1  -1  210.04   12.54
  -8   1  -1  211.84   14.60
  -9   1  -1   21.55    3.26
  -9   1  -1   28.53    5.21
  -9   1  -1   20.14    2.80
 -10   1  -1  238.68   12.14
 -10   1  -1  208.97   13.87
  10  -1   1  234.73   12.00
 -10   0   1    9.57    1.80
 -10   0   1   10.47    2.25
  -9   0   1   74.67    6.33
  -9   0   1   74.06    5.54
  -8   0   1  105.87    8.50
  -8   0   1  100.13    7.88
  -8   0   1  101.62    7.10
   7   0  -1  136.22   18.56
  -7   0   1  175.29   10.71
  -7   0   1  162.94   10.82
  -7   0   1  169.22    9.75
  -6   0   1   86.88   11.28
   5   0  -1  324.31   19.46
  -5   0   1  305.85   23.86
  -5   0   1  341.14   22.96
   4   0  -1  233.66   14.18
  -4   0   1  221.79   14.66
  -4   0   1  230.46   16.37
   3   0  -1 1587.66   81.95
  -3   0   1 1857.76   84.51
  -3   0   1 1886.07   82.89
   2   0  -1 3310.90  145.44
  -2   0   1 3165.58  146.33
  -2   0   1 3167.45  145.09
   1   0  -1 1389.51   63.25
  -1   0   1 1374.50   63.54
   0   0  -1   12.54    1.25
   0   0  -1   11.28    1.18
   0   0   1   10.48    1.25
  -1   0  -1 1297.84   58.52
   1   0   1 1243.01   58.15
  -2   0  -1 3918.41  175.55
  -2   0  -1 3829.26  175.53
  -3   0  -1 1023.04   49.67
  -3   0  -1 1014.65   49.66
   3   0   1  985.36   46.62
  -4   0  -1  224.91   15.99
   4   0   1  242.24   13.06
  -5   0  -1  238.80   17.66
   5   0   1  231.70   17.17
  -6   0  -1  262.20   20.74
   6   0   1  288.48   21.17
  -7   0  -1  295.88   16.72
  -7   0  -1  282.17   15.72
  -7   0  -1  283.97   15.05
   7   0   1  277.71   22.69
  -8   0  -1   53.60    5.18
  -8   0  -1   48.15    4.55
  -8   0  -1   50.29    5.93
  -9   0  -1   66.45    6.76
  -9   0  -1   61.20    4.86
  -9   0  -1   57.48    5.33
 -10   0  -1  120.79    7.65
 -10   0  -1  125.13    9.12
  11   0   1   81.19    4.85
  10  -1  -1   30.16    3.30
 -10   1   1   37.20    3.25
  -9   1   1  108.34    7.57
  -9   1   1  114.39    9.21
  -9   1   1  112.61    7.04
  -8   1   1  635.20   32.80
  -8   1   1  608.20   29.86
  -8   1   1  603.17   30.76
  -7   1   1  110.25    8.06
  -7   1   1  112.77    9.16
  -7   1   1  117.18    7.43
   6  -1  -1  197.94   17.27
  -6   1   1  207.29   11.35
  -6   1   1  224.89   15.09
   5  -1  -1   96.26    9.57
  -5   1   1  114.34   11.51
  -5   1   1  103.98   10.77
   4  -1  -1 1794.49   86.61
  -4   1   1 1856.53   89.38
  -4   1   1 1885.42   89.25
   3  -1  -1  864.16   40.90
  -3   1   1  817.49   42.34
  -3   1   1  840.07   42.43
   2  -1  -1 3012.67  134.98
  -2   1   1 2856.60  135.62
  -2   1   1 3061.14  135.95
   1  -1  -1  785.38   36.89
  -1   1   1  814.86   37.34
  -1   1   1  767.32   36.84
   0   1   1  222.20   10.49
   0   1   1  235.42   11.17
  -1  -1  -1 1068.64   49.89
  -1  -1  -1 1129.89   49.41
  -1  -1  -1 1070.50   49.98
  -2  -1  -1 4824.49  216.86
  -2  -1  -1 4614.44  212.88
   2   1   1 4692.51  212.71
  -3  -1  -1  185.53   11.83
  -3  -1  -1  181.14   12.27
   3   1   1  185.89   10.12
  -4  -1  -1  229.14   14.92
  -4  -1  -1  221.34   15.58
   4   1   1  217.37   12.55
  -5  -1  -1  223.22   16.17
  -5  -1  -1  233.62   17.59
  -6  -1  -1  104.40   10.81
   6   1   1  101.02   11.37
  -7  -1  -1   22.93    3.89
  -7  -1  -1   21.86    3.18
  -7  -1  -1   25.46    3.93
   7   1   1   31.89    7.20
  -8  -1  -1   18.04    3.04
  -8  -1  -1   20.49    3.85
  -8  -1  -1   17.28    3.52
  -9  -1  -1  143.31    8.91
  -9  -1  -1  147.36   10.23
  -9  -1  -1  142.61    9.69
 -10  -1  -1  188.39   11.07
 -10  -1  -1  182.60   10.26
 -11  -1  -1   29.66    2.97
  11   1   1   29.16    2.70
  10  -2  -1   52.42    3.69
  -9   2   1  107.83    9.32
  -8   2   1  243.68   12.89
  -8   2   1  233.18   16.13
  -8   2   1  235.15   13.45
  -7   2   1   74.97    7.77
  -7   2   1   68.05    5.15
  -7   2   1   63.43    5.62
   6  -2  -1  167.21   15.56
  -6   2   1  190.85   12.55
  -6   2   1  180.77   10.65
   5  -2  -1  251.17   18.83
  -5   2   1  299.35   22.32
   4  -2  -1  408.23   23.08
  -4   2   1  431.25   27.18
   3  -2  -1 2862.99  126.35
  -3   2   1 2807.55  129.99
  -3   2   1 2586.46  127.26
   2  -2  -1  828.94   38.78
  -2   2   1  769.85   38.92
  -2   2   1  809.24   40.84
  -1   2   1 2299.14  104.07
  -1   2   1 2222.87  102.20
   0  -2  -1  379.20   19.50
   0   2   1  414.76   19.62
  -1  -2  -1 2078.03   93.99
  -2  -2  -1 1793.14   86.24
  -2  -2  -1 2105.69   87.44
  -2  -2  -1 1776.81   86.51
  -3  -2  -1   47.95    5.43
  -3  -2  -1   50.53    4.72
   3   2   1   39.95    4.03
  -4  -2  -1 2121.96   98.28
  -4  -2  -1 2159.58  100.47
   4   2   1 2024.46   96.73
  -5  -2  -1 1702.44   84.22
  -5  -2  -1 1741.95   87.17
   5   2   1 1825.73   82.69
  -6  -2  -1  437.46   29.64
  -7  -2  -1   17.27    3.22
  -7  -2  -1   14.60    3.06
  -7  -2  -1   15.64    2.75
   7   2   1   20.17    6.31
  -8  -2  -1   86.33    6.82
  -8  -2  -1   88.55    7.13
  -8  -2  -1   79.64    6.21
  -9  -2  -1  284.91   15.32
  -9  -2  -1  277.89   16.24
 -10  -2  -1   88.23    6.14
 -10  -2  -1   89.11    6.97
 -11  -2  -1   30.89    2.93
 -11  -2  -1   36.63    3.65
  10  -3  -1    7.67    1.58
   9  -3  -1  169.40    9.32
  -8   3   1    2.14    2.61
  -7   3   1  166.17    9.26
  -7   3   1  143.35   12.38
  -6   3   1  655.73   30.60
  -6   3   1  619.28   33.92
  -5   3   1  415.53   31.63
   4  -3  -1   76.07    7.41
   4  -3  -1   76.26    7.80
  -4   3   1   80.69   10.91
   3  -3  -1  578.64   30.84
   3  -3  -1  615.29   31.21
  -3   3   1  596.94   35.47
   2  -3  -1 1386.30   63.93
   2  -3  -1 1288.01   62.83
  -2   3   1 1373.64   67.13
   1  -3  -1 1486.73   67.75
   1  -3  -1 1408.39   65.73
   0  -3  -1 1036.81   48.54
   0   3   1 1012.77   48.54
  -1  -3  -1  335.29   16.62
  -1  -3  -1  309.65   17.83
   1   3   1  382.50   17.60
  -2  -3  -1 3390.83  163.31
  -2  -3  -1 3392.20  163.55
  -2  -3  -1 4041.94  163.12
  -3  -3  -1 2393.72  112.21
  -3  -3  -1 2469.39  112.61
  -3  -3  -1 2491.42  114.00
  -4  -3  -1   91.02    9.02
  -4  -3  -1   87.44    7.46
   4   3   1  103.02    7.79
  -5  -3  -1  226.39   17.53
  -5  -3  -1  221.50   14.89
   5   3   1  235.37   14.62
  -6  -3  -1   42.96    7.88
  -7  -3  -1   94.58    7.02
  -7  -3  -1   86.17    6.26
  -8  -3  -1    5.39    2.36
  -8  -3  -1    5.86    1.93
  -9  -3  -1   54.22    5.72
  -9  -3  -1   52.15    4.83
 -10  -3  -1    3.92    2.08
 -10  -3  -1    3.17    1.51
 -11  -3  -1  123.95    7.32
 -11  -3  -1  127.14    8.20
   9  -4  -1   36.56    3.01
  -9   4   1   25.74    4.76
   8  -4  -1   45.36    3.88
  -8   4   1   41.21    6.83
   7  -4  -1   44.83    3.89
  -7   4   1   29.03    5.98
  -6   4   1   18.83    4.78
  -5   4   1 1061.02   67.94
  -5   4   1 1124.31   55.07
  -5   4   1 1169.58   51.71
  -4   4   1  481.39   34.82
   3  -4  -1  252.45   16.36
  -3   4   1  260.63   21.00
   2  -4  -1  309.43   16.24
   2  -4  -1  322.02   18.50
  -2   4   1  292.90   21.05
   1  -4  -1 4223.14  181.11
   1  -4  -1 3457.38  177.41
  -1   4   1 4232.29  183.30
   0  -4  -1  605.64   30.83
   0   4   1  598.48   31.18
  -1  -4  -1  968.25   47.86
  -1  -4  -1 1106.17   50.65
   1   4   1 1064.99   49.70
  -2  -4  -1  923.19   46.04
  -2  -4  -1  968.60   47.40
   2   4   1 1008.20   45.87
  -3  -4  -1  267.13   14.87
  -3  -4  -1  269.89   16.32
  -3  -4  -1  263.58   16.34
  -4  -4  -1  615.14   30.68
  -4  -4  -1  620.36   33.75
   4   4   1  579.62   31.88
  -5  -4  -1 2141.27  104.27
  -5  -4  -1 2133.98   99.46
   5   4   1 2113.53  100.69
  -6  -4  -1  280.75   22.13
  -7  -4  -1   12.22    2.51
  -7  -4  -1   13.62    2.87
  -7  -4  -1   13.48    5.60
  -8  -4  -1  168.95   10.39
  -8  -4  -1  169.48   11.04
  -9  -4  -1   30.99    4.69
  -9  -4  -1   29.58    3.97
 -10  -4  -1   77.51    6.64
 -10  -4  -1   78.01    5.93
 -11  -4  -1  104.13    6.63
 -11  -4  -1  104.93    7.60
   9  -5  -1   76.97    4.59
  -9   5   1   90.62    6.72
   8  -5  -1   33.24    3.12
  -8   5   1   46.45    6.34
   7  -5  -1   70.84    5.21
  -7   5   1   89.06    8.76
   6  -5  -1   34.40    3.41
  -6   5   1   24.60    5.40
   5  -5  -1  211.66   10.79
  -5   5   1  177.92   13.49
  -4   5   1  174.31   20.04
  -4   5   1  180.97   11.93
   3  -5  -1  980.44   50.37
  -3   5   1  976.04   57.29
   2  -5  -1  146.29   11.73
  -2   5   1  165.27   15.08
   1  -5  -1  525.40   26.34
  -1   5   1  388.17   26.74
   0  -5  -1 4009.90  182.80
   0   5   1 3961.04  183.29
  -1  -5  -1 1110.26   58.57
   1   5   1 1297.39   58.47
  -2  -5  -1  256.00   14.73
  -2  -5  -1  269.31   16.85
   2   5   1  267.42   15.29
  -3  -5  -1  529.79   30.71
  -3  -5  -1  558.50   31.78
   3   5   1  674.88   30.00
  -4  -5  -1  704.06   37.29
  -4  -5  -1  705.71   36.57
   4   5   1  627.51   33.62
  -5  -5  -1 1132.73   56.06
   5   5   1  936.13   52.51
  -6  -5  -1   75.11   10.41
   6   5   1   73.03    8.35
  -7  -5  -1  167.33   17.75
  -7  -5  -1  158.06   10.02
  -7  -5  -1  171.42   10.43
  -8  -5  -1   26.90    4.12
  -8  -5  -1   23.65    3.72
  -9  -5  -1  448.91   23.23
  -9  -5  -1  419.20   22.49
 -10  -5  -1   87.83    6.97
 -10  -5  -1   79.32    6.21
 -11  -5  -1  187.88   10.55
 -11  -5  -1  189.46   11.49
   8  -6  -1   42.45    3.15
  -8   6   1   45.03    5.68
   7  -6  -1  134.51    7.56
  -7   6   1  125.03   10.42
   6  -6  -1   56.94    4.26
  -6   6   1   39.99    6.72
   5  -6  -1  411.25   20.24
  -5   6   1  412.34   23.83
   4  -6  -1  379.03   18.69
  -4   6   1  391.33   21.73
  -4   6   1  372.32   32.92
   3  -6  -1  137.54   15.18
  -3   6   1  141.76   17.04
  -3   6   1  147.72   11.62
   2  -6  -1 1005.78   51.69
  -2   6   1  969.04   56.00
   1  -6  -1  287.86   19.34
  -1   6   1  297.15   21.50
   0  -6  -1  494.90   28.17
   0   6   1  492.29   29.21
  -1  -6  -1   90.97    9.06
   1   6   1   94.46    8.76
  -2  -6  -1  965.77   51.39
   2   6   1 1041.49   49.81
  -3  -6  -1 2300.46  109.74
  -3  -6  -1 2374.34  112.17
   3   6   1 2381.58  109.13
  -4  -6  -1  534.98   30.81
  -4  -6  -1  531.22   31.27
   4   6   1  551.65   28.45
  -5  -6  -1  818.23   44.79
   5   6   1  770.73   43.39
  -6  -6  -1  139.50   14.55
   6   6   1  135.62   12.82
  -7  -6  -1  258.24   14.32
  -7  -6  -1  246.53   13.95
  -7  -6  -1  244.70   22.37
  -8  -6  -1   50.02    4.93
  -8  -6  -1   49.15    4.95
  -9  -6  -1   21.99    3.76
  -9  -6  -1   18.11    3.37
 -10  -6  -1  307.53   16.90
 -10  -6  -1  316.26   17.11
 -11  -6  -1   54.57    4.66
 -11  -6  -1   59.24    4.98
  -8   7   1   85.53    6.33
   7  -7  -1   52.20    3.61
  -7   7   1   52.62    5.83
   6  -7  -1   93.26    5.98
  -6   7   1  115.19    9.33
   5  -7  -1  100.64    6.52
  -5   7   1  130.40   10.10
   4  -7  -1   91.01    5.88
  -4   7   1  103.48    8.55
   3  -7  -1  358.46   18.10
  -3   7   1  382.86   31.88
  -3   7   1  383.07   20.74
   2  -7  -1   66.87    8.66
  -2   7   1   77.35   11.59
   1  -7  -1  772.74   43.58
  -1   7   1  825.19   47.44
   0  -7  -1  926.60   48.65
   0   7   1  879.98   49.54
  -1  -7  -1 1355.74   69.30
   1   7   1 1386.38   69.39
  -2  -7  -1  257.53   18.75
   2   7   1  261.20   17.55
  -3  -7  -1  507.79   29.00
   3   7   1  406.34   25.09
  -4  -7  -1  323.00   22.49
   5   7   1  699.01   40.69
  -6  -7  -1  142.42   15.66
  -6  -7  -1  146.26    9.74
  -6  -7  -1  146.19    9.47
   6   7   1  145.31   14.24
  -7  -7  -1   44.96    5.04
  -8  -7  -1   94.39    7.49
  -8  -7  -1   94.82    7.01
  -9  -7  -1   78.54    6.31
  -9  -7  -1   83.19    6.79
 -10  -7  -1   69.84    5.92
 -10  -7  -1   70.14    5.57
 -11  -7  -1   20.00    2.81
 -11  -7  -1   19.99    3.03
  -7   8   1  247.33   14.08
   6  -8  -1   55.78    3.90
  -6   8   1   68.15    6.46
   5  -8  -1  159.39    8.71
  -5   8   1  163.52   11.70
   4  -8  -1  353.52   17.24
  -4   8   1  344.19   20.43
   3  -8  -1  274.78   14.52
  -3   8   1  322.53   17.75
   2  -8  -1 1494.04   68.40
   2  -8  -1 1421.32   67.66
  -2   8   1 1484.99   70.26
  -2   8   1 1581.59   92.52
   1  -8  -1  131.28    8.48
   1  -8  -1  116.10    7.24
   1  -8  -1  120.01   12.87
  -1   8   1  120.03   14.58
   0  -8  -1 1783.36   90.03
   0   8   1 1793.47   92.05
  -1  -8  -1  116.35   12.14
   1   8   1  109.33   11.90
  -2  -8  -1  457.59   29.61
   2   8   1  462.28   28.68
  -3  -8  -1  352.96   24.88
   3   8   1  357.99   22.77
  -4  -8  -1    9.39    4.21
  -5  -8  -1  160.89    9.17
   5   8   1  146.39   14.94
  -6  -8  -1  128.48    7.90
  -6  -8  -1  124.31    8.90
   6   8   1  117.39   13.71
  -7  -8  -1  224.82   12.57
  -7  -8  -1  234.19   14.03
  -8  -8  -1  125.77    9.28
  -9  -8  -1  192.28   12.12
 -10  -8  -1   40.24    4.57
 -11  -8  -1   11.26    2.31
  -6   9   1   56.51    5.37
   5  -9  -1   96.25    6.14
  -5   9   1  112.94    8.62
   4  -9  -1   25.00    2.59
  -4   9   1   19.95    4.18
   3  -9  -1  171.64    9.22
  -3   9   1  163.60   11.61
   2  -9  -1   67.33    4.47
  -2   9   1   50.35    5.72
   1  -9  -1  876.38   39.64
   1  -9  -1  848.86   40.55
  -1   9   1  786.56   40.80
   0  -9  -1 1029.41   48.72
   0  -9  -1 1046.11   57.64
   0  -9  -1 1043.29   47.84
   0   9   1  975.13   59.18
  -1  -9  -1  854.80   49.12
  -1  -9  -1  847.92   40.42
  -1  -9  -1  844.99   39.65
   1   9   1  813.13   49.23
  -2  -9  -1  129.12   13.81
  -2  -9  -1  129.77    8.34
  -2  -9  -1  127.64    7.77
   2   9   1  119.69   13.02
  -3  -9  -1  101.65    6.52
  -3  -9  -1   91.51    6.69
  -3  -9  -1   94.72   11.93
  -4  -9  -1  281.50   15.13
  -4  -9  -1  273.92   22.37
  -4  -9  -1  277.83   14.78
  -5  -9  -1  111.68    7.40
  -5  -9  -1   99.19   10.15
  -5  -9  -1  115.37    7.62
  -6  -9  -1  190.91   12.34
  -6  -9  -1  191.67   11.17
  -7  -9  -1   51.75    5.82
  -7  -9  -1   57.70    4.97
  -8  -9  -1   42.37    5.69
  -9  -9  -1    2.56    1.98
 -10  -9  -1   38.96    4.29
  -5  10   1   41.19    4.69
  -4  10   1  130.77    9.47
  -3  10   1  344.79   19.63
  -2  10   1   19.68    4.01
   1 -10  -1  183.18   10.59
   1 -10  -1  187.17   11.60
   0 -10  -1 2378.19  110.50
   0 -10  -1 2427.95  109.39
  -1 -10  -1  316.36   17.33
  -1 -10  -1  308.05   16.40
  -2 -10  -1  626.87   29.78
  -2 -10  -1  632.74   30.69
   2  10   1  560.61   50.43
  -3 -10  -1  359.89   18.88
  -3 -10  -1  340.10   18.18
  -4 -10  -1  149.97    9.35
  -4 -10  -1  156.23    9.87
  -5 -10  -1   28.53    3.91
  -5 -10  -1   34.85    4.51
  -6 -10  -1   75.78    6.05
  -7 -10  -1   31.04    4.06
  -7 -10  -1   30.75    4.95
  -8 -10  -1    0.99    1.89
  -8 -10  -1    1.88    1.55
  -9 -10  -1   25.83    3.93
  -4  11   1   13.67    2.79
  -3  11   1   41.42    4.89
   1 -11  -1  256.32   13.75
   1 -11  -1  255.35   14.86
   0 -11  -1  125.65    8.90
   0 -11  -1  115.04    7.71
  -1 -11  -1  758.10   37.52
  -1 -11  -1  750.59   36.29
  -2 -11  -1  311.28   17.71
  -2 -11  -1  314.69   16.77
  -3 -11  -1  191.45   11.94
  -3 -11  -1  189.08   11.24
  -4 -11  -1  213.36   12.98
  -4 -11  -1  213.33   12.31
  -5 -11  -1   36.31    4.51
  -5 -11  -1   32.80    4.51
  -6 -11  -1   39.03    4.65
  -6 -11  -1   42.54    4.57
  -7 -11  -1  139.06    8.89
  -8 -11  -1    0.83    1.42
   1 -12  -1  211.17   12.73
   1 -12  -1  226.45   13.14
   0 -12  -1    3.87    2.09
   0 -12  -1    4.43    1.65
  -1 -12  -1   18.19    3.72
  -1 -12  -1   12.82    2.62
  -2 -12  -1  188.22   11.29
  -2 -12  -1  196.63   12.38
  -3 -12  -1  467.22   24.69
  -3 -12  -1  469.17   23.74
  -4 -12  -1  197.54   12.17
  -4 -12  -1  186.04   11.35
  -5 -12  -1   51.98    5.35
  -5 -12  -1   53.56    4.78
  -6 -12  -1   62.15    5.57
  -6 -12  -1   65.68    5.37
  -7 -12  -1    2.01    1.48
  -8 -12  -1   16.74    2.74
   0 -13  -1   61.60    4.74
   0 -13  -1   60.63    5.51
  -1 -13  -1   14.18    3.25
  -1 -13  -1   12.95    2.44
  -2 -13  -1  372.82   19.23
  -2 -13  -1  375.60   20.38
  -3 -13  -1    7.17    2.51
  -3 -13  -1    7.20    2.12
  -4 -13  -1  103.03    7.82
  -4 -13  -1  103.46    7.11
  -5 -13  -1   60.44    5.07
  -5 -13  -1   64.70    5.73
  -6 -13  -1   66.80    5.22
  -6 -13  -1   65.14    5.55
  -7 -13  -1   15.29    2.52
  -8 -13  -1   21.35    2.73
   0  14   1  159.96    9.30
  -1 -14  -1  259.72   14.20
  -1 -14  -1  256.16   13.24
  -2 -14  -1  180.82   11.10
  -2 -14  -1  183.11   10.13
  -3 -14  -1   61.07    4.71
  -3 -14  -1   56.80    5.48
  -4 -14  -1   21.52    2.94
  -4 -14  -1   23.17    3.63
  -5 -14  -1  168.57    9.55
  -5 -14  -1  164.16   10.20
  -6 -14  -1   38.04    3.55
  -6 -14  -1   36.27    3.86
  -7 -14  -1   38.51    3.22
   2  15   1  115.45    7.25
  -3 -15  -1   12.99    2.41
  -3 -15  -1   14.49    2.08
  -4 -15  -1   98.74    6.00
  -4 -15  -1  101.58    6.67
  -5 -15  -1   54.94    3.89
  -5 -15  -1   55.03    4.37
  -6 -14   2  116.29    6.55
   5  14  -2  145.84    8.93
  -5 -14   2  158.76    8.38
   4  14  -2   27.27    3.48
  -4 -14   2   24.34    2.75
   3  14  -2    1.47    1.55
  -3 -14   2    1.16    1.01
   2  14  -2  499.35   23.63
  -2 -14   2  441.19   22.26
   1  14  -2  145.56    8.74
  -7 -13   2   96.22    5.99
  -7 -13   2  103.34    6.41
  -6 -13   2   93.51    6.47
  -6 -13   2   96.89    6.18
   5  13  -2  182.09   10.79
  -5 -13   2  173.45   10.44
  -5 -13   2  179.09   10.04
  -4 -13   2   24.13    3.42
  -4 -13   2   27.65    3.27
  -3 -13   2   35.19    3.91
  -3 -13   2   37.94    3.64
  -2 -13   2   58.33    4.41
  -2 -13   2   48.86    4.49
   1  13  -2  324.25   16.47
  -1 -13   2  262.52   14.92
   0  13  -2  191.13   11.16
   0 -13   2  176.09   10.00
  -1  13  -2    2.34    1.65
  -8 -12   2   18.65    2.92
  -8 -12   2   18.27    2.44
  -7 -12   2   93.11    6.21
  -7 -12   2   91.79    6.97
  -6 -12   2   75.06    5.66
  -6 -12   2   81.65    6.62
  -5 -12   2    5.69    1.86
  -5 -12   2    6.00    2.27
  -5 -12   2    6.70    2.19
  -4 -12   2  111.95    8.33
  -4 -12   2  116.95    8.21
  -4 -12   2  109.74    7.53
  -3 -12   2   21.40    3.23
  -3 -12   2   23.96    3.61
  -3 -12   2   21.84    3.82
  -2 -12   2  310.67   16.82
  -2 -12   2  324.54   17.35
  -2 -12   2  337.59   18.46
  -1 -12   2   36.09    3.92
  -1 -12   2   42.19    5.44
  -1 -12   2   39.58    3.79
   0  12  -2  359.22   18.79
   0 -12   2  314.52   17.22
  -1  12  -2  157.26   10.27
   1 -12   2  166.67    9.41
   2 -12   2    1.99    1.18
  -9 -11   2  176.38    9.98
  -9 -11   2  156.14    8.90
  -8 -11   2  456.62   23.63
  -8 -11   2  440.52   22.06
  -7 -11   2  142.91    8.77
  -7 -11   2  141.58   10.25
  -6 -11   2   52.08    6.51
  -6 -11   2   44.63    4.38
  -5 -11   2   62.31    6.30
  -5 -11   2   54.91    5.44
  -5 -11   2   50.97    4.77
  -4 -11   2  126.67    9.10
  -4 -11   2  130.02    9.37
  -4 -11   2  118.46    8.13
  -3 -11   2  580.57   30.28
  -3 -11   2  593.43   29.14
  -3 -11   2  597.76   30.02
  -2 -11   2   14.10    2.95
  -2 -11   2   11.39    2.53
  -2 -11   2   16.37    3.66
  -1 -11   2   56.37    4.84
  -1 -11   2   57.51    6.00
  -1 -11   2   54.83    4.95
   0 -11   2  275.05   16.13
   0 -11   2  268.81   14.67
  -1  11  -2  476.59   25.39
   1 -11   2  493.14   24.10
  -2  11  -2  279.77   15.04
   2 -11   2  244.16   13.59
   3 -11   2   14.79    2.26
   4 -11   2  149.63    8.06
 -10 -10   2    7.56    2.30
  -9 -10   2  109.37    8.39
  -9 -10   2  123.07    7.20
  -8 -10   2  277.50   17.77
  -8 -10   2  328.02   16.14
  -7 -10   2    4.42    2.70
  -7 -10   2    3.72    1.74
  -6 -10   2    2.04    2.33
  -6 -10   2    1.13    1.47
  -5 -10   2   98.46    7.03
  -5 -10   2   94.91    8.76
  -5 -10   2  100.21    7.55
  -4 -10   2  154.83   10.86
  -4 -10   2  149.75    9.33
  -4 -10   2  142.90    9.98
  -3 -10   2    6.44    1.98
  -3 -10   2    9.64    2.83
  -3 -10   2   10.19    2.83
  -2 -10   2  624.75   32.32
  -2 -10   2  650.33   31.78
  -2 -10   2  636.90   31.13
  -1 -10   2  113.48    8.71
  -1 -10   2  114.58    7.59
  -1 -10   2  120.65    7.84
   0 -10   2   11.95    2.46
   0 -10   2   15.06    2.71
   0 -10   2   11.73    3.25
   1 -10   2  226.46   13.82
   1 -10   2  225.88   12.47
  -2  10  -2  269.67   15.85
   2 -10   2  281.60   14.62
   3 -10   2   57.59    4.47
   4 -10   2  147.73    8.32
   5 -10   2    2.95    1.11
 -10  -9   2   24.08    3.70
  -9  -9   2   29.59    4.78
  -9  -9   2   43.79    3.74
  -8  -9   2  115.14    7.06
  -8  -9   2   79.93    8.23
  -7  -9   2  110.74    7.08
  -7  -9   2   75.79    8.24
  -6  -9   2   74.52    8.54
  -6  -9   2  128.26    7.68
  -5  -9   2  114.01   10.37
  -5  -9   2  173.09    9.49
  -4  -9   2  120.11    9.39
  -4  -9   2  121.91    8.36
  -4  -9   2  112.01    7.65
  -3  -9   2    1.42    1.44
  -3  -9   2    0.47    1.40
  -3  -9   2   -0.80    1.56
  -2  -9   2  314.37   16.52
  -2  -9   2  287.64   16.55
  -2  -9   2  282.30   23.44
  -2  -9   2  305.27   15.76
  -1  -9   2 1387.95   63.84
  -1  -9   2 1388.26   65.19
  -1  -9   2 1405.04   64.08
  -1  -9   2 1338.28   75.33
   0  -9   2 1504.72   70.69
   0  -9   2 1499.77   69.18
   0  -9   2 1503.21   69.18
   1  -9   2  131.60    7.95
   1  -9   2  133.59    9.37
   2  -9   2   85.38    5.74
   3  -9   2  632.82   30.19
   4  -9   2  324.24   16.31
  -5   9  -2   36.05    4.76
   5  -9   2   32.58    2.98
  -6   9  -2    8.06    2.21
   6  -9   2    8.10    1.44
 -10  -8   2   18.64    3.55
  -9  -8   2  163.64   11.33
  -8  -8   2  104.19    9.16
  -8  -8   2  122.51    7.62
  -7  -8   2   49.26    4.57
  -7  -8   2   55.32    7.38
  -6  -8   2  164.68   12.49
  -6  -8   2  195.69   10.77
  -5  -8   2  131.93    7.70
  -5  -8   2   88.94    8.63
   4   8  -2  739.18   45.57
  -4  -8   2  758.43   36.52
  -4  -8   2  761.22   35.98
  -3  -8   2  102.76    7.09
  -3  -8   2   91.04    6.34
  -3  -8   2   92.62    7.52
  -2  -8   2  291.84   15.97
  -2  -8   2  285.78   21.99
  -2  -8   2  291.19   16.16
  -2  -8   2  296.20   15.18
  -1  -8   2  545.80   27.36
  -1  -8   2  537.33   26.49
  -1  -8   2  527.90   34.11
  -1  -8   2  562.15   26.79
   0   8  -2  426.13   31.10
   0  -8   2  430.37   22.60
   0  -8   2  434.42   21.42
   0  -8   2  435.31   21.28
   0  -8   2  443.83   29.15
  -1   8  -2  133.61   16.39
   1  -8   2  133.95    7.68
   1  -8   2  135.39    9.12
   2  -8   2  320.49   17.85
   2  -8   2  330.72   16.38
   3  -8   2   12.62    2.17
  -4   8  -2   31.29    5.04
   4  -8   2   27.85    2.97
  -5   8  -2   74.19    6.75
   5  -8   2   66.44    4.69
  -6   8  -2   52.56    5.51
   6  -8   2   60.87    4.10
  -7   8  -2    2.95    1.65
   7  -8   2    4.08    1.08
 -11  -7   2   42.48    3.88
 -10  -7   2    5.72    1.90
 -10  -7   2    6.43    2.35
  -9  -7   2  114.28    8.02
  -9  -7   2  114.77    8.79
  -8  -7   2  130.54    8.38
  -8  -7   2  145.22   10.44
  -8  -7   2  141.90    9.32
  -7  -7   2  802.46   39.14
  -7  -7   2  850.18   41.55
  -6  -7   2   27.88    8.69
  -6  -7   2   32.46    3.86
  -6  -7   2   34.81    5.31
   5   7  -2  492.02   33.63
  -5  -7   2  524.90   27.07
  -5  -7   2  516.05   25.14
  -5  -7   2  519.05   34.66
   4   7  -2  265.79   21.11
  -4  -7   2  263.13   20.44
  -2  -7   2  361.63   24.50
   1   7  -2 1228.44   66.02
  -1  -7   2 1343.65   67.05
   0   7  -2 1613.91   84.09
   0  -7   2 1656.10   82.15
  -1   7  -2  167.29   17.51
   1  -7   2  188.73   15.21
  -2   7  -2  962.28   57.55
   2  -7   2  957.14   43.45
   2  -7   2  905.74   44.88
  -3   7  -2  146.10   10.38
   3  -7   2  156.51    8.50
  -4   7  -2  458.51   25.20
   4  -7   2  471.21   22.61
  -5   7  -2  191.92   13.40
   5  -7   2  215.73   11.12
  -6   7  -2    5.15    2.47
   6  -7   2    9.04    1.75
  -7   7  -2  254.14   14.92
   7  -7   2  258.63   12.86
 -11  -6   2  129.99    8.13
 -11  -6   2  146.79    8.46
 -10  -6   2   49.83    4.97
 -10  -6   2   54.49    5.25
  -9  -6   2  129.95    9.38
  -9  -6   2  133.07    9.35
  -8  -6   2  274.75   14.72
  -8  -6   2  275.13   16.24
  -8  -6   2  295.51   16.59
  -7  -6   2  165.12   10.91
  -7  -6   2  156.85    9.41
  -7  -6   2  163.80   10.45
   6   6  -2  199.45   18.10
  -6  -6   2  236.39   13.37
  -6  -6   2  209.67   21.19
  -6  -6   2  219.91   11.75
   5   6  -2  101.79   11.67
  -5  -6   2   99.96   12.66
   4   6  -2  123.74   12.33
  -4  -6   2   96.78   11.36
   3   6  -2    7.37    3.54
  -3  -6   2   16.05    4.52
  -2  -6   2  221.64   16.65
  -2  -6   2  225.09   15.52
   1   6  -2  245.20   16.51
  -1  -6   2  200.28   13.85
  -1  -6   2  211.80   16.14
   0   6  -2  236.49   18.56
   0  -6   2  276.41   18.23
  -1   6  -2 1603.28   81.71
   1  -6   2 1531.96   77.03
  -2   6  -2  174.89   17.71
  -3   6  -2   46.24   10.05
  -3   6  -2   44.86    4.93
   3  -6   2   49.47    3.67
  -4   6  -2   29.41    4.92
   4  -6   2   29.66    3.00
  -5   6  -2   47.91    6.57
   5  -6   2   52.97    4.26
  -6   6  -2  138.08   10.34
   6  -6   2  120.77    7.58
  -7   6  -2   12.20    3.50
   7  -6   2   12.79    2.09
  -8   6  -2   23.21    3.88
   8  -6   2   27.98    2.52
 -11  -5   2    4.28    1.53
 -11  -5   2    1.64    1.65
 -10  -5   2  142.06    9.04
 -10  -5   2  139.30    9.98
  -9  -5   2  116.09    8.36
  -9  -5   2  123.95    9.41
  -8  -5   2   34.95    4.82
  -8  -5   2   48.17    6.17
  -7  -5   2  305.82   17.31
  -7  -5   2  339.14   17.85
  -7  -5   2  297.67   15.88
   6   5  -2   87.58   10.77
  -6  -5   2  105.01   14.16
  -6  -5   2  108.07    7.73
  -6  -5   2   98.94    7.26
  -6  -5   2  105.38    6.40
   5   5  -2  523.51   31.60
  -5  -5   2  510.57   34.52
   4   5  -2  291.21   19.84
  -4  -5   2  253.58   20.14
   3   5  -2 1941.38   90.85
  -3  -5   2 1771.01   90.36
   2   5  -2 2408.67  113.59
  -2  -5   2 2554.56  115.81
  -2  -5   2 2403.94  115.92
   1   5  -2  771.09   40.15
  -1  -5   2  770.01   40.79
  -1  -5   2  783.96   39.15
   0   5  -2  248.30   17.44
   0  -5   2  265.74   14.46
   0  -5   2  242.14   16.38
  -1   5  -2  342.03   24.85
   1  -5   2  413.72   23.20
   1  -5   2  402.91   19.95
  -2   5  -2 1896.24   99.63
   2  -5   2 2056.69   96.14
  -3   5  -2  833.38   50.72
  -4   5  -2  303.20   17.13
  -4   5  -2  302.06   27.06
   4  -5   2  281.35   14.78
  -5   5  -2  598.10   31.86
   5  -5   2  614.89   29.09
  -6   5  -2  188.44   13.17
   6  -5   2  188.38   10.56
  -7   5  -2  149.47   11.32
   7  -5   2  145.78    8.62
  -8   5  -2   49.75    5.80
   8  -5   2   50.74    3.95
  -9   5  -2   19.33    3.36
   9  -5   2   23.81    2.14
 -11  -4   2   27.17    2.80
 -11  -4   2   17.91    3.27
 -10  -4   2   14.22    2.63
 -10  -4   2   13.03    3.41
  -9  -4   2   49.26    4.86
  -9  -4   2   45.23    6.20
  -8  -4   2  226.29   14.23
  -8  -4   2  213.04   12.88
  -7  -4   2  327.99   17.23
  -7  -4   2  347.39   18.50
  -7  -4   2  365.05   19.52
   6   4  -2   26.62    5.66
  -6  -4   2   23.39    7.78
  -6  -4   2   18.55    3.23
   5   4  -2   23.61    5.04
  -5  -4   2   19.92    6.31
   4   4  -2  237.44   17.21
  -4  -4   2  254.56   19.17
   3   4  -2  438.30   26.29
  -3  -4   2  476.51   27.63
   2   4  -2  252.10   14.09
  -2  -4   2  248.92   16.19
  -2  -4   2  260.80   16.61
   1   4  -2  824.14   41.20
  -1  -4   2  822.61   42.10
  -1  -4   2  846.54   41.34
   0   4  -2   57.38    6.60
   0  -4   2   66.96    6.51
   0  -4   2   76.17    5.48
  -1   4  -2 2761.58  133.55
   1  -4   2 2870.68  130.72
   1  -4   2 2860.90  128.72
  -2   4  -2 2503.99  117.96
   2  -4   2 2279.51  111.13
   2  -4   2 2475.20  112.32
  -3   4  -2 1301.66   71.32
   3  -4   2 1370.49   64.47
  -4   4  -2   78.64   12.10
  -5   4  -2   27.85    4.98
  -5   4  -2   27.29    9.50
   5  -4   2   34.95    3.29
  -6   4  -2  115.33    9.46
   6  -4   2  112.10    7.13
  -7   4  -2   97.92    9.38
   7  -4   2  116.54    7.18
  -8   4  -2   85.79    8.44
   8  -4   2  103.53    6.47
  -9   4  -2   54.71    5.89
   9  -4   2   54.62    3.97
 -11  -3   2    3.99    1.32
 -11  -3   2    3.71    1.87
 -10  -3   2  126.03    8.00
 -10  -3   2  129.70    9.58
  -9  -3   2  133.15   10.50
  -9  -3   2  147.34    9.22
  -8  -3   2  903.90   43.62
  -8  -3   2  915.58   45.35
  -7  -3   2   33.48   14.94
  -7  -3   2   22.12    3.41
  -7  -3   2   27.55    4.67
   6   3  -2  298.89   21.04
  -6  -3   2  297.44   24.68
   5   3  -2 1256.46   63.58
  -5  -3   2 1264.74   67.65
   4   3  -2  382.86   23.12
  -4  -3   2  402.60   25.75
   3   3  -2  883.22   46.15
  -3  -3   2  950.93   47.94
   2   3  -2  157.36   11.40
   2   3  -2  164.25    9.00
  -2  -3   2  183.47   12.31
   1   3  -2 1275.91   57.98
  -1  -3   2 1204.18   58.85
  -1  -3   2 1225.45   59.01
   0   3  -2 1751.79   87.97
   0  -3   2 1792.02   87.46
   0  -3   2 2121.50   86.74
   1  -3   2 2608.25  123.97
   1  -3   2 2845.67  124.84
  -2   3  -2  136.54   11.74
   2  -3   2  116.84    8.37
   2  -3   2  118.37    8.35
  -3   3  -2  297.73   21.72
   3  -3   2  299.04   17.64
  -4   3  -2 1183.49   66.80
   4  -3   2 1266.62   60.91
  -5   3  -2  437.00   23.28
  -5   3  -2  448.08   33.14
   5  -3   2  418.08   26.10
  -6   3  -2   60.26    6.51
  -7   3  -2    6.54    3.13
   7  -3   2    5.66    1.88
  -8   3  -2    8.57    3.46
   8  -3   2    8.94    2.13
  -9   3  -2   18.42    4.16
   9  -3   2   20.83    2.74
 -10   3  -2   59.71    5.47
  10  -3   2   63.29    3.92
 -11  -2   2   24.77    3.20
 -11  -2   2   23.49    2.32
 -10  -2   2   58.68    4.64
 -10  -2   2   64.41    6.04
  -9  -2   2   59.32    6.38
  -9  -2   2   59.51    5.08
  -8  -2   2  505.40   26.96
  -8  -2   2  496.13   25.28
  -7  -2   2  162.01   22.24
  -7  -2   2  170.44   10.24
  -7  -2   2  178.13   11.51
   6   2  -2   66.03    8.01
  -6  -2   2   52.17    9.31
   5   2  -2  379.61   23.94
  -5  -2   2  415.35   27.52
   4   2  -2  359.60   20.37
  -4  -2   2  304.24   21.75
   3   2  -2   78.44    6.89
  -3  -2   2   71.72    7.69
   2   2  -2   20.19    3.51
  -2  -2   2   29.17    4.29
   1   2  -2 2727.69  123.73
   1   2  -2 2800.95  122.14
  -1  -2   2 2603.91  123.84
   0  -2   2 1432.81   62.76
   0  -2   2 1272.49   62.95
  -1   2  -2  238.90   14.62
   1  -2   2  234.69   12.64
   1  -2   2  228.88   12.75
  -2   2  -2   24.70    4.64
   2  -2   2   29.98    3.65
   2  -2   2   31.19    3.09
  -3   2  -2  315.12   21.79
   3  -2   2  352.52   19.54
  -4   2  -2  266.39   20.19
   4  -2   2  249.20   16.84
  -5   2  -2 1959.87  101.05
   5  -2   2 1969.85   95.60
  -6   2  -2   31.54    4.92
  -6   2  -2   38.85   10.92
  -6   2  -2   37.74    3.34
   6  -2   2   37.03    6.83
  -7   2  -2    7.91    2.18
  -7   2  -2   10.58    3.37
  -7   2  -2    6.63    1.79
  -8   2  -2   18.96    4.45
  -9   2  -2   32.49    5.74
   9  -2   2   53.30    4.33
 -10   2  -2   31.17    4.73
  10  -2   2   37.31    3.13
 -10  -1   2  100.04    7.14
 -10  -1   2   89.33    5.98
  -9  -1   2   86.40    7.33
  -9  -1   2   82.41    6.08
  -8  -1   2  379.81   19.79
  -8  -1   2  381.36   21.27
  -7  -1   2  241.09   14.07
  -7  -1   2  217.96   12.70
   6   1  -2   62.10    8.13
  -6  -1   2   64.03    9.99
   5   1  -2  224.67   14.54
  -5  -1   2  153.17   15.24
   4   1  -2  501.39   28.00
  -4  -1   2  528.16   30.53
   3   1  -2  102.91    8.46
  -3  -1   2  130.38    6.97
  -3  -1   2  127.07   10.19
   2   1  -2  984.96   48.09
  -2  -1   2 1036.37   49.20
  -1  -1   2 2807.82  127.76
   0   1  -2 1134.84   51.91
   0   1  -2 1114.41   51.74
  -1   1  -2 3928.79  175.60
   1  -1   2 3703.14  174.79
   1  -1   2 3981.34  173.64
  -2   1  -2 1806.98   85.51
   2  -1   2 1814.38   81.61
   2  -1   2 1811.71   83.85
  -3   1  -2 1066.25   54.94
   3  -1   2 1122.48   53.36
   3  -1   2 1080.62   49.87
  -4   1  -2 1267.25   63.15
   4  -1   2 1173.18   60.35
  -5   1  -2  513.43   32.16
   5  -1   2  462.52   28.89
  -6   1  -2    3.56    3.55
  -6   1  -2    1.61    1.71
  -6   1  -2    0.87    1.00
   6  -1   2    5.10    3.18
  -7   1  -2  173.85   10.49
  -7   1  -2  172.16    9.99
  -7   1  -2  184.34   12.25
  -8   1  -2  121.31    9.97
  -8   1  -2  121.31    8.09
  -8   1  -2  119.59    7.62
  -9   1  -2   67.65    5.32
  -9   1  -2   69.52    7.28
 -10   1  -2  106.74    8.77
  10  -1   2  123.04    7.06
 -10   0   2   11.69    2.34
 -10   0   2   11.72    1.90
  -9   0   2   51.97    4.47
  -9   0   2   56.70    5.43
  -8   0   2   13.92    3.32
  -8   0   2   13.20    2.56
  -7   0   2  119.92    7.83
  -7   0   2  121.06    8.70
  -6   0   2   12.42    5.08
  -6   0   2   12.44    2.95
  -6   0   2   11.96    2.39
   5   0  -2   66.90    7.41
  -5   0   2   61.22    8.63
   4   0  -2  437.89   24.64
  -4   0   2  454.80   27.08
  -4   0   2  443.29   24.06
   3   0  -2  447.54   24.28
  -3   0   2  461.04   23.49
  -3   0   2  470.61   25.97
   2   0  -2 5413.08  225.78
  -2   0   2 4770.66  226.03
  -2   0   2 4822.80  224.74
   1   0  -2  772.16   35.93
  -1   0   2  701.22   34.48
  -1   0   2  795.19   36.15
   0   0  -2 2556.60  102.49
   0   0  -2 2089.38  102.19
   0   0   2 2170.00  102.36
  -1   0  -2 1759.29   80.78
  -2   0  -2 2346.19  105.57
   2   0   2 2217.44  104.54
  -3   0  -2  512.23   26.61
   3   0   2  429.53   24.93
  -4   0  -2 1397.54   70.40
   4   0   2 1435.28   69.33
  -5   0  -2  421.31   27.69
   5   0   2  449.80   27.02
  -6   0  -2  215.05   18.78
   6   0   2  229.60   18.26
  -7   0  -2  340.89   17.09
  -7   0  -2  328.96   18.76
  -7   0  -2  335.69   17.71
   7   0   2  320.95   24.92
  -8   0  -2  544.09   28.73
  -8   0  -2  523.10   27.06
  -8   0  -2  546.61   26.51
  -9   0  -2   43.65    6.05
  -9   0  -2   45.64    4.48
  -9   0  -2   42.21    3.97
 -10   0  -2   44.21    3.90
 -10   0  -2   46.53    5.39
  10   0   2   38.12    3.66
  11   0   2    7.51    1.39
  10  -1  -2   32.49    2.87
 -10   1   2   25.80    2.85
  -9   1   2   52.72    4.89
  -9   1   2   50.81    4.16
  -8   1   2  300.71   17.61
  -8   1   2  275.30   15.04
  -8   1   2  279.77   16.08
  -7   1   2  462.92   24.82
  -7   1   2  495.16   23.97
  -7   1   2  480.94   25.96
  -6   1   2  134.47    9.28
  -6   1   2  157.77    8.84
  -6   1   2  147.81   15.20
  -6   1   2  148.44   11.14
   5  -1  -2  419.31   24.89
  -5   1   2  422.80   27.54
   4  -1  -2  775.31   40.55
  -4   1   2  816.46   43.09
  -4   1   2  806.85   41.87
   3  -1  -2  738.28   37.07
  -3   1   2  753.60   37.79
  -3   1   2  723.31   38.20
   2  -1  -2 9999.00  432.46
  -2   1   2 9240.22  433.32
  -2   1   2 9412.48  433.37
  -1   1   2  732.99   35.84
  -1   1   2  791.39   36.07
   0  -1  -2  295.54   13.92
   0  -1  -2  285.85   13.68
   0   1   2  246.58   13.16
  -1  -1  -2  838.67   39.78
  -1  -1  -2  821.88   38.50
   1   1   2  869.94   39.22
  -2  -1  -2 2764.70  117.14
   2   1   2 2343.42  116.22
  -3  -1  -2 3831.57  162.20
   3   1   2 3289.45  158.10
   3   1   2 3475.77  161.31
  -4  -1  -2 1014.40   50.76
   4   1   2 1006.20   47.32
   4   1   2  969.85   50.16
  -5  -1  -2  544.65   32.91
   5   1   2  607.60   33.54
  -6  -1  -2   91.15   10.50
   6   1   2   84.06   10.32
  -7  -1  -2   60.78    5.26
  -7  -1  -2   53.95    5.46
  -7  -1  -2   54.26    4.57
   7   1   2   61.05    9.57
  -8  -1  -2   43.56    5.27
  -8  -1  -2   52.80    4.54
  -8  -1  -2   54.05    5.20
  -9  -1  -2  138.59    9.28
  -9  -1  -2  146.25   10.25
  -9  -1  -2  136.88    8.63
 -10  -1  -2   46.02    3.98
 -10  -1  -2   48.71    5.19
 -10  -1  -2   48.12    4.61
 -11  -1  -2    4.74    1.47
  11   1   2    4.20    1.24
  10  -2  -2   13.88    1.86
  -9   2   2   22.36    4.42
  -8   2   2  350.73   21.12
  -8   2   2  343.96   17.68
  -8   2   2  348.55   18.50
  -7   2   2  301.42   18.23
  -7   2   2  273.03   15.63
  -7   2   2  275.79   14.83
  -6   2   2  101.15    8.48
  -6   2   2   89.35    6.09
  -6   2   2   90.66    6.79
   5  -2  -2   14.35    4.12
   4  -2  -2  656.02   35.57
  -4   2   2  678.97   37.42
  -4   2   2  712.37   39.25
   3  -2  -2  495.89   25.72
  -3   2   2  479.59   27.83
  -3   2   2  449.16   26.08
   2  -2  -2 1018.03   50.89
  -2   2   2 1099.98   52.77
  -2   2   2 1079.49   51.04
   1  -2  -2  808.15   37.86
  -1   2   2  753.29   36.91
  -1   2   2  791.81   38.31
   0  -2  -2  239.23   13.72
   0   2   2  300.40   13.86
   0   2   2  256.28   12.44
  -1  -2  -2 1549.42   74.38
  -1  -2  -2 1733.16   75.05
   1   2   2 1609.59   73.83
  -3  -2  -2  286.01   16.32
  -3  -2  -2  273.62   15.70
   3   2   2  238.95   13.73
  -4  -2  -2 1905.19  102.26
  -4  -2  -2 2373.12  104.57
   4   2   2 2291.26  100.07
  -5  -2  -2 1136.27   57.66
  -6  -2  -2  262.32   17.88
   6   2   2  181.80   16.81
  -7  -2  -2  376.42   19.46
  -7  -2  -2  369.08   20.14
  -7  -2  -2  383.84   20.21
   7   2   2  407.75   28.32
  -8  -2  -2  210.90   12.64
  -8  -2  -2  205.31   11.78
  -8  -2  -2  200.57   12.43
  -9  -2  -2  144.38    8.79
  -9  -2  -2  137.05    9.63
  -9  -2  -2  138.74    9.51
 -10  -2  -2   21.28    3.51
 -10  -2  -2   26.23    3.20
 -10  -2  -2   18.81    3.61
 -11  -2  -2   76.34    5.47
   9  -3  -2  150.82    8.37
  -8   3   2  169.79   13.14
  -7   3   2  797.26   35.84
  -7   3   2  697.53   39.84
  -6   3   2   49.92    4.11
  -6   3   2   38.06    6.47
  -5   3   2  383.69   37.47
  -5   3   2  414.51   25.41
   4  -3  -2 1865.97   94.68
   4  -3  -2 2064.53   95.16
  -4   3   2 2049.70  101.71
   3  -3  -2  213.16   13.67
  -3   3   2  181.08   15.84
   2  -3  -2 1986.61   92.80
  -2   3   2 1948.97   91.78
  -2   3   2 2028.74   95.73
   1  -3  -2 2444.34  113.13
  -1   3   2 2460.41  111.28
  -1   3   2 2490.14  114.36
   0  -3  -2 1517.37   71.59
   0   3   2 1563.95   71.53
  -1  -3  -2 3231.43  133.56
   1   3   2 2506.22  131.11
   1   3   2 3064.97  133.04
  -2  -3  -2 3186.47  136.01
  -2  -3  -2 2591.84  135.48
  -2  -3  -2 3168.83  135.68
  -3  -3  -2  155.96   10.89
  -3  -3  -2  158.99   10.57
  -3  -3  -2  154.16    9.88
  -4  -3  -2   18.44    4.13
  -4  -3  -2   16.48    3.43
   4   3   2   12.31    2.58
  -5  -3  -2  591.12   33.04
  -5  -3  -2  635.81   35.82
  -6  -3  -2  469.39   28.00
  -7  -3  -2   31.91    3.42
  -7  -3  -2   31.66    4.14
   7   3   2   27.80    7.44
  -8  -3  -2  155.96    9.57
  -8  -3  -2  157.65   10.31
  -8  -3  -2  155.68    9.95
  -9  -3  -2  147.22    9.21
  -9  -3  -2  148.10   10.07
 -10  -3  -2   51.09    5.16
 -10  -3  -2   54.91    4.57
 -11  -3  -2    1.38    1.10
 -11  -3  -2    0.46    1.43
   9  -4  -2   40.40    3.13
  -9   4   2   39.01    5.42
   8  -4  -2   31.82    3.17
  -8   4   2   28.47    5.69
   7  -4  -2   40.07    3.60
  -7   4   2   21.29    5.48
  -6   4   2  182.71    9.62
  -6   4   2  145.77   12.73
  -5   4   2  141.23    7.64
  -5   4   2  111.99   16.82
  -5   4   2  130.96   10.47
   4  -4  -2  460.79   26.81
  -4   4   2  429.98   33.20
   3  -4  -2  506.46   27.17
  -3   4   2  435.62   31.01
   2  -4  -2  146.64   11.43
  -2   4   2  190.02   14.95
   1  -4  -2  460.42   25.24
  -1   4   2  480.96   26.88
   0  -4  -2  434.07   24.02
   0   4   2  470.31   24.17
  -1  -4  -2 2135.89   88.22
   1   4   2 1633.77   86.74
  -2  -4  -2   27.96    3.18
  -2  -4  -2   27.51    3.93
   2   4   2   19.36    3.01
  -3  -4  -2 1104.83   52.04
  -3  -4  -2 1103.24   52.62
  -3  -4  -2 1038.87   52.52
  -4  -4  -2  184.70   13.45
  -4  -4  -2  170.80   11.78
  -4  -4  -2  175.03   11.88
  -5  -4  -2  112.92    9.38
  -5  -4  -2  102.08   10.83
   5   4   2  108.18    8.94
  -6  -4  -2  423.30   28.85
  -7  -4  -2  430.10   21.73
  -7  -4  -2  450.73   22.43
   7   4   2  416.38   29.69
  -8  -4  -2  120.84    8.14
  -8  -4  -2  124.87    8.77
  -9  -4  -2   62.24    5.32
  -9  -4  -2   62.72    5.96
 -10  -4  -2   15.52    2.77
 -10  -4  -2   14.40    3.05
 -11  -4  -2   41.48    3.66
 -11  -4  -2   44.36    4.48
  -9   5   2   60.27    6.37
   8  -5  -2  173.95    9.00
  -8   5   2  152.64   11.82
   7  -5  -2  339.82   16.91
  -7   5   2  331.28   21.12
   6  -5  -2    6.29    1.74
  -6   5   2    5.44    3.26
   5  -5  -2  132.72    7.75
  -5   5   2  141.69   11.14
  -4   5   2  270.58   26.62
  -4   5   2  317.90   17.70
   3  -5  -2  213.17   15.99
  -3   5   2  232.21   20.84
   2  -5  -2  465.89   26.75
  -2   5   2  451.17   29.89
   1  -5  -2  131.58   10.18
  -1   5   2  106.64   10.61
   0  -5  -2   69.64    6.94
   0   5   2   64.54    6.89
  -1  -5  -2 4053.64  187.57
   1   5   2 4143.32  186.57
  -2  -5  -2 1746.92   80.27
  -2  -5  -2 1515.97   82.70
   2   5   2 1987.30   82.35
  -3  -5  -2  431.29   24.97
  -3  -5  -2  423.19   23.76
   3   5   2  466.34   23.73
  -4  -5  -2  651.61   34.66
  -4  -5  -2  640.59   35.05
  -4  -5  -2  643.41   33.05
  -5  -5  -2  117.70   11.64
  -5  -5  -2  113.07    9.27
   5   5   2  130.16   10.58
  -6  -5  -2  501.55   32.66
  -7  -5  -2  180.55   11.01
  -7  -5  -2  202.82   11.51
  -8  -5  -2   18.17    3.33
  -8  -5  -2   13.84    2.73
  -9  -5  -2   16.47    3.36
  -9  -5  -2   14.22    2.85
 -10  -5  -2   21.54    3.25
 -10  -5  -2   24.27    3.85
 -11  -5  -2  279.33   15.41
 -11  -5  -2  291.65   14.84
   8  -6  -2   45.04    3.20
  -8   6   2   53.04    5.66
   7  -6  -2   56.36    4.16
  -7   6   2   66.87    7.32
   6  -6  -2   31.43    3.17
  -6   6   2   45.76    6.87
   5  -6  -2  153.05    8.50
  -5   6   2  142.83   11.64
   4  -6  -2  263.16   13.12
  -4   6   2  238.77   25.73
  -4   6   2  263.49   16.09
   3  -6  -2  389.89   25.19
  -3   6   2  382.66   30.56
  -3   6   2  393.63   21.29
   2  -6  -2  210.94   16.10
  -2   6   2  225.74   19.60
   1  -6  -2  658.82   36.99
  -1   6   2  703.23   39.66
   0  -6  -2  162.41   12.85
   0   6   2  168.68   13.31
  -1  -6  -2   40.53    5.67
  -2  -6  -2  543.34   29.99
   2   6   2  503.95   27.89
  -3  -6  -2 1183.65   61.50
   3   6   2 1265.52   59.58
  -4  -6  -2  288.06   20.06
  -4  -6  -2  292.64   19.23
   4   6   2  331.88   18.23
  -5  -6  -2  154.25   13.28
   5   6   2  120.83   11.65
   5   6   2  141.36   10.66
  -6  -6  -2  137.18   14.11
  -7  -6  -2   97.08    7.04
  -7  -6  -2  106.40    7.21
  -8  -6  -2   74.19    6.05
  -8  -6  -2   74.46    6.07
  -9  -6  -2   33.19    4.47
  -9  -6  -2   35.55    4.53
 -10  -6  -2  244.98   13.95
 -10  -6  -2  258.18   14.26
 -11  -6  -2   92.69    6.31
 -11  -6  -2  102.11    6.81
  -8   7   2   25.07    3.47
   7  -7  -2   27.46    2.94
  -7   7   2   31.22    4.86
   6  -7  -2  298.87   15.66
  -6   7   2  354.28   19.87
   5  -7  -2  262.40   13.87
  -5   7   2  295.49   17.85
   4  -7  -2  293.21   14.85
  -4   7   2  301.49   18.15
  -3   7   2  103.11    8.31
  -3   7   2  104.90   15.46
   2  -7  -2  419.49   26.82
  -2   7   2  394.47   21.85
  -2   7   2  391.97   29.96
   1  -7  -2 1513.47   76.61
  -1   7   2 1521.86   79.43
   0   7   2   19.72    5.67
  -1  -7  -2  370.87   23.93
   1   7   2  379.93   23.85
  -2  -7  -2  131.37   12.04
   2   7   2  137.99   11.17
  -3  -7  -2  746.76   42.70
   3   7   2  807.54   40.42
  -4  -7  -2 1302.76   64.81
   4   7   2 1175.17   60.59
   6   7   2  538.69   34.56
  -7  -7  -2  165.19   10.38
  -8  -7  -2   26.08    4.02
  -8  -7  -2   34.34    4.26
  -9  -7  -2  277.28   15.02
  -9  -7  -2  264.03   15.23
 -10  -7  -2   98.07    6.82
 -10  -7  -2   98.27    7.02
 -11  -7  -2   61.43    4.80
 -11  -7  -2   65.63    4.85
  -7   8   2   48.47    4.96
  -6   8   2   29.23    4.83
  -5   8   2   61.74    6.81
  -4   8   2   22.91    4.55
  -3   8   2  101.42    8.35
   2  -8  -2  137.83   14.15
   2  -8  -2  142.98    8.57
  -2   8   2  159.73   19.34
  -2   8   2  159.65   10.43
   1  -8  -2  666.89   39.14
   1  -8  -2  669.29   31.31
  -1   8   2  630.20   32.42
  -1   8   2  661.30   42.30
   0  -8  -2 1206.44   62.29
   0   8   2 1126.62   63.20
  -1  -8  -2  349.28   24.26
   1   8   2  346.21   24.26
  -2  -8  -2  161.92   14.44
   2   8   2  146.62   13.21
  -3  -8  -2  681.86   40.58
   3   8   2  720.94   38.65
  -4  -8  -2  402.97   28.46
   4   8   2  459.73   25.82
  -5  -8  -2  134.83   14.00
  -6  -8  -2  148.66    8.98
   6   8   2  153.18   15.35
  -7  -8  -2   16.23    3.44
  -8  -8  -2    4.51    2.20
  -9  -8  -2  631.28   31.47
 -10  -8  -2   84.34    6.57
 -10  -8  -2   87.17    6.46
  -6   9   2  160.63   10.28
  -5   9   2   53.58    5.99
  -4   9   2  171.97   12.06
  -3   9   2  222.57   14.30
   2  -9  -2   39.21    3.91
  -2   9   2   48.28    5.34
   1  -9  -2  512.87   26.53
   1  -9  -2  535.70   25.90
  -1   9   2  539.45   27.35
   0  -9  -2  307.92   16.53
   0  -9  -2  311.46   15.92
   0  -9  -2  307.58   23.73
   0   9   2  294.64   16.66
   0   9   2  308.82   25.24
  -1  -9  -2  913.95   43.25
  -1  -9  -2  906.64   52.23
  -1  -9  -2  948.00   44.02
   1   9   2  922.06   53.04
  -2  -9  -2  194.71   17.54
  -2  -9  -2  185.59   11.06
  -2  -9  -2  187.06   10.57
   2   9   2  193.66   17.02
  -3  -9  -2   16.41    2.64
  -3  -9  -2   14.12    5.57
  -3  -9  -2   17.65    2.97
   3   9   2   17.04    5.45
  -4  -9  -2   27.15    3.46
  -4  -9  -2   23.74    7.13
  -4  -9  -2   26.03    3.69
  -5  -9  -2  498.68   24.62
  -5  -9  -2  506.41   24.82
  -5  -9  -2  478.16   33.33
  -6  -9  -2   12.88    2.65
  -7  -9  -2    3.81    1.77
  -5  10   2   41.02    4.70
  -4  10   2   79.54    7.16
  -3  10   2  416.13   22.93
   2 -10  -2  375.03   19.29
  -2  10   2  387.15   21.25
   1 -10  -2  462.02   22.19
   1 -10  -2  439.35   22.99
  -1  10   2  418.84   23.40
   0 -10  -2   96.15    7.38
   0 -10  -2   98.37    6.70
  -1 -10  -2  520.34   25.99
  -1 -10  -2  534.67   26.86
  -2 -10  -2 1608.45   73.64
  -2 -10  -2 1552.86   72.75
   2  10   2 1576.86   85.51
  -3 -10  -2  335.22   17.74
  -3 -10  -2  319.29   17.00
  -4 -10  -2   42.71    4.18
  -4 -10  -2   43.66    4.45
  -5 -10  -2  565.93   28.48
  -5 -10  -2  575.01   28.26
  -6 -10  -2  240.35   16.40
  -6 -10  -2  240.62   13.60
  -7 -10  -2  208.14   12.15
  -4  11   2  247.96   14.14
  -3  11   2    2.36    1.99
  -2  11   2   61.11    6.11
   1 -11  -2  145.94    9.91
   1 -11  -2  158.60    9.24
   0 -11  -2    5.75    2.34
   0 -11  -2    6.36    1.96
  -1 -11  -2  670.62   33.03
  -1 -11  -2  639.85   31.88
  -2 -11  -2    0.05    1.27
  -2 -11  -2   -0.37    1.48
  -3 -11  -2  217.54   12.42
  -3 -11  -2  215.22   13.00
  -4 -11  -2   16.52    2.98
  -4 -11  -2   21.23    3.65
  -5 -11  -2  143.48    9.39
  -5 -11  -2  150.19    9.76
  -6 -11  -2  152.93    9.83
  -6 -11  -2  153.06    9.70
  -7 -11  -2   44.78    4.55
   1 -12  -2  142.81    8.57
   0 -12  -2   24.96    4.08
   0 -12  -2   23.46    3.24
  -1 -12  -2  176.92   11.39
  -1 -12  -2  167.31   10.25
  -2 -12  -2   16.54    3.57
  -2 -12  -2   13.78    2.79
  -3 -12  -2  493.35   24.64
  -3 -12  -2  479.72   25.40
  -4 -12  -2  324.45   17.41
  -4 -12  -2  329.35   18.17
  -5 -12  -2  244.33   14.55
  -5 -12  -2  258.06   14.13
  -6 -12  -2   17.89    3.27
  -6 -12  -2   20.57    3.26
  -7 -12  -2   37.43    4.26
  -8 -12  -2   29.74    3.70
   0 -13  -2   94.65    6.38
   0 -13  -2   96.33    7.17
  -1 -13  -2   46.00    5.11
  -1 -13  -2   46.06    4.30
  -2 -13  -2  418.43   21.12
  -2 -13  -2  409.37   22.05
  -3 -13  -2    2.56    1.96
  -3 -13  -2    4.02    1.78
  -4 -13  -2  203.42   12.69
  -4 -13  -2  213.12   12.03
  -5 -13  -2   95.51    7.33
  -5 -13  -2   95.79    6.69
  -6 -13  -2   16.90    3.00
  -6 -13  -2   13.58    2.58
  -7 -13  -2  140.07    8.42
  -8 -13  -2   13.96    2.28
   0 -14  -2   84.36    5.32
  -1 -14  -2  167.55   10.36
  -1 -14  -2  175.31    9.61
  -2 -14  -2   -0.02    1.55
  -2 -14  -2    1.20    1.28
  -3 -14  -2  133.38    9.02
  -3 -14  -2  135.90    8.28
  -4 -14  -2   48.11    4.21
  -4 -14  -2   44.08    4.74
  -5 -14  -2   55.22    5.14
  -5 -14  -2   60.98    4.72
  -6 -14  -2   44.59    3.91
  -6 -14  -2   41.92    4.16
  -7 -14  -2   89.51    5.67
  -2 -15  -2   38.70    3.18
  -2 -15  -2   39.22    3.73
  -3 -15  -2   16.01    2.75
  -3 -15  -2   16.38    2.26
  -4 -15  -2   25.82    3.42
  -4 -15  -2   29.68    2.87
  -5 -15  -2   22.56    3.08
  -5 -15  -2   24.24    2.72
  -6 -15  -2   55.03    3.84
   4  14  -3   48.27    4.59
  -4 -14   3   41.75    3.47
   3  14  -3  216.27   11.93
   2  14  -3  156.74    9.25
  -7 -13   3   41.85    3.17
  -6 -13   3   39.85    3.78
  -6 -13   3   42.84    3.49
   5  13  -3   19.80    3.08
  -5 -13   3   21.37    2.73
  -5 -13   3   18.58    2.96
   4  13  -3  417.12   21.16
  -4 -13   3  405.64   20.12
  -4 -13   3  401.73   20.62
   3  13  -3  131.24    8.56
  -3 -13   3  115.20    7.25
  -3 -13   3  124.68    7.87
   2  13  -3   75.18    6.29
  -2 -13   3   74.86    5.51
  -2 -13   3   76.05    5.04
   1  13  -3   40.47    4.56
  -1 -13   3   36.76    3.69
   0  13  -3  144.46    8.86
   0 -13   3  131.86    7.93
  -8 -12   3   70.30    5.14
  -8 -12   3   71.93    4.59
  -7 -12   3   57.07    4.59
  -7 -12   3   67.43    5.51
  -6 -12   3   56.67    5.25
  -6 -12   3   54.19    4.47
   5  12  -3  619.15   30.70
  -5 -12   3  628.76   31.03
  -5 -12   3  609.92   29.91
  -4 -12   3    9.32    2.49
  -4 -12   3    7.20    2.01
  -3 -12   3   26.17    3.45
  -3 -12   3   27.51    3.99
  -2 -12   3  190.42   11.32
   1  12  -3  120.79    8.71
  -1 -12   3  107.25    7.50
   0  12  -3   54.53    5.68
   0 -12   3   65.57    5.14
  -1  12  -3  208.94   12.15
   1 -12   3  200.65   11.19
   2 -12   3  299.22   15.09
  -9 -11   3   18.04    2.69
  -8 -11   3    0.12    1.73
  -8 -11   3    0.93    1.25
  -7 -11   3   26.04    3.33
  -7 -11   3   29.14    4.62
  -6 -11   3  235.95   14.32
  -6 -11   3  219.18   12.52
  -5 -11   3  196.15   11.64
  -5 -11   3  215.41   13.36
  -4 -11   3   29.57    3.84
  -4 -11   3   22.28    3.96
  -4 -11   3   29.93    4.51
  -3 -11   3   58.53    5.67
  -3 -11   3   59.11    5.03
  -3 -11   3   56.65    5.86
  -2 -11   3  270.81   15.25
  -2 -11   3  264.76   15.96
  -2 -11   3  270.64   14.54
  -1 -11   3  382.77   19.57
  -1 -11   3  392.22   21.32
  -1 -11   3  384.12   20.17
   0 -11   3  103.32    7.13
  -1  11  -3   94.41    7.64
   1 -11   3   98.30    6.67
  -2  11  -3   61.15    5.62
   2 -11   3   64.77    4.93
   3 -11   3  165.09    9.19
   4 -11   3  102.78    5.95
  -9 -10   3   17.95    2.40
  -9 -10   3   14.76    3.07
  -8 -10   3    7.52    2.75
  -8 -10   3    9.46    1.99
  -7 -10   3  101.75    8.78
  -7 -10   3  100.78    6.91
  -6 -10   3   47.31    6.82
  -6 -10   3   45.58    4.40
  -5 -10   3   58.32    5.01
  -5 -10   3   53.97    7.02
  -4 -10   3   49.55    6.36
  -4 -10   3   49.85    5.38
  -4 -10   3   48.93    4.69
  -3 -10   3  258.35   14.49
  -3 -10   3  267.74   15.76
  -3 -10   3  272.89   15.80
  -2 -10   3  429.64   24.21
  -2 -10   3  467.26   23.83
  -2 -10   3  472.38   23.06
  -1 -10   3  125.38    7.93
  -1 -10   3  124.35    9.27
  -1 -10   3  122.03    8.28
   0 -10   3  131.44    9.54
   0 -10   3  125.09    8.21
  -1  10  -3  178.33   11.70
   1 -10   3  172.42   10.25
  -2  10  -3  383.88   21.36
   2 -10   3  405.38   20.09
   3 -10   3   48.13    4.10
   4 -10   3   62.57    4.53
   5 -10   3   79.12    4.91
 -10  -9   3    3.73    1.78
  -9  -9   3   34.15    5.01
  -9  -9   3   45.84    3.69
  -8  -9   3  235.22   16.26
  -8  -9   3  300.74   14.66
  -7  -9   3   -1.63    1.92
  -7  -9   3    1.98    1.48
  -6  -9   3  102.48    6.77
  -6  -9   3   72.89    8.04
  -5  -9   3  150.12   11.79
  -5  -9   3  169.35    9.91
  -4  -9   3  333.93   18.62
  -4  -9   3  354.95   18.01
  -4  -9   3  335.73   19.76
  -3  -9   3  377.66   20.20
  -3  -9   3  348.36   19.57
  -3  -9   3  359.41   18.71
  -2  -9   3   85.10    7.29
  -2  -9   3   92.98    6.49
  -2  -9   3  104.54    7.38
  -1  -9   3  166.11   11.12
  -1  -9   3  169.77   10.24
  -1  -9   3  172.89    9.98
   0  -9   3  372.05   19.44
   0  -9   3  394.63   21.05
   1  -9   3  632.42   33.93
   1  -9   3  721.80   32.77
  -2   9  -3   16.68    3.53
   2  -9   3   12.66    2.38
   3  -9   3  184.96   10.32
   4  -9   3  195.92   10.63
   5  -9   3  284.22   14.31
   6  -9   3   40.08    3.04
 -10  -8   3   16.45    3.06
  -9  -8   3   78.32    7.03
  -9  -8   3   78.35    5.42
  -8  -8   3  160.65    9.32
  -8  -8   3  143.14   11.10
  -7  -8   3  193.63   13.89
  -7  -8   3  220.77   12.05
  -6  -8   3  113.44    9.87
  -6  -8   3  129.07    8.10
  -5  -8   3  614.39   35.09
  -5  -8   3  747.59   33.28
   4   8  -3  617.35   52.21
  -4  -8   3  668.54   30.31
  -4  -8   3  664.78   30.95
  -4  -8   3  523.25   31.54
   3   8  -3   30.72    8.38
  -3  -8   3   52.06    4.22
  -3  -8   3   47.28    4.81
  -3  -8   3   46.72    5.13
   2   8  -3  360.54   26.57
  -2  -8   3  351.59   19.21
  -2  -8   3  363.87   18.31
  -2  -8   3  355.74   18.98
  -1  -8   3  475.17   23.27
  -1  -8   3  463.61   22.92
  -1  -8   3  455.44   30.54
  -1  -8   3  467.00   24.13
   0  -8   3 1128.01   53.32
   0  -8   3 1102.71   51.78
  -1   8  -3  303.28   31.83
   1  -8   3  291.86   14.92
   1  -8   3  281.23   16.41
   2  -8   3  362.33   18.10
   3  -8   3  282.65   14.63
   4  -8   3   89.86    5.91
  -5   8  -3  130.29    9.17
   5  -8   3  121.51    7.32
  -6   8  -3   30.34    4.22
   6  -8   3   29.38    2.85
   7  -8   3    3.79    1.05
 -10  -7   3   13.88    2.99
 -10  -7   3   12.49    2.42
  -9  -7   3  206.16   11.95
  -9  -7   3  205.13   12.81
  -9  -7   3  192.62   11.33
  -8  -7   3    4.68    2.51
  -8  -7   3    9.64    2.61
  -8  -7   3    9.78    2.16
  -7  -7   3    5.53    2.73
  -7  -7   3    6.08    1.98
  -6  -7   3    4.38    1.76
  -6  -7   3    5.38    2.57
   5   7  -3  204.11   18.92
  -5  -7   3  213.20   11.89
  -5  -7   3  209.53   20.44
  -5  -7   3  236.78   14.02
   4   7  -3   74.80   10.32
  -4  -7   3   55.13    4.63
  -4  -7   3   61.49    9.55
  -4  -7   3   59.60    5.97
   3   7  -3  912.71   51.72
  -1  -7   3  128.28   12.58
   0   7  -3  194.85   18.05
   0  -7   3  224.42   17.23
  -1   7  -3  757.12   47.39
   1  -7   3  765.09   36.04
   1  -7   3  798.52   37.73
  -2   7  -3  301.73   26.56
   2  -7   3  302.10   16.80
   2  -7   3  315.72   15.38
   3  -7   3  472.02   22.79
  -4   7  -3   38.38    5.46
   4  -7   3   21.39    2.84
  -5   7  -3  119.58    9.03
   5  -7   3  107.75    6.76
  -6   7  -3  132.05    9.54
   6  -7   3  126.03    7.41
  -7   7  -3  135.60    8.82
   7  -7   3  117.05    7.20
 -10  -6   3   10.40    2.57
 -10  -6   3   12.12    2.82
  -9  -6   3  544.20   27.79
  -9  -6   3  527.08   27.47
  -8  -6   3   98.29    6.60
  -8  -6   3  100.26    7.99
  -8  -6   3  102.70    8.06
  -7  -6   3  266.64   15.49
  -7  -6   3  260.36   14.94
  -7  -6   3  241.68   13.65
  -6  -6   3 1244.37   60.16
  -6  -6   3 1359.79   60.97
  -6  -6   3 1278.15   59.08
  -6  -6   3 1210.21   81.94
   5   6  -3  104.08   12.26
  -5  -6   3  118.02   14.87
  -5  -6   3  121.23    7.25
  -5  -6   3  119.06    8.48
   4   6  -3  878.98   49.46
  -4  -6   3  864.77   50.60
   3   6  -3   55.74    8.06
  -3  -6   3   37.67    6.80
  -2  -6   3  327.65   21.51
   1   6  -3 1342.45   68.29
  -1  -6   3 1394.03   66.54
  -1  -6   3 1322.07   68.16
   0   6  -3  309.77   22.06
   0  -6   3  287.38   20.05
  -1   6  -3  731.42   44.62
   1  -6   3  777.88   41.64
  -2   6  -3  539.44   36.83
  -3   6  -3  158.48   18.53
  -3   6  -3  156.17   11.32
   3  -6   3  154.33    8.55
  -4   6  -3  159.48   11.15
   4  -6   3  165.70    9.14
  -5   6  -3  240.53   14.68
   5  -6   3  215.88   12.00
  -6   6  -3  393.88   22.33
   6  -6   3  397.65   19.62
  -7   6  -3   14.50    3.54
   7  -6   3   16.12    2.23
  -8   6  -3    9.54    2.57
   8  -6   3   11.73    1.72
 -11  -5   3   29.75    3.72
 -11  -5   3   32.17    3.00
 -10  -5   3   35.09    4.99
 -10  -5   3   37.76    4.03
  -9  -5   3   60.79    5.55
  -9  -5   3   58.31    6.38
  -8  -5   3    5.28    2.58
  -8  -5   3    6.76    1.79
  -8  -5   3    5.44    2.18
  -7  -5   3   96.61    7.93
  -7  -5   3  100.17    7.61
  -7  -5   3   97.26    6.44
   6   5  -3   59.16    9.39
  -6  -5   3   81.10    5.44
  -6  -5   3   89.38    6.57
  -6  -5   3   74.60    6.31
  -6  -5   3   72.78   12.85
   5   5  -3  761.21   44.77
  -5  -5   3  826.82   50.04
   4   5  -3  239.28   18.15
  -4  -5   3  213.47   19.15
   3   5  -3  397.68   25.00
  -3  -5   3  363.90   25.25
   2   5  -3  775.21   41.05
  -2  -5   3  719.98   40.46
   1   5  -3 2705.97  129.68
  -1  -5   3 2842.06  130.42
   0   5  -3  573.12   32.71
   0  -5   3  565.68   28.84
   0  -5   3  534.42   30.89
   1  -5   3  120.58    8.13
   1  -5   3  114.80   10.05
  -2   5  -3  357.10   26.57
   2  -5   3  374.65   20.13
  -3   5  -3  262.83   23.28
  -4   5  -3  597.55   43.45
  -4   5  -3  649.90   32.33
   4  -5   3  646.94   30.00
  -5   5  -3   22.85    4.41
   5  -5   3   25.35    3.18
  -6   5  -3   78.05    7.79
   6  -5   3   90.78    5.99
  -7   5  -3   33.81    5.68
   7  -5   3   55.84    4.24
  -8   5  -3   70.82    6.64
   8  -5   3   74.22    4.91
  -9   5  -3   71.94    5.70
   9  -5   3   76.48    4.40
 -11  -4   3   67.60    4.55
 -10  -4   3  252.25   16.07
 -10  -4   3  288.47   14.73
  -9  -4   3    1.82    1.52
  -9  -4   3    1.48    2.19
  -8  -4   3  139.75   10.57
  -8  -4   3  133.37    9.11
  -7  -4   3  194.68   11.09
  -7  -4   3  204.62   12.27
  -7  -4   3  222.12   13.59
   6   4  -3  967.34   53.94
  -6  -4   3 1017.56   47.33
  -6  -4   3  957.52   45.29
  -6  -4   3  977.93   46.41
  -6  -4   3  955.67   59.71
   5   4  -3  453.95   28.59
  -5  -4   3  450.57   32.56
   4   4  -3  908.71   48.58
  -4  -4   3  925.51   52.17
   3   4  -3  346.76   21.90
  -3  -4   3  337.83   23.34
   2   4  -3 2076.01   97.17
  -2  -4   3 1991.25   97.87
  -1  -4   3  277.24   18.04
  -1  -4   3  315.80   18.42
   0  -4   3  256.82   16.45
   0  -4   3  275.29   15.22
  -1   4  -3 1024.43   49.51
   1  -4   3  913.52   45.58
   1  -4   3  813.72   43.48
  -2   4  -3  764.02   42.29
   2  -4   3  682.25   36.06
  -3   4  -3  303.70   23.75
   3  -4   3  288.53   18.02
  -4   4  -3  799.94   51.70
   4  -4   3  889.77   44.58
  -5   4  -3  713.40   49.41
  -5   4  -3  741.91   36.79
   5  -4   3  720.11   34.17
  -6   4  -3   41.53    5.97
   6  -4   3   33.30    3.57
  -7   4  -3   72.75    7.52
   7  -4   3   75.05    5.53
  -8   4  -3   37.26    5.86
   8  -4   3   36.45    3.63
  -9   4  -3  105.73    8.19
   9  -4   3  111.61    6.35
 -11  -3   3    1.59    1.50
 -11  -3   3   -0.02    0.82
 -10  -3   3  169.91   12.16
 -10  -3   3  204.61   10.84
  -9  -3   3  132.97    8.62
  -9  -3   3  126.51   10.29
  -8  -3   3  139.97   10.73
  -8  -3   3  136.74    9.02
  -7  -3   3  322.36   16.91
  -7  -3   3  297.08   15.64
  -7  -3   3  315.18   18.36
   6   3  -3  517.89   32.67
  -6  -3   3  543.67   27.54
  -6  -3   3  532.87   37.69
  -6  -3   3  527.28   26.34
   5   3  -3  477.69   28.68
  -5  -3   3  460.07   32.29
   4   3  -3  240.31   17.23
  -4  -3   3  263.24   20.13
   3   3  -3  628.39   32.40
  -3  -3   3  546.83   33.76
   2   3  -3   76.37    7.50
  -2  -3   3   80.00    8.36
   1   3  -3 2210.52  110.95
   1   3  -3 2641.04  113.30
  -1  -3   3 2447.07  113.27
   0   3  -3  563.23   28.08
   0  -3   3  515.02   26.96
   0  -3   3  480.81   25.96
  -1   3  -3   14.31    3.97
   1  -3   3    8.85    2.18
   1  -3   3   11.60    2.74
  -2   3  -3 2781.81  129.33
   2  -3   3 2729.02  123.82
   2  -3   3 2616.41  124.44
  -3   3  -3 1239.04   66.95
   3  -3   3 1302.09   61.79
  -4   3  -3  151.08   15.69
   4  -3   3  135.11   11.26
  -5   3  -3    2.49    3.61
  -5   3  -3    5.27    2.25
   5  -3   3    2.58    1.22
   5  -3   3    2.37    2.39
  -6   3  -3  221.52   14.24
  -7   3  -3  119.81   10.39
   7  -3   3  152.21    8.66
  -8   3  -3   23.73    4.88
   8  -3   3   30.63    3.65
  -9   3  -3   94.51    8.08
   9  -3   3   89.71    5.84
 -10   3  -3   66.28    5.45
  10  -3   3   59.83    3.84
 -10  -2   3   77.92    5.38
 -10  -2   3   79.66    6.85
  -9  -2   3   33.24    5.33
  -9  -2   3   34.47    3.76
  -8  -2   3  569.18   30.59
  -8  -2   3  581.23   28.70
  -7  -2   3  277.86   16.32
  -7  -2   3  255.80   14.53
   6   2  -3  280.08   19.99
  -6  -2   3  279.08   23.80
  -6  -2   3  259.19   15.75
   5   2  -3  369.83   23.42
  -5  -2   3  346.87   25.93
   4   2  -3   11.94    3.59
  -4  -2   3   12.36    4.40
   3   2  -3  338.78   20.15
   2   2  -3  250.94   15.56
  -2  -2   3  272.95   17.17
   1   2  -3  111.21    8.06
   1   2  -3   97.32    6.28
  -1  -2   3  116.36    8.65
   0   2  -3  552.32   28.56
   0   2  -3  549.67   28.86
   0  -2   3  623.49   28.56
  -1   2  -3 1327.91   63.15
   1  -2   3 1319.43   60.48
   1  -2   3 1261.53   60.99
  -2   2  -3  897.13   47.65
   2  -2   3  932.98   43.23
   2  -2   3  933.40   44.79
  -3   2  -3   80.89    9.64
   3  -2   3  103.32    8.27
  -4   2  -3 1074.55   57.60
   4  -2   3 1016.59   52.64
  -5   2  -3   62.38   10.29
   5  -2   3   62.92    7.86
  -6   2  -3  235.24   14.34
  -6   2  -3  235.09   23.14
  -6   2  -3  229.69   12.05
   6  -2   3  217.65   17.71
  -7   2  -3  641.42   33.68
  -8   2  -3   24.64    5.04
   8  -2   3   19.58    2.99
  -9   2  -3  137.40   10.45
   9  -2   3  124.25    7.79
 -10   2  -3   25.23    4.10
  10  -2   3   18.26    2.28
 -10  -1   3    6.00    1.58
 -10  -1   3    7.12    2.32
  -9  -1   3   12.46    3.33
  -9  -1   3   11.06    2.28
  -8  -1   3  335.32   19.35
  -8  -1   3  332.21   17.66
  -7  -1   3   79.33    7.09
  -7  -1   3   74.78    5.84
   6   1  -3   88.07   10.33
  -6  -1   3   84.92    6.00
  -6  -1   3   85.04    7.00
  -6  -1   3   83.97   11.77
   5   1  -3   74.32    8.25
  -5  -1   3   76.46   10.13
   4   1  -3   68.96    7.60
  -4  -1   3   87.26    9.61
   3   1  -3 1941.89   88.94
  -3  -1   3 1823.44   90.41
   2   1  -3  452.10   24.45
  -2  -1   3  479.87   25.75
   1   1  -3  105.04    7.18
  -1  -1   3   95.05    7.50
   0   1  -3   76.32    5.66
   0   1  -3   79.19    5.66
   0  -1   3   86.41    5.88
  -1   1  -3 1867.94   93.11
  -1   1  -3 2189.15   95.81
   1  -1   3 2128.87   94.57
  -2   1  -3 1167.44   56.60
   2  -1   3 1128.39   54.45
  -3   1  -3  242.30   17.13
   3  -1   3  247.62   15.32
  -4   1  -3  219.23   17.38
   4  -1   3  215.06   15.11
  -5   1  -3  686.02   41.92
   5  -1   3  695.05   38.56
  -6   1  -3  422.24   21.22
  -6   1  -3  413.52   23.06
  -6   1  -3  433.44   32.07
  -6   1  -3  465.52   24.42
   6  -1   3  450.91   28.58
  -7   1  -3   36.11    3.74
  -7   1  -3   35.15    5.42
  -7   1  -3   35.91    3.43
  -8   1  -3   55.46    4.88
  -8   1  -3   57.67    4.67
  -8   1  -3   54.85    6.45
  -9   1  -3  255.56   13.72
  -9   1  -3  275.05   16.50
   9  -1   3  245.97   13.61
 -10   1  -3  171.63   12.52
  10  -1   3  227.86   10.97
 -10   0   3   13.89    2.57
 -10   0   3   10.10    1.78
  -9   0   3   39.13    3.67
  -9   0   3   34.62    4.86
  -8   0   3  238.78   14.79
  -8   0   3  247.33   13.51
  -7   0   3   28.07    3.68
  -7   0   3   24.82    4.40
   6   0  -3  278.63   20.68
  -6   0   3  332.86   17.48
  -6   0   3  319.85   16.21
  -6   0   3  312.56   24.50
   5   0  -3  706.06   37.75
  -5   0   3  642.21   39.65
   4   0  -3   75.30    7.84
  -4   0   3   97.91    9.96
   3   0  -3 1116.89   53.98
  -3   0   3 1120.65   55.41
  -3   0   3 1074.06   51.48
   2   0  -3 1351.27   62.46
  -2   0   3 1285.36   62.84
  -2   0   3 1305.24   59.91
   1   0  -3 1895.23   86.46
  -1   0   3 1882.29   86.57
  -1   0   3 1850.01   84.41
   0   0  -3 3056.85  124.65
   0   0  -3 2851.65  124.63
   0   0   3 2354.33  125.04
  -1   0  -3 1442.32   66.55
  -1   0  -3 1449.80   64.41
   1   0   3 1376.30   65.62
  -2   0  -3  651.64   33.09
   2   0   3  626.84   31.65
  -3   0  -3 1900.17   90.47
   3   0   3 1877.40   88.78
  -4   0  -3  897.53   47.29
   4   0   3  860.29   45.21
  -5   0  -3   12.54    4.73
  -6   0  -3   21.44    6.84
   6   0   3   36.51    6.71
  -7   0  -3  301.33   25.72
  -7   0  -3  322.24   16.76
  -7   0  -3  324.07   16.22
  -7   0  -3  318.01   18.05
   7   0   3  301.00   25.62
  -8   0  -3   87.36    7.72
  -8   0  -3   74.16    6.02
  -8   0  -3   74.02    5.58
  -9   0  -3  462.14   22.98
  -9   0  -3  488.22   25.70
  -9   0  -3  451.10   23.41
 -10   0  -3    2.16    1.96
 -10   0  -3    4.33    1.56
  10   0   3    6.23    1.65
  11   0   3   20.41    2.10
  10  -1  -3   19.26    2.26
 -10   1   3   21.53    2.60
  -9   1   3  284.63   15.53
  -9   1   3  283.76   14.60
  -8   1   3   38.80    3.70
  -8   1   3   33.94    4.85
  -7   1   3    1.45    1.23
  -7   1   3    5.46    2.19
  -6   1   3   61.15    5.65
  -6   1   3   60.96    9.83
  -6   1   3   66.01    5.00
   5  -1  -3 1581.01   78.38
  -5   1   3 1597.02   81.19
   4  -1  -3 2178.00  105.93
  -4   1   3 2316.58  108.50
   3  -1  -3  704.57   36.91
  -3   1   3  714.51   37.80
  -3   1   3  731.05   36.51
   2  -1  -3 1921.14   86.21
  -2   1   3 1753.26   86.03
  -2   1   3 1857.15   85.52
   1  -1  -3 1205.46   57.50
  -1   1   3 1222.11   57.16
  -1   1   3 1248.56   56.62
   0  -1  -3 8532.42  369.46
   0  -1  -3 8182.20  369.09
   0   1   3 7715.98  368.14
  -1  -1  -3  486.10   24.69
  -1  -1  -3  469.34   23.16
   1   1   3  508.85   23.98
  -2  -1  -3 5510.15  240.90
   2   1   3 5139.16  243.51
  -3  -1  -3  888.50   46.61
   3   1   3  974.32   46.20
  -4  -1  -3  211.04   15.15
   4   1   3  193.98   14.08
  -5  -1  -3  749.20   42.37
   5   1   3  771.09   41.70
  -6  -1  -3  109.86   12.07
   6   1   3  100.45   11.38
  -7  -1  -3  195.06   18.26
  -7  -1  -3  191.08   11.94
  -7  -1  -3  183.83   11.11
  -7  -1  -3  196.36   10.64
   7   1   3  178.16   17.27
  -8  -1  -3   94.53    7.78
  -8  -1  -3   97.56    6.47
  -8  -1  -3   84.77    6.80
  -9  -1  -3  250.52   15.01
  -9  -1  -3  230.09   13.58
  -9  -1  -3  240.10   13.03
 -10  -1  -3   45.11    5.09
 -10  -1  -3   41.66    4.16
 -11  -1  -3   91.96    5.48
 -11  -1  -3   83.45    6.35
  11   1   3   83.93    5.22
  10  -2  -3   46.68    3.49
  -8   2   3   28.06    3.10
  -8   2   3   29.29    5.23
  -8   2   3   26.38    3.85
  -7   2   3  332.82   17.96
  -7   2   3  330.57   19.96
  -7   2   3  318.77   16.82
  -6   2   3  457.45   24.04
  -6   2   3  462.87   23.14
  -6   2   3  498.30   26.20
   5  -2  -3  199.54   14.95
  -5   2   3  185.95   16.23
   4  -2  -3  183.53   13.34
  -4   2   3  167.57   13.93
  -4   2   3  181.30   14.84
   3  -2  -3  408.68   24.94
  -3   2   3  464.47   25.92
  -3   2   3  495.94   27.30
   2  -2  -3  335.36   19.03
  -2   2   3  325.00   19.75
  -2   2   3  341.40   18.81
  -1   2   3   15.37    2.33
  -1   2   3   14.62    2.56
   0  -2  -3 5022.41  203.44
   0   2   3 4386.58  203.00
   0   2   3 4065.57  202.25
  -1  -2  -3 1258.21   55.78
  -1  -2  -3 1170.06   54.69
   1   2   3 1126.69   54.24
  -2  -2  -3  837.78   41.80
  -2  -2  -3  823.66   39.97
   2   2   3  908.60   41.25
  -3  -2  -3 2118.87   96.02
   3   2   3 1972.66   95.25
  -4  -2  -3 1632.02   83.10
   4   2   3 1831.81   83.48
  -5  -2  -3  157.75   13.87
   5   2   3  207.56   15.16
  -6  -2  -3   86.24   10.00
   6   2   3   69.89    9.44
  -7  -2  -3   12.95    2.31
  -7  -2  -3   15.04    3.04
  -7  -2  -3    9.45    2.46
   7   2   3   13.47    5.46
  -8  -2  -3   21.76    3.55
  -8  -2  -3   21.29    3.89
  -8  -2  -3   23.13    3.34
  -9  -2  -3   -0.42    1.33
  -9  -2  -3    0.00    1.41
  -9  -2  -3    1.33    1.29
 -10  -2  -3   59.64    4.61
 -10  -2  -3   64.31    5.38
 -10  -2  -3   59.26    5.58
  11   2   3   32.97    2.93
   9  -3  -3   47.35    3.61
  -8   3   3   15.09    4.13
  -7   3   3  259.63   13.36
  -7   3   3  237.55   17.07
  -6   3   3 1609.77   71.62
  -6   3   3 1505.77   75.58
   5  -3  -3 1024.30   55.60
  -5   3   3 1025.24   52.00
  -5   3   3 1118.63   49.35
   4  -3  -3  158.05   12.39
  -4   3   3  143.59   15.27
   3  -3  -3  215.00   14.72
  -3   3   3  233.47   14.92
  -3   3   3  215.29   17.59
  -2   3   3  116.53   10.69
  -2   3   3  120.34    8.55
   1  -3  -3   64.14    5.66
  -1   3   3   52.71    5.58
  -1   3   3   49.36    4.17
  -1  -3  -3   16.68    2.79
  -1  -3  -3   17.52    2.84
  -2  -3  -3 6121.72  280.41
  -2  -3  -3 6652.77  281.74
   2   3   3 5898.01  280.27
  -3  -3  -3  753.47   33.28
  -3  -3  -3  665.02   34.78
   3   3   3  609.31   33.83
   4   3   3  148.73   11.46
   4   3   3  144.19    9.23
  -5  -3  -3 1274.47   61.22
   5   3   3 1141.84   61.18
  -6  -3  -3  225.01   16.98
   6   3   3  214.25   17.65
  -7  -3  -3  121.37    7.89
  -7  -3  -3  140.29    8.72
  -7  -3  -3  133.72    8.60
   7   3   3  129.20   14.17
  -8  -3  -3  127.23    8.73
  -8  -3  -3  126.23    8.10
  -8  -3  -3  130.15    8.82
  -9  -3  -3  128.62    8.32
  -9  -3  -3  131.70    9.12
  -9  -3  -3  134.44    9.07
 -10  -3  -3  282.52   15.03
 -10  -3  -3  257.54   14.19
 -10  -3  -3  267.58   15.02
 -11  -3  -3   13.79    2.55
 -11  -3  -3   15.82    2.24
   9  -4  -3   46.38    3.18
  -9   4   3   40.12    4.84
   8  -4  -3  205.13    9.87
  -8   4   3  136.55   12.14
  -7   4   3    2.61    2.92
  -6   4   3   88.34    5.69
  -6   4   3   73.08    8.75
  -5   4   3  161.28   13.14
  -5   4   3  212.71   10.52
   4  -4  -3  554.32   29.79
  -4   4   3  414.06   34.23
   3  -4  -3  369.92   21.24
  -3   4   3  279.09   23.65
   2  -4  -3 1413.66   74.84
  -2   4   3 1722.08   79.51
   1  -4  -3   35.10    4.59
  -1   4   3   34.24    5.06
   0  -4  -3 1531.51   72.71
   0   4   3 1544.28   72.40
  -1  -4  -3 1246.57   60.40
   1   4   3 1291.53   59.88
  -2  -4  -3  992.18   47.31
  -2  -4  -3 1037.06   47.13
   2   4   3  877.97   45.14
  -3  -4  -3 1086.80   58.54
  -3  -4  -3 1162.35   58.54
   3   4   3 1408.58   58.99
  -4  -4  -3   61.00    6.68
  -4  -4  -3   64.76    6.09
   4   4   3   71.24    7.26
  -6  -4  -3  134.29   11.91
   6   4   3  117.80   12.39
  -7  -4  -3   25.56    3.55
  -7  -4  -3   24.99    3.64
  -7  -4  -3   24.59    3.30
   7   4   3   18.07    6.18
  -8  -4  -3  271.43   15.15
  -8  -4  -3  271.67   14.52
  -8  -4  -3  253.45   14.60
  -9  -4  -3   30.16    5.39
  -9  -4  -3   28.17    4.31
  -9  -4  -3   27.74    3.69
 -10  -4  -3  106.80    7.66
 -10  -4  -3  104.08    6.94
 -11  -4  -3  137.98    8.46
 -11  -4  -3  127.85    7.58
   8  -5  -3  229.31   11.40
  -8   5   3  215.84   14.44
   7  -5  -3  165.16    8.79
  -7   5   3  135.33   12.06
   6  -5  -3  426.39   19.94
  -6   5   3  368.02   24.13
   5  -5  -3  296.13   15.10
  -5   5   3  307.99   19.19
   4  -5  -3  276.10   19.40
  -4   5   3  267.31   16.17
  -4   5   3  225.15   24.52
   3  -5  -3  109.32   10.37
  -3   5   3   91.68   12.77
   2  -5  -3  488.48   29.55
  -2   5   3  573.58   34.02
   1  -5  -3  665.31   34.17
  -1   5   3  593.78   34.95
   0  -5  -3 1188.69   58.93
   0   5   3 1213.67   58.89
  -1  -5  -3 1389.74   63.03
   1   5   3 1197.43   61.79
  -2  -5  -3 2606.14  118.13
   2   5   3 2284.82  114.51
   2   5   3 2722.16  117.33
  -3  -5  -3 1898.09   95.34
   3   5   3 2141.85   93.95
  -4  -5  -3 1328.74   64.60
  -4  -5  -3 1305.73   63.75
  -5  -5  -3  533.30   29.65
   5   5   3  524.63   29.26
   5   5   3  545.02   31.19
  -6  -5  -3   43.39    6.21
   6   5   3   37.17    6.87
  -7  -5  -3   24.55    3.43
  -7  -5  -3   24.26    3.63
   7   5   3   37.19    7.61
  -8  -5  -3  141.15    9.26
  -8  -5  -3  138.29    8.84
  -9  -5  -3  181.66   11.14
  -9  -5  -3  168.62   10.44
 -10  -5  -3  155.66    9.66
 -10  -5  -3  139.26    8.85
 -11  -5  -3    8.22    1.81
 -11  -5  -3    7.65    2.16
  -8   6   3  353.43   19.37
  -7   6   3  143.55   11.30
   6  -6  -3   86.96    5.61
  -6   6   3   86.00    8.94
   5  -6  -3  250.77   15.06
  -5   6   3  312.26   18.50
  -4   6   3  101.81   16.89
  -4   6   3  121.44    9.46
   3  -6  -3   82.96    9.73
  -3   6   3   88.33    7.28
  -3   6   3   84.67   12.92
   2  -6  -3  775.89   41.40
  -2   6   3  713.37   44.61
   1  -6  -3  867.95   47.01
  -1   6   3  925.39   49.33
   0  -6  -3  328.02   20.48
   0   6   3  311.67   20.55
  -1  -6  -3  382.38   23.80
   1   6   3  423.08   23.34
   2   6   3   27.73    4.36
  -3  -6  -3 2324.47  119.21
   3   6   3 2733.01  117.94
  -4  -6  -3  744.06   41.65
   4   6   3  826.57   40.30
   4   6   3  759.30   39.90
  -5  -6  -3  112.34   10.34
   5   6   3   94.05    9.73
   6   6   3  260.00   19.75
  -7  -6  -3  123.47    7.52
   7   6   3   95.21   12.14
  -8  -6  -3   10.48    2.50
  -8  -6  -3   10.38    2.39
  -9  -6  -3  192.08   11.49
  -9  -6  -3  185.26   11.17
 -10  -6  -3   21.55    3.18
 -10  -6  -3   24.99    3.58
 -11  -6  -3   67.97    5.07
 -11  -6  -3   54.18    4.40
  -7   7   3    5.91    2.68
  -6   7   3   57.59    6.86
  -5   7   3   19.92    4.54
  -4   7   3  175.27   12.50
   3  -7  -3  196.40   11.07
   3  -7  -3  187.98   16.98
  -3   7   3  241.27   13.87
  -3   7   3  212.15   22.09
   2  -7  -3   55.96    6.71
   2  -7  -3   38.06    6.99
  -2   7   3   45.62    9.00
  -2   7   3   55.00    5.14
   1  -7  -3   53.54    7.78
  -1   7   3   71.04    9.67
   0  -7  -3  510.18   30.93
   0   7   3  528.36   31.80
  -1  -7  -3 1081.84   53.72
   1   7   3  968.42   52.69
  -2  -7  -3   63.87    8.21
   2   7   3   85.02    8.01
  -3  -7  -3  115.58   11.43
   3   7   3  125.21   10.38
  -4  -7  -3   30.95    6.03
   4   7   3   30.77    4.74
  -5  -7  -3  551.54   32.58
   5   7   3  509.41   29.18
  -8  -7  -3  307.35   16.40
  -9  -7  -3  180.13   11.13
  -9  -7  -3  194.04   11.14
 -10  -7  -3   15.17    2.77
 -10  -7  -3   14.07    2.60
 -11  -7  -3  107.28    6.73
  -7   8   3   85.25    6.57
  -6   8   3   39.71    5.66
  -5   8   3   83.89    8.10
  -4   8   3  201.97   13.70
   3  -8  -3  574.34   28.30
  -3   8   3  599.02   30.78
   2  -8  -3  158.22    9.10
   2  -8  -3  153.03   15.29
  -2   8   3  162.41   25.42
  -2   8   3  159.12   10.64
   1  -8  -3  578.88   36.93
   1  -8  -3  571.24   29.27
  -1   8   3  653.23   40.53
  -1   8   3  657.50   30.86
   0  -8  -3  159.61   14.26
   0   8   3  139.63   14.50
  -1  -8  -3  457.31   29.05
   1   8   3  447.87   28.88
  -2  -8  -3  459.79   30.11
   2   8   3  503.84   29.52
  -3  -8  -3   85.71   10.34
   3   8   3   77.27    8.37
  -4  -8  -3  467.29   30.80
   4   8   3  484.46   27.92
  -5  -8  -3  115.75   12.90
 -10  -8  -3   35.85    3.42
 -11  -8  -3   37.33    3.28
  -6   9   3   28.18    4.14
  -5   9   3    7.67    2.82
  -4   9   3  188.43   12.79
   3  -9  -3  158.10    9.17
  -3   9   3  149.19   10.97
   2  -9  -3  452.27   23.18
  -2   9   3  487.06   25.35
   1  -9  -3  159.84    9.30
  -1   9   3  154.97   10.36
   0  -9  -3  138.03   14.42
   0  -9  -3  134.01    8.07
   0  -9  -3  126.08    8.49
   0   9   3  130.78    8.85
   0   9   3  134.78   15.33
  -1  -9  -3  875.00   50.18
  -1  -9  -3  866.61   41.46
  -1  -9  -3  830.58   40.76
   1   9   3  899.28   50.75
  -2  -9  -3    1.65    1.37
  -2  -9  -3    0.70    1.12
  -2  -9  -3    1.30    2.35
   2   9   3    1.12    2.33
  -3  -9  -3  591.90   29.15
  -3  -9  -3  610.81   37.95
  -3  -9  -3  602.24   29.65
   3   9   3  620.44   36.15
  -4  -9  -3  112.34    7.19
  -4  -9  -3  103.74   12.64
  -4  -9  -3  102.66    6.77
   4   9   3   97.52   10.44
  -5  -9  -3   18.20    6.49
  -5  -9  -3   16.19    2.81
  -5  -9  -3   17.37    2.92
  -6  -9  -3   30.12    3.92
  -5  10   3   60.74    5.71
  -4  10   3    1.11    2.02
  -3  10   3  382.62   21.43
   2 -10  -3  239.21   13.09
  -2  10   3  240.30   14.80
   1 -10  -3  103.54    7.08
  -1  10   3  105.86    8.26
   0 -10  -3  891.51   43.33
   0 -10  -3  901.42   42.58
   0  10   3  904.38   43.72
  -1 -10  -3  180.57   10.50
  -1 -10  -3  183.18   11.19
  -2 -10  -3  295.74   16.54
  -2 -10  -3  310.67   16.01
  -3 -10  -3   86.05    6.37
  -3 -10  -3   73.32    5.64
   3  10   3   75.22   10.49
  -4 -10  -3  444.29   22.53
  -4 -10  -3  447.83   22.94
  -5 -10  -3   85.08    6.49
  -5 -10  -3   82.54    6.22
  -6 -10  -3   57.40    5.17
  -6 -10  -3   56.92    5.08
  -4  11   3   37.24    4.80
  -3  11   3  105.62    8.30
   2 -11  -3  313.23   16.83
  -2  11   3  346.90   18.88
   1 -11  -3  461.38   22.11
  -1  11   3  411.42   23.21
   0 -11  -3  147.76    9.78
   0 -11  -3  149.42    8.99
   0  11   3  131.60    9.71
  -1 -11  -3  102.36    7.90
  -1 -11  -3  107.46    7.26
  -2 -11  -3  151.51    9.35
  -2 -11  -3  151.65   10.06
  -3 -11  -3  115.56    8.30
  -3 -11  -3  113.19    7.58
  -4 -11  -3  218.29   12.82
  -4 -11  -3  235.55   13.48
  -5 -11  -3  140.20    9.11
  -5 -11  -3  142.99    9.48
  -6 -11  -3   59.34    5.38
  -6 -11  -3   54.59    5.12
  -7 -11  -3   13.63    2.96
  -3  12   3    8.81    2.42
  -2  12   3   28.09    4.34
   1 -12  -3   18.85    2.94
  -1  12   3   22.33    5.83
   0 -12  -3  105.69    7.81
   0 -12  -3  101.74    7.00
  -1 -12  -3   16.61    2.84
  -1 -12  -3   18.09    3.59
  -2 -12  -3  540.87   26.98
  -2 -12  -3  546.39   27.97
  -3 -12  -3   58.22    5.76
  -3 -12  -3   61.46    5.32
  -4 -12  -3   81.94    6.34
  -4 -12  -3   89.52    7.09
  -5 -12  -3   46.81    5.01
  -5 -12  -3   51.10    4.75
  -6 -12  -3   75.94    6.26
  -6 -12  -3   76.25    5.99
  -7 -12  -3  112.02    7.63
   1 -13  -3    8.64    1.88
   0 -13  -3  253.70   14.23
   0 -13  -3  250.13   13.47
  -1 -13  -3   88.37    6.27
  -1 -13  -3   84.15    6.87
  -2 -13  -3  131.71    8.49
  -2 -13  -3  131.43    9.19
  -3 -13  -3  134.58    8.69
  -3 -13  -3  138.79    9.49
  -4 -13  -3   73.92    6.49
  -4 -13  -3   82.25    6.05
  -5 -13  -3   94.23    7.17
  -5 -13  -3   88.60    6.53
  -6 -13  -3    4.31    1.69
  -6 -13  -3    3.41    1.81
  -7 -13  -3   43.66    4.14
   0 -14  -3  118.56    6.91
  -1 -14  -3   43.54    3.85
  -1 -14  -3   43.90    4.47
  -2 -14  -3   95.56    7.10
  -2 -14  -3   92.22    6.31
  -3 -14  -3   31.03    4.10
  -3 -14  -3   30.50    3.63
  -4 -14  -3   60.74    5.51
  -4 -14  -3   63.58    5.01
  -5 -14  -3   84.95    5.89
  -5 -14  -3   83.10    6.45
  -6 -14  -3   53.95    4.78
  -6 -14  -3   53.28    4.33
  -7 -14  -3   35.10    3.28
  -2 -15  -3   16.57    2.23
  -2 -15  -3   14.88    2.62
  -3 -15  -3  223.91   11.85
  -3 -15  -3  231.84   12.66
  -4 -15  -3  233.53   12.88
  -4 -15  -3  234.40   12.19
  -5 -15  -3  109.35    6.95
  -5 -15  -3   97.00    6.14
  -6 -15  -3   98.00    6.49
  -6 -15  -3  102.12    5.90
  -6 -13   4    8.00    1.56
  -6 -13   4    8.88    2.41
  -5 -13   4   23.87    2.69
  -5 -13   4   23.50    3.03
   4  13  -4  245.51   13.49
  -4 -13   4  242.66   12.54
  -4 -13   4  245.40   13.15
   3  13  -4   54.07    4.90
  -3 -13   4   50.51    4.47
  -3 -13   4   50.47    3.81
   2  13  -4  266.34   14.75
  -2 -13   4  268.72   14.10
   1  13  -4   41.54    4.20
  -1 -13   4   31.83    3.33
   0  13  -4   53.39    4.65
   0 -13   4   56.47    4.16
  -7 -12   4  207.59   11.55
  -7 -12   4  206.91   10.82
  -6 -12   4  193.59   11.50
  -6 -12   4  198.35   10.70
  -5 -12   4   52.19    5.05
  -5 -12   4   56.81    4.47
   4  12  -4   20.10    3.57
  -4 -12   4   21.65    2.99
  -4 -12   4   25.49    3.70
   3  12  -4  175.82   11.33
  -3 -12   4  176.13   10.90
  -3 -12   4  189.37   10.28
   2  12  -4  238.92   13.93
  -2 -12   4  237.30   12.36
  -2 -12   4  222.84   13.07
   1  12  -4    7.51    2.52
  -1 -12   4    7.94    2.06
   0  12  -4   80.83    6.53
   0 -12   4   72.97    5.58
  -1  12  -4   31.81    4.17
   1 -12   4   29.75    3.30
   2 -12   4   45.81    3.68
  -8 -11   4   55.72    4.86
  -8 -11   4   52.20    3.94
  -7 -11   4   39.51    3.70
  -7 -11   4   39.65    5.02
  -6 -11   4  222.68   12.33
  -6 -11   4  225.56   13.75
  -5 -11   4   49.31    5.39
  -5 -11   4   39.80    4.05
   4  11  -4  133.20   10.33
  -4 -11   4  193.99   11.41
  -4 -11   4  180.63   10.08
  -3 -11   4   82.23    6.05
  -3 -11   4   88.62    7.04
  -2 -11   4  274.40   14.62
  -2 -11   4  275.10   15.49
   1  11  -4  159.99   11.49
  -1 -11   4  197.80   11.13
   0  11  -4  107.84    8.40
   0 -11   4  106.83    7.34
  -1  11  -4  182.84   12.01
   1 -11   4  203.95   11.22
  -2  11  -4   67.37    5.97
   2 -11   4   81.76    5.54
   3 -11   4  170.52    9.38
  -9 -10   4   23.58    3.34
  -9 -10   4   24.94    2.47
  -8 -10   4   75.07    6.81
  -8 -10   4   80.30    5.43
  -7 -10   4  192.61   12.75
  -7 -10   4  188.34   10.85
  -6 -10   4   71.54    7.24
  -6 -10   4   85.12    6.07
  -5 -10   4  307.88   17.75
  -5 -10   4  279.15   15.60
  -4 -10   4   93.01    7.81
  -4 -10   4   83.49    6.33
  -3 -10   4   24.33    3.56
  -3 -10   4   26.48    4.26
  -3 -10   4   32.51    4.86
  -2 -10   4   51.29    5.29
  -2 -10   4   52.51    4.68
  -2 -10   4   58.86    5.85
  -1 -10   4  709.24   36.13
  -1 -10   4  724.14   34.47
  -1 -10   4  725.36   35.18
   0  10  -4   61.81    6.42
   0 -10   4   78.68    5.89
  -1  10  -4   45.41    6.06
   1 -10   4   63.87    4.99
  -2  10  -4  173.72   11.52
   2 -10   4  184.91   10.46
   3 -10   4  421.84   20.98
   4 -10   4  162.75    9.06
   5 -10   4    4.81    1.23
  -9  -9   4   20.22    3.52
  -9  -9   4   22.49    2.71
  -8  -9   4   42.13    3.91
  -8  -9   4   37.13    5.55
  -7  -9   4   32.05    3.85
  -7  -9   4   27.03    5.16
  -6  -9   4  131.38   10.73
  -6  -9   4  143.49    8.91
  -5  -9   4  293.21   18.02
  -5  -9   4  297.65   15.93
  -4  -9   4  144.21   10.30
  -4  -9   4  125.61    8.37
  -4  -9   4  132.96    9.22
  -3  -9   4   33.60    4.76
  -3  -9   4   29.06    4.64
  -3  -9   4   34.55    4.18
  -2  -9   4  334.84   18.61
  -2  -9   4  339.51   18.17
  -2  -9   4  315.38   17.09
  -1  -9   4  282.22   15.31
  -1  -9   4  271.24   14.72
  -1  -9   4  283.03   16.47
   0  -9   4  366.34   18.96
   0  -9   4  365.74   20.26
  -1   9  -4  292.76   16.46
   1  -9   4  253.41   14.42
  -2   9  -4    9.36    2.86
   2  -9   4   12.37    2.48
   3  -9   4    6.49    1.80
   4  -9   4   26.57    3.13
   5  -9   4   24.71    2.86
   6  -9   4    3.60    1.13
 -10  -8   4   16.22    2.71
  -9  -8   4   38.49    3.40
  -9  -8   4   32.42    4.61
  -8  -8   4  112.71    9.22
  -8  -8   4  123.44    7.66
  -7  -8   4  811.53   37.95
  -7  -8   4  767.54   40.26
  -6  -8   4   36.90    5.98
  -6  -8   4   35.95    4.20
  -5  -8   4   73.94    5.66
  -5  -8   4   64.32    7.07
  -4  -8   4   59.85    4.84
  -4  -8   4   58.55    5.50
  -4  -8   4   51.07    6.73
  -3  -8   4  920.00   43.85
  -3  -8   4  919.73   45.37
  -3  -8   4  949.33   45.00
   2   8  -4  253.17   22.14
  -2  -8   4  288.62   15.97
  -2  -8   4  286.17   15.61
  -2  -8   4  285.18   14.76
   1   8  -4  286.28   22.88
  -1  -8   4  288.49   15.51
  -1  -8   4  289.79   15.07
   0  -8   4  249.96   14.82
   0  -8   4  248.21   13.45
   1  -8   4 1682.77   77.07
  -2   8  -4  104.42    7.77
   2  -8   4   75.44    5.60
  -3   8  -4  389.80   22.18
   3  -8   4  425.45   20.46
   4  -8   4   20.84    2.88
   5  -8   4  391.14   19.30
   6  -8   4  264.48   13.33
 -10  -7   4    7.02    1.86
 -10  -7   4    3.94    1.83
  -9  -7   4   85.31    5.93
  -9  -7   4   94.84    6.82
  -9  -7   4  104.42    7.65
  -8  -7   4   54.98    5.89
  -8  -7   4   46.19    5.28
  -8  -7   4   50.04    4.35
  -7  -7   4  231.16   14.65
  -7  -7   4  226.30   12.73
  -6  -7   4  537.50   28.48
  -6  -7   4  527.00   26.35
  -5  -7   4   38.82    3.88
  -5  -7   4   42.10    5.84
   4   7  -4   16.42    5.87
  -4  -7   4   13.75    3.36
  -4  -7   4   17.16    2.70
  -4  -7   4   16.01    6.06
   3   7  -4  399.39   27.87
  -3  -7   4  396.88   19.28
  -3  -7   4  341.17   29.51
  -3  -7   4  369.19   20.46
  -3  -7   4  395.40   20.13
   2   7  -4  375.68   26.66
  -2  -7   4  379.03   19.95
  -2  -7   4  371.96   19.28
  -2  -7   4  377.80   19.70
   1   7  -4   35.24    7.00
  -1  -7   4   37.83    3.62
  -1  -7   4   34.34    4.50
   0  -7   4   18.95    3.52
   0  -7   4   26.12    2.81
  -1   7  -4    7.49    4.99
   1  -7   4    6.32    1.59
   1  -7   4    6.43    2.22
  -2   7  -4  574.55   30.42
   2  -7   4  618.28   28.57
  -3   7  -4  122.00    9.38
   3  -7   4  139.67    7.85
   4  -7   4   36.55    3.43
  -5   7  -4   60.57    5.97
   5  -7   4   50.09    4.14
  -6   7  -4   77.72    6.41
   6  -7   4   61.76    4.59
  -7   7  -4   47.59    4.54
   7  -7   4   42.56    3.39
 -10  -6   4   35.92    4.00
 -10  -6   4   35.79    4.35
  -9  -6   4   51.43    5.30
  -9  -6   4   46.24    5.12
  -8  -6   4   76.45    5.57
  -8  -6   4   80.34    6.96
  -8  -6   4   78.03    6.87
  -7  -6   4  717.64   35.10
  -7  -6   4  684.89   33.15
  -7  -6   4  663.74   34.36
  -6  -6   4  400.25   22.10
  -6  -6   4  439.96   23.05
  -6  -6   4  433.50   21.41
   5   6  -4   78.51   10.85
  -5  -6   4   65.09    6.16
  -5  -6   4   63.11    5.00
  -5  -6   4   68.53   12.31
   4   6  -4  434.41   29.37
  -4  -6   4  421.08   21.43
  -4  -6   4  433.32   31.73
  -4  -6   4  450.76   22.98
   3   6  -4  335.06   24.13
  -3  -6   4  335.66   24.76
   2   6  -4  956.50   52.02
  -2  -6   4  939.68   51.15
   1   6  -4  977.71   51.69
  -1  -6   4  929.83   49.40
   0   6  -4  134.71   13.47
   0  -6   4  143.19   10.97
  -1   6  -4   13.73    5.49
  -2   6  -4  814.22   50.12
  -2   6  -4  790.46   39.23
   2  -6   4  805.20   37.28
  -3   6  -4  395.73   22.48
  -3   6  -4  403.20   33.21
   3  -6   4  462.66   20.72
  -4   6  -4  126.44    9.57
   4  -6   4  143.07    7.97
  -5   6  -4   65.70    6.89
   5  -6   4   86.64    5.51
  -6   6  -4   70.30    6.90
   6  -6   4   75.89    5.16
  -7   6  -4  159.58   11.00
   7  -6   4  181.08    9.37
  -8   6  -4   41.74    4.47
   8  -6   4   65.53    3.84
 -10  -5   4   78.55    6.87
 -10  -5   4   79.67    5.87
  -9  -5   4  160.77   11.04
  -9  -5   4  139.91    9.51
  -8  -5   4  165.34   11.52
  -8  -5   4  149.77    9.07
  -8  -5   4  162.21   10.52
  -7  -5   4    1.17    2.00
  -7  -5   4    1.51    1.29
  -7  -5   4    2.86    1.82
  -6  -5   4   40.79    5.29
  -6  -5   4   38.38    4.91
  -6  -5   4   38.10    3.80
   5   5  -4    4.20    3.29
  -5  -5   4    9.07    1.89
  -5  -5   4    7.71    2.35
  -5  -5   4    7.97    5.15
   4   5  -4  475.17   30.24
  -4  -5   4  475.76   33.89
   3   5  -4  131.06   12.55
  -3  -5   4  115.10   13.07
   2   5  -4  647.52   36.82
  -2  -5   4  633.84   37.13
   1   5  -4  543.25   32.19
  -1  -5   4  579.64   31.67
   0   5  -4  157.27   13.59
   0  -5   4  161.15   11.30
  -1   5  -4 1070.32   57.43
   1  -5   4 1034.90   50.77
  -2   5  -4   14.65    6.07
   2  -5   4   23.17    3.46
  -3   5  -4  228.71   22.01
   3  -5   4  253.44   12.43
  -4   5  -4  342.10   18.91
  -4   5  -4  327.90   35.42
   4  -5   4  341.33   16.91
  -5   5  -4    8.92    2.94
   5  -5   4   17.59    2.61
  -6   5  -4  164.18   11.85
   6  -5   4  174.55    9.73
  -7   5  -4   19.52    4.10
   7  -5   4   17.43    2.50
  -8   5  -4    9.56    2.80
   8  -5   4    3.87    1.34
 -10  -4   4   30.16    3.33
 -10  -4   4   25.05    4.55
  -9  -4   4  471.90   26.92
  -9  -4   4  509.38   25.05
  -8  -4   4  305.53   17.14
  -8  -4   4  310.08   15.93
  -8  -4   4  322.88   19.13
  -7  -4   4  695.80   34.60
  -7  -4   4  727.84   35.94
  -7  -4   4  774.23   37.77
   6   4  -4  154.20   15.15
  -6  -4   4  129.36    9.61
  -6  -4   4  118.71   17.16
  -6  -4   4  138.09    8.91
  -6  -4   4  123.32    7.84
   5   4  -4  886.24   48.75
  -5  -4   4  839.05   53.92
   4   4  -4 1511.70   74.15
  -4  -4   4 1392.40   78.17
   3   4  -4  376.83   22.93
  -3  -4   4  313.20   24.43
   2   4  -4   55.22    6.99
  -2  -4   4   43.27    7.07
   1   4  -4  728.97   38.45
   1   4  -4  749.44   39.40
  -1  -4   4  748.72   39.38
   0   4  -4 4593.41  206.68
   0   4  -4 4031.58  206.80
   0  -4   4 4904.24  205.29
  -1   4  -4 2412.03  117.05
   1  -4   4 2412.61  113.21
   1  -4   4 2461.49  111.72
  -2   4  -4   14.85    5.26
   2  -4   4   16.34    3.19
  -3   4  -4  411.25   29.75
   3  -4   4  408.32   23.76
  -4   4  -4  619.30   42.13
  -4   4  -4  686.38   34.31
   4  -4   4  621.06   29.27
   4  -4   4  575.53   34.08
  -5   4  -4  874.92   45.30
   5  -4   4  968.41   43.20
  -6   4  -4   56.27    6.19
   6  -4   4   45.01    4.16
  -7   4  -4   90.07    8.12
   7  -4   4   87.07    6.05
  -8   4  -4   18.32    3.99
   8  -4   4   14.98    2.34
  -9   4  -4  112.48    7.77
   9  -4   4   97.45    5.85
 -10  -3   4   80.02    5.40
 -10  -3   4   65.29    6.92
  -9  -3   4  190.22   10.91
  -9  -3   4  168.86   12.69
   8   3  -4  273.62   14.16
  -8  -3   4  285.90   15.29
  -8  -3   4  250.54   17.06
  -7  -3   4  288.54   17.91
  -7  -3   4  286.13   14.98
  -7  -3   4  298.38   16.10
   6   3  -4  567.54   35.58
  -6  -3   4  572.14   27.37
  -6  -3   4  569.41   41.13
  -6  -3   4  573.24   29.78
  -6  -3   4  565.90   28.26
   5   3  -4   14.47    5.09
  -5  -3   4   11.10    5.50
   4   3  -4  359.00   24.38
  -4  -3   4  438.49   29.43
   3   3  -4  131.48   10.97
  -3  -3   4  109.66   12.26
   2   3  -4  257.58   16.34
  -2  -3   4  222.17   17.40
   1   3  -4  383.56   21.37
   1   3  -4  423.01   23.59
  -1  -3   4  438.17   24.38
   0   3  -4 3536.30  157.64
   0   3  -4 3334.05  157.89
  -1   3  -4 1150.24   59.01
  -1   3  -4 1149.50   56.05
   1  -3   4 1204.50   55.73
  -2   3  -4   32.85    6.42
   2  -3   4   47.13    5.38
  -3   3  -4  758.19   44.53
   3  -3   4  762.41   39.52
  -4   3  -4  455.33   32.16
   4  -3   4  435.35   26.12
  -5   3  -4   99.23   14.42
  -5   3  -4  110.25    8.07
   5  -3   4   87.25    5.93
   5  -3   4   94.53   10.12
  -6   3  -4  107.41    8.56
   6  -3   4   94.50    6.39
  -7   3  -4   83.68    7.66
   7  -3   4   64.90    5.30
  -8   3  -4   22.39    4.48
   8  -3   4   11.21    2.24
  -9   3  -4   55.10    5.83
   9  -3   4   49.24    3.91
 -10  -2   4  112.61    6.64
 -10  -2   4  100.02    8.10
  -9  -2   4  102.45    6.93
  -9  -2   4   98.32    8.70
  -8  -2   4  124.54   10.24
  -8  -2   4  128.58    8.46
  -7  -2   4  703.67   36.56
  -7  -2   4  706.09   34.35
   6   2  -4  429.61   27.16
  -6  -2   4  380.25   21.55
  -6  -2   4  388.41   30.60
  -6  -2   4  369.26   19.08
  -6  -2   4  375.81   19.91
   5   2  -4  365.45   24.65
  -5  -2   4  386.97   28.40
   4   2  -4  397.00   25.27
  -4  -2   4  434.20   28.63
   3   2  -4  538.53   30.11
  -3  -2   4  547.41   32.81
   2   2  -4 1751.54   83.98
  -2  -2   4 1791.40   86.57
   1   2  -4 1609.86   69.30
  -1  -2   4 1403.68   72.33
   0   2  -4   53.38    5.21
   0   2  -4   52.32    5.27
   0  -2   4   57.54    5.14
  -1   2  -4 1854.21   92.13
   1  -2   4 2044.52   90.50
  -2   2  -4 1492.72   74.60
   2  -2   4 1526.49   71.63
  -3   2  -4 1493.60   79.04
   3  -2   4 1639.69   75.37
  -4   2  -4  349.16   25.69
   4  -2   4  345.75   21.48
  -5   2  -4   89.38   12.74
   5  -2   4   92.40    9.76
  -6   2  -4  276.95   26.84
  -6   2  -4  288.62   17.39
   6  -2   4  317.51   21.97
   6  -2   4  303.82   15.30
  -7   2  -4    2.63    2.27
   7  -2   4    6.10    1.86
  -8   2  -4  163.11   12.45
   8  -2   4  198.91   10.67
  -9   2  -4   36.88    5.72
   9  -2   4   41.17    3.78
 -10   2  -4   29.50    4.41
  10  -2   4   42.21    3.10
 -10  -1   4  140.21    7.94
 -10  -1   4  146.47    9.28
  -9  -1   4    2.65    2.09
  -9  -1   4    2.54    1.40
  -8  -1   4   45.18    4.39
  -8  -1   4   44.50    6.31
   7   1  -4  213.09   10.85
  -7  -1   4  196.37   11.56
  -7  -1   4  185.45   13.04
   6   1  -4  378.11   25.48
  -6  -1   4  359.38   19.92
  -6  -1   4  350.27   18.26
  -6  -1   4  324.89   27.07
   5   1  -4  108.23   10.89
  -5  -1   4  115.03   13.13
   4   1  -4 1015.40   51.95
  -4  -1   4  993.95   54.34
   3   1  -4 1967.73   94.34
  -3  -1   4 1999.00   96.35
  -2  -1   4  477.87   27.28
   1   1  -4 2721.72  118.45
   1   1  -4 2824.57  121.32
  -1  -1   4 2359.31  121.62
   0   1  -4 1001.51   49.21
   0  -1   4 1080.66   49.54
  -1   1  -4  723.67   33.47
  -1   1  -4  746.14   36.12
   1  -1   4  642.42   34.42
  -2   1  -4  186.90   13.85
   2  -1   4  199.70   12.33
  -3   1  -4 1347.57   69.13
   3  -1   4 1391.93   66.12
  -4   1  -4  320.42   23.24
   4  -1   4  327.20   20.33
  -5   1  -4  129.40   14.47
   5  -1   4  136.37   12.12
  -6   1  -4   31.10    9.33
  -6   1  -4   27.69    2.78
  -6   1  -4   22.43    3.04
  -6   1  -4   27.74    4.41
   6  -1   4   36.92    6.69
  -7   1  -4  434.27   23.38
  -7   1  -4  409.62   21.12
  -8   1  -4  123.33    9.72
  -8   1  -4  107.51    7.54
   8  -1   4  130.30    7.78
  -9   1  -4   20.16    2.89
  -9   1  -4   24.77    4.53
   9  -1   4   17.91    2.81
 -10   1  -4   53.41    5.82
  10  -1   4   56.74    4.14
 -10   0   4   52.81    4.36
 -10   0   4   50.06    3.55
  -9   0   4   22.80    3.98
  -9   0   4   22.84    2.98
  -8   0   4  117.54    9.02
  -8   0   4  116.20    7.59
  -7   0   4  280.20   16.72
  -7   0   4  282.94   15.22
   6   0  -4  364.30   23.86
   6   0  -4  344.92   16.63
  -6   0   4  340.58   18.82
  -6   0   4  304.11   25.41
  -6   0   4  315.47   17.19
   5   0  -4   60.01    8.02
  -5   0   4   52.96    8.64
   4   0  -4   19.10    4.65
  -4   0   4   19.51    5.31
   3   0  -4 5334.09  242.58
  -3   0   4 5317.88  244.09
   2   0  -4 1471.15   74.41
  -2   0   4 1676.75   75.78
   1   0  -4 2458.55  123.37
  -1   0   4 3038.72  124.51
  -1   0   4 2587.15  121.23
   0   0  -4   34.62    3.51
   0   0  -4   32.52    3.58
   0   0   4   32.42    3.46
  -1   0  -4  274.55   15.61
  -1   0  -4  271.56   13.70
   1   0   4  253.54   14.75
  -2   0  -4  286.28   17.80
   2   0   4  296.75   16.46
  -3   0  -4 1258.41   63.14
   3   0   4 1257.93   60.89
  -4   0  -4  558.27   33.33
  -5   0  -4 1062.11   59.08
   5   0   4 1106.47   56.46
  -6   0  -4  295.46   24.23
  -6   0  -4  283.42   16.77
   6   0   4  329.66   22.56
  -7   0  -4   25.72    3.44
  -7   0  -4   22.85    4.14
  -7   0  -4   22.69    2.89
  -8   0  -4  482.71   24.39
  -8   0  -4  485.11   23.84
  -8   0  -4  488.37   26.29
  -9   0  -4   12.46    3.61
  -9   0  -4   13.94    2.59
   9   0   4    8.35    2.11
 -10   0  -4  170.19    9.08
 -10   0  -4  159.91   10.85
  10   0   4  150.52    8.87
  11   0   4   19.83    2.65
  10  -1  -4   14.14    1.78
  -9   1   4   37.54    3.43
  -9   1   4   43.22    4.36
  -8   1   4  103.05    7.98
  -8   1   4  108.38    6.94
  -7   1   4  363.14   18.89
  -7   1   4  375.62   20.31
   6  -1  -4  114.70    6.79
   6  -1  -4  116.16   12.73
  -6   1   4  113.90    7.25
  -6   1   4  108.84    8.16
  -6   1   4  103.55   13.14
   5  -1  -4  472.46   29.06
  -5   1   4  484.68   31.27
   4  -1  -4 1443.76   68.73
  -4   1   4 1316.92   69.83
   3  -1  -4 1576.66   79.15
  -3   1   4 1715.21   80.23
   2  -1  -4  340.86   19.18
  -2   1   4  307.38   18.84
  -2   1   4  334.93   18.18
  -1   1   4 1430.47   67.06
   0  -1  -4   85.56    6.35
   0  -1  -4   98.76    7.03
   0   1   4   99.48    6.43
  -1  -1  -4 2214.14  108.09
   1   1   4 2566.60  109.22
  -2  -1  -4 1284.62   61.44
   2   1   4 1263.83   60.01
  -3  -1  -4  246.63   16.46
   3   1   4  250.59   15.37
  -4  -1  -4  325.83   21.59
   4   1   4  329.10   20.33
  -5  -1  -4  663.51   38.57
   5   1   4  645.54   36.75
  -6  -1  -4   52.34    8.59
   6   1   4   35.78    6.84
  -7  -1  -4   43.82    4.85
  -7  -1  -4   45.63    9.14
  -7  -1  -4   41.56    4.18
  -7  -1  -4   47.39    3.97
   7   1   4   51.51    8.78
  -8  -1  -4   13.24    3.40
  -8  -1  -4   14.24    2.48
  -8  -1  -4   13.24    2.76
  -9  -1  -4   87.42    6.69
  -9  -1  -4   93.59    6.20
  -9  -1  -4   96.74    8.00
 -10  -1  -4  108.23    6.79
 -10  -1  -4  105.82    8.03
  10   1   4   85.90    6.20
 -11  -1  -4   36.00    4.04
 -11  -1  -4   36.21    3.00
  11   1   4   34.99    2.86
  -8   2   4  199.47   10.80
  -8   2   4  192.93   11.70
  -7   2   4  171.88    9.74
  -7   2   4  162.42   10.70
  -6   2   4  332.86   18.33
  -6   2   4  348.27   19.98
  -6   2   4  335.44   17.25
   5  -2  -4  154.54   13.49
   4  -2  -4  911.69   48.65
  -4   2   4  955.94   50.04
   3  -2  -4  868.28   45.71
  -3   2   4  938.92   46.99
  -3   2   4  873.16   46.01
   2  -2  -4   53.62    5.99
  -2   2   4   56.01    6.43
  -2   2   4   68.35    6.28
   1  -2  -4  630.46   31.98
  -1   2   4  608.38   30.88
  -1   2   4  646.34   31.24
   0  -2  -4 1018.79   49.39
   0   2   4 1057.63   48.14
  -1  -2  -4 2748.16  113.87
  -1  -2  -4 2331.69  114.55
   1   2   4 2421.76  113.41
  -2  -2  -4 1421.03   68.47
  -2  -2  -4 1314.54   66.05
   2   2   4 1589.81   67.45
  -3  -2  -4 1177.50   61.76
   3   2   4 1365.21   61.49
  -4  -2  -4  419.36   23.94
   4   2   4  340.14   22.05
  -5  -2  -4  273.55   19.80
   5   2   4  278.07   19.23
  -6  -2  -4  313.38   23.03
   6   2   4  317.20   22.67
  -7  -2  -4  244.83   14.10
  -7  -2  -4  233.49   12.80
  -7  -2  -4  241.72   20.54
  -7  -2  -4  236.37   13.47
   7   2   4  256.88   20.85
  -8  -2  -4   62.76    6.01
  -8  -2  -4   62.22    4.93
  -8  -2  -4   65.20    5.56
  -9  -2  -4    2.14    1.63
  -9  -2  -4    1.98    1.88
  -9  -2  -4    2.44    1.40
 -10  -2  -4   57.93    4.28
 -10  -2  -4   49.81    5.16
 -10  -2  -4   50.72    4.76
 -11  -2  -4   96.89    6.76
 -11  -2  -4   95.68    6.05
  11   2   4   94.69    5.68
   9  -3  -4  160.81    8.48
  -8   3   4   36.88    7.83
  -7   3   4  139.77    7.96
  -7   3   4  117.93   10.82
  -6   3   4  584.82   33.36
  -6   3   4  644.70   29.71
   5  -3  -4  514.84   31.13
   5  -3  -4  480.88   24.00
  -5   3   4  514.55   24.29
  -5   3   4  500.88   27.56
   4  -3  -4   51.59    6.97
   3  -3  -4  632.38   34.21
  -3   3   4  673.35   35.07
  -3   3   4  579.79   36.93
   2  -3  -4  182.93   12.53
  -2   3   4  160.29   13.43
  -2   3   4  177.70   11.65
   1  -3  -4   18.08    3.38
  -1   3   4   18.31    3.32
  -1   3   4   20.17    2.77
   0  -3  -4 2540.91  116.22
   0   3   4 2559.49  114.08
   0   3   4 2484.55  115.47
  -1  -3  -4 1733.36   77.01
  -1  -3  -4 1715.33   76.79
   1   3   4 1508.59   74.92
  -2  -3  -4 1448.64   69.27
  -2  -3  -4 1315.10   67.70
   2   3   4 1606.28   67.75
  -3  -3  -4   92.84    8.35
  -3  -3  -4   96.66    6.61
   3   3   4   80.14    7.16
  -4  -3  -4  409.96   23.67
   4   3   4  373.57   22.81
  -5  -3  -4  783.87   42.75
   5   3   4  788.79   42.69
  -6  -3  -4  658.49   39.12
   6   3   4  698.18   39.92
  -7  -3  -4  438.52   22.35
  -7  -3  -4  472.25   23.20
  -7  -3  -4  449.21   30.35
  -7  -3  -4  443.14   23.31
   7   3   4  476.98   31.51
  -8  -3  -4   29.74    4.20
  -8  -3  -4   27.73    4.04
  -8  -3  -4   27.76    3.49
  -9  -3  -4  265.56   15.03
  -9  -3  -4  266.38   15.29
  -9  -3  -4  266.16   14.26
 -10  -3  -4   44.00    4.45
 -10  -3  -4   39.95    4.29
 -10  -3  -4   36.68    3.53
 -11  -3  -4   14.18    2.45
  11   3   4   12.76    1.97
   8  -4  -4   59.03    4.22
  -8   4   4   67.29    7.09
  -7   4   4   31.36    6.16
  -6   4   4 1151.04   53.07
   5  -4  -4  124.24    6.88
  -5   4   4   94.00    9.48
   4  -4  -4   86.46    9.60
   2  -4  -4 1862.00   88.35
  -2   4   4 1820.84   91.13
   1  -4  -4  354.89   22.15
  -1   4   4  434.85   23.55
   0  -4  -4   88.57    7.93
   0   4   4  122.33    8.52
   1   4   4    9.52    2.48
   1   4   4    8.98    1.04
  -2  -4  -4 1186.71   56.10
  -2  -4  -4 1130.11   55.95
   2   4   4 1173.61   54.00
  -3  -4  -4  568.97   29.87
  -3  -4  -4  601.24   30.89
   3   4   4  553.38   29.35
  -4  -4  -4  870.23   42.89
  -4  -4  -4  910.34   45.39
   4   4   4  843.85   44.48
  -5  -4  -4  253.01   17.30
   5   4   4  211.88   16.45
  -6  -4  -4  309.18   22.01
   6   4   4  325.73   22.81
  -7  -4  -4   67.12    5.16
  -7  -4  -4   69.62   12.74
  -7  -4  -4   72.40    5.65
  -7  -4  -4   73.68    5.73
   7   4   4   75.69   10.63
  -8  -4  -4    7.98    2.40
  -8  -4  -4    8.80    2.39
  -8  -4  -4    8.72    2.09
  -9  -4  -4   62.91    5.70
  -9  -4  -4   64.05    5.54
  -9  -4  -4   62.51    5.05
 -10  -4  -4  196.81   11.58
 -10  -4  -4  197.23   11.07
 -10  -4  -4  206.79   11.92
 -11  -4  -4   58.83    4.88
  -8   5   4  167.02   11.41
  -7   5   4   62.53    8.52
  -6   5   4   75.41    8.77
  -5   5   4   37.25    6.53
   4  -5  -4   64.80    8.82
   4  -5  -4   70.98    4.89
  -4   5   4   80.18    7.68
   3  -5  -4  276.75   19.33
  -3   5   4  260.61   23.31
   2  -5  -4  388.77   24.19
  -2   5   4  400.27   27.09
   1  -5  -4 1969.48   92.77
  -1   5   4 1897.16   93.52
   0  -5  -4 2925.29  132.93
   0   5   4 2784.93  132.11
  -1  -5  -4  828.55   38.87
   1   5   4  661.25   37.34
  -2  -5  -4  487.61   26.97
  -3  -5  -4  564.06   31.02
  -3  -5  -4  586.41   30.47
   3   5   4  559.62   28.83
  -4  -5  -4 1265.39   61.15
  -4  -5  -4 1297.87   61.59
   4   5   4 1168.02   60.60
  -5  -5  -4  103.68    9.98
   5   5   4  119.45   10.84
  -6  -5  -4  179.21   14.65
   6   5   4  187.30   15.93
  -7  -5  -4  137.75    9.20
  -7  -5  -4  146.46    9.15
   7   5   4  178.64   16.40
  -8  -5  -4   98.24    6.84
  -8  -5  -4   92.62    6.50
  -8  -5  -4   92.74    6.91
  -9  -5  -4   23.40    3.69
  -9  -5  -4   27.10    3.62
  -9  -5  -4   25.05    3.57
 -10  -5  -4  138.03    8.84
 -10  -5  -4  130.25    8.10
 -11  -5  -4  178.84    9.81
 -11  -5  -4  191.21   10.64
  -8   6   4   21.82    3.65
  -7   6   4   20.86    4.60
  -6   6   4  150.19   12.18
  -5   6   4  188.76   14.07
   4  -6  -4  355.98   18.35
  -4   6   4  384.21   21.68
   3  -6  -4   52.62    4.11
   3  -6  -4   52.06    8.09
  -3   6   4   58.23   10.74
  -3   6   4   60.79    6.04
   2  -6  -4   16.20    4.85
  -2   6   4   29.77    8.03
   1  -6  -4 1367.82   69.67
  -1   6   4 1405.93   71.33
   0  -6  -4  866.59   45.36
   0   6   4  858.15   45.25
  -1  -6  -4   10.07    3.41
   1   6   4    4.75    2.32
  -2  -6  -4  327.51   20.17
   2   6   4  296.80   18.69
  -3  -6  -4  129.69   11.78
   3   6   4  160.03   11.38
  -4  -6  -4 1658.61   81.36
  -5  -6  -4 1121.35   57.13
   5   6   4 1156.21   58.18
  -6  -6  -4  264.17   18.34
   6   6   4  276.35   20.28
  -7  -6  -4   27.54    3.62
   7   6   4   31.13    7.20
  -8  -6  -4   23.40    3.51
  -9  -6  -4  457.49   23.37
 -10  -6  -4   17.86    2.97
 -11  -6  -4  108.01    6.97
  -7   7   4  144.07   10.21
  -6   7   4  246.11   16.01
  -5   7   4   88.19    8.63
   4  -7  -4  330.95   17.37
  -4   7   4  356.53   20.49
   3  -7  -4   56.80    4.43
   3  -7  -4   54.15   11.08
  -3   7   4   57.85    6.09
   2  -7  -4   23.54    6.15
   2  -7  -4   17.72    2.58
  -2   7   4   26.85    8.32
  -2   7   4   26.05    4.18
   1  -7  -4  193.22   16.40
  -1   7   4  229.54   18.62
   0  -7  -4  260.04   18.96
   0   7   4  270.91   19.53
  -1  -7  -4  551.90   32.59
   1   7   4  565.54   31.92
  -2  -7  -4  411.78   25.13
   2   7   4  386.86   23.70
  -3  -7  -4  192.57   15.62
   3   7   4  204.23   14.54
  -4  -7  -4  277.88   20.49
   4   7   4  298.36   18.67
  -5  -7  -4  358.10   24.62
   5   7   4  373.25   22.80
  -8  -7  -4  358.87   18.57
  -9  -7  -4  178.81   10.57
 -10  -7  -4   27.52    3.48
 -11  -7  -4   30.27    3.15
  -7   8   4   39.24    4.21
  -6   8   4    4.22    2.47
  -5   8   4   29.62    5.19
   4  -8  -4  289.89   15.60
  -4   8   4  315.11   18.49
   3  -8  -4  766.11   36.89
  -3   8   4  792.31   39.56
   2  -8  -4   74.92    5.47
  -2   8   4   84.83    7.05
   1  -8  -4  227.33   12.89
   1  -8  -4  241.13   19.77
  -1   8   4  261.81   14.36
  -1   8   4  260.66   21.84
   0  -8  -4   49.65    6.37
   0  -8  -4   43.19    7.52
   0   8   4   37.90    7.32
  -1  -8  -4 1288.11   62.97
   1   8   4 1087.54   61.70
  -2  -8  -4  504.92   31.25
   2   8   4  495.58   29.86
  -3  -8  -4  326.73   22.57
   3   8   4  285.78   19.90
  -4  -8  -4  469.57   31.74
   4   8   4  537.87   30.20
  -5  -8  -4 1093.23   62.16
   5   8   4 1187.27   58.85
 -10  -8  -4  100.03    6.40
 -11  -8  -4    0.54    0.99
  -6   9   4   20.74    3.56
  -5   9   4  107.56    8.55
  -4   9   4   78.66    7.40
   3  -9  -4   56.68    4.91
  -3   9   4   74.69    6.84
   2  -9  -4  786.81   36.00
  -2   9   4  714.77   37.65
   1  -9  -4   73.44    5.39
  -1   9   4   70.40    6.34
   0  -9  -4   58.40    9.14
   0  -9  -4   56.35    4.45
   0  -9  -4   53.20    4.79
   0   9   4   49.96    4.93
   0   9   4   44.61    8.85
  -1  -9  -4  129.55    7.96
  -1  -9  -4  128.47    8.43
  -1  -9  -4  129.09    8.63
  -1  -9  -4  131.70   14.02
   1   9   4  147.65   14.85
  -2  -9  -4  172.05    9.57
  -2  -9  -4  173.17   10.05
  -2  -9  -4  182.46   16.48
   2   9   4  143.27   14.57
  -3  -9  -4  150.01    8.96
  -3  -9  -4  135.32    8.35
  -3  -9  -4  147.67   14.91
   3   9   4  135.66   13.02
  -4  -9  -4   34.15    7.42
  -4  -9  -4   30.78    3.97
  -4  -9  -4   32.26    3.77
   4   9   4   35.61    6.05
  -5  -9  -4  601.90   28.22
  -5  -9  -4  557.46   27.95
  -5  -9  -4  545.40   37.37
  -6  -9  -4  126.19    8.17
  -5  10   4  353.49   19.02
  -4  10   4    4.45    2.46
   3 -10  -4   55.86    4.53
  -3  10   4   46.60    6.36
   2 -10  -4  113.99    7.14
  -2  10   4   92.99    8.19
   1 -10  -4  781.74   35.77
  -1  10   4  703.27   37.01
   0 -10  -4  272.94   14.51
   0 -10  -4  263.82   15.02
   0  10   4  267.71   15.49
  -1 -10  -4  471.82   23.02
  -1 -10  -4  470.62   23.67
   1  10   4  435.05   23.46
  -2 -10  -4  227.98   12.55
  -2 -10  -4  221.05   13.04
  -2 -10  -4  235.05   13.20
  -3 -10  -4  597.82   29.66
  -3 -10  -4  635.21   30.43
   3  10   4  598.85   49.43
  -4 -10  -4  241.33   13.50
  -4 -10  -4  230.10   12.96
  -5 -10  -4   16.84    3.08
  -5 -10  -4   20.74    3.43
  -6 -10  -4   97.47    7.46
  -6 -10  -4  113.05    7.53
  -4  11   4  125.58    8.64
  -3  11   4   28.93    4.57
   2 -11  -4  114.35    7.29
  -2  11   4  111.07    8.71
   1 -11  -4  244.16   13.72
  -1  11   4  261.94   15.41
   0 -11  -4  308.36   16.28
   0 -11  -4  301.52   16.86
   0  11   4  302.90   17.36
  -1 -11  -4  129.00    9.51
  -1 -11  -4  145.23    9.20
   1  11   4  171.57   10.29
  -2 -11  -4  137.82    8.84
  -2 -11  -4  145.75    9.61
  -3 -11  -4  337.52   17.97
  -3 -11  -4  348.99   18.71
  -4 -11  -4  667.47   33.44
  -4 -11  -4  683.93   32.96
  -5 -11  -4  244.82   14.17
  -5 -11  -4  246.52   13.88
  -6 -11  -4  117.08    8.38
  -6 -11  -4  128.93    8.52
  -3  12   4   78.01    6.25
   2 -12  -4   89.83    5.92
  -2  12   4   88.10    7.05
   1 -12  -4   12.75    2.44
  -1  12   4   19.24    3.69
   0 -12  -4   58.17    5.48
   0 -12  -4   58.34    4.95
   0  12   4   61.73    5.98
  -1 -12  -4  488.26   24.51
  -1 -12  -4  489.70   25.31
  -2 -12  -4  104.09    7.82
  -2 -12  -4  100.87    7.19
  -3 -12  -4  128.80    9.16
  -3 -12  -4  135.48    8.56
  -4 -12  -4  238.53   13.86
  -4 -12  -4  227.19   13.18
  -5 -12  -4  148.04    9.99
  -5 -12  -4  160.43    9.69
  -6 -12  -4   96.59    7.14
  -6 -12  -4   93.81    6.93
  -7 -12  -4   14.46    2.86
   1 -13  -4    8.09    1.85
   0 -13  -4    4.24    1.96
   0 -13  -4    4.20    1.58
  -1 -13  -4   45.30    4.91
  -1 -13  -4   50.98    4.44
  -2 -13  -4  514.15   25.51
  -2 -13  -4  510.01   26.35
  -3 -13  -4   87.55    7.14
  -3 -13  -4   95.45    6.72
  -4 -13  -4   44.43    4.82
  -4 -13  -4   48.10    4.45
  -5 -13  -4   23.66    3.74
  -5 -13  -4   33.89    4.04
  -6 -13  -4   95.71    7.07
  -6 -13  -4  100.90    6.86
  -7 -13  -4    2.44    1.66
  -7 -13  -4    0.76    1.38
   0 -14  -4  117.91    6.94
  -1 -14  -4    6.72    2.09
  -1 -14  -4    8.39    2.00
  -2 -14  -4  134.40    8.88
  -2 -14  -4  140.31    8.39
  -3 -14  -4  112.74    7.98
  -3 -14  -4  114.01    7.35
  -4 -14  -4    4.92    1.72
  -4 -14  -4    6.53    2.16
  -5 -14  -4   28.78    3.51
  -5 -14  -4   31.65    4.26
  -6 -14  -4  116.74    7.21
  -6 -14  -4  115.61    7.76
  -7 -14  -4   17.87    2.50
  -2 -15  -4  141.52    7.81
  -2 -15  -4  132.89    8.23
  -3 -15  -4   38.11    3.42
  -3 -15  -4   37.42    3.93
  -4 -15  -4  349.65   17.25
  -4 -15  -4  344.40   17.98
  -5 -15  -4  139.27    7.93
  -5 -15  -4  142.06    8.64
  -6 -15  -4   25.88    3.18
  -6 -15  -4   24.92    2.55
  -4 -13   5   40.86    3.68
  -4 -13   5   42.25    3.41
   3  13  -5   51.41    4.60
  -3 -13   5   56.56    4.38
   2  13  -5  367.66   18.33
  -2 -13   5  339.76   17.59
   1  13  -5  199.93   10.86
  -1 -13   5  178.81   10.20
  -6 -12   5  149.02    8.25
  -6 -12   5  149.47    8.94
  -5 -12   5   77.35    6.00
  -5 -12   5   78.15    5.30
   4  12  -5   25.77    3.74
  -4 -12   5   28.22    3.79
  -4 -12   5   28.84    3.18
   3  12  -5   13.23    2.91
  -3 -12   5   15.48    2.25
  -3 -12   5   11.28    2.45
   2  12  -5   83.93    6.78
  -2 -12   5   85.01    6.24
   1  12  -5   30.27    4.38
  -1 -12   5   41.12    3.97
   0  12  -5  101.43    7.50
   0 -12   5   99.49    6.69
  -1  12  -5   28.42    3.71
   1 -12   5   22.07    2.88
  -8 -11   5   24.02    2.97
  -8 -11   5   20.84    2.29
  -7 -11   5  303.60   15.59
  -7 -11   5  318.77   16.71
  -6 -11   5   28.80    4.16
  -6 -11   5   26.44    3.30
  -5 -11   5    1.30    1.37
  -5 -11   5    3.15    1.92
   4  11  -5  212.79   12.93
  -4 -11   5  221.49   11.99
  -4 -11   5  214.34   13.05
   3  11  -5  147.21    9.95
  -3 -11   5  144.33    9.57
  -3 -11   5  140.25    8.58
   2  11  -5   58.72    6.05
  -2 -11   5   63.44    4.90
  -2 -11   5   72.32    5.86
   1  11  -5  151.56   10.68
  -1 -11   5  164.15   10.00
   0  11  -5  259.61   15.29
   0 -11   5  258.94   14.30
  -1  11  -5  134.59    9.72
   1 -11   5  157.67    9.06
  -2  11  -5   77.66    6.16
   2 -11   5   76.90    5.54
   3 -11   5   32.55    3.04
  -8 -10   5  139.81    7.99
  -8 -10   5  144.92    9.20
  -7 -10   5   22.09    3.91
  -7 -10   5   24.50    3.11
  -6 -10   5  269.44   14.26
  -6 -10   5  256.61   15.72
  -5 -10   5  132.71    8.45
  -5 -10   5  133.68    9.82
   4  10  -5  195.82   12.57
  -4 -10   5  217.36   13.25
  -4 -10   5  206.45   11.73
   3  10  -5  272.07   16.22
  -3 -10   5  284.04   15.05
  -3 -10   5  283.16   16.21
   2  10  -5  167.64   10.83
  -2 -10   5  143.76    8.94
  -2 -10   5  146.18    9.95
   1  10  -5  134.02    9.55
  -1 -10   5  121.21    8.53
   0  10  -5   76.66    7.02
   0 -10   5   74.70    5.95
  -1  10  -5  111.94    8.58
   1 -10   5  110.60    7.49
  -2  10  -5   73.05    6.43
   2 -10   5   73.91    5.62
   3 -10   5   52.33    4.32
   4 -10   5  204.20   10.80
  -9  -9   5   45.52    4.22
  -9  -9   5   44.47    3.36
  -8  -9   5  102.92    6.32
  -8  -9   5   89.32    7.48
  -7  -9   5  191.27   10.73
  -7  -9   5  180.34   12.36
  -6  -9   5   74.50    7.30
  -6  -9   5   73.26    5.68
  -5  -9   5   55.23    4.76
  -5  -9   5   49.77    6.75
   4   9  -5   77.34    7.05
  -4  -9   5   99.19    8.11
  -4  -9   5  108.02    6.96
   3   9  -5   58.48    6.05
  -3  -9   5   64.27    5.23
  -3  -9   5   66.98    6.20
  -2  -9   5   59.85    5.76
  -2  -9   5   65.80    5.09
   1   9  -5  462.06   25.56
  -1  -9   5  497.41   24.61
   0   9  -5  376.25   20.55
   0  -9   5  349.25   18.85
  -1   9  -5  200.84   13.96
   1  -9   5  253.67   13.08
  -2   9  -5  269.70   16.05
   2  -9   5  266.74   14.48
  -3   9  -5   56.34    5.66
   3  -9   5   58.18    4.74
   4  -9   5  126.60    7.66
   5  -9   5    4.30    1.39
  -9  -8   5   48.27    3.78
  -9  -8   5   48.61    4.79
  -8  -8   5   20.64    3.76
  -8  -8   5   15.40    2.51
  -7  -8   5   27.38    3.48
  -6  -8   5  181.54   10.91
  -6  -8   5  190.90   12.89
  -5  -8   5  104.59    8.84
  -5  -8   5  101.46    7.09
  -4  -8   5   28.55    4.79
  -4  -8   5   25.08    3.49
  -3  -8   5  329.51   17.26
  -3  -8   5  335.62   18.73
  -2  -8   5  212.62   12.12
  -2  -8   5  224.05   13.42
  -2  -8   5  224.46   13.13
  -1  -8   5  832.24   40.07
  -1  -8   5  860.32   40.64
   0   8  -5   40.63    5.55
   0  -8   5   27.54    3.64
  -1   8  -5  101.91    8.06
   1  -8   5   92.10    6.57
  -2   8  -5  521.95   27.46
   2  -8   5  515.68   25.44
  -3   8  -5  483.91   26.54
   3  -8   5  522.03   24.80
   4  -8   5  205.98   11.24
   5  -8   5  210.40   11.20
   6  -8   5   45.07    3.51
 -10  -7   5   40.52    3.69
  -9  -7   5   73.86    6.15
  -8  -7   5   48.46    5.36
  -8  -7   5   44.22    4.00
  -7  -7   5  111.05    8.79
  -7  -7   5  106.56    7.30
  -6  -7   5  230.56   13.07
  -6  -7   5  235.90   14.79
  -5  -7   5   69.39    6.65
  -5  -7   5   57.29    5.03
  -4  -7   5  418.16   21.60
  -4  -7   5  444.73   23.42
   3   7  -5  549.79   35.73
  -3  -7   5  515.19   37.04
  -3  -7   5  536.26   27.62
  -3  -7   5  543.86   26.23
   2   7  -5  138.04   14.48
  -2  -7   5  125.77    8.48
  -2  -7   5  113.83    7.55
  -2  -7   5  125.72    8.68
   1   7  -5  141.21   14.40
  -1  -7   5  139.20    8.63
  -1  -7   5  142.55    9.43
  -1  -7   5  129.01    8.03
   0  -7   5   38.35    3.64
  -1   7  -5  451.01   23.95
   1  -7   5  445.71   22.04
  -2   7  -5    5.95    2.54
   2  -7   5   16.47    2.50
  -3   7  -5    3.88    2.45
   3  -7   5    4.79    1.59
   4  -7   5  259.42   13.62
   5  -7   5  169.56    9.50
   6  -7   5   12.56    2.04
   7  -7   5    4.31    1.23
 -10  -6   5   33.32    3.35
 -10  -6   5   27.80    3.51
   9   6  -5   10.71    2.01
  -9  -6   5   10.90    2.58
  -9  -6   5   14.42    3.04
  -8  -6   5   38.08    5.06
  -8  -6   5   34.11    3.83
  -8  -6   5   34.40    4.83
  -7  -6   5  155.57   10.90
  -7  -6   5  167.69    9.79
  -7  -6   5  161.38   10.85
  -6  -6   5   92.88    7.59
  -6  -6   5   78.48    6.17
  -6  -6   5   93.64    7.28
  -5  -6   5  953.19   45.92
  -5  -6   5 1001.02   47.65
   4   6  -5  210.12   19.05
  -4  -6   5  234.82   22.49
  -4  -6   5  226.37   12.32
  -4  -6   5  238.91   13.77
   3   6  -5  324.06   23.84
  -3  -6   5  325.55   17.60
  -3  -6   5  303.34   16.31
  -3  -6   5  333.43   25.55
   2   6  -5  136.29   13.95
  -2  -6   5  153.21   14.35
   1   6  -5  685.01   40.80
  -1  -6   5  726.20   39.73
   0  -6   5  426.18   24.08
   0  -6   5  344.44   22.25
  -1   6  -5  366.93   20.30
  -1   6  -5  370.60   27.77
   1  -6   5  398.13   18.72
  -2   6  -5  192.29   19.68
  -2   6  -5  195.40   12.17
   2  -6   5  192.25   10.33
  -3   6  -5  334.79   18.62
   3  -6   5  320.98   16.32
   4  -6   5  504.02   24.36
  -5   6  -5   69.06    6.39
   5  -6   5   57.36    4.50
  -6   6  -5   77.23    6.66
   6  -6   5   69.45    4.96
  -7   6  -5  198.93   12.41
   7  -6   5  224.44   11.15
   8  -6   5    2.93    1.04
 -10  -5   5   57.80    5.30
 -10  -5   5   53.52    4.36
   9   5  -5   24.16    2.92
  -9  -5   5   32.83    4.12
  -9  -5   5   43.52    5.76
  -8  -5   5   37.71    4.91
  -8  -5   5   37.00    3.62
  -8  -5   5   46.09    6.24
  -7  -5   5   23.16    4.12
  -7  -5   5   23.68    3.36
  -7  -5   5   26.33    4.85
  -6  -5   5  786.04   38.59
  -6  -5   5  767.40   37.22
  -6  -5   5  793.28   39.06
   5   5  -5  149.56   15.69
  -5  -5   5  175.04   10.58
  -5  -5   5  135.77   18.96
  -5  -5   5  158.07    9.30
  -5  -5   5  179.12   10.63
   4   5  -5  198.56   17.38
  -4  -5   5  205.16   11.75
  -4  -5   5  177.94   19.82
  -4  -5   5  191.29   10.62
   3   5  -5  609.20   36.54
  -3  -5   5  620.13   39.99
   2   5  -5  334.77   23.69
  -2  -5   5  371.91   25.23
   1   5  -5 1164.04   58.34
  -1  -5   5 1062.41   57.06
   0   5  -5  373.22   23.91
   0  -5   5  384.16   22.45
  -1   5  -5   16.62    5.74
   1  -5   5   18.97    3.37
  -2   5  -5  178.15   17.69
   2  -5   5  177.28   12.03
  -3   5  -5  324.71   18.50
  -3   5  -5  359.21   28.72
   3  -5   5  329.38   16.55
  -4   5  -5   54.26    8.03
   4  -5   5   56.63    4.22
  -5   5  -5   16.69    3.69
   5  -5   5   14.98    2.50
  -6   5  -5   38.01    5.76
   6  -5   5   46.00    3.87
  -7   5  -5   14.47    3.35
   7  -5   5   13.19    2.15
  -8   5  -5  195.61   11.71
   8  -5   5  194.60   10.13
 -10  -4   5   48.84    3.88
 -10  -4   5   35.22    4.97
  -9  -4   5  537.29   26.09
  -9  -4   5  500.82   28.09
  -8  -4   5   43.38    4.60
  -8  -4   5   43.53    6.45
  -7  -4   5  380.60   19.79
  -7  -4   5  410.00   23.10
  -7  -4   5  394.66   20.99
  -6  -4   5   70.57    6.92
  -6  -4   5   64.57    4.95
  -6  -4   5   61.77    5.66
   5   4  -5   78.00   10.43
  -5  -4   5   73.84    5.24
  -5  -4   5   77.05    6.56
  -5  -4   5   75.36    5.93
  -5  -4   5   60.62   12.20
   4   4  -5  471.11   28.08
  -4  -4   5  333.33   29.78
   3   4  -5  396.31   24.71
  -3  -4   5  340.90   27.18
   2   4  -5 1223.18   61.92
  -2  -4   5 1207.10   64.54
   1   4  -5  175.93   13.64
  -1  -4   5  165.25   13.45
   0   4  -5  246.07   17.37
   0   4  -5  273.97   17.48
   0  -4   5  252.30   16.05
   1  -4   5   19.09    3.20
  -2   4  -5 1266.81   63.65
   2  -4   5 1046.70   55.59
  -3   4  -5  528.86   35.67
   3  -4   5  493.86   28.35
  -4   4  -5   48.73    5.21
  -4   4  -5   49.62   10.56
   4  -4   5   59.49    4.16
   4  -4   5   54.36    7.28
  -5   4  -5   77.75    7.02
   5  -4   5   77.58    5.32
  -6   4  -5  342.60   19.75
   6  -4   5  339.71   17.27
  -7   4  -5  271.54   16.54
   7  -4   5  274.28   14.24
  -8   4  -5  179.29   11.92
   8  -4   5  192.49   10.11
  -9   4  -5   43.84    4.47
   9  -4   5   49.97    3.36
 -10  -3   5   24.90    4.26
 -10  -3   5   32.92    3.04
  -9  -3   5  115.58   10.35
  -9  -3   5  153.62    8.86
   8   3  -5   67.71    4.93
  -8  -3   5   74.33    5.84
  -8  -3   5   54.92    7.68
  -7  -3   5  173.76    9.76
  -7  -3   5  150.09   12.30
  -7  -3   5  179.93   10.70
  -6  -3   5  170.55   10.68
  -6  -3   5  172.04    9.92
  -6  -3   5  195.35   12.78
   5   3  -5   80.67   10.59
  -5  -3   5   93.91    5.89
  -5  -3   5   87.61   13.79
  -5  -3   5   94.82    7.64
  -5  -3   5   88.18    6.37
   4   3  -5  509.90   30.87
  -4  -3   5  496.38   35.40
   3   3  -5  448.90   26.11
  -3  -3   5  374.74   28.52
   2   3  -5  542.25   28.83
  -2  -3   5  440.85   30.34
   1   3  -5  438.64   25.36
  -1  -3   5  454.10   26.60
   0   3  -5    8.04    3.00
   0   3  -5    7.34    2.77
   0  -3   5    4.53    2.06
  -1   3  -5 1119.48   60.18
  -1   3  -5 1168.52   57.40
   1  -3   5 1273.39   57.14
  -2   3  -5 1414.34   74.10
   2  -3   5 1474.99   69.43
  -3   3  -5  358.52   26.71
   3  -3   5  378.88   22.44
  -4   3  -5  199.12   19.74
   4  -3   5  196.94   15.16
  -5   3  -5    7.37    5.33
  -5   3  -5   10.68    3.02
   5  -3   5    7.47    1.74
  -6   3  -5  216.54   14.18
   6  -3   5  230.03   12.13
  -7   3  -5   90.96    8.29
   7  -3   5   99.15    6.50
  -8   3  -5  118.19    9.84
   8  -3   5  155.88    8.41
  -9   3  -5   90.27    7.20
   9  -3   5   86.82    5.46
 -10  -2   5   21.45    3.70
 -10  -2   5   19.60    2.38
  -9  -2   5  199.48   14.03
  -9  -2   5  225.58   12.01
   8   2  -5  258.59   13.68
  -8  -2   5  278.62   14.67
  -8  -2   5  244.45   16.75
   7   2  -5  107.69    7.18
  -7  -2   5  112.53   10.03
  -7  -2   5  128.57    8.10
   6   2  -5  825.87   48.13
  -6  -2   5  758.31   41.67
  -6  -2   5  849.40   61.85
  -6  -2   5  849.09   39.88
  -6  -2   5  864.73   39.07
   5   2  -5  317.40   23.49
  -5  -2   5  342.26   20.16
  -5  -2   5  370.80   28.47
   4   2  -5  309.44   21.49
  -4  -2   5  311.62   24.49
   3   2  -5  725.72   39.31
  -3  -2   5  733.27   42.99
   2   2  -5   30.94    4.86
  -2  -2   5   18.17    5.14
   1   2  -5   14.47    3.40
  -1  -2   5   23.78    4.54
   0   2  -5 2170.53  101.56
   0   2  -5 2139.48  101.20
   0  -2   5 2232.04  101.39
  -1   2  -5 1051.89   52.62
  -1   2  -5  981.80   49.36
   1  -2   5 1079.75   50.23
  -2   2  -5  625.29   35.80
   2  -2   5  623.27   32.62
  -3   2  -5  123.94   12.85
   3  -2   5  115.10   10.01
  -4   2  -5  455.04   31.81
   4  -2   5  459.07   27.07
  -5   2  -5  483.26   34.64
  -5   2  -5  457.89   24.26
   5  -2   5  469.19   28.55
   5  -2   5  444.61   22.26
  -6   2  -5  114.72    8.84
   6  -2   5  112.64    7.00
  -7   2  -5  242.54   15.63
   7  -2   5  255.24   13.40
  -8   2  -5  174.86   12.52
   8  -2   5  195.54   10.61
  -9   2  -5   34.19    5.06
   9  -2   5   40.72    3.53
 -10   2  -5   29.59    3.89
  10  -2   5   25.65    2.31
 -10  -1   5   46.81    4.58
 -10  -1   5   52.27    3.57
  -9  -1   5   79.16    5.58
  -9  -1   5   80.19    7.28
  -8  -1   5   19.52    4.29
  -8  -1   5   19.67    3.08
   7   1  -5  222.25   11.79
  -7  -1   5  212.92   12.39
  -7  -1   5  220.74   14.68
   6   1  -5  153.04   15.78
  -6  -1   5  182.37   19.24
  -6  -1   5  186.26   10.55
  -6  -1   5  197.51   12.62
   5   1  -5  474.80   30.86
  -5  -1   5  526.79   29.18
  -5  -1   5  516.63   34.63
   4   1  -5  180.03   14.04
  -4  -1   5  139.88   14.57
   3   1  -5   86.51    8.61
  -3  -1   5   66.94    8.88
   2   1  -5  365.25   23.04
  -2  -1   5  450.13   25.78
   1   1  -5  135.12    8.07
   1   1  -5  149.30   10.57
  -1  -1   5  163.30   11.79
   0   1  -5  283.94   16.29
   0   1  -5  286.06   16.24
   0  -1   5  292.73   16.46
  -1   1  -5  293.00   17.94
  -1   1  -5  286.98   15.69
   1  -1   5  301.72   16.75
  -2   1  -5 2150.90   99.16
   2  -1   5 1968.92   96.09
  -3   1  -5 1002.90   56.54
   3  -1   5 1154.45   53.98
  -4   1  -5  159.73   15.63
   4  -1   5  177.46   13.35
  -5   1  -5  573.52   38.56
   5  -1   5  608.08   34.36
  -6   1  -5  129.69    7.88
  -6   1  -5  143.61    9.64
  -6   1  -5  131.43   16.39
   6  -1   5  125.43   12.83
  -7   1  -5  690.77   33.30
  -7   1  -5  696.43   35.64
   7  -1   5  702.66   33.16
  -8   1  -5  303.41   18.44
  -8   1  -5  295.01   16.08
   8  -1   5  337.65   16.36
  -9   1  -5    8.26    2.85
  -9   1  -5    7.03    1.82
   9  -1   5   11.90    2.24
 -10   1  -5   38.20    4.97
  10  -1   5   41.43    3.25
 -10   0   5   84.47    5.66
 -10   0   5   84.73    5.72
  -9   0   5  106.08    7.87
  -9   0   5  106.68    6.58
  -8   0   5   13.34    2.46
  -8   0   5   12.97    3.32
   7   0  -5   31.69    3.51
  -7   0   5   21.17    3.20
  -7   0   5   18.32    4.16
   6   0  -5  114.62    7.15
   6   0  -5  117.63   13.87
  -6   0   5  121.50    7.75
  -6   0   5  129.60   17.35
  -6   0   5  127.44    9.46
   5   0  -5  269.90   20.67
  -5   0   5  288.02   22.87
  -5   0   5  316.18   17.14
   4   0  -5  216.90   16.20
  -4   0   5  215.43   17.61
   3   0  -5  876.47   45.51
  -3   0   5  882.15   47.09
   2   0  -5  496.13   27.24
  -2   0   5  489.87   28.05
   1   0  -5  182.96   11.95
  -1   0   5  168.80   12.01
   0   0  -5  424.92   22.70
   0   0  -5  428.84   22.97
   0   0   5  465.36   23.08
  -1   0  -5 1680.31   77.28
  -1   0  -5 1714.25   79.55
   1   0   5 1654.15   78.33
  -2   0  -5  518.07   28.42
   2   0   5  494.84   26.60
  -3   0  -5  119.44   11.23
  -4   0  -5  582.15   35.70
   4   0   5  612.77   33.04
  -5   0  -5  466.55   32.11
   5   0   5  503.02   29.38
  -6   0  -5  119.60    8.70
  -6   0  -5  121.41   14.76
  -6   0  -5  116.75    7.01
  -6   0  -5  121.73    7.53
   6   0   5  135.99   12.96
  -7   0  -5  313.72   16.28
  -7   0  -5  321.20   16.82
  -7   0  -5  337.50   18.62
  -8   0  -5  365.62   20.37
  -8   0  -5  356.41   18.36
   8   0   5  341.83   17.94
  -9   0  -5  164.73    9.50
  -9   0  -5  170.17   11.46
   9   0   5  152.38    9.21
 -10   0  -5  218.05   13.44
 -10   0  -5  229.65   11.59
  10   0   5  215.17   11.50
  -9   1   5    5.64    1.40
  -9   1   5    5.41    1.94
  -8   1   5  283.43   16.19
  -8   1   5  281.54   14.71
   7  -1  -5   74.65    5.48
  -7   1   5   83.09    5.97
  -7   1   5   87.92    7.28
   6  -1  -5  127.42    8.04
  -6   1   5  151.17   10.09
  -6   1   5  143.02    8.51
   5  -1  -5  219.92   17.06
   5  -1  -5  201.21   10.69
  -5   1   5  200.85   12.25
  -5   1   5  188.45   17.49
   4  -1  -5  244.42   17.06
  -4   1   5  206.26   17.20
   3  -1  -5 1454.29   75.31
  -3   1   5 1630.00   76.50
  -2   1   5   80.43    6.74
  -2   1   5   77.75    7.58
   1  -1  -5  438.23   23.37
  -1   1   5  421.60   22.98
  -1   1   5  414.11   21.30
   0  -1  -5 1741.51   77.83
   0  -1  -5 1421.73   77.97
   0   1   5 1873.80   78.02
  -1  -1  -5 1248.30   59.59
  -1  -1  -5 1311.78   61.42
   1   1   5 1291.34   60.29
  -2  -1  -5  382.04   20.17
  -2  -1  -5  418.37   23.76
   2   1   5  453.76   22.64
  -3  -1  -5  404.88   22.88
   3   1   5  315.90   20.04
  -4  -1  -5  340.44   22.48
   4   1   5  316.72   20.25
  -5  -1  -5 1485.75   76.13
   5   1   5 1443.18   73.17
  -6  -1  -5  174.61   11.14
  -6  -1  -5  166.04   16.62
   6   1   5  154.76   14.47
  -7  -1  -5  307.74   16.07
  -7  -1  -5  298.62   28.17
  -7  -1  -5  306.05   17.26
  -7  -1  -5  298.66   15.36
  -8  -1  -5   64.79    6.35
  -8  -1  -5   57.43    5.07
  -8  -1  -5   55.68    4.49
  -9  -1  -5  152.82    9.46
  -9  -1  -5  149.44   10.72
   9   1   5  159.10    9.09
 -10  -1  -5   19.88    2.88
 -10  -1  -5   19.10    3.72
  10   1   5   29.94    2.99
 -11  -1  -5    3.90    1.20
 -11  -1  -5    4.47    1.86
  11   1   5    6.35    1.26
   9  -2  -5   32.67    3.04
  -8   2   5  150.57    8.42
  -8   2   5  143.75    9.36
  -7   2   5  372.44   18.87
  -7   2   5  378.69   20.25
   6  -2  -5  445.14   22.18
  -6   2   5  455.80   23.77
  -6   2   5  457.64   22.40
   5  -2  -5  182.88    9.62
   5  -2  -5  179.94   15.32
  -5   2   5  160.92   10.62
   4  -2  -5  155.85   12.95
  -4   2   5  119.82   12.22
   3  -2  -5   15.32    4.34
  -3   2   5   24.35    4.72
   2  -2  -5 1172.46   58.42
  -2   2   5 1198.42   58.12
  -1   2   5    8.68    2.28
   0  -2  -5 2726.72  122.18
   0   2   5 2583.96  120.60
  -1  -2  -5 1065.62   52.75
  -1  -2  -5 1092.47   51.60
   1   2   5 1121.51   51.38
  -2  -2  -5 1335.39   64.36
  -2  -2  -5 1501.80   67.53
   2   2   5 1337.71   65.24
  -3  -2  -5 2549.23  127.12
   3   2   5 2893.87  126.06
  -4  -2  -5  474.68   28.58
   4   2   5  481.83   27.21
  -5  -2  -5  557.32   34.16
   5   2   5  575.18   32.87
  -6  -2  -5  202.76   18.11
   6   2   5  216.05   17.44
  -7  -2  -5  367.63   19.39
  -7  -2  -5  337.05   26.68
  -7  -2  -5  352.59   18.42
  -7  -2  -5  336.14   17.64
   7   2   5  385.74   26.66
  -8  -2  -5  209.77   12.75
  -8  -2  -5  191.14   10.91
  -8  -2  -5  199.21   11.70
  -9  -2  -5   62.69    6.06
  -9  -2  -5   55.72    5.13
  -9  -2  -5   58.89    4.57
 -10  -2  -5   85.77    6.95
 -10  -2  -5   86.34    6.18
  10   2   5   84.72    5.63
 -11  -2  -5   97.35    5.70
 -11  -2  -5   93.75    6.53
  11   2   5   80.65    5.17
   6  -3  -5   53.62    4.20
  -6   3   5   47.46    7.38
   5  -3  -5   75.30    9.65
   5  -3  -5   73.89    5.08
  -5   3   5   75.75    7.66
   4  -3  -5 1242.30   63.66
   3  -3  -5   20.90    4.55
   2  -3  -5  236.64   15.43
  -2   3   5  223.90   14.28
  -2   3   5  191.26   15.63
   1  -3  -5 1053.37   56.95
  -1   3   5 1237.80   55.98
  -1   3   5 1225.27   56.87
   0  -3  -5  355.81   20.73
   0   3   5  395.70   19.30
   0   3   5  388.91   20.30
  -1  -3  -5  367.05   20.75
  -1  -3  -5  364.92   20.48
   1   3   5  419.63   19.22
  -2  -3  -5  176.10   12.01
  -2  -3  -5  160.04   10.60
   2   3   5  163.84   10.24
  -3  -3  -5 1294.51   59.11
  -3  -3  -5 1175.27   61.98
   3   3   5 1302.15   60.45
   4   3   5   26.12    4.60
   5   3   5   11.35    3.82
  -6  -3  -5  357.94   25.83
   6   3   5  405.67   26.19
  -7  -3  -5  122.48   13.94
  -7  -3  -5  125.70    8.12
  -7  -3  -5  132.77    8.72
   7   3   5  125.43   13.82
  -8  -3  -5  298.42   16.30
  -8  -3  -5  296.34   15.51
  -8  -3  -5  306.08   16.90
  -9  -3  -5  137.66    9.03
  -9  -3  -5  129.61    8.14
  -9  -3  -5  148.76    9.66
 -10  -3  -5  112.46    7.98
 -10  -3  -5  113.60    7.63
 -11  -3  -5   25.99    3.37
 -11  -3  -5   24.59    3.02
  11   3   5   20.55    2.38
  -7   4   5  141.35   11.38
   6  -4  -5   21.51    3.42
  -6   4   5   22.09    5.47
   5  -4  -5   82.82    5.54
   4  -4  -5 1202.29   55.88
   4  -4  -5 1232.30   63.57
  -3   4   5   83.33   11.46
   2  -4  -5 1734.65   91.98
  -2   4   5 2113.65   95.99
   1  -4  -5  308.20   18.24
  -1   4   5  248.27   17.17
   0  -4  -5  289.43   16.57
   0   4   5  231.68   15.30
  -1  -4  -5  193.44   13.48
   1   4   5  226.28   11.13
   1   4   5  235.47   13.87
  -2  -4  -5   55.16    5.82
  -2  -4  -5   54.07    5.56
   2   4   5   37.08    4.03
  -3  -4  -5 3323.99  147.14
  -3  -4  -5 3026.25  145.16
   3   4   5 3143.21  144.65
  -4  -4  -5 1076.55   52.44
   4   4   5  944.64   50.32
  -5  -4  -5   15.29    4.69
   5   4   5    9.46    3.49
  -6  -4  -5    8.62    4.00
   6   4   5    4.75    3.09
  -7  -4  -5  194.67   17.47
  -7  -4  -5  193.44   11.18
  -7  -4  -5  188.07   10.87
   7   4   5  170.59   16.71
  -8  -4  -5  210.53   12.51
  -8  -4  -5  210.84   12.27
  -9  -4  -5    9.22    2.10
  -9  -4  -5   11.15    2.65
  -9  -4  -5   10.06    2.51
 -10  -4  -5   61.51    5.10
 -10  -4  -5   49.01    4.08
 -10  -4  -5   59.63    5.08
 -11  -4  -5   10.00    2.80
 -11  -4  -5   12.66    2.38
  -8   5   5  209.19   12.67
  -7   5   5   32.78    5.65
  -6   5   5   29.98    6.04
   5  -5  -5  289.26   14.63
  -5   5   5  263.40   18.11
   4  -5  -5   73.87    5.10
   4  -5  -5   78.35    9.91
  -4   5   5   65.75    7.34
   3  -5  -5   38.90    6.51
  -3   5   5   23.46    7.99
   2  -5  -5   53.33    7.26
  -2   5   5   68.34    9.36
   1  -5  -5   86.52    8.88
  -1   5   5   96.51    9.62
   0  -5  -5  524.36   30.55
   0   5   5  595.00   30.37
  -1  -5  -5  770.62   38.88
   1   5   5  712.29   37.59
  -2  -5  -5  201.27   13.55
   2   5   5  180.70   12.86
  -3  -5  -5  266.74   16.79
  -3  -5  -5  284.74   16.82
   3   5   5  213.66   14.01
  -4  -5  -5  701.12   36.32
  -4  -5  -5  700.48   37.27
   4   5   5  657.40   35.59
  -5  -5  -5   94.80    9.83
   5   5   5  101.13    9.89
  -6  -5  -5  614.45   36.48
   6   5   5  635.68   37.11
  -7  -5  -5   28.81    3.75
  -7  -5  -5   22.72    3.30
  -7  -5  -5   23.28    6.50
   7   5   5   29.25    7.53
  -8  -5  -5   38.64    4.15
  -8  -5  -5   40.37    4.21
  -9  -5  -5   66.27    5.69
  -9  -5  -5   65.45    5.50
 -10  -5  -5  157.63    9.52
 -10  -5  -5  161.80    9.84
 -11  -5  -5   13.22    2.43
  -7   6   5  463.15   25.25
  -6   6   5   17.56    4.51
   5  -6  -5    3.68    1.65
  -5   6   5    8.15    3.57
   4  -6  -5  158.41    9.56
  -4   6   5  186.48   12.82
   3  -6  -5  131.27   13.43
   3  -6  -5  133.81    8.28
  -3   6   5  165.38   18.24
  -3   6   5  161.69   10.75
   2  -6  -5   73.13    9.15
  -2   6   5   87.27   11.41
   1  -6  -5  230.80   17.00
  -1   6   5  219.95   17.39
   0  -6  -5  615.10   35.36
   0   6   5  651.90   35.09
  -1  -6  -5 1137.83   54.89
   1   6   5 1003.93   53.37
  -2  -6  -5 2422.61  115.38
   2   6   5 2447.58  114.09
  -3  -6  -5  206.17   15.65
   3   6   5  224.98   15.12
  -4  -6  -5  534.19   31.05
  -4  -6  -5  522.40   29.79
  -5  -6  -5   33.03    5.49
  -6  -6  -5   96.57   10.13
   6   6   5   93.76   10.61
  -7  -6  -5  239.92   13.05
  -7  -6  -5  231.69   12.99
   7   6   5  250.01   20.28
  -8  -6  -5   67.34    5.37
  -8  -6  -5   70.86    5.61
  -9  -6  -5   36.71    3.78
  -9  -6  -5   31.82    4.09
 -10  -6  -5   59.91    5.01
 -11  -6  -5  351.95   17.71
  -7   7   5  271.59   15.58
  -6   7   5  150.26   11.34
  -5   7   5  245.78   16.23
   4  -7  -5   66.25    4.89
  -4   7   5   45.19    6.77
   3  -7  -5  275.75   14.37
  -3   7   5  268.48   16.49
   2  -7  -5  279.78   21.85
   2  -7  -5  297.64   15.41
  -2   7   5  312.66   17.11
  -2   7   5  313.39   25.25
   1  -7  -5  115.79   12.30
  -1   7   5  149.58   14.30
   0  -7  -5   43.21    6.79
   0   7   5   36.03    6.32
  -1  -7  -5 1063.52   55.81
   1   7   5 1076.27   54.89
  -2  -7  -5   30.35    5.67
   2   7   5   23.68    4.70
  -3  -7  -5   21.33    5.76
   3   7   5   21.22    4.20
  -4  -7  -5  121.59   12.49
   4   7   5  131.72   11.20
   5   7   5   28.74    5.35
  -6  -7  -5  117.96    7.05
  -7  -7  -5  340.89   17.09
  -7  -7  -5  329.41   17.37
  -8  -7  -5    4.27    1.76
  -9  -7  -5    6.85    1.98
 -10  -7  -5   96.07    6.47
 -11  -7  -5   45.02    3.73
  -6   8   5   55.20    5.97
  -5   8   5  328.06   19.43
   4  -8  -5  118.27    7.45
  -4   8   5  119.17    9.71
   3  -8  -5   38.67    3.96
  -3   8   5   61.69    6.43
   2  -8  -5   94.14    6.37
  -2   8   5   96.06    7.77
   1  -8  -5  177.04    9.77
   1  -8  -5  166.30   15.87
  -1   8   5  168.27   16.98
  -1   8   5  168.98   10.70
   0  -8  -5  202.22   12.14
   0  -8  -5  209.85   11.41
   0  -8  -5  218.31   17.98
   0   8   5  222.64   18.45
  -1  -8  -5  111.17   11.83
   1   8   5  102.16   11.08
  -2  -8  -5  372.45   24.67
   2   8   5  347.88   23.06
  -3  -8  -5  176.01   16.21
   3   8   5  208.32   15.58
  -4  -8  -5  496.07   32.64
   4   8   5  508.87   30.15
  -5  -8  -5  331.56   16.93
   5   8   5  314.26   21.24
  -6  -8  -5  392.39   19.31
   6   8   5  356.10   24.29
  -9  -8  -5   54.91    4.62
 -10  -8  -5   15.62    2.35
 -11  -8  -5   99.54    5.85
  -6   9   5   27.96    3.89
  -5   9   5   29.36    4.68
   4  -9  -5   55.27    4.50
  -4   9   5   55.96    6.17
   3  -9  -5  599.81   30.24
  -3   9   5  655.85   32.74
   2  -9  -5  258.69   14.21
  -2   9   5  272.53   16.09
   1  -9  -5  599.34   28.05
  -1   9   5  545.12   29.14
   0  -9  -5   28.39    3.81
   0  -9  -5   24.03    3.25
  -1  -9  -5   66.15    5.41
  -1  -9  -5   61.96    5.06
  -1  -9  -5   53.96    8.75
  -1  -9  -5   55.13    4.52
   1   9   5   52.30    8.71
  -2  -9  -5  123.93    7.86
  -2  -9  -5  135.35    8.47
  -2  -9  -5  131.11    8.30
  -2  -9  -5  135.00   14.09
   2   9   5  136.41   13.56
  -3  -9  -5  123.20    7.69
  -3  -9  -5  120.34    7.60
  -3  -9  -5  125.22   13.57
  -3  -9  -5  134.36    8.29
   3   9   5  121.13   12.11
  -4  -9  -5   25.07    7.58
  -4  -9  -5   24.31    3.53
  -4  -9  -5   24.07    2.81
  -4  -9  -5   23.38    3.33
   4   9   5   28.50    5.76
  -5  -9  -5  208.15   12.20
  -5  -9  -5  198.42   12.02
   5   9   5  227.35   17.46
  -6  -9  -5   47.70    4.50
  -5  10   5   18.89    3.41
  -4  10   5  240.33   14.57
   3 -10  -5  175.29   10.14
  -3  10   5  183.25   12.09
   2 -10  -5   96.80    6.51
  -2  10   5   83.12    7.61
   1 -10  -5   88.24    6.66
  -1  10   5  108.20    8.20
   0 -10  -5  183.48   10.92
   0 -10  -5  181.87   10.49
   0  10   5  168.50   11.27
  -1 -10  -5  737.79   35.79
  -1 -10  -5  729.42   35.17
  -2 -10  -5   19.38    3.03
  -2 -10  -5   20.33    3.33
  -2 -10  -5   17.80    3.13
  -3 -10  -5   37.13    4.10
  -3 -10  -5   46.60    4.22
  -4 -10  -5  590.30   29.06
  -4 -10  -5  596.04   29.50
  -5 -10  -5  404.14   20.62
  -5 -10  -5  381.61   20.40
  -6 -10  -5  189.28   11.30
  -4  11   5   29.59    4.11
   3 -11  -5   16.54    2.57
  -3  11   5   15.63    3.37
   2 -11  -5   61.19    5.01
  -2  11   5   74.27    6.53
   1 -11  -5  133.36    8.66
  -1  11   5  150.20   10.27
   0 -11  -5  127.32    8.32
   0 -11  -5  131.17    8.83
   0  11   5  130.24    9.39
  -1 -11  -5   38.84    4.90
  -1 -11  -5   43.03    4.13
   1  11   5   28.75    4.50
  -2 -11  -5  853.78   40.61
  -2 -11  -5  847.81   41.30
  -3 -11  -5  915.95   43.85
  -3 -11  -5  901.57   43.13
  -4 -11  -5   13.32    2.91
  -4 -11  -5   11.69    2.52
  -5 -11  -5   21.75    3.74
  -5 -11  -5   16.99    3.15
  -6 -11  -5   39.47    5.03
  -6 -11  -5   36.75    4.15
  -7 -11  -5   59.36    6.53
  -3  12   5   12.96    2.87
   2 -12  -5   36.22    3.39
  -2  12   5   37.01    4.81
   1 -12  -5   55.73    4.76
  -1  12   5   64.30    5.91
   0 -12  -5   58.14    5.38
   0 -12  -5   58.83    4.97
   0  12   5   63.28    5.93
  -1 -12  -5  178.02   10.65
  -1 -12  -5  168.02   11.12
   1  12   5  195.58   11.70
  -2 -12  -5   24.34    3.92
  -2 -12  -5   24.35    3.47
  -3 -12  -5  291.63   16.69
  -3 -12  -5  307.98   16.13
  -4 -12  -5   10.58    2.69
  -4 -12  -5   14.18    2.86
  -5 -12  -5   43.29    4.36
  -5 -12  -5   46.01    4.83
  -6 -12  -5   65.30    5.57
  -6 -12  -5   57.44    5.31
  -7 -12  -5  156.10    9.62
   2 -13  -5   17.27    2.24
  -2  13   5   22.49    3.28
   1 -13  -5   66.80    4.75
  -1  13   5   64.51    5.56
   0 -13  -5  180.57   10.12
   0  13   5  172.12   10.85
  -1 -13  -5  235.79   13.64
  -1 -13  -5  238.37   13.06
  -2 -13  -5   23.74    3.34
  -2 -13  -5   20.45    3.58
  -3 -13  -5  150.94    9.22
  -3 -13  -5  143.68    9.70
  -4 -13  -5  213.84   12.28
  -4 -13  -5  218.73   12.89
  -5 -13  -5  148.21    9.74
  -5 -13  -5  154.18    9.33
  -6 -13  -5  153.61    9.14
  -6 -13  -5  142.54    9.37
  -7 -13  -5   63.44    5.19
   0 -14  -5   10.12    1.92
  -1 -14  -5   38.90    4.06
  -1 -14  -5   38.62    3.78
  -2 -14  -5   25.27    3.35
  -2 -14  -5   22.75    3.52
  -3 -14  -5   51.78    5.13
  -3 -14  -5   70.61    5.08
  -4 -14  -5   81.14    5.75
  -4 -14  -5   78.51    6.27
  -5 -14  -5  295.87   15.68
  -5 -14  -5  309.39   16.47
  -6 -14  -5   15.83    2.47
  -6 -14  -5   16.79    2.91
  -7 -14  -5  168.06    9.69
  -2 -15  -5   70.31    5.20
  -2 -15  -5   71.50    4.81
  -3 -15  -5   24.78    3.34
  -3 -15  -5   27.45    3.00
  -4 -15  -5  114.01    6.96
  -4 -15  -5  118.47    7.60
  -5 -15  -5    9.63    2.18
  -5 -15  -5   11.04    1.93
  -6 -15  -5  117.79    6.80
  -6 -15  -5  120.80    7.37
  -5 -12   6    5.25    1.40
  -5 -12   6    4.05    1.63
   4  12  -6  125.19    7.87
  -4 -12   6  122.42    7.77
  -4 -12   6  118.30    6.92
   3  12  -6   29.04    3.98
  -3 -12   6   37.72    3.79
   2  12  -6   60.52    5.45
  -2 -12   6   67.36    5.14
   1  12  -6  138.47    8.83
  -1 -12   6  127.93    8.04
   0  12  -6   69.53    5.60
   0 -12   6   70.29    5.06
  -7 -11   6  425.90   20.30
  -7 -11   6  421.58   21.04
  -6 -11   6  115.79    7.68
  -6 -11   6  110.05    6.75
  -5 -11   6  211.04   11.49
  -5 -11   6  217.23   12.59
   4  11  -6  169.70   10.42
  -4 -11   6  160.09    9.27
  -4 -11   6  160.70   10.28
   3  11  -6   17.49    3.51
  -3 -11   6   22.93    2.91
  -3 -11   6   22.48    3.52
   2  11  -6  112.64    8.62
  -2 -11   6  127.87    8.33
   1  11  -6  197.32   12.07
  -1 -11   6  181.41   11.09
   0  11  -6  325.29   18.13
   0 -11   6  329.21   17.24
  -1  11  -6  170.78   10.63
   1 -11   6  162.43    9.76
  -2  11  -6  222.54   12.68
   2 -11   6  239.46   12.32
  -8 -10   6   53.52    4.35
  -8 -10   6   51.42    3.65
  -7 -10   6   80.83    6.43
  -7 -10   6   83.25    5.55
  -6 -10   6   29.64    4.37
  -6 -10   6   27.78    3.35
  -5 -10   6   24.03    3.25
  -5 -10   6   22.24    3.95
   4  10  -6  259.34   14.34
  -4 -10   6  238.94   13.13
  -4 -10   6  224.12   14.17
   3  10  -6  104.71    8.01
  -3 -10   6  101.18    6.79
  -3 -10   6  101.27    7.72
   2  10  -6   11.80    3.08
  -2 -10   6   12.45    2.85
  -2 -10   6    7.98    2.04
   1  10  -6   15.01    3.57
  -1 -10   6   29.44    4.05
   0  10  -6  102.21    8.48
   0 -10   6  119.37    7.82
  -1  10  -6  292.58   16.71
   1 -10   6  277.14   15.27
  -2  10  -6  224.13   13.18
   2 -10   6  212.17   12.00
   3 -10   6   90.99    6.06
   4 -10   6   48.23    3.66
  -8  -9   6   90.71    5.71
  -8  -9   6   88.26    6.68
  -7  -9   6  236.30   12.64
  -7  -9   6  232.73   13.97
  -6  -9   6   44.59    4.23
  -6  -9   6   50.29    6.21
  -5  -9   6   -0.21    1.23
  -5  -9   6    1.69    1.88
  -4  -9   6  214.46   13.62
  -4  -9   6  222.56   12.37
   3   9  -6   87.60    7.76
  -3  -9   6  114.35    7.16
  -3  -9   6  109.35    8.16
   2   9  -6  388.44   22.38
  -2  -9   6  429.84   22.15
  -2  -9   6  423.60   20.89
   1   9  -6    6.41    2.54
  -1  -9   6    4.90    1.97
   0   9  -6    2.67    2.08
   0  -9   6    6.09    2.08
  -1   9  -6  135.80   10.04
   1  -9   6  134.79    8.67
  -2   9  -6  133.98    9.96
   2  -9   6  147.36    8.89
  -3   9  -6    3.01    1.95
   3  -9   6    1.24    1.38
   4  -9   6  157.65    9.04
   5  -9   6   71.51    4.72
   9   8  -6   20.21    2.31
  -9  -8   6   25.01    3.19
  -8  -8   6  296.00   15.23
  -8  -8   6  301.00   16.56
  -7  -8   6   73.85    6.82
  -7  -8   6   73.42    5.57
  -6  -8   6   43.65    5.84
  -6  -8   6   40.29    4.07
  -5  -8   6  252.77   15.85
  -5  -8   6  266.40   14.33
  -4  -8   6   19.56    4.08
  -4  -8   6   25.94    3.55
   3   8  -6  450.00   23.89
  -3  -8   6  466.52   24.14
  -3  -8   6  436.81   22.55
   2   8  -6  655.98   32.98
  -2  -8   6  630.13   31.26
  -2  -8   6  663.74   32.57
   1   8  -6  203.60   12.57
  -1  -8   6  180.25   11.34
   0   8  -6  133.57    9.58
   0  -8   6  108.02    7.72
  -1   8  -6  547.43   29.93
   1  -8   6  599.73   28.43
  -2   8  -6  200.84   13.66
   2  -8   6  228.21   12.29
  -3   8  -6  354.96   19.91
   3  -8   6  351.25   18.10
   4  -8   6  298.16   15.44
   5  -8   6   81.45    5.46
   6  -8   6  104.34    6.13
   9   7  -6  138.70    8.26
  -9  -7   6  173.62    9.52
  -8  -7   6  183.76   10.34
  -8  -7   6  188.88   11.63
  -7  -7   6   13.29    2.56
  -7  -7   6   17.22    3.63
  -6  -7   6   99.27    7.18
  -6  -7   6  118.61    8.92
  -5  -7   6  967.28   46.06
  -5  -7   6  980.96   47.93
  -4  -7   6  207.56   11.71
  -4  -7   6  204.30   13.06
   3   7  -6  222.88   13.49
  -3  -7   6  232.74   12.60
  -3  -7   6  228.03   13.75
   2   7  -6   36.78    4.99
  -2  -7   6   37.76    3.58
  -2  -7   6   31.67    4.38
   1   7  -6  464.01   24.07
  -1  -7   6  439.18   22.83
   0   7  -6  107.59    8.88
   0  -7   6  145.68    8.34
  -1   7  -6  613.76   30.89
   1  -7   6  574.34   28.72
  -2   7  -6   68.40    6.64
   2  -7   6   63.98    4.99
  -3   7  -6  399.93   21.86
   3  -7   6  381.24   19.49
   4  -7   6  158.03    9.15
   5  -7   6   54.95    4.30
   6  -7   6  173.37    9.40
   7  -7   6   75.26    4.63
   9   6  -6    9.54    1.68
  -9  -6   6    7.46    2.14
  -9  -6   6    9.67    2.38
  -8  -6   6  113.68    8.10
  -8  -6   6  103.51    6.88
  -8  -6   6  113.13    8.15
  -7  -6   6   17.25    2.90
  -7  -6   6   14.77    3.40
  -6  -6   6  440.57   22.03
  -6  -6   6  413.48   22.88
  -6  -6   6  449.91   23.55
  -5  -6   6  438.94   23.03
  -5  -6   6  409.56   21.43
  -4  -6   6  288.14   16.33
  -4  -6   6  278.60   15.03
   3   6  -6   47.43    8.44
   3   6  -6   57.11    7.46
  -3  -6   6   46.45    4.09
  -3  -6   6   45.73    4.77
  -3  -6   6   49.77    9.42
   2   6  -6   67.77    9.60
   2   6  -6   65.18    5.86
  -2  -6   6   81.86    6.12
  -2  -6   6   78.54    5.32
  -2  -6   6   81.11   10.65
   1   6  -6  343.52   19.60
   1   6  -6  361.13   25.33
  -1  -6   6  379.22   18.95
  -1  -6   6  381.36   25.06
   0   6  -6  660.25   32.09
   0  -6   6  627.78   30.54
   0  -6   6  623.68   35.78
  -1   6  -6  308.15   17.12
   1  -6   6  288.18   15.17
  -2   6  -6    8.73    2.83
   2  -6   6   13.94    2.27
  -3   6  -6  145.48    9.98
   3  -6   6  122.29    7.65
   4  -6   6   32.70    3.30
   5  -6   6  233.19   12.33
   6  -6   6   19.03    2.50
  -7   6  -6  259.41   14.40
   7  -6   6  275.73   13.54
 -10  -5   6   43.61    4.45
 -10  -5   6   39.14    3.32
   9   5  -6  145.75    8.91
  -9  -5   6  177.71   10.03
  -9  -5   6  186.09   11.31
  -8  -5   6   24.38    4.38
  -8  -5   6   18.10    3.34
  -7  -5   6   34.77    3.97
  -7  -5   6   33.04    4.61
  -7  -5   6   31.21    5.22
  -6  -5   6 1123.61   51.68
  -6  -5   6 1018.54   49.47
  -6  -5   6 1028.24   50.75
  -5  -5   6  112.83    7.26
  -5  -5   6  110.86    8.18
  -5  -5   6  106.91    8.13
   4   5  -6  933.53   54.39
  -4  -5   6  979.98   46.28
  -4  -5   6  872.97   59.44
  -4  -5   6 1026.29   46.46
  -4  -5   6  996.14   45.16
   3   5  -6  536.20   34.47
  -3  -5   6  545.71   26.48
  -3  -5   6  545.60   38.02
  -3  -5   6  568.51   27.56
   2   5  -6   26.07    5.79
  -2  -5   6   26.51    7.26
   1   5  -6  418.02   28.19
  -1  -5   6  511.12   29.68
   0  -5   6  216.74   15.61
  -1   5  -6 1819.79   81.26
   1  -5   6 1658.92   82.94
  -2   5  -6  521.49   27.75
  -2   5  -6  557.70   37.43
   2  -5   6  555.56   29.81
   2  -5   6  538.93   25.88
  -3   5  -6  292.45   26.51
  -3   5  -6  294.80   16.99
   3  -5   6  293.92   14.79
  -4   5  -6   31.05    5.26
   4  -5   6   46.64    3.65
  -5   5  -6  417.34   23.34
   5  -5   6  456.83   21.54
  -6   5  -6  202.80   13.07
   6  -5   6  218.42   11.36
  -7   5  -6  139.88    9.92
   7  -5   6  162.59    8.59
  -8   5  -6  103.46    6.96
   8  -5   6  100.11    5.84
 -10  -4   6   21.61    2.38
 -10  -4   6   20.81    3.32
   9   4  -6   30.25    3.14
  -9  -4   6   45.08    3.98
  -9  -4   6   35.64    5.46
   8   4  -6   81.89    5.91
  -8  -4   6   98.28    8.78
  -8  -4   6   89.49    6.69
  -7  -4   6  161.75    9.51
  -7  -4   6  169.10   12.34
  -7  -4   6  154.56   10.22
  -6  -4   6  481.86   25.64
  -6  -4   6  536.58   27.62
  -6  -4   6  493.47   24.76
  -5  -4   6  144.05    9.80
  -5  -4   6  121.25    8.41
  -5  -4   6  135.02    7.89
  -5  -4   6   79.97   24.61
   4   4  -6  353.78   25.16
  -4  -4   6  336.92   18.32
  -4  -4   6  337.03   17.58
  -4  -4   6  376.38   21.57
   3   4  -6  102.48   11.20
  -3  -4   6   94.68   13.31
   2   4  -6  107.01   10.70
  -2  -4   6   87.30   11.41
   1   4  -6 1641.75   81.23
  -1  -4   6 1658.58   82.22
   0   4  -6  233.33   16.73
   0  -4   6  260.71   16.77
  -1   4  -6  412.76   29.40
   1  -4   6  537.77   26.78
  -2   4  -6   24.00    7.26
   2  -4   6   31.86    4.54
  -3   4  -6  486.04   25.00
  -3   4  -6  490.77   34.93
   3  -4   6  464.82   22.83
   3  -4   6  483.73   27.37
  -4   4  -6  708.03   37.17
  -4   4  -6  754.50   66.49
   4  -4   6  775.81   35.04
   4  -4   6  748.66   40.62
  -5   4  -6  466.92   24.58
   5  -4   6  454.35   22.37
  -6   4  -6   30.77    4.87
   6  -4   6   37.20    3.51
  -7   4  -6   60.76    6.08
   7  -4   6   55.95    4.36
  -8   4  -6  161.71   10.46
   8  -4   6  164.47    8.83
  -9   4  -6   46.66    4.12
   9  -4   6   45.55    3.13
 -10  -3   6   34.10    4.48
 -10  -3   6   41.62    3.12
  -9  -3   6   73.11    5.35
   8   3  -6  179.26    9.97
  -8  -3   6  199.88   10.97
  -8  -3   6  147.71   12.60
  -7  -3   6  355.55   17.78
  -7  -3   6  361.06   18.67
  -7  -3   6  315.49   20.96
  -6  -3   6  529.06   26.51
  -6  -3   6  539.49   25.66
  -6  -3   6  495.29   28.54
   5   3  -6  149.06   15.18
  -5  -3   6  149.41   10.70
  -5  -3   6  149.06    8.56
  -5  -3   6  147.73    9.16
  -5  -3   6  119.99   17.47
   4   3  -6   84.14   10.50
  -4  -3   6   80.07   12.96
  -3  -3   6  115.10   14.30
   2   3  -6 1424.58   68.52
  -2  -3   6 1283.46   71.27
   1   3  -6 1513.58   79.08
  -1  -3   6 1751.22   81.48
   0   3  -6  288.09   19.12
   0  -3   6  350.81   19.82
  -1   3  -6  790.12   42.73
   1  -3   6  754.10   38.78
  -2   3  -6  542.63   34.67
   2  -3   6  574.38   30.09
  -3   3  -6  356.27   26.93
   3  -3   6  345.78   21.58
  -4   3  -6  724.91   38.16
  -4   3  -6  681.35   44.99
   4  -3   6  684.73   31.88
   4  -3   6  646.78   37.71
  -5   3  -6  350.22   20.18
   5  -3   6  384.89   18.36
  -6   3  -6  168.97   11.59
   6  -3   6  170.19    9.58
  -7   3  -6  108.33    8.51
   7  -3   6   93.42    6.33
  -8   3  -6  217.32   14.13
   8  -3   6  246.85   12.35
  -9   3  -6  118.50    8.10
   9  -3   6  115.74    6.51
 -10  -2   6   26.72    3.71
  -9  -2   6    7.10    1.76
  -9  -2   6    8.02    2.94
   8   2  -6   32.38    3.52
  -8  -2   6   22.87    3.43
  -8  -2   6   22.44    4.85
   7   2  -6  676.34   31.75
  -7  -2   6  643.54   32.27
  -6  -2   6  204.37   15.54
  -6  -2   6  264.78   13.29
  -6  -2   6  263.91   14.03
   5   2  -6  149.41   14.27
  -5  -2   6  136.38    8.35
  -5  -2   6   93.69    9.15
  -5  -2   6  130.96   16.66
  -5  -2   6  124.51    7.57
   4   2  -6  579.80   34.93
  -4  -2   6  571.63   39.00
   3   2  -6   34.25    6.15
  -3  -2   6   49.19    8.68
   2   2  -6  564.48   29.51
  -2  -2   6  432.26   30.72
   1   2  -6  900.70   44.59
  -1  -2   6  822.22   45.57
   0   2  -6  155.57   11.23
   0   2  -6  161.22   11.41
   0  -2   6  156.87   11.32
  -1   2  -6  183.92   14.10
  -1   2  -6  173.98   11.86
   1  -2   6  201.17   12.39
  -2   2  -6  518.81   31.80
   2  -2   6  526.90   28.39
  -3   2  -6   91.61   11.38
   3  -2   6   88.46    8.87
  -4   2  -6    6.16    4.49
   4  -2   6    0.02    2.00
  -5   2  -6  486.55   36.03
  -5   2  -6  504.21   23.89
  -5   2  -6  484.43   25.32
   5  -2   6  462.69   23.27
   5  -2   6  491.51   30.26
  -6   2  -6   85.14    6.88
  -6   2  -6   71.98    6.96
   6  -2   6   85.54    5.66
  -7   2  -6   11.73    3.33
   7  -2   6   11.90    2.22
  -8   2  -6   78.89    7.22
   8  -2   6   79.43    5.49
  -9   2  -6   52.41    5.38
   9  -2   6   46.46    3.70
 -10   2  -6    8.17    2.10
 -10  -1   6   40.72    3.90
  -9  -1   6   86.97    7.35
  -9  -1   6   85.76    5.60
   8   1  -6  214.78   11.49
  -8  -1   6  212.81   14.26
  -8  -1   6  211.13   11.89
   7   1  -6  213.39   11.41
  -7  -1   6  208.34   14.36
  -7  -1   6  194.80   11.73
   6   1  -6   60.01    4.60
  -6  -1   6   56.88    4.95
  -6  -1   6   59.81    7.74
   5   1  -6  170.51   15.44
  -5  -1   6  152.14   17.03
  -5  -1   6  143.42   11.04
  -5  -1   6  156.02    8.93
  -5  -1   6  168.28    9.61
   4   1  -6  996.94   54.51
  -4  -1   6 1064.48   58.71
   3   1  -6  560.37   32.55
  -3  -1   6  565.92   35.17
   2   1  -6  484.03   27.25
  -2  -1   6  439.57   28.58
   1   1  -6  719.34   37.80
  -1  -1   6  723.89   38.92
   0   1  -6  565.71   30.74
   0   1  -6  617.04   31.61
   0  -1   6  621.47   31.53
  -1   1  -6  165.27   10.95
  -1   1  -6  159.11   12.48
   1  -1   6  204.35   11.96
  -2   1  -6  526.17   30.73
   2  -1   6  522.06   28.31
  -3   1  -6   71.25    9.41
   3  -1   6   72.43    7.85
  -4   1  -6 2570.42  133.02
   4  -1   6 2859.54  128.90
  -5   1  -6  286.49   15.89
  -5   1  -6  277.78   23.82
   5  -1   6  252.32   19.14
  -6   1  -6  173.35   10.95
  -6   1  -6  158.65    9.01
   6  -1   6  146.25    8.75
  -7   1  -6  688.59   33.22
  -7   1  -6  706.21   35.67
   7  -1   6  699.75   33.15
  -8   1  -6  214.39   11.41
  -8   1  -6  204.68   13.50
   8  -1   6  204.43   11.38
  -9   1  -6    8.10    1.79
  -9   1  -6    5.66    2.59
   9  -1   6    8.95    1.91
 -10   1  -6   49.92    4.73
  10  -1   6   35.42    2.91
  -9   0   6    9.60    1.75
  -9   0   6   11.57    2.74
   8   0  -6  152.10    9.31
  -8   0   6  169.69    9.60
  -8   0   6  179.07   11.61
   7   0  -6   83.65    5.78
  -7   0   6   80.87    7.71
  -7   0   6   79.70    5.96
   6   0  -6  152.06    9.34
  -6   0   6  183.76   12.10
  -6   0   6  171.35    9.91
   5   0  -6  178.66   15.80
   5   0  -6  176.50    9.40
  -5   0   6  161.61   11.27
  -5   0   6  162.30    9.65
  -5   0   6  155.60   16.48
   4   0  -6   26.58    5.75
  -4   0   6   30.20    6.57
   3   0  -6  804.32   43.88
  -3   0   6  837.77   45.75
   2   0  -6  315.40   19.71
  -2   0   6  313.45   20.81
   1   0  -6  362.57   21.23
  -1   0   6  367.04   21.88
   0   0  -6  554.24   28.38
   0   0  -6  543.76   28.69
   0   0   6  553.23   28.66
  -1   0  -6  379.51   21.30
  -1   0  -6  372.84   19.41
   1   0   6  340.47   19.67
  -2   0  -6  430.95   24.97
   2   0   6  399.53   23.00
  -3   0  -6   44.35    7.09
   3   0   6   58.14    6.72
  -4   0  -6  321.51   24.23
   4   0   6  369.18   22.13
  -5   0  -6 1134.60   65.07
   5   0   6 1223.94   61.24
  -6   0  -6    9.08    2.60
  -6   0  -6   11.97    2.19
  -6   0  -6    7.84    4.95
   6   0   6    8.85    1.77
   6   0   6   13.05    4.79
  -7   0  -6    7.46    1.93
  -7   0  -6    6.79    2.53
   7   0   6    7.81    1.90
  -8   0  -6   41.65    3.98
  -8   0  -6   39.07    5.44
   8   0   6   36.74    3.71
  -9   0  -6   56.18    5.82
  -9   0  -6   54.56    4.35
   9   0   6   47.56    4.14
 -10   0  -6   48.69    5.36
 -10   0  -6   47.69    3.70
  10   0   6   52.37    3.68
  -9   1   6   20.02    3.13
  -8   1   6  235.83   14.01
  -8   1   6  236.10   12.43
   7  -1  -6    1.63    1.27
  -7   1   6    4.75    2.31
   6  -1  -6  224.17   12.69
  -6   1   6  259.93   15.01
   5  -1  -6  616.54   28.61
   5  -1  -6  603.13   36.71
  -5   1   6  563.57   37.50
  -5   1   6  613.89   30.59
   4  -1  -6    9.26    3.87
  -4   1   6   13.43    4.86
   3  -1  -6  991.56   49.77
  -3   1   6  878.04   49.36
   2  -1  -6  930.37   50.24
  -2   1   6 1033.31   50.68
   1  -1  -6  810.43   42.35
  -1   1   6  858.44   42.25
  -1   1   6  813.51   39.64
   0  -1  -6 1346.91   72.23
   0  -1  -6 1582.96   71.79
   0   1   6 1664.18   72.30
  -1  -1  -6   64.74    6.54
  -1  -1  -6   58.23    5.27
  -2  -1  -6  716.30   37.13
   2   1   6  699.72   35.97
  -3  -1  -6  578.68   34.62
   3   1   6  658.75   33.18
  -4  -1  -6  374.38   25.05
   4   1   6  362.94   22.45
  -5  -1  -6  111.62   13.00
   5   1   6  125.65   11.61
  -6  -1  -6  630.18   31.35
  -6  -1  -6  654.69   42.19
  -6  -1  -6  638.50   32.58
   6   1   6  705.43   39.19
  -7  -1  -6  458.57   22.93
  -7  -1  -6  458.63   24.34
  -8  -1  -6   27.28    4.59
  -8  -1  -6   28.15    3.64
   8   1   6   21.60    3.00
  -9  -1  -6  256.29   14.91
  -9  -1  -6  245.05   13.21
   9   1   6  226.71   12.66
 -10  -1  -6   34.90    4.53
 -10  -1  -6   33.42    3.17
  10   1   6   25.82    2.85
 -11  -1  -6   51.29    4.49
  -8   2   6   55.23    5.01
   7  -2  -6  235.67   12.49
  -7   2   6  232.69   13.86
   6  -2  -6   31.25    3.67
  -6   2   6   39.98    5.31
   5  -2  -6  790.34   37.12
   5  -2  -6  760.31   44.95
  -5   2   6  821.87   38.84
   4  -2  -6   76.12    9.35
   3  -2  -6  837.87   45.22
  -3   2   6  842.94   45.15
   2  -2  -6  172.40   12.60
  -2   2   6  133.17   11.23
   1  -2  -6  583.21   29.45
  -1   2   6  503.29   27.95
  -1   2   6  509.67   27.34
   0  -2  -6   45.88    5.30
  -1  -2  -6   74.30    6.15
  -1  -2  -6   77.83    6.95
   1   2   6   65.72    5.48
  -2  -2  -6 2325.65  127.05
  -2  -2  -6 2997.95  125.14
   2   2   6 2879.34  126.08
  -3  -2  -6 1376.61   70.70
   3   2   6 1491.90   69.10
  -4  -2  -6  443.99   27.51
   4   2   6  431.21   25.38
  -5  -2  -6  519.54   32.51
   5   2   6  498.69   29.98
  -6  -2  -6  230.85   12.48
  -6  -2  -6  235.30   20.25
  -6  -2  -6  229.93   13.31
   6   2   6  233.84   18.37
  -7  -2  -6  275.65   15.08
  -7  -2  -6  291.95   16.24
  -8  -2  -6   40.38    3.59
  -8  -2  -6   42.09    4.40
  -8  -2  -6   41.63    5.47
  -9  -2  -6   75.68    5.82
  -9  -2  -6   71.61    6.62
   9   2   6   73.42    5.20
 -10  -2  -6   70.07    5.15
 -10  -2  -6   72.69    6.12
  10   2   6   61.21    4.60
 -11  -2  -6   42.33    4.15
 -11  -2  -6   42.94    3.37
   6  -3  -6  378.79   19.38
  -6   3   6  396.73   20.66
   5  -3  -6  210.78   10.81
  -5   3   6  179.27   11.60
   4  -3  -6   91.79    5.68
   4  -3  -6   82.77    9.86
   3  -3  -6  879.24   47.19
   2  -3  -6  336.46   20.05
  -2   3   6  255.10   19.37
   1  -3  -6 1054.62   53.46
  -1   3   6 1070.70   51.86
  -1   3   6 1078.03   52.26
   0  -3  -6  366.19   20.52
   0   3   6  337.90   19.30
   0   3   6  359.96   18.82
  -1  -3  -6  568.35   28.53
  -1  -3  -6  546.55   28.57
   1   3   6  516.67   26.43
  -2  -3  -6  870.42   41.94
  -2  -3  -6  826.45   39.95
   2   3   6  721.51   39.10
  -3  -3  -6 2309.32  120.23
   3   3   6 2794.74  118.71
  -4  -3  -6  820.88   45.13
   4   3   6  842.29   43.06
   5   3   6   10.41    3.69
  -6  -3  -6  361.88   19.45
  -6  -3  -6  330.53   18.41
  -6  -3  -6  339.55   24.96
   6   3   6  322.63   23.18
  -7  -3  -6  112.87   14.09
  -7  -3  -6  118.29    8.35
  -7  -3  -6  118.24    7.79
   7   3   6  138.07   17.07
  -8  -3  -6  136.04    9.51
  -8  -3  -6  140.48    8.97
  -9  -3  -6  345.32   19.28
  -9  -3  -6  360.56   18.65
 -10  -3  -6  195.36   11.89
 -10  -3  -6  197.64   11.22
 -11  -3  -6   36.81    3.77
 -11  -3  -6   37.46    3.31
   6  -4  -6  239.19   12.43
  -6   4   6  216.83   15.59
   5  -4  -6  342.24   15.84
  -5   4   6  257.24   18.45
   4  -4  -6  298.64   21.89
   4  -4  -6  295.59   15.08
   3  -4  -6   21.86    5.64
   2  -4  -6  318.18   20.86
  -2   4   6  312.32   22.28
   1  -4  -6  608.69   31.97
  -1   4   6  520.72   30.55
   0  -4  -6  395.66   23.45
   0   4   6  421.55   23.02
  -1  -4  -6  985.40   47.64
   1   4   6  940.31   47.20
   1   4   6  938.02   44.46
  -2  -4  -6  167.96   11.90
  -2  -4  -6  161.86   11.52
   2   4   6  147.01    9.64
  -3  -4  -6  375.68   21.94
  -3  -4  -6  318.11   19.93
   3   4   6  345.80   19.42
  -4  -4  -6 1221.26   64.85
   4   4   6 1351.63   63.26
  -5  -4  -6 1057.59   57.13
   5   4   6 1088.87   55.41
  -6  -4  -6  290.04   17.16
  -6  -4  -6  279.70   21.56
   6   4   6  247.63   19.55
  -7  -4  -6    8.39    2.12
  -7  -4  -6    6.52    2.12
  -7  -4  -6    8.64    4.77
   7   4   6    7.31    4.01
  -8  -4  -6  329.67   17.54
  -8  -4  -6  329.83   18.00
  -9  -4  -6  148.96    9.76
  -9  -4  -6  146.31    9.38
 -10  -4  -6  438.97   22.34
 -10  -4  -6  431.22   21.94
 -11  -4  -6  179.50    9.97
 -11  -4  -6  171.28    9.69
  -7   5   6   64.62    6.77
   6  -5  -6    6.19    1.76
  -6   5   6    4.25    2.90
   5  -5  -6  228.64   11.89
  -5   5   6  195.01   14.88
   4  -5  -6  684.99   30.82
  -4   5   6  596.19   33.97
   3  -5  -6   22.87    2.81
   3  -5  -6   22.37    6.04
  -3   5   6   38.46    5.49
   2  -5  -6   11.88    4.06
  -2   5   6   19.25    6.10
   1  -5  -6  328.92   21.61
  -1   5   6  339.96   21.88
   0  -5  -6 1466.66   70.70
   0   5   6 1401.17   69.44
  -1  -5  -6   68.11    7.12
   1   5   6   50.52    5.81
  -2  -5  -6   22.02    4.24
   2   5   6   23.70    4.19
  -3  -5  -6   11.26    3.71
  -3  -5  -6   11.92    3.63
  -4  -5  -6  299.62   20.30
   4   5   6  316.64   18.66
  -5  -5  -6  977.08   52.30
   5   5   6  983.63   50.80
  -6  -5  -6   67.58    9.15
  -6  -5  -6   69.50    5.26
   6   5   6   61.04    8.59
  -7  -5  -6  197.71   11.37
  -7  -5  -6  202.43   11.10
  -7  -5  -6  188.69   17.33
   7   5   6  184.96   17.13
  -8  -5  -6 1058.39   49.78
  -8  -5  -6 1050.89   50.08
  -9  -5  -6  145.75    9.22
  -9  -5  -6  136.67    9.00
 -10  -5  -6  166.30    9.75
 -10  -5  -6  156.51    9.61
 -11  -5  -6    5.49    1.60
 -11  -5  -6    5.08    1.68
  -7   6   6   48.37    5.46
  -6   6   6    4.18    2.78
   5  -6  -6   60.42    4.78
  -5   6   6   55.19    7.68
   4  -6  -6  597.20   29.25
  -4   6   6  616.29   32.67
   3  -6  -6  315.93   16.39
   3  -6  -6  306.63   24.83
  -3   6   6  347.42   19.11
   2  -6  -6  529.54   25.86
   2  -6  -6  542.44   33.23
  -2   6   6  550.34   27.63
  -2   6   6  533.63   35.41
   1  -6  -6   46.56    7.15
  -1   6   6   54.04    7.76
   0  -6  -6    5.50    2.94
   0   6   6    9.00    3.29
  -1  -6  -6 1589.12   73.15
   1   6   6 1342.53   71.28
  -2  -6  -6 1402.34   71.45
   2   6   6 1487.32   70.64
  -3  -6  -6  200.10   14.95
   3   6   6  178.23   13.81
  -4  -6  -6  245.23   17.13
  -5  -6  -6   47.97    6.92
  -6  -6  -6  106.94   11.31
  -6  -6  -6  114.94    8.59
  -6  -6  -6  109.48    6.96
  -7  -6  -6  225.06   12.08
  -7  -6  -6  215.67   11.80
  -7  -6  -6  198.40   18.69
  -8  -6  -6 1057.65   49.76
  -8  -6  -6 1058.49   49.89
  -9  -6  -6  327.23   17.22
  -9  -6  -6  323.90   17.17
 -10  -6  -6    9.99    2.15
 -10  -6  -6    5.90    1.77
 -11  -6  -6   99.84    6.27
  -7   7   6   84.79    6.60
  -6   7   6  156.06   11.22
   5  -7  -6   71.27    5.31
  -5   7   6   75.96    7.80
   4  -7  -6  207.39   11.95
  -4   7   6  231.41   14.83
   3  -7  -6  206.79   11.68
  -3   7   6  222.20   14.01
   2  -7  -6  451.83   22.65
   2  -7  -6  438.94   30.47
  -2   7   6  475.27   24.50
  -2   7   6  481.30   33.52
   1  -7  -6   33.74    3.84
   1  -7  -6   36.08    3.26
   1  -7  -6   33.29    6.74
  -1   7   6   35.92    7.14
   0  -7  -6    6.66    3.40
   0   7   6   14.29    4.74
  -1  -7  -6   14.89    4.81
   1   7   6   14.87    4.20
  -2  -7  -6  128.15   11.87
   2   7   6  105.44   10.40
  -3  -7  -6  385.08   26.73
   3   7   6  471.36   26.22
  -4  -7  -6  190.02   16.93
   4   7   6  222.50   16.05
  -6  -7  -6   26.44    5.61
  -6  -7  -6   34.83    3.21
  -6  -7  -6   29.46    3.40
  -7  -7  -6  406.26   20.29
  -7  -7  -6  411.89   20.51
  -8  -7  -6  142.02    8.72
  -8  -7  -6  146.57    8.81
  -9  -7  -6  124.89    7.94
  -9  -7  -6  133.57    8.15
 -10  -7  -6   21.50    2.98
 -11  -7  -6   74.16    4.89
  -6   8   6  113.13    8.49
   5  -8  -6   67.74    4.91
  -5   8   6   63.39    6.88
   4  -8  -6   45.18    3.97
  -4   8   6   35.93    5.61
   3  -8  -6   86.27    6.18
  -3   8   6   84.11    7.76
   2  -8  -6   31.96    3.76
  -2   8   6   26.82    4.50
   1  -8  -6  121.90   14.61
   1  -8  -6  118.46    7.44
  -1   8   6  123.62    8.43
  -1   8   6  109.54   13.51
   0  -8  -6   94.36   11.19
   0  -8  -6   89.75    6.50
   0  -8  -6   87.10    5.77
   0  -8  -6   93.37    6.21
   0   8   6   63.96    9.59
  -1  -8  -6   50.60    7.94
  -1  -8  -6   56.06    4.06
  -1  -8  -6   54.60    4.50
   1   8   6   38.53    6.77
  -2  -8  -6   57.94    8.28
   2   8   6   48.83    7.09
  -3  -8  -6  609.00   36.67
   3   8   6  576.78   34.47
  -4  -8  -6  282.40   15.40
  -4  -8  -6  279.49   22.59
   4   8   6  301.92   20.35
  -5  -8  -6  503.43   24.25
  -5  -8  -6  480.67   23.15
   5   8   6  463.21   29.19
  -6  -8  -6 1918.40   89.83
  -6  -8  -6 2015.89   89.07
   6   8   6 1945.51   96.89
  -7  -8  -6  621.61   29.68
  -8  -8  -6  437.59   21.57
  -9  -8  -6   34.52    3.47
 -10  -8  -6    8.96    1.88
 -11  -8  -6  224.11   11.30
  -6   9   6   87.04    6.35
  -5   9   6  130.61    9.45
   4  -9  -6  174.42    9.96
  -4   9   6  178.68   12.07
   3  -9  -6  348.43   18.31
  -3   9   6  370.06   20.61
   2  -9  -6  301.94   16.33
  -2   9   6  323.72   18.24
   1  -9  -6  651.07   30.43
  -1   9   6  599.31   31.58
   0  -9  -6  380.47   18.97
   0  -9  -6  362.21   19.18
  -1  -9  -6   99.66    6.33
  -1  -9  -6   89.20   11.40
  -1  -9  -6  106.86    7.13
  -1  -9  -6   94.03    6.61
   1   9   6   71.18   10.45
  -2  -9  -6   40.86    4.08
  -2  -9  -6   40.19    4.12
  -2  -9  -6   35.62    4.00
  -2  -9  -6   39.48    7.59
   2   9   6   42.59    7.33
  -3  -9  -6   62.47    4.96
  -3  -9  -6   65.57    5.32
  -3  -9  -6   62.54    9.70
  -3  -9  -6   51.84    4.66
   3   9   6   70.56    8.87
  -4  -9  -6  111.87   13.78
  -4  -9  -6  117.96    7.16
  -4  -9  -6  115.77    7.82
  -4  -9  -6  118.91    7.60
   4   9   6  115.77   12.00
  -5  -9  -6  257.01   14.22
  -5  -9  -6  231.39   13.01
   5   9   6  294.05   29.37
  -6  -9  -6  397.79   20.39
  -6  -9  -6  386.36   19.24
  -5  10   6   37.16    4.21
   4 -10  -6   45.72    3.79
  -4  10   6   41.74    5.02
   3 -10  -6   17.92    2.83
  -3  10   6   20.98    3.96
   2 -10  -6   95.85    6.67
  -2  10   6   97.75    8.13
   1 -10  -6   46.58    4.45
  -1  10   6   48.98    5.42
   0 -10  -6  151.45    9.70
   0 -10  -6  153.01    9.45
   0  10   6  159.55   10.43
  -1 -10  -6  352.47   19.20
  -1 -10  -6  371.42   18.81
  -1 -10  -6  369.56   19.79
  -2 -10  -6  222.61   12.89
  -2 -10  -6  220.49   12.97
  -2 -10  -6  226.02   12.41
  -3 -10  -6  232.57   12.96
  -3 -10  -6  218.37   12.55
  -3 -10  -6  234.94   13.27
  -4 -10  -6  289.58   15.72
  -4 -10  -6  277.73   15.19
  -4 -10  -6  282.44   15.09
  -5 -10  -6   80.12    6.24
  -5 -10  -6   74.84    5.49
  -5 -10  -6   82.96    6.38
  -6 -10  -6  242.17   13.76
  -7 -10  -6  423.55   22.31
  -4  11   6   23.17    3.57
   3 -11  -6  241.72   12.64
  -3  11   6  241.29   14.30
   2 -11  -6  189.30   10.72
  -2  11   6  189.12   12.22
   1 -11  -6   25.38    3.47
  -1  11   6   27.51    4.68
   0 -11  -6   18.55    3.01
   0 -11  -6   17.11    3.17
   0  11   6   17.70    3.70
  -1 -11  -6  186.69   10.57
  -1 -11  -6  176.19   10.86
   1  11   6  157.22   10.87
  -2 -11  -6  250.35   14.14
  -2 -11  -6  228.38   13.38
  -2 -11  -6  249.81   14.35
  -3 -11  -6   31.47    4.05
  -3 -11  -6   34.41    4.47
  -3 -11  -6   35.29    4.15
  -4 -11  -6  155.13    9.53
  -4 -11  -6  155.24    9.49
  -4 -11  -6  143.22    9.73
  -5 -11  -6  191.54   11.53
  -5 -11  -6  189.07   11.63
  -6 -11  -6  116.75    8.10
  -7 -11  -6   54.49    4.93
   3 -12  -6   56.37    4.08
  -3  12   6   46.58    4.71
   2 -12  -6   75.35    5.32
  -2  12   6   82.89    6.69
   1 -12  -6   24.64    3.29
  -1  12   6   34.25    4.76
   0 -12  -6   16.90    2.93
   0  12   6   17.43    3.52
  -1 -12  -6  118.37    7.54
  -1 -12  -6  113.72    7.91
   1  12   6   96.59    7.93
  -2 -12  -6  139.61    8.50
  -2 -12  -6  127.04    8.79
   2  12   6  118.67    8.70
  -3 -12  -6   43.58    4.84
  -3 -12  -6   52.03    4.61
  -4 -12  -6  167.94   10.25
  -4 -12  -6  172.78   10.89
  -5 -12  -6  182.07   11.30
  -5 -12  -6  180.39   10.89
  -6 -12  -6   34.61    4.42
  -6 -12  -6   35.00    4.53
  -7 -12  -6   50.99    4.66
   2 -13  -6  127.34    7.69
  -2  13   6  126.09    8.05
   1 -13  -6  205.11   11.22
  -1  13   6  219.29   12.46
   0 -13  -6   24.17    3.12
   0  13   6   21.18    3.63
  -1 -13  -6    4.89    2.03
  -1 -13  -6    3.46    1.73
   1  13   6    7.44    2.31
  -2 -13  -6   37.13    4.24
  -2 -13  -6   34.85    4.05
  -3 -13  -6  185.37   10.82
  -3 -13  -6  187.78   11.49
  -4 -13  -6   68.30    5.99
  -4 -13  -6   74.08    5.68
  -5 -13  -6   20.70    3.49
  -5 -13  -6   16.86    2.90
  -6 -13  -6   42.69    4.46
  -6 -13  -6   47.88    4.36
  -7 -13  -6  110.04    7.36
   0 -14  -6  158.18    8.72
  -1 -14  -6   16.81    2.80
  -1 -14  -6   16.37    2.56
  -2 -14  -6   11.32    2.50
  -2 -14  -6   13.78    2.48
  -3 -14  -6   33.79    3.93
  -3 -14  -6   38.38    3.79
  -4 -14  -6   82.95    6.45
  -4 -14  -6   89.18    6.04
  -5 -14  -6   38.62    4.16
  -5 -14  -6   35.73    3.62
  -6 -14  -6   26.35    3.54
  -6 -14  -6   24.82    3.07
  -7 -14  -6   17.55    2.70
  -2 -15  -6   24.56    3.05
  -2 -15  -6   24.88    2.79
  -3 -15  -6    5.77    1.87
  -3 -15  -6    6.19    1.61
  -4 -15  -6   98.90    6.31
  -4 -15  -6  109.26    7.02
  -5 -15  -6   27.24    3.46
  -5 -15  -6   33.78    2.97
  -6 -15  -6   52.17    4.23
  -6 -15  -6   48.66    4.63
  -4 -12   7  126.00    7.52
   3  12  -7   34.62    3.66
  -3 -12   7   35.55    3.43
   2  12  -7  170.22   10.17
  -2 -12   7  179.81    9.87
   1  12  -7  141.96    8.61
  -1 -12   7  137.82    8.08
  -6 -11   7   27.92    2.58
  -6 -11   7   28.00    3.15
  -5 -11   7   30.77    3.82
  -5 -11   7   26.74    2.75
  -4 -11   7   22.18    2.63
  -4 -11   7   24.14    3.50
   3  11  -7  113.38    8.02
  -3 -11   7  120.55    7.97
   2  11  -7   94.57    7.22
  -2 -11   7   93.34    6.76
   1  11  -7   55.31    5.62
  -1 -11   7   64.53    5.23
   0  11  -7  205.00   11.88
   0 -11   7  182.04   10.86
  -1  11  -7   55.96    4.79
   1 -11   7   40.71    3.91
   2 -11   7   92.65    5.82
  -7 -10   7   11.13    1.82
  -7 -10   7   13.67    2.48
  -6 -10   7   12.84    2.75
  -6 -10   7   15.44    2.37
  -5 -10   7   59.83    5.53
  -5 -10   7   60.61    4.60
  -4 -10   7  217.08   11.82
  -4 -10   7  216.98   12.97
   3  10  -7   57.66    5.63
  -3 -10   7   58.72    4.63
  -3 -10   7   61.92    5.69
   2  10  -7  105.94    8.19
  -2 -10   7  101.95    7.55
   1  10  -7   34.50    4.99
  -1 -10   7   34.97    4.40
   0  10  -7   34.59    4.86
   0 -10   7   29.60    4.02
  -1  10  -7  433.52   23.42
   1 -10   7  452.88   22.41
  -2  10  -7   99.41    7.51
   2 -10   7  110.78    7.00
   3 -10   7  106.45    6.58
  -8  -9   7   27.43    3.07
  -8  -9   7   24.95    2.44
  -7  -9   7  149.64    8.58
  -7  -9   7  153.64    9.64
  -6  -9   7  158.96    9.38
  -6  -9   7  167.59   10.62
  -5  -9   7  179.97   10.25
  -5  -9   7  172.80   11.42
  -4  -9   7  167.32    9.91
  -4  -9   7  169.30   11.13
   3   9  -7   50.23    5.41
  -3  -9   7   46.01    5.01
  -3  -9   7   43.15    4.11
   2   9  -7  155.71   10.57
  -2  -9   7  143.20    9.81
   1   9  -7  180.40   13.12
  -1  -9   7  247.51   13.09
   0   9  -7   26.28    4.77
   0  -9   7   27.03    3.85
  -1   9  -7   90.58    7.72
   1  -9   7   86.24    6.47
  -2   9  -7  216.84   13.54
   2  -9   7  216.39   12.22
  -3   9  -7  118.00    8.21
   3  -9   7  115.98    7.37
   4  -9   7  253.36   13.14
  -8  -8   7   14.30    2.13
  -8  -8   7   13.41    2.56
  -7  -8   7    9.82    2.69
  -7  -8   7   12.62    2.19
  -6  -8   7   54.36    4.54
  -6  -8   7   46.24    5.31
  -5  -8   7  265.77   14.07
  -5  -8   7  246.60   15.27
  -4  -8   7  113.93    8.73
  -4  -8   7  117.56    7.64
   3   8  -7  100.37    8.09
  -3  -8   7  104.24    7.06
  -3  -8   7  108.29    8.19
   2   8  -7  319.38   18.41
  -2  -8   7  321.90   17.89
  -2  -8   7  326.68   16.75
   1   8  -7  266.76   15.65
  -1  -8   7  243.75   14.40
   0   8  -7  737.80   36.41
   0  -8   7  685.22   34.52
  -1   8  -7   76.39    7.41
   1  -8   7   91.63    6.51
  -2   8  -7   27.28    4.73
   2  -8   7   23.72    3.49
  -3   8  -7  160.93   10.82
   3  -8   7  157.71    9.48
   4  -8   7  151.98    8.93
   5  -8   7  150.85    8.53
   9   7  -7    8.14    1.43
  -9  -7   7    4.55    1.50
  -8  -7   7   12.94    2.69
  -8  -7   7   12.70    2.12
  -7  -7   7  100.61    6.80
  -7  -7   7  106.67    7.98
  -6  -7   7  246.70   13.54
  -6  -7   7  246.11   14.84
  -5  -7   7  338.24   19.47
  -5  -7   7  352.70   18.13
  -4  -7   7   11.69    2.51
  -4  -7   7   12.23    3.20
   3   7  -7  468.86   25.81
  -3  -7   7  499.59   24.81
  -3  -7   7  534.34   26.31
   2   7  -7  249.89   14.90
  -2  -7   7  245.95   13.37
  -2  -7   7  252.28   14.49
   1   7  -7  256.13   15.00
  -1  -7   7  233.73   13.73
   0   7  -7  205.04   13.04
   0  -7   7  195.35   11.54
  -1   7  -7  652.62   32.83
   1  -7   7  610.16   30.60
  -2   7  -7   95.09    7.76
   2  -7   7   64.74    5.38
  -3   7  -7   46.95    6.63
   3  -7   7   76.12    5.32
  -4   7  -7   21.50    4.11
   4  -7   7   19.80    2.82
   5  -7   7  417.00   20.52
   6  -7   7   61.75    4.36
   9   6  -7    8.12    1.61
  -9  -6   7   13.56    2.29
  -9  -6   7   14.88    2.52
  -8  -6   7   11.00    2.52
  -8  -6   7   15.39    3.02
  -7  -6   7   43.97    4.79
  -7  -6   7   36.05    4.82
  -7  -6   7   38.83    3.87
  -6  -6   7    9.21    2.22
  -6  -6   7    9.64    2.79
  -6  -6   7    6.71    2.55
  -5  -6   7   34.62    4.01
  -5  -6   7   20.92    4.02
  -4  -6   7   21.06    3.83
  -4  -6   7   19.28    3.03
  -3  -6   7  209.97   12.00
  -3  -6   7  227.34   13.21
   2   6  -7   25.78    7.20
   2   6  -7   30.11    4.46
  -2  -6   7   25.67    3.84
  -2  -6   7   23.66   10.80
  -2  -6   7   26.36    3.26
   1   6  -7  204.92   12.89
  -1  -6   7  206.77   17.73
  -1  -6   7  215.51   12.08
   0   6  -7  182.00   11.56
   0  -6   7  176.02   10.15
   0  -6   7  165.71   14.67
  -1   6  -7   27.08    4.56
   1  -6   7   19.26    2.91
  -2   6  -7  830.13   42.42
   2  -6   7  872.02   40.23
  -3   6  -7  149.55   11.09
   3  -6   7  161.44    9.14
  -4   6  -7  155.96   11.22
   4  -6   7  170.02    9.48
   5  -6   7    8.42    1.84
   6  -6   7   31.52    3.11
   7  -6   7  189.89    9.89
   9   5  -7   26.19    2.80
  -9  -5   7   26.03    3.82
  -9  -5   7   20.70    2.86
   8   5  -7    6.13    1.83
  -8  -5   7   11.14    2.52
  -8  -5   7   12.11    3.24
  -7  -5   7  103.80    6.90
  -7  -5   7  104.43    8.58
  -7  -5   7  101.47    7.63
  -6  -5   7  284.70   15.24
  -6  -5   7  287.47   16.32
  -6  -5   7  282.91   16.92
  -5  -5   7  210.64   12.99
  -5  -5   7  206.14   12.76
  -5  -5   7  209.92   11.84
  -4  -5   7  369.38   19.61
  -4  -5   7  359.26   18.47
  -4  -5   7  354.67   19.38
   3   5  -7  173.93   16.62
  -3  -5   7  172.21   10.70
  -3  -5   7  181.22    9.88
  -3  -5   7  157.18   18.40
   2   5  -7  987.08   55.29
   2   5  -7  990.50   47.98
  -2  -5   7 1031.05   57.83
  -2  -5   7 1037.60   47.76
  -2  -5   7  980.36   46.75
   1   5  -7  344.88   24.03
   1   5  -7  368.05   18.76
  -1  -5   7  343.02   24.15
  -1  -5   7  312.26   17.46
   0   5  -7   30.74    4.61
   0  -5   7   26.26    5.20
   0  -5   7   27.99    3.44
  -1   5  -7  464.53   23.21
   1  -5   7  418.25   25.63
   1  -5   7  412.58   21.04
  -2   5  -7  115.60    9.25
   2  -5   7  137.01   11.24
   2  -5   7  139.62    7.83
  -3   5  -7  867.17   43.01
   3  -5   7  865.19   40.48
  -4   5  -7   18.34    4.00
   4  -5   7   23.12    2.85
   5  -5   7  249.26   13.02
   6  -5   7  270.06   13.85
  -7   5  -7  113.58    8.00
   7  -5   7  129.89    7.15
   8  -5   7  143.66    7.61
   9   4  -7  156.02    8.66
  -9  -4   7  161.37    9.09
  -9  -4   7  161.58   10.73
   8   4  -7  135.61    7.98
  -8  -4   7  131.11   10.39
  -8  -4   7  133.12    8.52
  -7  -4   7  127.70   10.51
  -7  -4   7  127.83    7.95
  -7  -4   7  125.06    8.60
  -6  -4   7   70.52    5.49
  -6  -4   7   71.65    6.24
  -6  -4   7   80.62    7.86
  -5  -4   7  236.34   13.25
  -5  -4   7  267.60   15.56
  -5  -4   7  235.62   13.98
   4   4  -7  202.03   18.96
  -4  -4   7  212.90   11.68
  -4  -4   7  214.59   12.47
  -4  -4   7  220.89   13.21
   3   4  -7  366.39   24.86
  -3  -4   7  295.85   27.11
  -3  -4   7  315.76   17.49
  -3  -4   7  385.35   22.32
  -3  -4   7  324.59   16.88
   2   4  -7    9.01    4.05
  -2  -4   7    4.27    3.61
   1   4  -7   25.49    5.36
  -1  -4   7   14.81    5.00
   0  -4   7   19.28    4.28
   1  -4   7  183.14   13.33
  -2   4  -7  372.17   27.36
  -2   4  -7  351.89   19.24
   2  -4   7  323.44   17.15
   2  -4   7  363.75   21.34
  -3   4  -7  316.45   26.93
  -3   4  -7  313.01   17.99
   3  -4   7  308.02   15.70
   3  -4   7  328.29   20.17
  -4   4  -7   59.39    6.21
   4  -4   7   67.12    4.57
   5  -4   7  199.92   10.75
  -6   4  -7   24.59    4.28
   6  -4   7   27.98    2.95
  -7   4  -7   10.16    2.72
  -8   4  -7  114.68    7.84
   8  -4   7  121.78    6.73
   9   3  -7  251.93   12.72
  -9  -3   7  221.95   14.93
  -9  -3   7  273.02   13.20
   8   3  -7   75.08    5.15
  -8  -3   7   77.05    5.62
  -8  -3   7   47.06    7.03
   7   3  -7   24.46    3.27
  -7  -3   7   26.10    5.46
  -7  -3   7   25.58    3.71
  -6  -3   7   19.31    3.37
  -6  -3   7   18.03    2.93
  -6  -3   7   14.44    4.15
  -5  -3   7  152.14   11.40
  -5  -3   7  155.73    9.07
  -5  -3   7  151.82    9.68
   4   3  -7  360.40   26.90
  -4  -3   7  395.59   20.02
  -4  -3   7  425.97   21.71
  -4  -3   7  408.36   19.38
  -4  -3   7  338.09   31.12
   3   3  -7    9.39    4.34
  -3  -3   7   11.32    5.90
   2   3  -7  474.89   28.16
  -2  -3   7  406.00   30.08
   1   3  -7   20.63    5.24
  -1  -3   7   23.09    5.28
   0   3  -7 1202.89   60.37
   0  -3   7 1205.17   60.46
  -1   3  -7 1240.90   72.50
   1  -3   7 1062.44   55.96
  -2   3  -7  751.47   45.30
   2  -3   7  798.92   40.20
  -3   3  -7  430.83   23.15
  -3   3  -7  463.73   32.49
   3  -3   7  435.82   25.92
  -4   3  -7  173.85   19.15
  -4   3  -7  162.18   10.73
   4  -3   7  153.90    8.66
   4  -3   7  157.88   13.44
  -5   3  -7  481.93   25.45
   5  -3   7  492.19   23.50
  -6   3  -7  284.17   16.31
   6  -3   7  265.44   14.01
  -7   3  -7   49.92    5.42
   7  -3   7   42.86    3.71
  -8   3  -7   76.08    6.82
   8  -3   7   99.67    5.70
  -9   3  -7   71.44    5.64
   9  -3   7   79.73    4.58
  -9  -2   7    3.93    2.55
  -9  -2   7    3.45    1.33
   8   2  -7    6.70    1.84
  -8  -2   7    5.55    2.93
  -8  -2   7    5.26    1.84
   7   2  -7  339.10   17.38
  -7  -2   7  340.97   17.94
  -6  -2   7   38.90    4.13
  -6  -2   7   29.98    5.92
  -5  -2   7  202.73   11.79
  -5  -2   7  203.90   11.20
   4   2  -7  395.08   26.56
  -4  -2   7  398.60   18.73
  -4  -2   7  314.38   20.44
  -4  -2   7  378.88   30.54
   3   2  -7  168.46   14.71
  -3  -2   7  149.04   16.65
   2   2  -7  127.16   12.15
  -2  -2   7  147.45   14.72
   1   2  -7  563.72   31.41
  -1  -2   7  525.62   32.20
   0   2  -7  276.13   18.79
   0  -2   7  338.56   19.77
  -1   2  -7  874.40   47.10
   1  -2   7  909.44   44.80
  -2   2  -7   73.79    9.35
   2  -2   7   63.36    6.78
  -3   2  -7   65.66    9.99
   3  -2   7   56.01    7.04
  -4   2  -7  467.42   33.05
   4  -2   7  413.19   26.84
  -5   2  -7  150.57    8.70
  -5   2  -7  143.08   10.22
   5  -2   7  179.41    8.96
  -6   2  -7   15.84    2.51
  -6   2  -7   12.05    3.20
   6  -2   7    6.86    1.75
  -7   2  -7  142.13    9.98
   7  -2   7  126.19    7.74
  -8   2  -7   30.82    4.65
   8  -2   7   21.32    2.74
  -9   2  -7   60.61    5.80
   9  -2   7   75.29    4.52
  -9  -1   7    6.28    2.57
   8   1  -7   65.71    4.56
  -8  -1   7   48.27    6.59
  -8  -1   7   52.96    4.42
   7   1  -7  430.54   21.01
  -7  -1   7  412.55   21.21
  -7  -1   7  407.90   24.20
   6   1  -7  156.37    9.57
  -6  -1   7  175.20   10.11
  -6  -1   7  169.69   12.60
  -5  -1   7   74.22   21.75
  -5  -1   7   70.86    5.90
  -5  -1   7   59.19    6.94
  -5  -1   7   65.56    4.83
   4   1  -7  106.90   11.82
  -4  -1   7  118.86    6.63
  -4  -1   7   75.65    7.80
  -4  -1   7  111.74   13.92
   3   1  -7   24.25    5.89
  -3  -1   7   17.25    5.86
   2   1  -7  563.51   33.53
  -2  -1   7  625.44   36.64
   1   1  -7  378.39   22.69
  -1  -1   7  355.72   23.40
   0   1  -7  653.42   34.69
   0  -1   7  660.08   34.83
  -1   1  -7  935.93   50.05
   1  -1   7 1025.88   48.47
  -2   1  -7  675.29   37.77
   2  -1   7  646.73   34.58
  -3   1  -7  245.00   19.60
   3  -1   7  240.17   16.73
  -4   1  -7   44.27    8.57
   4  -1   7   41.51    6.86
  -5   1  -7  129.99    7.50
  -5   1  -7  151.27   17.04
  -5   1  -7  123.62    8.82
   5  -1   7  129.89   12.95
   5  -1   7  121.01    7.26
  -6   1  -7 1516.65   67.95
  -6   1  -7 1553.17   70.28
   6  -1   7 1386.35   67.65
  -7   1  -7   49.54    5.67
  -7   1  -7   45.14    4.22
   7  -1   7   58.23    4.40
  -8   1  -7   52.71    5.59
  -8   1  -7   50.83    4.02
   8  -1   7   37.28    3.66
  -9   1  -7  100.33    7.79
  -9   1  -7  109.00    6.34
   9  -1   7   98.82    6.11
 -10   1  -7   79.76    5.99
  -9   0   7  127.87    8.38
   8   0  -7   67.84    4.97
  -8   0   7   85.08    7.24
   7   0  -7   96.66    6.61
  -7   0   7  113.69    9.19
   6   0  -7  349.04   17.43
  -6   0   7  326.01   19.98
   5   0  -7  229.44   11.84
  -5   0   7  226.57   14.28
  -5   0   7  199.50   20.02
   4   0  -7  624.11   36.74
  -4   0   7  597.55   37.88
  -4   0   7  540.80   30.11
   3   0  -7  115.27   11.64
  -3   0   7  141.26   13.68
   2   0  -7  138.47   12.24
  -2   0   7  164.81   13.98
   1   0  -7 1672.38   83.09
  -1   0   7 1784.30   84.49
   0   0  -7  286.93   17.56
   0   0  -7  279.44   16.67
   0   0   7  293.95   17.64
  -1   0  -7  990.16   50.81
  -1   0  -7 1021.41   52.48
   1   0   7 1131.11   51.25
  -2   0  -7  774.87   42.32
   2   0   7  794.62   40.15
  -3   0  -7  668.05   38.49
   3   0   7  649.01   35.63
  -4   0  -7  102.37   12.29
   4   0   7  113.17   10.87
  -5   0  -7  479.06   22.95
  -5   0  -7  504.82   34.15
  -5   0  -7  466.87   24.24
   5   0   7  453.53   29.20
  -6   0  -7  584.94   28.99
  -6   0  -7  544.97   27.10
  -7   0  -7  125.11    9.38
  -7   0  -7  119.94    7.73
   7   0   7  131.41    7.58
  -8   0  -7  175.63    9.91
  -8   0  -7  176.57   11.74
   8   0   7  168.39    9.66
  -9   0  -7  136.78    7.75
  -9   0  -7  139.21    9.56
   9   0   7  116.58    7.33
 -10   0  -7    3.95    1.23
 -10   0  -7    2.61    1.85
  10   0   7    3.32    1.42
  -9   1   7   72.18    5.22
   8  -1  -7   45.01    3.63
  -8   1   7   47.74    5.11
   7  -1  -7   95.78    6.37
  -7   1   7   97.88    8.02
   6  -1  -7   12.84    2.46
  -6   1   7   13.46    3.55
   5  -1  -7  113.68    7.22
  -5   1   7  125.34    9.14
   4  -1  -7   63.80    8.83
   4  -1  -7   56.67    4.21
  -4   1   7   55.47    8.85
  -4   1   7   66.68    5.93
   3  -1  -7   32.47    6.05
  -3   1   7   43.95    7.01
   2  -1  -7  450.57   26.61
  -2   1   7  411.65   26.14
   1  -1  -7  612.40   32.31
  -1   1   7  537.32   31.36
   0  -1  -7   28.63    4.33
   0  -1  -7   26.50    3.58
   0   1   7   17.94    3.45
  -1  -1  -7  159.83   11.32
  -1  -1  -7  171.93   12.73
   1   1   7  201.85   11.76
  -2  -1  -7  307.13   20.02
   2   1   7  316.12   18.52
  -3  -1  -7  624.44   36.46
   3   1   7  655.11   34.65
  -4  -1  -7 1949.15   98.24
   4   1   7 1982.25   94.96
  -5  -1  -7   90.40   12.16
   5   1   7  115.77   11.31
  -6  -1  -7  212.70   20.61
  -6  -1  -7  220.16   13.05
  -6  -1  -7  213.94   11.74
   6   1   7  222.40   18.06
  -7  -1  -7  292.47   16.75
  -7  -1  -7  287.03   15.23
  -8  -1  -7  714.19   36.56
  -8  -1  -7  740.28   34.94
  -9  -1  -7  459.16   22.73
  -9  -1  -7  462.65   24.42
 -10  -1  -7   20.17    3.45
 -10  -1  -7   19.30    2.54
  -8   2   7  103.11    7.18
   7  -2  -7  114.99    7.12
  -7   2   7  112.74    8.27
   6  -2  -7  648.37   30.27
  -6   2   7  602.97   31.76
   5  -2  -7  684.84   33.00
  -5   2   7  703.32   34.72
   4  -2  -7  109.94    6.65
   4  -2  -7  106.07   11.77
  -4   2   7  104.50    7.74
   3  -2  -7   45.50    7.26
  -3   2   7   57.34    7.76
   2  -2  -7  714.98   37.42
  -2   2   7  611.70   35.87
   1  -2  -7 1465.63   72.31
  -1   2   7 1487.01   71.51
   0  -2  -7  170.49   12.45
   0   2   7  179.19   11.72
  -1  -2  -7 1362.10   65.05
  -1  -2  -7 1240.30   63.64
   1   2   7 1409.28   63.18
  -2  -2  -7   95.61    9.48
   2   2   7  108.27    8.42
  -3  -2  -7  690.02   36.20
   3   2   7  570.37   33.09
  -4  -2  -7  117.41   12.48
   4   2   7  162.89   12.35
  -5  -2  -7   90.80   11.30
   5   2   7   82.97    9.49
  -6  -2  -7   67.05   10.49
  -6  -2  -7   68.18    4.93
  -6  -2  -7   68.27    5.66
   6   2   7   57.35    8.74
  -7  -2  -7   92.75    7.35
  -7  -2  -7   90.48    6.40
  -8  -2  -7   12.61    2.51
  -8  -2  -7   13.02    3.17
  -9  -2  -7   61.52    5.03
  -9  -2  -7   59.25    5.88
 -10  -2  -7  156.09    8.94
 -10  -2  -7  157.71   10.11
 -11  -2  -7   61.43    4.01
 -11  -2  -7   62.62    4.87
   7  -3  -7    6.67    1.68
   6  -3  -7   68.95    5.27
  -6   3   7   78.91    6.46
   5  -3  -7   54.73    4.38
  -5   3   7   56.78    5.35
   4  -3  -7  231.67   11.92
   4  -3  -7  224.66   18.21
  -4   3   7  210.66   12.79
   3  -3  -7  527.25   32.02
   2  -3  -7  104.16   10.34
   1  -3  -7  169.01   13.75
  -1   3   7  205.98   13.19
  -1   3   7  196.77   13.15
   0  -3  -7  577.20   31.67
   0   3   7  621.94   30.40
   0   3   7  569.89   30.34
  -1  -3  -7 1226.01   54.73
  -1  -3  -7 1061.95   54.08
   1   3   7 1030.97   52.11
  -2  -3  -7 1701.74   81.19
  -2  -3  -7 1640.42   79.28
   2   3   7 1682.32   78.45
  -3  -3  -7 2846.75  128.60
   3   3   7 2556.16  125.20
  -4  -3  -7  296.62   21.02
   4   3   7  274.87   18.31
  -5  -3  -7  297.40   22.72
   5   3   7  310.78   20.73
  -6  -3  -7  387.73   28.44
  -6  -3  -7  377.34   19.35
  -6  -3  -7  375.22   20.10
   6   3   7  410.54   26.36
  -7  -3  -7  760.28   36.87
  -7  -3  -7  739.71   35.85
  -8  -3  -7   86.93    6.44
  -8  -3  -7   87.36    7.15
  -9  -3  -7   39.77    4.69
  -9  -3  -7   39.35    4.12
 -10  -3  -7   19.41    3.31
 -10  -3  -7   18.43    2.78
 -11  -3  -7  194.23   10.75
 -11  -3  -7  189.18   10.04
   7  -4  -7   65.58    4.94
   6  -4  -7  458.32   22.57
   5  -4  -7  415.85   20.73
   4  -4  -7  191.74   10.13
  -4   4   7  166.17   12.61
   3  -4  -7  442.53   21.63
   3  -4  -7  447.14   28.69
   2  -4  -7  259.22   18.75
   1  -4  -7  192.96   15.21
  -1   4   7  229.42   15.27
   0  -4  -7   96.25    9.12
   0   4   7   96.48    8.42
  -1  -4  -7  833.52   42.88
   1   4   7  838.83   42.55
  -2  -4  -7  253.49   17.14
  -2  -4  -7  248.57   16.71
   2   4   7  292.28   15.08
  -3  -4  -7 1109.78   54.21
   3   4   7  976.62   50.84
  -4  -4  -7   22.74    5.17
   4   4   7   18.61    4.18
  -5  -4  -7  214.44   18.30
   5   4   7  253.85   17.35
  -6  -4  -7  181.04    9.90
  -6  -4  -7  166.37   10.30
  -6  -4  -7  178.69   16.93
   6   4   7  174.21   15.18
  -7  -4  -7  499.09   25.08
  -7  -4  -7  518.88   25.90
  -8  -4  -7  235.85   13.25
  -8  -4  -7  236.90   13.92
  -9  -4  -7   24.40    3.49
  -9  -4  -7   23.56    3.75
 -10  -4  -7  122.28    8.22
 -10  -4  -7  125.40    7.85
 -11  -4  -7   64.06    4.54
 -11  -4  -7   64.65    4.84
   6  -5  -7  341.59   16.62
  -6   5   7  296.98   19.01
   5  -5  -7  171.75    9.72
  -5   5   7  160.57   12.59
   4  -5  -7   53.24    4.21
  -4   5   7   40.86    6.48
   3  -5  -7   58.72    8.89
   3  -5  -7   64.35    4.61
  -3   5   7   68.32    6.72
   2  -5  -7  181.96   15.54
   2  -5  -7  182.56    9.86
   1  -5  -7   41.04    6.52
  -1   5   7   44.73    6.53
   0  -5  -7  379.19   24.24
   0   5   7  419.24   23.74
  -1  -5  -7  559.36   29.77
   1   5   7  471.68   27.87
  -2  -5  -7  330.99   20.80
  -3  -5  -7  443.53   26.20
  -3  -5  -7  436.57   26.66
  -4  -5  -7  235.54   17.49
   4   5   7  236.73   15.45
  -5  -5  -7  142.06   13.49
   5   5   7  145.91   12.19
  -6  -5  -7  266.09   13.93
  -6  -5  -7  258.22   20.84
  -6  -5  -7  251.71   14.30
   6   5   7  298.16   20.37
  -7  -5  -7  295.74   15.96
  -7  -5  -7  291.34   15.44
  -8  -5  -7  134.28    8.58
  -8  -5  -7  136.22    9.03
  -9  -5  -7   98.18    6.86
  -9  -5  -7   96.92    7.13
 -10  -5  -7  359.30   18.60
 -10  -5  -7  358.59   18.36
 -11  -5  -7   33.23    3.14
 -11  -5  -7   30.76    3.10
   6  -6  -7   50.11    4.04
  -6   6   7   40.55    5.98
   5  -6  -7   45.33    4.03
  -5   6   7   37.61    6.20
   4  -6  -7  112.05    7.31
  -4   6   7  116.45    9.88
   3  -6  -7  183.43   10.20
  -3   6   7  175.08   12.25
   2  -6  -7  435.62   30.05
   2  -6  -7  446.88   22.86
  -2   6   7  537.85   25.10
   1  -6  -7  216.99   17.23
  -1   6   7  202.18   16.84
   0  -6  -7 1628.70   79.09
   0   6   7 1524.16   77.36
  -1  -6  -7   38.73    6.23
   1   6   7   38.61    5.75
  -2  -6  -7   89.19    9.50
   2   6   7   97.24    9.11
  -3  -6  -7  852.65   47.28
   3   6   7  900.50   46.57
  -4  -6  -7   12.06    4.13
  -5  -6  -7  695.38   39.58
  -6  -6  -7  143.70   13.93
  -6  -6  -7  139.02    8.81
  -6  -6  -7  146.75    8.63
  -6  -6  -7  142.09    8.18
  -7  -6  -7   29.66    3.25
  -7  -6  -7   29.59    3.44
  -8  -6  -7  103.84    6.96
  -8  -6  -7   96.61    7.07
  -9  -6  -7   44.76    4.31
  -9  -6  -7   40.90    4.18
 -10  -6  -7   98.93    6.68
 -10  -6  -7  103.98    6.73
 -11  -6  -7   70.21    4.74
 -11  -6  -7   67.64    4.99
  -6   7   7   27.48    4.51
   5  -7  -7   30.45    3.49
  -5   7   7   34.10    5.39
   4  -7  -7  272.61   14.89
  -4   7   7  293.75   17.62
   3  -7  -7  234.07   13.44
  -3   7   7  277.47   16.15
   2  -7  -7   22.28    3.06
  -2   7   7   27.64    4.39
   1  -7  -7  311.04   15.92
   1  -7  -7  313.96   23.37
  -1   7   7  304.20   23.45
   0  -7  -7  190.09    9.72
   0  -7  -7  181.19   15.62
   0   7   7  149.98   14.13
  -1  -7  -7   38.78    6.57
   1   7   7   33.18    5.59
  -2  -7  -7  543.15   33.03
   2   7   7  567.71   32.57
  -3  -7  -7    6.23    3.38
   3   7   7    4.59    2.62
   4   7   7 1497.34   75.35
  -5  -7  -7  737.46   35.08
  -5  -7  -7  714.20   34.13
  -6  -7  -7  320.65   23.17
  -6  -7  -7  350.22   17.05
  -6  -7  -7  328.30   17.51
  -7  -7  -7   28.63    3.05
  -7  -7  -7   31.02    3.39
  -8  -7  -7   69.15    5.23
  -8  -7  -7   66.93    5.36
  -9  -7  -7  216.70   11.98
  -9  -7  -7  215.65   11.89
 -10  -7  -7    2.88    1.30
 -10  -7  -7    1.48    1.21
 -11  -7  -7   71.36    4.65
  -6   8   7   31.13    4.27
   5  -8  -7    5.51    1.69
  -5   8   7    6.76    2.77
   4  -8  -7  129.43    7.98
  -4   8   7  127.50    9.97
   3  -8  -7   23.03    3.19
  -3   8   7   20.41    4.26
   2  -8  -7   71.11    5.47
  -2   8   7   74.92    6.80
   1  -8  -7  142.39    8.57
  -1   8   7  138.92    9.45
   0  -8  -7   17.03    2.68
   0  -8  -7   18.28    3.24
   0  -8  -7   22.01    3.35
   0  -8  -7   16.88    5.78
   0   8   7   18.48    5.91
  -1  -8  -7  125.32   13.33
  -1  -8  -7  148.31    8.74
  -1  -8  -7  144.61    8.76
  -1  -8  -7  136.51    8.13
   1   8   7  139.35   13.29
  -2  -8  -7  230.16   12.04
  -2  -8  -7  218.41   18.33
  -2  -8  -7  236.41   12.65
   2   8   7  213.39   17.05
  -3  -8  -7   92.49    5.85
  -3  -8  -7   79.39   10.53
  -3  -8  -7   86.20    6.23
   3   8   7   90.50   10.14
  -4  -8  -7  170.17    9.24
  -4  -8  -7  168.69   10.13
   4   8   7  161.46   14.08
  -5  -8  -7  210.83   11.15
  -5  -8  -7  211.98   12.09
   5   8   7  203.57   16.74
  -6  -8  -7  360.25   17.82
  -6  -8  -7  349.79   18.65
  -7  -8  -7  449.46   22.16
  -8  -8  -7  182.71   10.28
  -9  -8  -7    9.15    1.86
  -9  -8  -7    6.51    1.69
 -10  -8  -7    4.03    1.40
 -11  -8  -7   17.77    1.99
  -5   9   7  108.75    8.21
   4  -9  -7  243.64   13.17
  -4   9   7  253.87   15.27
   3  -9  -7   69.25    5.28
  -3   9   7   68.81    6.79
   2  -9  -7  320.99   16.17
  -2   9   7  287.43   17.56
   1  -9  -7   50.97    4.65
  -1   9   7   60.30    5.85
   0  -9  -7  158.80    9.28
   0  -9  -7  154.66    9.45
   0  -9  -7  146.41   10.02
  -1  -9  -7  300.00   15.66
  -1  -9  -7  297.42   16.14
  -2  -9  -7  126.67   13.87
  -2  -9  -7  138.45    8.80
  -2  -9  -7  140.73    8.79
  -2  -9  -7  139.28    8.33
  -3  -9  -7  412.01   29.58
  -3  -9  -7  441.97   21.57
  -3  -9  -7  417.95   20.89
  -3  -9  -7  436.78   21.13
   3   9   7  375.86   26.95
  -4  -9  -7  541.31   27.13
  -4  -9  -7  524.53   26.69
  -4  -9  -7  558.78   26.37
  -5  -9  -7   86.71    6.56
  -5  -9  -7   87.46    5.78
  -6  -9  -7   27.10    2.90
  -6  -9  -7   28.39    3.90
  -7  -9  -7  645.44   30.05
  -7  -9  -7  611.35   30.95
  -8  -9  -7  190.45   10.40
  -5  10   7   94.49    6.67
   4 -10  -7   10.07    1.91
  -4  10   7    6.95    2.51
   3 -10  -7   19.34    2.79
  -3  10   7   17.19    3.56
   2 -10  -7    2.40    1.53
  -2  10   7    4.07    2.22
   1 -10  -7   -0.27    1.29
  -1  10   7    3.56    2.07
   0 -10  -7  161.22   10.19
   0 -10  -7  176.11   10.19
   0  10   7  166.52   10.99
  -1 -10  -7   99.96    7.68
  -1 -10  -7   98.34    7.21
  -1 -10  -7  101.10    6.94
  -2 -10  -7   64.07    5.05
  -2 -10  -7   68.23    5.75
  -2 -10  -7   55.96    5.19
  -3 -10  -7  511.55   26.00
  -3 -10  -7  518.98   25.65
  -3 -10  -7  525.93   26.33
  -4 -10  -7  255.19   14.10
  -4 -10  -7  263.97   14.80
  -4 -10  -7  259.10   14.23
  -5 -10  -7   24.67    3.29
  -5 -10  -7   22.54    3.81
  -6 -10  -7  168.98   10.56
  -6 -10  -7  168.93    9.60
  -7 -10  -7    7.11    2.20
  -7 -10  -7    9.79    1.97
  -4  11   7   57.13    5.04
   3 -11  -7   22.32    2.80
  -3  11   7   23.10    3.91
   2 -11  -7  154.58    9.22
  -2  11   7  160.28   10.80
   1 -11  -7  371.00   19.61
  -1  11   7  400.75   21.34
   0 -11  -7  136.41    8.83
   0  11   7  146.34   10.02
  -1 -11  -7  118.03    8.31
  -1 -11  -7  133.34    8.23
   1  11   7  116.36    8.64
  -2 -11  -7  386.14   20.68
  -2 -11  -7  394.52   20.20
  -2 -11  -7  397.53   21.16
  -3 -11  -7  434.71   22.61
  -3 -11  -7  434.03   22.55
  -3 -11  -7  430.16   21.99
  -4 -11  -7   30.23    4.25
  -4 -11  -7   41.90    4.68
  -4 -11  -7   43.70    4.36
  -5 -11  -7   52.68    5.30
  -5 -11  -7   57.65    4.98
  -5 -11  -7   59.67    5.47
  -6 -11  -7   12.69    2.73
  -7 -11  -7  251.14   14.01
  -3  12   7   70.00    5.62
   2 -12  -7   10.09    1.92
  -2  12   7    6.85    2.52
   1 -12  -7   12.13    2.33
  -1  12   7   10.01    2.82
   0 -12  -7   42.76    4.17
   0  12   7   43.61    4.98
  -1 -12  -7  298.22   15.21
  -1 -12  -7  283.38   15.50
   1  12   7  255.64   15.75
  -2 -12  -7   42.95    4.59
  -2 -12  -7   45.65    4.40
   2  12   7   45.74    4.83
  -3 -12  -7  208.42   11.51
  -3 -12  -7  192.16   11.96
  -3 -12  -7  191.43   11.89
  -4 -12  -7  336.46   17.66
  -4 -12  -7  342.45   18.32
  -4 -12  -7  330.58   17.97
  -5 -12  -7  119.96    8.42
  -5 -12  -7  124.40    8.28
  -6 -12  -7  462.31   23.69
  -7 -12  -7  140.61    8.85
  -2  13   7   22.35    3.87
   1 -13  -7   70.75    4.98
  -1  13   7   79.54    6.10
   0 -13  -7  103.04    6.41
   0  13   7   86.97    7.03
  -1 -13  -7  160.66    9.78
  -1 -13  -7  180.14    9.69
   1  13   7  142.47   10.04
  -2 -13  -7    6.87    2.02
  -2 -13  -7    6.06    2.05
   2  13   7    2.83    1.94
  -3 -13  -7   98.28    6.68
  -3 -13  -7   91.36    7.03
   3  13   7   98.48    7.20
  -4 -13  -7   62.16    5.63
  -4 -13  -7   70.00    5.41
  -5 -13  -7  136.21    9.10
  -5 -13  -7  141.42    8.62
  -6 -13  -7  271.74   14.99
  -7 -13  -7   35.13    3.74
   0 -14  -7   32.84    2.94
   0  14   7   31.81    4.06
  -1 -14  -7   92.91    5.73
   1  14   7   75.45    6.07
  -2 -14  -7   95.33    6.64
  -2 -14  -7   95.16    6.32
  -3 -14  -7    5.39    1.76
  -3 -14  -7    4.36    1.81
  -4 -14  -7  115.37    7.07
  -4 -14  -7  103.87    7.41
  -5 -14  -7  124.54    7.68
  -5 -14  -7  129.93    8.32
  -6 -14  -7   75.10    5.75
  -7 -14  -7    9.69    2.05
  -2 -15  -7  104.88    6.17
  -3 -15  -7  146.17    8.66
  -3 -15  -7  151.04    8.27
  -4 -15  -7   10.09    1.87
  -4 -15  -7   10.44    2.22
  -5 -15  -7  107.00    6.88
  -5 -15  -7  105.22    6.21
  -6 -15  -7    7.11    1.76
  -5 -11   8   81.93    5.51
  -4 -11   8   52.12    4.36
   3  11  -8   30.61    3.71
  -3 -11   8   27.35    3.46
   2  11  -8   22.31    3.36
  -2 -11   8   20.29    3.00
   1  11  -8    6.36    2.08
  -1 -11   8    6.77    1.86
   0  11  -8   26.98    3.51
   0 -11   8   20.80    2.87
  -6 -10   8   22.86    3.06
  -6 -10   8   23.31    2.37
  -5 -10   8  103.39    7.10
  -5 -10   8  103.78    6.29
  -4 -10   8  160.17    9.09
  -4 -10   8  174.97   10.34
   3  10  -8   71.06    6.04
  -3 -10   8   70.28    5.81
   2  10  -8  228.64   13.67
  -2 -10   8  234.54   13.22
   1  10  -8  232.07   14.69
  -1 -10   8  280.89   14.44
   0  10  -8   91.71    7.32
   0 -10   8   88.06    6.48
  -1  10  -8   18.25    4.70
   1 -10   8   22.59    3.11
  -2  10  -8   38.01    4.12
   2 -10   8   37.40    3.57
  -7  -9   8    8.44    2.04
  -7  -9   8    9.91    1.70
  -6  -9   8   68.85    4.81
  -6  -9   8   62.24    5.52
  -5  -9   8   46.41    4.76
  -5  -9   8   42.94    3.85
  -4  -9   8   25.83    4.15
  -4  -9   8   35.16    3.42
   3   9  -8   31.23    4.61
  -3  -9   8   26.27    3.26
  -3  -9   8   27.75    4.14
   2   9  -8  240.69   14.85
  -2  -9   8  258.60   14.47
   1   9  -8  143.67   10.13
  -1  -9   8  137.45    9.22
   0   9  -8  169.14   11.16
   0  -9   8  150.45    9.81
  -1   9  -8   20.36    3.96
   1  -9   8   13.44    2.72
  -2   9  -8   15.77    3.32
   2  -9   8   13.52    2.52
  -3   9  -8   97.82    7.18
   3  -9   8  103.29    6.55
   4  -9   8  138.99    7.82
   8   8  -8    9.15    1.63
  -8  -8   8   10.67    1.98
  -7  -8   8  117.89    7.18
  -7  -8   8  125.58    8.05
  -6  -8   8  127.96    8.78
  -6  -8   8  130.06    7.84
  -5  -8   8   12.16    2.40
  -5  -8   8   19.13    3.53
  -4  -8   8  370.77   20.15
  -4  -8   8  366.00   18.80
   3   8  -8    6.55    2.51
  -3  -8   8   10.54    2.75
  -3  -8   8    9.25    2.13
   2   8  -8   25.68    4.48
  -2  -8   8   33.48    4.62
   1   8  -8   65.21    6.41
  -1  -8   8   61.82    5.63
   0   8  -8   62.96    6.50
   0  -8   8   70.50    5.79
  -1   8  -8  159.84   11.41
   1  -8   8  167.74   10.08
  -2   8  -8   66.06    6.40
   2  -8   8   57.08    5.00
  -3   8  -8   15.59    3.53
   3  -8   8   16.58    2.76
   4  -8   8   30.16    3.25
   5  -8   8   75.72    4.95
   8   7  -8   23.80    2.62
  -8  -7   8   18.50    2.66
  -7  -7   8   52.43    4.89
  -7  -7   8   50.19    4.19
  -6  -7   8   45.18    4.86
  -6  -7   8   38.65    3.92
  -5  -7   8  198.56   12.72
  -5  -7   8  213.17   11.74
  -4  -7   8  251.22   13.50
  -4  -7   8  239.13   14.60
   3   7  -8   55.85    5.76
  -3  -7   8   56.38    4.75
  -3  -7   8   48.20    5.30
   2   7  -8  399.39   21.28
  -2  -7   8  368.09   20.38
  -2  -7   8  378.62   19.51
   1   7  -8  241.68   14.64
  -1  -7   8  218.37   13.24
   0   7  -8  173.34   11.60
   0  -7   8  154.03    9.93
  -1   7  -8  622.38   32.85
   1  -7   8  640.31   31.03
  -2   7  -8  195.48   12.81
   2  -7   8  180.83   10.84
  -3   7  -8   72.57    6.74
   3  -7   8   70.31    5.47
  -4   7  -8  140.85    9.69
   4  -7   8  137.49    8.39
   5  -7   8  203.02   10.98
   6  -7   8   14.49    2.06
   8   6  -8   68.50    4.79
  -8  -6   8   69.86    5.25
  -8  -6   8   65.55    5.25
  -7  -6   8  126.17    7.52
  -7  -6   8  115.42    8.10
  -7  -6   8  116.01    8.17
  -6  -6   8  374.30   20.43
  -6  -6   8  388.22   20.59
  -6  -6   8  383.52   19.49
  -5  -6   8  212.65   11.84
  -5  -6   8  199.34   12.68
  -4  -6   8    3.88    1.74
  -4  -6   8    3.44    2.11
  -3  -6   8 1127.21   52.50
  -3  -6   8 1120.88   53.69
   2   6  -8   51.02    5.43
  -2  -6   8   53.32    5.14
  -2  -6   8   54.35    4.52
   1   6  -8   29.76    4.55
  -1  -6   8   16.28    3.04
   0   6  -8   80.73    7.37
   0  -6   8   89.72    6.38
  -1   6  -8  110.05    8.75
   1  -6   8  103.14    7.09
  -2   6  -8  381.20   21.52
   2  -6   8  374.39   19.32
  -3   6  -8   69.49    6.85
   3  -6   8   71.31    5.35
  -4   6  -8  589.39   31.83
   4  -6   8  643.19   29.83
   5  -6   8   20.47    2.73
   6  -6   8  359.96   17.73
   7  -6   8   18.67    2.19
   9   5  -8   15.92    2.62
  -9  -5   8   25.14    3.49
   8   5  -8   25.90    2.95
  -8  -5   8   26.01    3.95
  -8  -5   8   23.98    3.22
  -7  -5   8  305.81   15.73
  -7  -5   8  310.19   17.47
  -7  -5   8  293.01   16.37
  -6  -5   8   59.10    4.94
  -6  -5   8   58.40    5.55
  -6  -5   8   61.67    6.20
  -5  -5   8   10.84    2.34
  -5  -5   8    8.95    2.88
  -5  -5   8   11.49    2.86
  -4  -5   8  304.31   16.78
  -4  -5   8  302.10   16.79
  -4  -5   8  287.56   15.68
  -3  -5   8  134.87    8.17
  -3  -5   8  129.80    8.94
   2   5  -8  235.55   13.67
   2   5  -8  223.58   20.74
  -2  -5   8  223.24   13.10
  -2  -5   8  230.18   12.35
   1   5  -8 1112.96   51.77
  -1  -5   8 1064.48   61.32
  -1  -5   8 1042.77   50.48
   0   5  -8    6.57    2.59
   0  -5   8   13.94    4.64
   0  -5   8   12.61    2.52
  -1   5  -8  148.80   11.04
   1  -5   8  181.72    9.85
  -2   5  -8    3.14    2.16
   2  -5   8    1.08    1.24
  -3   5  -8  208.12   14.08
   3  -5   8  237.01   12.21
  -4   5  -8   37.45    5.86
   4  -5   8   48.14    3.96
   5  -5   8   29.56    3.09
   6  -5   8   74.14    5.07
   7  -5   8  326.24   16.01
   9   4  -8    3.79    1.22
  -9  -4   8    3.76    1.91
  -9  -4   8    3.74    1.68
   8   4  -8   82.78    5.64
  -8  -4   8   87.10    6.00
  -8  -4   8   90.82    7.63
  -7  -4   8   12.41    3.48
  -7  -4   8    8.60    2.30
  -6  -4   8  524.27   26.97
  -6  -4   8  547.03   28.84
  -6  -4   8  526.75   26.18
  -5  -4   8  342.38   19.16
  -5  -4   8  331.20   17.01
  -5  -4   8  303.07   17.57
  -4  -4   8  368.12   18.88
  -4  -4   8  363.47   19.68
  -4  -4   8  379.77   20.47
   3   4  -8  102.52   12.85
  -3  -4   8  107.38    7.49
  -3  -4   8  103.96    7.62
  -3  -4   8  108.41    6.83
   2   4  -8   39.40    4.81
   2   4  -8   33.30    7.23
  -2  -4   8   34.81    4.30
  -2  -4   8   33.44    3.75
  -2  -4   8   33.32    7.85
  -2  -4   8   32.27    3.25
   1   4  -8  855.28   43.09
  -1  -4   8  929.03   51.00
  -1  -4   8  894.21   42.29
   0   4  -8  162.42   10.23
   0  -4   8  144.48    8.72
   0  -4   8  147.90   13.34
  -1   4  -8   40.02    5.07
   1  -4   8   24.36    4.85
   1  -4   8   26.62    3.27
  -2   4  -8    1.38    1.88
   2  -4   8    1.64    1.69
   2  -4   8    1.87    1.14
  -3   4  -8  412.15   22.32
   3  -4   8  402.49   19.93
  -4   4  -8  158.23   10.57
   4  -4   8  127.23    7.88
   5  -4   8  200.59   10.79
   6  -4   8  112.85    6.78
  -7   4  -8  289.30   16.09
   7  -4   8  305.29   14.93
  -8   4  -8  113.02    7.17
   8  -4   8  118.95    6.49
   9   3  -8   82.63    4.84
  -9  -3   8   70.37    6.20
   8   3  -8   36.62    3.53
  -8  -3   8   43.71    3.92
  -8  -3   8   35.34    5.47
   7   3  -8   17.94    2.88
  -7  -3   8   22.55    3.33
  -7  -3   8   20.49    4.89
  -6  -3   8   39.52    4.28
  -6  -3   8   42.37    4.00
  -6  -3   8   38.33    6.19
  -5  -3   8  136.96    8.63
  -5  -3   8  142.28    9.24
  -5  -3   8  148.27   11.14
  -4  -3   8   78.23    5.48
  -4  -3   8   68.99    7.00
  -4  -3   8   73.07    5.88
   3   3  -8  783.19   45.71
  -3  -3   8  804.92   38.24
  -3  -3   8  747.41   37.12
  -3  -3   8  763.64   36.53
   2   3  -8    3.41    2.86
  -2  -3   8    5.38    4.00
   1   3  -8 1119.76   58.89
  -1  -3   8 1108.94   60.10
   0  -3   8  641.91   36.43
  -1   3  -8   15.54    3.28
   1  -3   8    5.95    2.65
  -2   3  -8 1374.92   65.61
   2  -3   8 1404.27   68.40
  -3   3  -8  440.05   32.48
  -3   3  -8  440.05   23.49
   3  -3   8  426.95   21.28
   3  -3   8  463.66   26.43
  -4   3  -8  166.77   11.89
   4  -3   8  196.00    9.95
   5  -3   8  433.32   21.04
  -6   3  -8   67.31    6.07
   6  -3   8   60.41    4.45
  -7   3  -8   38.54    4.44
   7  -3   8   25.93    2.79
  -8   3  -8  101.15    7.23
   8  -3   8  105.36    6.03
   9   2  -8   19.40    2.15
  -9  -2   8   20.58    3.55
   8   2  -8   76.76    5.25
  -8  -2   8   72.70    7.39
   7   2  -8    8.06    1.99
  -7  -2   8    5.47    3.09
  -7  -2   8    8.69    2.22
   6   2  -8  175.21    9.70
  -6  -2   8  145.85    9.62
  -5  -2   8   20.45    4.71
  -5  -2   8   27.87    3.38
  -5  -2   8   33.95    5.26
   4   2  -8  356.50   33.35
  -4  -2   8  379.51   18.25
  -4  -2   8  405.52   45.47
  -4  -2   8  309.36   20.15
   3   2  -8  358.52   25.73
  -3  -2   8  382.02   20.61
  -3  -2   8  365.08   29.63
  -3  -2   8  397.60   18.77
   2   2  -8  140.42   13.12
  -2  -2   8  123.41   14.29
   1   2  -8   31.51    5.86
  -1  -2   8   40.99    7.07
   0  -2   8  627.77   35.20
   1  -2   8  793.97   41.31
  -2   2  -8  295.72   22.77
   2  -2   8  344.24   20.02
  -3   2  -8  343.22   25.81
  -3   2  -8  314.31   17.69
   3  -2   8  312.47   20.49
  -4   2  -8  505.41   36.59
  -4   2  -8  538.18   24.54
  -4   2  -8  499.43   26.52
   4  -2   8  510.78   25.04
   4  -2   8  507.66   30.62
  -5   2  -8  163.77   11.35
  -5   2  -8  175.30   10.77
  -5   2  -8  169.96    9.07
   5  -2   8  149.72    8.79
  -6   2  -8   95.88    6.17
  -6   2  -8   99.40    7.78
   6  -2   8   86.84    5.78
  -7   2  -8  565.47   29.46
   7  -2   8  581.17   27.29
  -8   2  -8  158.70   10.26
   8  -2   8  150.64    8.34
  -9   2  -8   38.10    3.91
   9  -2   8   34.45    2.74
  -9  -1   8  163.91   10.04
   8   1  -8   10.97    2.02
  -8  -1   8    9.97    3.20
   7   1  -8  141.33    8.46
  -7  -1   8  131.30   10.93
   6   1  -8   54.84    4.44
  -6  -1   8   48.55    7.00
  -5  -1   8   38.27    6.42
   4   1  -8  289.03   21.98
  -4  -1   8  266.51   24.05
  -4  -1   8  210.29   15.63
  -4  -1   8  283.07   13.93
   3   1  -8  894.77   49.17
  -3  -1   8  955.03   53.52
  -3  -1   8  728.65   42.44
  -3  -1   8  927.73   41.02
   2   1  -8   73.89    8.94
  -2  -1   8   81.48   10.75
   1   1  -8  124.32   11.24
  -1  -1   8  121.30   12.07
   0   1  -8  741.27   38.04
   0  -1   8  679.33   38.14
   1  -1   8  114.20    9.47
  -2   1  -8  992.57   55.67
   2  -1   8 1109.39   52.77
  -3   1  -8  130.87   14.34
   3  -1   8  164.63   12.64
  -4   1  -8  195.88   10.26
  -4   1  -8  175.89   11.60
  -4   1  -8  192.46   18.95
   4  -1   8  206.24   15.95
  -5   1  -8  215.93   13.59
  -5   1  -8  225.82   13.18
  -5   1  -8  221.97   11.69
  -6   1  -8  137.52    8.10
  -6   1  -8  142.58    9.80
  -7   1  -8  203.78   13.45
  -7   1  -8  202.92   11.57
   7  -1   8  245.18   11.71
  -8   1  -8  324.74   15.96
  -8   1  -8  315.86   17.90
   8  -1   8  312.29   15.78
  -9   1  -8   34.56    4.11
  -9   0   8   23.18    3.15
   8   0  -8   36.67    3.31
  -8   0   8   46.28    5.00
   7   0  -8  157.91    9.17
  -7   0   8  152.25   11.31
   6   0  -8   20.30    2.98
  -6   0   8    8.88    3.32
   5   0  -8   21.69    2.90
  -5   0   8   24.15    4.77
   4   0  -8   18.99    5.81
   4   0  -8   17.62    2.57
  -4   0   8   24.68    7.67
  -4   0   8   28.83    4.91
  -3   0   8  118.07   13.27
  -3   0   8  107.15    8.34
  -3   0   8  117.70    6.89
   2   0  -8 1712.74   85.53
  -2   0   8 1734.63   87.40
   1   0  -8   61.04    7.56
  -1   0   8   69.22    8.40
   0   0  -8  343.82   20.88
   0   0   8  325.73   20.65
  -1   0  -8  601.21   33.34
   1   0   8  590.89   31.48
  -2   0  -8  926.32   49.53
   2   0   8  928.51   46.68
  -3   0  -8  210.99   17.54
   3   0   8  208.12   15.16
  -4   0  -8  197.64   18.26
   4   0   8  185.33   15.27
  -5   0  -8  202.79   11.99
  -5   0  -8  200.00   12.20
  -5   0  -8  203.24   20.11
  -5   0  -8  212.15   10.85
   5   0   8  185.01   16.47
  -6   0  -8  567.28   27.72
  -6   0  -8  589.61   29.56
  -7   0  -8  736.72   34.54
  -7   0  -8  715.39   36.43
  -8   0  -8   20.45    3.88
  -8   0  -8   21.17    2.87
  -9   0  -8    3.99    1.44
  -9   0  -8    4.88    2.09
 -10   0  -8   57.33    3.68
 -10   0  -8   56.05    4.83
   8  -1  -8   71.32    4.82
  -8   1   8   79.54    6.18
   7  -1  -8   91.19    6.01
  -7   1   8   83.86    7.37
   6  -1  -8    5.15    1.76
  -6   1   8    6.09    2.62
   5  -1  -8  125.59    8.10
  -5   1   8  147.68   10.33
   4  -1  -8   49.55    3.99
   4  -1  -8   45.69    8.08
  -4   1   8   51.64    5.62
  -4   1   8   51.72    9.17
   3  -1  -8  289.87   20.96
  -3   1   8  275.95   21.36
  -3   1   8  281.62   15.97
   2  -1  -8   81.85    9.38
  -2   1   8   85.05    9.72
   1  -1  -8  174.39   13.87
  -1   1   8  181.71   14.20
   0  -1  -8   57.56    6.76
   0   1   8   71.18    7.23
  -1  -1  -8  476.70   26.87
  -1  -1  -8  505.06   28.23
   1   1   8  506.38   26.76
  -2  -1  -8  161.54   13.41
   2   1   8  151.01   11.14
  -3  -1  -8  157.34   14.06
   3   1   8  150.97   12.20
  -4  -1  -8  169.44   15.94
   4   1   8  163.87   13.89
  -5  -1  -8  389.77   20.42
  -5  -1  -8  374.98   28.73
  -5  -1  -8  393.22   19.34
   5   1   8  410.97   26.33
  -6  -1  -8  407.02   21.52
  -6  -1  -8  402.63   20.10
  -7  -1  -8   27.72    4.51
  -7  -1  -8   32.29    3.53
  -8  -1  -8   75.53    6.68
  -8  -1  -8   71.14    5.44
  -9  -1  -8  116.31    8.54
  -9  -1  -8  118.90    7.27
 -10  -1  -8   25.97    2.62
 -10  -1  -8   23.70    3.56
   8  -2  -8   25.62    3.84
  -8   2   8   19.33    2.97
   7  -2  -8   13.65    2.31
  -7   2   8   17.50    3.45
   6  -2  -8   57.31    4.58
  -6   2   8   51.89    5.62
   5  -2  -8  528.91   25.87
  -5   2   8  529.92   27.55
   4  -2  -8  455.51   23.21
  -4   2   8  497.26   25.02
   3  -2  -8  287.97   21.55
   3  -2  -8  270.91   14.79
  -3   2   8  326.88   16.47
   2  -2  -8   53.80    7.56
  -2   2   8   41.08    6.46
   1  -2  -8  511.63   29.80
  -1   2   8  496.53   28.85
   0  -2  -8 2104.96   98.57
   0   2   8 1976.42   96.28
   0   2   8 2114.20   97.62
  -1  -2  -8   77.29    7.64
  -1  -2  -8   74.20    7.10
   1   2   8   67.85    6.37
  -2  -2  -8  403.16   25.18
   2   2   8  420.81   22.88
  -3  -2  -8   39.28    6.78
   3   2   8   44.82    6.10
  -4  -2  -8  498.69   32.25
   4   2   8  525.83   30.22
  -5  -2  -8  724.39   34.96
  -5  -2  -8  749.11   34.09
  -5  -2  -8  744.43   44.36
   5   2   8  678.52   40.39
  -6  -2  -8   14.04    7.32
  -6  -2  -8   11.51    2.71
  -6  -2  -8   15.97    2.57
   6   2   8   15.81    5.72
  -7  -2  -8  311.68   17.30
  -7  -2  -8  300.55   15.94
  -8  -2  -8   35.74    4.97
  -8  -2  -8   41.88    4.05
  -9  -2  -8  412.90   20.53
  -9  -2  -8  406.35   21.85
 -10  -2  -8   10.33    1.90
 -10  -2  -8    8.80    2.40
   7  -3  -8    7.21    1.77
   6  -3  -8   16.36    2.62
  -6   3   8   24.95    4.00
   5  -3  -8   33.38    3.86
  -5   3   8   44.26    4.74
   4  -3  -8   76.74    5.44
  -4   3   8   75.75    6.33
   3  -3  -8  480.57   22.96
   3  -3  -8  476.74   30.26
  -3   3   8  455.93   23.83
   2  -3  -8  100.68   10.68
   1  -3  -8   55.53    7.32
   0  -3  -8  123.56   10.48
   0   3   8  112.83    9.00
   0   3   8  123.45    9.55
  -1  -3  -8  864.71   43.64
  -1  -3  -8  820.37   43.58
   1   3   8  872.58   42.06
  -2  -3  -8  117.56   10.73
   2   3   8  120.43    8.75
  -3  -3  -8  239.22   17.52
   3   3   8  218.91   15.08
  -4  -3  -8  449.32   29.01
   4   3   8  426.14   26.03
  -5  -3  -8 1174.41   55.27
  -5  -3  -8 1208.73   65.73
  -5  -3  -8 1182.81   56.28
   5   3   8 1224.94   61.99
  -6  -3  -8  577.35   39.10
  -6  -3  -8  586.40   29.23
  -6  -3  -8  561.26   28.22
   6   3   8  628.02   36.16
  -7  -3  -8  162.43   10.26
  -7  -3  -8  150.80    9.25
  -8  -3  -8  183.03   11.99
  -8  -3  -8  202.14   11.22
  -9  -3  -8  122.91    7.65
  -9  -3  -8  112.03    8.35
 -10  -3  -8  148.73    9.31
 -10  -3  -8  143.29    8.43
 -11  -3  -8  108.14    6.20
 -11  -3  -8  111.95    6.86
   7  -4  -8    0.22    1.09
   6  -4  -8    6.74    1.76
   5  -4  -8  108.43    6.96
   4  -4  -8  296.43   15.34
   3  -4  -8  420.31   20.40
   3  -4  -8  404.63   27.80
   2  -4  -8   24.54    2.91
   2  -4  -8   25.26    6.35
   1  -4  -8  605.47   34.93
   0  -4  -8  675.80   37.79
   0   4   8  706.86   36.71
  -1  -4  -8  154.09   12.09
   1   4   8  149.15   11.53
  -2  -4  -8  331.64   20.74
  -2  -4  -8  330.22   20.96
   2   4   8  344.19   18.31
   3   4   8  102.12    8.57
  -4  -4  -8  158.34   14.25
   4   4   8  157.59   12.56
  -5  -4  -8  177.61   16.07
  -5  -4  -8  173.37    9.71
   5   4   8  145.39   13.28
  -6  -4  -8  699.74   34.87
  -6  -4  -8  711.30   44.30
  -6  -4  -8  720.59   34.17
   6   4   8  750.80   41.71
  -7  -4  -8  579.19   29.33
  -7  -4  -8  592.33   28.54
  -8  -4  -8  291.89   16.37
  -8  -4  -8  290.10   15.55
  -9  -4  -8    4.62    1.80
  -9  -4  -8    2.11    1.74
 -10  -4  -8   19.66    3.12
 -10  -4  -8   19.43    2.74
 -11  -4  -8   67.09    4.70
 -11  -4  -8   59.20    4.19
   6  -5  -8  153.47    8.92
   5  -5  -8   32.26    3.70
  -5   5   8   43.51    6.80
   4  -5  -8  119.86    7.49
  -4   5   8  116.74    9.76
   3  -5  -8  150.52    8.91
  -3   5   8  162.66   11.24
   2  -5  -8  871.04   49.26
   2  -5  -8  845.39   41.12
  -2   5   8  931.92   43.11
   1  -5  -8  491.65   30.50
  -1   5   8  492.49   33.27
   0  -5  -8  120.18   11.19
   0   5   8  110.41    9.97
  -1  -5  -8  101.85   10.00
   1   5   8  105.92    9.30
  -2  -5  -8   31.04    5.53
   2   5   8   39.15    5.74
  -3  -5  -8 1996.11   96.64
  -4  -5  -8  299.43   21.13
  -5  -5  -8  184.68   16.45
  -5  -5  -8  220.62   14.87
  -5  -5  -8  185.94   10.61
   5   5   8  186.34   17.25
  -6  -5  -8  120.96    8.18
  -6  -5  -8  131.34   14.02
  -6  -5  -8  128.02    8.00
  -6  -5  -8  127.63    7.44
   6   5   8  108.76   11.93
  -7  -5  -8  147.87    8.89
  -7  -5  -8  151.31    9.48
  -8  -5  -8  922.24   44.59
  -8  -5  -8  970.27   45.43
  -9  -5  -8   83.19    6.05
  -9  -5  -8   82.92    6.44
 -10  -5  -8   37.36    3.72
 -10  -5  -8   43.86    4.06
 -11  -5  -8   36.82    3.11
 -11  -5  -8   37.56    3.29
   6  -6  -8   85.27    5.65
   5  -6  -8  120.08    7.91
  -5   6   8  148.68   10.63
   4  -6  -8   48.73    4.32
  -4   6   8   54.63    6.48
   3  -6  -8   21.62    3.04
  -3   6   8   14.26    3.79
   2  -6  -8  565.90   26.99
  -2   6   8  546.84   28.61
   1  -6  -8  361.70   17.55
   1  -6  -8  361.44   24.88
   1  -6  -8  342.69   18.42
  -1   6   8  328.02   23.90
   0  -6  -8   92.65   10.42
   0   6   8   97.57    9.82
  -1  -6  -8  353.46   24.12
   1   6   8  389.73   23.75
  -2  -6  -8  149.44   13.09
   2   6   8  145.52   12.17
   3   6   8  830.86   44.99
  -4  -6  -8   12.15    4.34
  -5  -6  -8  329.82   23.50
  -5  -6  -8  345.25   17.15
  -5  -6  -8  345.10   18.16
  -5  -6  -8  348.34   17.38
  -6  -6  -8  124.03    7.75
  -6  -6  -8  119.32    8.08
  -6  -6  -8  119.63    7.18
  -7  -6  -8  110.09    6.97
  -7  -6  -8  110.04    7.46
  -8  -6  -8  405.22   20.50
  -8  -6  -8  409.55   21.06
  -9  -6  -8   39.75    3.93
 -10  -6  -8  164.23    9.19
 -10  -6  -8  156.72    9.31
 -11  -6  -8   24.21    2.45
 -11  -6  -8   21.17    2.39
   6  -7  -8   10.09    1.80
  -6   7   8    7.87    2.55
   5  -7  -8  148.60    8.84
  -5   7   8  156.57   10.97
   4  -7  -8  175.50   10.59
  -4   7   8  205.14   13.18
   3  -7  -8  139.29    8.58
  -3   7   8  138.21   10.43
   2  -7  -8  280.82   15.05
  -2   7   8  288.53   16.67
   1  -7  -8  272.78   15.33
   1  -7  -8  282.20   14.40
  -1   7   8  256.54   21.52
   0  -7  -8  799.11   39.03
   0  -7  -8  798.53   46.69
   0  -7  -8  825.47   38.33
   0   7   8  832.55   45.92
  -1  -7  -8  161.37    9.38
  -1  -7  -8  157.04    9.68
  -1  -7  -8  153.01    8.89
  -1  -7  -8  151.92   14.29
   1   7   8  164.90   13.65
  -2  -7  -8   67.36    4.76
  -2  -7  -8   68.80    8.99
  -2  -7  -8   74.03    5.61
   2   7   8   54.91    7.76
  -3  -7  -8   83.53    5.96
  -3  -7  -8   82.30   13.22
  -3  -7  -8   80.93    5.16
   3   7   8   65.06    8.28
  -4  -7  -8  803.11   37.66
  -4  -7  -8  815.36   38.78
   4   7   8  796.32   44.78
  -5  -7  -8  372.05   19.18
  -5  -7  -8  354.61   18.12
  -6  -7  -8  776.35   37.46
  -6  -7  -8  771.75   36.70
  -7  -7  -8  423.34   20.86
  -7  -7  -8  426.10   21.40
  -8  -7  -8   25.98    3.24
  -8  -7  -8   26.98    3.54
  -9  -7  -8    1.71    1.21
  -9  -7  -8    0.53    1.20
 -10  -7  -8  106.45    6.49
 -10  -7  -8  104.33    6.54
 -11  -7  -8   51.30    3.61
  -6   8   8   57.80    6.37
   5  -8  -8   26.30    2.99
  -5   8   8   28.68    4.50
   4  -8  -8    1.24    1.31
  -4   8   8    3.47    2.23
   3  -8  -8  117.37    7.95
  -3   8   8  144.21   10.20
   2  -8  -8  365.97   18.05
  -2   8   8  322.95   19.35
   1  -8  -8   19.06    2.90
  -1   8   8   19.67    3.50
   0  -8  -8  176.69   10.02
   0  -8  -8  169.74   10.75
  -1  -8  -8  297.33   15.44
  -1  -8  -8  316.99   16.10
  -1  -8  -8  295.74   16.03
  -1  -8  -8  282.92   22.37
   1   8   8  296.97   21.87
  -2  -8  -8  165.81   15.86
  -2  -8  -8  169.92    9.99
  -2  -8  -8  179.24   10.29
  -2  -8  -8  164.98    9.58
   2   8   8  169.94   14.86
  -3  -8  -8   84.30   11.12
  -3  -8  -8   86.66    5.94
  -3  -8  -8   87.54    6.50
  -3  -8  -8   85.92    6.05
   3   8   8   97.90   10.79
  -4  -8  -8  123.73    8.05
  -4  -8  -8  121.65    7.11
   4   8   8  104.74   11.36
  -5  -8  -8  226.70   12.77
  -5  -8  -8  210.09   11.58
  -6  -8  -8  162.75    9.12
  -6  -8  -8  152.38    9.79
  -7  -8  -8   29.95    4.03
  -7  -8  -8   35.49    3.51
  -8  -8  -8   49.03    4.20
  -9  -8  -8   24.00    2.89
  -9  -8  -8   19.31    2.70
 -10  -8  -8  163.86    8.78
 -10  -8  -8  161.91    8.84
   5  -9  -8   93.46    5.57
  -5   9   8   88.86    6.86
   4  -9  -8   13.55    2.30
  -4   9   8    9.09    2.86
   3  -9  -8  157.64    8.95
  -3   9   8  134.27   10.26
   2  -9  -8  103.06    6.82
  -2   9   8   90.44    7.90
   1  -9  -8   14.59    2.70
  -1   9   8   13.05    3.17
   0  -9  -8  364.22   18.17
   0  -9  -8  335.56   19.10
  -1  -9  -8   84.07    6.45
  -1  -9  -8   89.81    6.18
  -1  -9  -8   84.50    6.76
  -2  -9  -8  237.41   13.25
  -2  -9  -8  229.38   13.20
  -2  -9  -8  230.65   12.66
  -3  -9  -8   61.03    5.02
  -3  -9  -8   53.96    4.67
  -3  -9  -8   59.29    5.17
  -4  -9  -8  812.17   39.43
  -4  -9  -8  816.50   38.57
  -5  -9  -8  134.93    8.89
  -5  -9  -8  129.57    7.90
  -6  -9  -8 1344.96   63.21
  -6  -9  -8 1353.33   62.12
  -7  -9  -8  116.34    7.19
  -7  -9  -8  115.93    7.93
  -8  -9  -8  130.07    7.77
  -9  -9  -8  171.60    9.41
   4 -10  -8   49.62    3.75
  -4  10   8   43.50    4.90
   3 -10  -8   86.10    5.85
  -3  10   8   83.90    7.09
   2 -10  -8   77.47    6.08
  -2  10   8  100.79    7.80
   1 -10  -8   39.00    4.30
  -1  10   8   33.70    5.11
   0 -10  -8   45.10    4.49
   0  10   8   46.86    5.06
  -1 -10  -8   69.54    5.91
  -1 -10  -8   79.86    5.93
  -1 -10  -8   76.23    6.72
  -2 -10  -8    9.53    2.29
  -2 -10  -8   11.67    2.68
  -2 -10  -8    8.66    2.54
  -3 -10  -8  123.70    8.49
  -3 -10  -8  124.67    8.41
  -3 -10  -8  122.71    7.99
  -4 -10  -8  492.04   24.76
  -4 -10  -8  485.60   25.25
  -4 -10  -8  502.71   24.79
  -5 -10  -8  207.83   12.53
  -5 -10  -8  208.89   11.68
  -6 -10  -8   91.93    6.23
  -6 -10  -8   95.39    7.13
  -7 -10  -8  195.18   10.63
  -7 -10  -8  187.64   11.33
  -8 -10  -8  115.75    7.02
   3 -11  -8   42.01    3.52
  -3  11   8   35.29    4.67
   2 -11  -8   98.62    6.44
  -2  11   8   96.84    7.65
   1 -11  -8   40.63    4.03
  -1  11   8   37.75    5.12
   0 -11  -8  315.24   16.35
   0  11   8  297.67   17.39
  -1 -11  -8  235.73   13.17
  -1 -11  -8  220.90   13.30
   1  11   8  253.17   14.26
  -2 -11  -8  179.78   10.67
  -2 -11  -8  177.70   11.09
  -2 -11  -8  185.83   11.65
  -3 -11  -8  163.91   10.33
  -3 -11  -8  160.42   10.19
  -3 -11  -8  152.29    9.57
  -4 -11  -8  298.40   16.34
  -4 -11  -8  310.18   16.23
  -4 -11  -8  294.94   16.64
  -5 -11  -8   78.32    6.04
  -5 -11  -8   83.33    6.54
  -6 -11  -8  118.28    7.59
  -6 -11  -8  114.63    8.11
  -7 -11  -8   31.91    3.32
  -7 -11  -8   31.35    4.01
   2 -12  -8   10.00    1.93
  -2  12   8   11.70    2.76
   1 -12  -8  134.94    7.94
  -1  12   8  125.07    9.01
   0 -12  -8   65.94    5.18
   0  12   8   53.03    5.69
  -1 -12  -8   52.21    4.49
  -1 -12  -8   48.62    4.59
   1  12   8   38.38    4.72
  -2 -12  -8   28.78    3.76
  -2 -12  -8   34.33    4.40
   2  12   8   37.18    4.34
  -3 -12  -8  421.82   21.82
  -3 -12  -8  414.58   21.19
  -3 -12  -8  415.24   21.97
  -4 -12  -8  188.93   11.20
  -4 -12  -8  206.48   11.96
  -4 -12  -8  191.01   11.62
  -5 -12  -8  111.85    7.70
  -5 -12  -8  121.93    8.14
  -5 -12  -8  105.95    7.51
  -6 -12  -8   98.84    7.75
  -6 -12  -8  102.02    7.28
  -7 -12  -8   69.43    5.47
   1 -13  -8  100.65    6.13
  -1  13   8  103.35    7.16
   0 -13  -8   28.85    3.40
   0  13   8   37.50    4.33
  -1 -13  -8    4.06    1.64
  -1 -13  -8    3.11    1.71
   1  13   8    6.47    2.19
  -2 -13  -8  149.01    8.84
  -2 -13  -8  138.10    9.09
   2  13   8  148.03    9.57
  -3 -13  -8   67.03    5.76
  -3 -13  -8   72.57    5.40
   3  13   8   69.53    5.85
  -4 -13  -8   72.00    5.58
  -4 -13  -8   77.52    6.18
  -5 -13  -8  154.20    9.34
  -5 -13  -8  162.67   10.02
  -6 -13  -8  195.70   11.45
  -7 -13  -8  203.35   11.43
   0 -14  -8   16.36    2.11
  -1 -14  -8  207.11   10.75
   1  14   8  195.28   11.34
  -2 -14  -8   52.19    4.17
  -2 -14  -8   45.02    4.24
   2  14   8   48.36    4.51
  -3 -14  -8   44.93    3.98
  -3 -14  -8   40.99    4.12
  -4 -14  -8   18.60    2.72
  -4 -14  -8   22.98    3.34
  -5 -14  -8  208.39   11.60
  -5 -14  -8  192.66   10.79
  -6 -14  -8   44.12    4.15
  -7 -14  -8   15.52    2.43
  -3 -15  -8   20.96    2.71
  -3 -15  -8   19.76    2.41
  -4 -15  -8    4.10    1.52
  -4 -15  -8    3.52    1.22
  -5 -15  -8   77.91    5.43
  -6 -15  -8    7.53    1.73
  -5 -10   9  161.27    9.11
  -4 -10   9   67.63    5.20
   3  10  -9   65.65    5.41
  -3 -10   9   72.38    5.45
   2  10  -9   89.67    6.38
  -2 -10   9   67.29    5.58
   1  10  -9   43.59    4.49
  -1 -10   9   39.62    4.01
   0  10  -9   35.49    4.46
   0 -10   9   42.15    3.91
  -1  10  -9  241.73   13.07
   1 -10   9  223.70   12.25
  -6  -9   9   30.58    2.82
  -6  -9   9   34.39    3.38
  -5  -9   9   18.19    2.44
  -5  -9   9   18.95    3.02
  -4  -9   9   16.01    2.27
  -4  -9   9   16.20    3.01
   3   9  -9   14.95    3.17
  -3  -9   9   16.69    3.06
   2   9  -9  116.21    8.16
  -2  -9   9   98.76    7.42
   1   9  -9  322.92   18.13
  -1  -9   9  327.77   17.41
   0   9  -9  274.80   16.31
   0  -9   9  300.79   15.71
  -1   9  -9   32.04    4.58
   1  -9   9   29.89    3.70
  -2   9  -9   82.65    6.49
   2  -9   9   75.89    5.57
  -3   9  -9   16.35    2.82
   3  -9   9   15.57    2.33
  -7  -8   9   89.93    5.82
  -6  -8   9  106.61    7.29
  -6  -8   9  113.55    6.73
  -5  -8   9   71.04    5.85
  -5  -8   9   73.75    5.14
  -4  -8   9   85.53    6.95
  -4  -8   9   97.48    6.23
   3   8  -9    4.97    2.28
  -3  -8   9    8.90    1.98
  -3  -8   9    9.12    2.47
   2   8  -9   18.23    3.65
  -2  -8   9   14.35    3.07
   1   8  -9    7.56    2.69
  -1  -8   9    8.46    2.48
   0   8  -9   21.93    4.34
   0  -8   9   27.12    3.81
  -1   8  -9  148.60   10.19
   1  -8   9  129.77    8.69
  -2   8  -9  270.17   15.86
   2  -8   9  269.76   14.54
  -3   8  -9   88.43    7.10
   3  -8   9   97.54    6.34
   4  -8   9   55.64    4.23
  -7  -7   9   62.93    4.89
  -6  -7   9   57.90    5.07
  -6  -7   9   57.15    4.45
  -5  -7   9   73.85    6.24
  -5  -7   9   77.84    5.55
  -4  -7   9   61.66    4.88
  -4  -7   9   56.33    5.50
  -3  -7   9   51.49    5.24
  -3  -7   9   51.44    4.37
   2   7  -9  889.33   43.36
  -2  -7   9  865.77   42.51
   1   7  -9   35.63    5.34
  -1  -7   9   43.20    4.56
   0   7  -9  453.88   25.21
   0  -7   9  472.10   23.81
  -1   7  -9   11.99    3.36
   1  -7   9   12.47    2.69
  -2   7  -9  247.63   15.50
   2  -7   9  261.10   14.06
  -3   7  -9  106.74    8.54
   3  -7   9  115.18    7.36
  -4   7  -9  190.13   11.68
   4  -7   9  186.04   10.41
   5  -7   9   24.98    2.75
   8   6  -9    8.13    1.58
  -7  -6   9   65.34    5.03
  -7  -6   9   56.94    6.33
  -6  -6   9  168.96   10.36
  -6  -6   9  163.47    9.64
  -5  -6   9  116.82    8.18
  -5  -6   9  105.67    7.16
  -4  -6   9   13.46    3.14
  -4  -6   9   14.63    2.59
  -3  -6   9  105.82    7.95
  -3  -6   9  110.93    7.16
   2   6  -9   58.00    6.32
  -2  -6   9   74.32    6.15
   1   6  -9   78.10    7.14
  -1  -6   9   74.21    6.21
   0   6  -9  281.46   16.82
   0  -6   9  269.36   15.11
  -1   6  -9   15.82    3.95
   1  -6   9   19.50    3.13
  -2   6  -9  146.17   10.78
   2  -6   9  151.86    9.21
  -3   6  -9  381.83   21.29
   3  -6   9  372.38   19.21
  -4   6  -9  102.11    7.96
   4  -6   9   89.26    6.32
   5  -6   9    4.11    1.51
   6  -6   9  394.42   19.15
   8   5  -9   45.68    3.60
  -8  -5   9   46.93    4.31
  -8  -5   9   42.70    3.61
   7   5  -9   75.69    5.65
  -7  -5   9   93.21    7.01
  -7  -5   9   85.93    6.08
  -6  -5   9  173.84   10.49
  -6  -5   9  192.77   11.99
  -6  -5   9  197.03   11.42
  -5  -5   9   53.54    5.59
  -5  -5   9   55.73    4.69
  -5  -5   9   56.10    5.35
  -4  -5   9  156.11   10.45
  -4  -5   9  164.00    9.67
  -4  -5   9  167.20   10.66
  -3  -5   9   46.28    4.26
  -3  -5   9   51.94    5.10
   2   5  -9  532.93   27.69
  -2  -5   9  530.02   26.13
  -2  -5   9  548.56   27.20
   1   5  -9    1.31    1.76
  -1  -5   9    3.03    1.58
   0   5  -9   15.02    3.56
   0  -5   9   13.80    2.70
  -1   5  -9    3.54    2.30
   1  -5   9    0.79    1.23
  -2   5  -9  266.44   16.05
   2  -5   9  250.24   13.82
  -3   5  -9   49.19    6.33
   3  -5   9   38.28    3.87
  -4   5  -9  102.52    8.74
   4  -5   9  118.09    7.17
   5  -5   9  345.97   17.38
   6  -5   9   66.96    4.63
   7  -5   9  100.03    5.85
   8   4  -9   56.50    4.27
  -8  -4   9   59.44    5.53
   7   4  -9   42.48    3.81
  -7  -4   9   35.23    3.76
  -7  -4   9   37.85    5.33
  -6  -4   9  152.60    9.51
  -6  -4   9  141.74    8.84
  -6  -4   9  156.40   11.00
  -5  -4   9   15.05    3.03
  -5  -4   9   15.71    2.70
  -5  -4   9   10.63    3.20
  -4  -4   9  522.85   27.18
  -4  -4   9  530.18   26.42
  -4  -4   9  564.82   28.22
  -3  -4   9  274.19   15.65
  -3  -4   9  268.12   14.63
  -3  -4   9  289.78   15.57
   2   4  -9  263.50   15.93
  -2  -4   9  299.87   15.84
  -2  -4   9  299.98   15.86
  -2  -4   9  292.40   15.02
   1   4  -9  136.66    9.51
  -1  -4   9  141.94    8.76
  -1  -4   9  128.97    9.84
   0   4  -9  246.45   14.37
   0  -4   9  219.17   12.60
  -1   4  -9 1244.31   57.53
   1  -4   9 1141.05   55.13
  -2   4  -9   31.57    4.87
   2  -4   9   34.50    3.44
  -3   4  -9  727.16   37.29
   3  -4   9  740.72   34.81
  -4   4  -9   98.82    8.43
   4  -4   9  100.31    6.38
  -5   4  -9  142.88   11.28
   5  -4   9  170.95    9.13
   6  -4   9   99.32    6.15
   7  -4   9   65.29    4.38
   8   3  -9   27.63    3.13
  -8  -3   9   46.61    5.55
   7   3  -9   24.50    3.24
  -7  -3   9   19.99    4.51
   6   3  -9  211.89   11.83
  -6  -3   9  205.06   14.13
  -5  -3   9   76.15    5.62
  -5  -3   9   77.43    7.75
  -4  -3   9  149.79    9.07
  -4  -3   9  154.20   11.02
  -3  -3   9  264.37   14.46
  -3  -3   9  293.47   16.18
   2   3  -9  118.71   13.01
  -2  -3   9  104.38    6.71
  -2  -3   9  107.41    7.59
  -2  -3   9  100.87   14.21
   1   3  -9   39.86    4.99
  -1  -3   9   38.27    3.81
  -1  -3   9   40.69    7.76
   0   3  -9  131.22    9.11
   0  -3   9  134.11   12.93
   0  -3   9  132.01    7.82
  -1   3  -9  477.08   24.28
   1  -3   9  443.86   21.97
   1  -3   9  455.81   27.95
  -2   3  -9  133.40    9.70
   2  -3   9  145.50   13.03
  -3   3  -9  234.99   14.51
  -4   3  -9   87.12    7.85
   4  -3   9  101.04    6.12
  -5   3  -9  129.38   10.22
   5  -3   9  132.38    7.67
   6  -3   9   25.74    2.77
  -7   3  -9   32.97    4.31
   7  -3   9   44.69    3.44
  -8   3  -9   41.49    3.92
   8   2  -9    1.81    1.21
  -8  -2   9    5.24    2.68
   7   2  -9   50.88    4.38
  -7  -2   9   46.80    6.83
   6   2  -9  125.72    7.67
  -6  -2   9  107.44    9.98
  -5  -2   9  171.30   12.77
  -4  -2   9   73.86    7.48
  -4  -2   9   81.91    5.68
   3   2  -9  247.10   24.03
  -3  -2   9  254.87   13.39
  -3  -2   9  254.00   15.16
   2   2  -9  104.52   11.66
  -2  -2   9  105.70    7.59
  -2  -2   9  107.98    6.52
  -2  -2   9   99.22   13.22
   1   2  -9  673.26   38.64
  -1  -2   9  680.52   32.22
  -1  -2   9  650.58   40.25
   0   2  -9  400.15   21.50
   0  -2   9  414.69   26.42
  -1   2  -9 1095.23   53.17
   1  -2   9 1137.75   57.29
  -2   2  -9   46.79    5.36
   2  -2   9   65.01    4.17
   2  -2   9   67.37    7.55
  -3   2  -9  478.22   22.58
  -3   2  -9  455.61   32.99
  -3   2  -9  465.93   24.86
   3  -2   9  484.07   27.94
  -4   2  -9  829.14   38.08
  -4   2  -9  804.26   40.57
  -5   2  -9  446.95   21.71
  -5   2  -9  449.79   24.60
  -6   2  -9   43.21    4.84
  -6   2  -9   39.55    3.96
  -7   2  -9   32.29    4.46
  -8   2  -9  483.66   24.39
  -9   2  -9  127.41    7.61
   8   1  -9   18.62    2.49
  -8  -1   9   25.84    4.22
   7   1  -9  135.13    8.15
  -7  -1   9  130.53   10.48
   6   1  -9   81.22    5.88
  -6  -1   9   80.85    8.25
   5   1  -9    5.89    1.88
  -5  -1   9    4.49    2.95
  -4  -1   9  135.89   10.53
   3   1  -9  290.99   22.81
  -3  -1   9  307.78   25.75
  -3  -1   9  288.49   17.25
  -3  -1   9  304.88   15.34
   2   1  -9   72.16    9.47
  -2  -1   9   74.34    5.01
  -2  -1   9   70.10   10.61
  -2  -1   9   75.31    6.18
   1   1  -9  249.50   17.98
  -1  -1   9  206.12   18.06
   0  -1   9   35.74    6.03
   1  -1   9   38.99    5.68
  -2   1  -9  121.95    8.37
   2  -1   9  119.14   10.24
  -3   1  -9  211.35   12.69
  -3   1  -9  216.34   10.88
  -3   1  -9  197.64   18.48
  -4   1  -9  308.91   26.15
  -4   1  -9  317.99   18.12
  -4   1  -9  323.97   16.07
   4  -1   9  334.13   27.64
  -5   1  -9  318.32   18.38
  -5   1  -9  328.59   16.21
  -5   1  -9  313.97   17.46
  -6   1  -9  347.75   18.91
  -6   1  -9  338.08   17.16
  -7   1  -9  152.62    8.80
  -7   1  -9  164.38   10.57
  -8   1  -9  157.28    8.68
  -8   1  -9  161.84   10.28
  -9   1  -9   48.08    4.46
   8   0  -9  132.67    7.69
  -8   0   9  143.32    9.21
   7   0  -9   16.49    2.58
  -7   0   9   16.70    3.89
   6   0  -9   14.01    2.55
  -6   0   9   19.77    4.43
   5   0  -9  174.59    9.81
  -5   0   9  152.80   11.98
   4   0  -9   94.73    6.21
  -4   0   9   95.32    8.40
   3   0  -9   62.04    9.27
   3   0  -9   58.51    4.51
  -3   0   9   64.06   10.22
  -3   0   9   60.62    6.03
   2   0  -9   20.06    5.93
  -2   0   9   11.08    2.74
  -2   0   9    8.75    4.44
   1   0  -9 1630.88   76.70
  -1   0   9 1375.29   76.08
   0   0  -9  355.53   22.20
   0   0   9  336.75   22.26
   1   0   9   66.33    7.18
  -2   0  -9  192.70   16.19
   2   0   9  208.98   14.14
  -3   0  -9  135.29    7.95
  -3   0  -9  120.15   12.95
   3   0   9  106.18   10.19
  -4   0  -9  875.55   52.32
  -4   0  -9  853.99   42.02
  -4   0  -9  925.48   43.35
  -4   0  -9  906.48   41.22
   4   0   9  875.81   47.75
  -5   0  -9   25.39    4.31
  -5   0  -9   29.31    4.12
  -5   0  -9   28.20    2.98
  -6   0  -9  575.84   27.90
  -6   0  -9  587.76   29.56
  -7   0  -9  280.20   14.53
  -7   0  -9  279.39   16.20
  -8   0  -9  177.83    9.84
  -8   0  -9  180.91   11.41
  -9   0  -9   56.78    4.02
  -9   0  -9   56.80    5.16
 -10   0  -9   32.35    3.26
   8  -1  -9   28.40    2.68
  -8   1   9   33.57    3.99
   7  -1  -9    2.47    1.41
  -7   1   9    1.26    1.97
   6  -1  -9  293.92   15.64
  -6   1   9  304.23   17.76
   5  -1  -9   82.03    5.89
  -5   1   9   78.75    7.54
   4  -1  -9    8.38    1.92
  -4   1   9    9.65    3.09
   3  -1  -9   62.70    4.56
   3  -1  -9   67.48    9.44
  -3   1   9   65.50    6.10
  -3   1   9   57.49    9.40
   2  -1  -9  328.58   23.61
   2  -1  -9  334.58   17.34
  -2   1   9  368.43   25.14
  -2   1   9  377.43   18.96
   1  -1  -9  114.44   11.04
  -1   1   9  102.20   10.90
   0  -1  -9   68.66    7.97
   0   1   9   77.68    8.35
   1   1   9  427.40   24.50
  -2  -1  -9   75.72    9.29
   2   1   9   89.67    7.96
  -3  -1  -9  392.02   27.49
   3   1   9  439.31   25.07
  -4  -1  -9  143.18   15.17
  -4  -1  -9  150.31    8.30
  -4  -1  -9  150.10    9.76
   4   1   9  148.96   13.18
  -5  -1  -9  160.51    9.77
  -5  -1  -9  149.51   10.10
  -5  -1  -9  160.51    8.86
  -5  -1  -9  159.32   17.29
   5   1   9  146.16   14.50
  -6  -1  -9   61.37    4.82
  -6  -1  -9   71.22    6.00
  -7  -1  -9  297.27   15.49
  -7  -1  -9  299.39   17.00
  -8  -1  -9   22.56    2.98
  -8  -1  -9   27.29    4.30
  -9  -1  -9   49.80    3.92
  -9  -1  -9   44.02    4.75
 -10  -1  -9   54.61    4.59
 -10  -1  -9   54.94    3.69
   8  -2  -9   12.34    1.79
  -8   2   9   10.36    2.04
   7  -2  -9  104.43    6.29
  -7   2   9   89.44    7.07
   6  -2  -9  262.71   14.01
  -6   2   9  265.47   15.57
   5  -2  -9   67.10    5.23
  -5   2   9   73.80    6.66
   4  -2  -9   38.00    3.63
  -4   2   9   34.25    5.06
   3  -2  -9  342.73   24.76
   3  -2  -9  345.34   17.20
  -3   2   9  327.69   18.43
   2  -2  -9  763.18   43.43
   2  -2  -9  746.72   35.60
  -2   2   9  764.75   36.79
   1  -2  -9  515.37   30.37
  -1   2   9  472.40   29.30
   0  -2  -9  162.65   12.93
   0   2   9  151.54   12.27
  -1  -2  -9   82.17    7.98
   1   2   9   60.82    6.66
  -2  -2  -9 1744.31   86.00
   2   2   9 1745.94   82.74
  -3  -2  -9  138.13   13.54
   3   2   9  143.50   11.40
  -4  -2  -9  270.09   13.83
  -4  -2  -9  277.35   22.10
  -4  -2  -9  307.29   17.78
   4   2   9  256.78   18.88
  -5  -2  -9  141.85    7.91
  -5  -2  -9  146.99    9.34
  -5  -2  -9  129.86    8.55
  -5  -2  -9  131.44   15.23
   5   2   9  120.82   12.75
  -6  -2  -9  575.84   27.46
  -6  -2  -9  553.80   29.93
  -6  -2  -9  572.45   28.67
  -7  -2  -9  541.17   26.14
  -7  -2  -9  526.39   27.44
  -8  -2  -9  182.20   11.41
  -8  -2  -9  168.16    9.98
  -9  -2  -9    2.64    1.45
  -9  -2  -9    3.39    2.05
 -10  -2  -9    6.10    2.01
 -10  -2  -9    6.32    1.48
   7  -3  -9   28.40    3.09
   6  -3  -9  141.11    8.32
  -6   3   9  135.51    9.15
   5  -3  -9   96.24    6.36
  -5   3   9   88.47    7.24
   4  -3  -9   12.15    2.25
  -4   3   9    8.31    2.61
   3  -3  -9   71.34    5.31
  -3   3   9   86.10    6.56
   2  -3  -9    8.06    3.91
   2  -3  -9    9.78    1.86
  -2   3   9   10.37    2.45
   1  -3  -9  148.25   13.22
   0  -3  -9  186.66   14.41
  -1  -3  -9  187.56   14.21
   1   3   9  202.69   13.37
  -2  -3  -9   11.41    3.92
   2   3   9   15.52    3.05
  -3  -3  -9   62.12    8.31
   3   3   9   54.54    6.39
  -4  -3  -9   75.89    6.43
  -4  -3  -9   60.00    9.12
   4   3   9   72.91    8.46
  -5  -3  -9  136.90   14.99
  -5  -3  -9  142.14    8.87
  -5  -3  -9  134.54    7.64
  -5  -3  -9  124.55    8.18
   5   3   9  111.67   12.15
  -6  -3  -9  204.93   11.20
  -6  -3  -9  202.84   12.05
  -6  -3  -9  203.79   12.27
  -7  -3  -9  620.49   30.43
  -7  -3  -9  584.60   29.09
  -8  -3  -9   13.67    2.99
  -8  -3  -9   14.09    2.63
  -9  -3  -9  135.66    9.04
  -9  -3  -9  131.75    8.11
 -10  -3  -9   26.08    2.88
 -10  -3  -9   24.82    3.49
   7  -4  -9   53.67    3.99
   6  -4  -9  146.17    8.57
   5  -4  -9   24.10    3.16
   4  -4  -9  325.55   16.80
   3  -4  -9  340.49   16.72
  -3   4   9  310.77   17.36
   2  -4  -9   39.33    7.31
   2  -4  -9   37.13    3.36
  -2   4   9   33.13    3.79
   1  -4  -9  155.84   14.20
   1  -4  -9  161.94    8.83
   0  -4  -9  970.51   51.40
  -1  -4  -9  336.39   21.69
   1   4   9  339.19   20.91
  -2  -4  -9  355.38   22.54
  -3  -4  -9   22.68    5.23
   3   4   9   19.08    3.68
  -4  -4  -9  490.26   31.00
  -4  -4  -9  569.71   29.26
   4   4   9  432.88   27.45
  -5  -4  -9  116.68    6.96
  -5  -4  -9  114.85    7.49
  -5  -4  -9  107.05   12.92
  -5  -4  -9  112.62    7.98
   5   4   9  127.35   12.20
  -6  -4  -9  622.68   30.08
  -6  -4  -9  641.27   30.99
  -6  -4  -9  624.00   31.25
  -7  -4  -9  170.40   10.02
  -7  -4  -9  177.85   10.91
  -8  -4  -9   81.74    5.94
  -8  -4  -9   80.89    6.59
  -9  -4  -9  374.09   20.17
  -9  -4  -9  393.82   19.47
 -10  -4  -9   43.44    3.69
 -10  -4  -9   37.48    3.93
 -11  -4  -9    5.86    1.32
 -11  -4  -9    5.51    1.49
   7  -5  -9   91.46    5.43
   6  -5  -9   16.27    2.50
   5  -5  -9  185.30   10.51
   4  -5  -9   99.16    6.61
   3  -5  -9   86.14    6.19
  -3   5   9  108.57    8.37
   2  -5  -9   46.87    4.03
  -2   5   9   55.98    5.47
   1  -5  -9  227.81   18.53
   1  -5  -9  226.92   13.00
   1  -5  -9  238.21   12.22
   0   5   9   13.56    4.13
  -1  -5  -9  685.25   37.72
   1   5   9  637.26   35.89
   2   5   9  117.12   10.87
  -3  -5  -9  166.80   14.06
  -4  -5  -9  108.99    7.59
  -4  -5  -9  107.38   11.48
  -4  -5  -9  107.35    6.71
  -5  -5  -9  250.43   20.59
  -5  -5  -9  265.69   13.30
  -5  -5  -9  258.09   14.61
  -5  -5  -9  260.43   13.88
  -6  -5  -9    8.26    2.46
  -6  -5  -9    6.69    1.83
  -6  -5  -9    9.31    2.25
  -7  -5  -9  444.26   21.95
  -7  -5  -9  439.30   22.71
  -8  -5  -9  103.27    7.07
  -8  -5  -9  112.34    7.77
  -9  -5  -9  215.70   12.00
  -9  -5  -9  222.94   12.67
 -10  -5  -9  190.59   10.20
 -10  -5  -9  180.69   10.54
 -11  -5  -9  118.13    6.76
 -11  -5  -9  115.70    6.50
   6  -6  -9   36.26    3.30
   5  -6  -9  129.00    7.92
   4  -6  -9  243.84   13.05
  -4   6   9  229.74   14.88
   3  -6  -9  246.20   13.36
  -3   6   9  245.92   15.31
   2  -6  -9   56.78    4.59
  -2   6   9   58.33    5.76
   1  -6  -9  306.44   15.72
   1  -6  -9  319.10   29.44
   1  -6  -9  292.85   16.62
   0  -6  -9  159.61    9.66
   0  -6  -9  160.86   14.85
   0  -6  -9  172.27    9.24
   0   6   9  153.78   13.57
  -1  -6  -9  296.94   15.72
  -1  -6  -9  294.14   21.58
  -1  -6  -9  311.16   16.40
   1   6   9  315.80   20.99
  -2  -6  -9   86.76    5.55
  -2  -6  -9   81.18    9.72
  -2  -6  -9   91.59    6.32
   2   6   9   78.69    8.81
  -3  -6  -9  323.32   17.12
  -3  -6  -9  313.17   15.95
   3   6   9  318.48   21.90
  -4  -6  -9    6.05    3.35
  -4  -6  -9   12.11    2.10
  -4  -6  -9    5.87    2.06
  -4  -6  -9    8.18    2.04
  -5  -6  -9  414.85   20.21
  -5  -6  -9  400.66   19.58
  -5  -6  -9  379.68   26.69
  -5  -6  -9  419.18   21.24
  -6  -6  -9   47.19    4.24
  -6  -6  -9   42.33    4.62
  -6  -6  -9   47.90    3.82
  -7  -6  -9   44.58    3.91
  -7  -6  -9   42.17    4.28
  -8  -6  -9  187.60   11.25
  -8  -6  -9  192.97   10.75
  -9  -6  -9   90.53    6.56
  -9  -6  -9   93.25    6.23
 -10  -6  -9   85.88    5.60
 -10  -6  -9   85.10    5.77
 -11  -6  -9   82.66    5.09
 -11  -6  -9   82.31    4.94
   6  -7  -9   26.89    2.57
   5  -7  -9    4.11    1.49
  -5   7   9    5.42    2.58
   4  -7  -9   29.78    3.64
  -4   7   9   33.92    5.07
   3  -7  -9   12.14    2.51
  -3   7   9   23.94    4.41
   2  -7  -9   79.08    6.08
  -2   7   9   89.08    7.40
   1  -7  -9  203.55   12.76
   1  -7  -9  224.16   11.98
   0  -7  -9  240.58   13.64
   0  -7  -9  249.19   12.95
   0   7   9  232.00   18.89
  -1  -7  -9  113.11    7.53
  -1  -7  -9  112.08   12.37
  -1  -7  -9  125.11    7.83
  -1  -7  -9  119.66    7.20
   1   7   9  106.83   11.08
  -2  -7  -9  262.48   14.28
  -2  -7  -9  283.19   14.60
  -2  -7  -9  274.36   15.07
  -2  -7  -9  262.18   20.67
   2   7   9  299.14   20.73
  -3  -7  -9  862.36   41.17
  -3  -7  -9  889.26   40.19
   3   7   9  817.23   46.48
  -4  -7  -9  234.72   13.14
  -4  -7  -9  219.63   11.92
   4   7   9  220.35   17.93
  -5  -7  -9  153.70    8.89
  -5  -7  -9  152.19    9.88
  -6  -7  -9  193.49   10.52
  -6  -7  -9  206.18   11.18
  -6  -7  -9  197.37   11.89
  -7  -7  -9   93.09    7.01
  -7  -7  -9   99.31    6.74
  -7  -7  -9   95.81    6.16
  -8  -7  -9  236.19   13.01
  -8  -7  -9  234.06   12.51
  -9  -7  -9   45.65    3.81
  -9  -7  -9   40.77    3.91
 -10  -7  -9   24.95    2.71
 -10  -7  -9   26.16    2.67
 -11  -7  -9  111.97    6.14
   5  -8  -9  146.01    7.90
  -5   8   9  126.77    9.06
   4  -8  -9   77.56    5.42
  -4   8   9   62.66    6.38
   3  -8  -9   35.39    3.99
  -3   8   9   36.88    5.45
   2  -8  -9  115.09    7.35
  -2   8   9   97.36    8.25
   1  -8  -9   64.53    5.10
  -1   8   9   55.22    5.62
   0  -8  -9  144.78    9.64
   0  -8  -9  141.66    8.74
  -1  -8  -9   44.65    4.05
  -1  -8  -9   43.12    4.42
  -1  -8  -9   49.68    4.72
  -2  -8  -9  465.00   23.34
  -2  -8  -9  455.84   31.16
  -2  -8  -9  473.98   23.61
  -2  -8  -9  456.33   22.78
  -3  -8  -9  138.18    8.32
  -3  -8  -9  131.83    8.81
  -4  -8  -9   84.49    5.89
  -4  -8  -9   94.42    6.89
  -5  -8  -9  598.94   29.18
  -5  -8  -9  561.48   27.84
  -6  -8  -9  114.42    7.20
  -6  -8  -9  112.53    7.99
  -7  -8  -9  376.25   18.80
  -7  -8  -9  362.43   19.43
  -8  -8  -9   13.54    2.37
  -8  -8  -9   14.36    2.77
  -9  -8  -9    9.38    1.90
  -9  -8  -9    8.83    1.75
 -10  -8  -9   89.98    5.62
 -10  -8  -9   94.78    5.53
  -5   9   9   58.83    5.54
   4  -9  -9    1.03    1.14
  -4   9   9    2.62    1.86
   3  -9  -9   55.82    4.78
  -3   9   9   69.26    6.41
   2  -9  -9  111.01    7.24
  -2   9   9  103.92    8.44
   1  -9  -9   40.98    4.34
  -1   9   9   64.15    5.93
   0  -9  -9   13.30    3.19
   0  -9  -9   14.68    2.80
  -1  -9  -9  229.44   13.01
  -1  -9  -9  223.42   13.40
  -1  -9  -9  226.34   12.50
  -2  -9  -9  406.34   21.33
  -2  -9  -9  401.56   20.72
  -2  -9  -9  426.02   21.56
  -3  -9  -9   11.61    2.70
  -3  -9  -9    8.00    2.15
  -3  -9  -9    9.76    2.26
  -4  -9  -9   61.96    4.99
  -4  -9  -9   65.26    5.69
  -5  -9  -9  344.41   18.67
  -5  -9  -9  346.68   17.68
  -6  -9  -9  541.73   25.99
  -6  -9  -9  524.84   26.98
  -7  -9  -9  102.32    6.45
  -7  -9  -9   88.33    6.81
  -8  -9  -9  208.23   11.32
  -9  -9  -9   10.60    1.92
 -10  -9  -9  136.98    7.46
   4 -10  -9   43.79    3.34
  -4  10   9   42.18    4.41
   3 -10  -9    4.72    1.58
  -3  10   9    6.95    2.39
   2 -10  -9  395.05   20.49
  -2  10   9  419.54   22.19
   1 -10  -9  222.56   12.76
  -1  10   9  238.24   14.25
   0 -10  -9   89.25    6.38
   0  10   9   81.30    7.00
  -1 -10  -9   72.11    5.90
  -1 -10  -9   67.22    5.50
  -1 -10  -9   75.87    6.58
  -2 -10  -9  438.47   22.61
  -2 -10  -9  437.53   22.89
  -2 -10  -9  428.46   21.93
  -3 -10  -9  145.15    9.06
  -3 -10  -9  146.17    9.61
  -3 -10  -9  148.98    9.63
  -4 -10  -9   31.06    4.16
  -4 -10  -9   30.76    4.30
  -5 -10  -9  239.29   13.79
  -5 -10  -9  233.32   13.01
  -6 -10  -9   34.44    4.54
  -6 -10  -9   33.14    3.48
  -7 -10  -9  158.30   10.02
  -7 -10  -9  162.63    9.28
  -8 -10  -9  295.44   15.12
  -9 -10  -9   57.35    4.15
   3 -11  -9   75.54    4.85
  -3  11   9   69.71    5.84
   2 -11  -9    9.98    2.03
  -2  11   9   16.56    3.34
   1 -11  -9   22.29    3.17
  -1  11   9   22.01    3.99
   0 -11  -9  301.05   15.93
   0  11   9  299.35   17.14
  -1 -11  -9  228.13   13.49
  -1 -11  -9  245.73   13.43
   1  11   9  256.18   14.52
  -2 -11  -9  145.46    8.96
  -2 -11  -9  139.33    9.78
  -2 -11  -9  143.69    9.25
  -3 -11  -9   17.50    2.97
  -3 -11  -9   13.10    2.85
  -3 -11  -9   12.49    2.82
  -4 -11  -9   49.60    4.81
  -4 -11  -9   47.97    4.91
  -4 -11  -9   43.44    4.49
  -5 -11  -9   23.00    3.54
  -5 -11  -9   28.57    4.01
  -6 -11  -9   68.68    5.61
  -6 -11  -9   53.89    4.83
  -7 -11  -9   47.44    4.55
  -7 -11  -9   51.75    4.24
  -8 -11  -9  201.44   10.92
   2 -12  -9   40.68    3.29
  -2  12   9   36.38    4.17
   1 -12  -9   93.34    6.04
  -1  12   9   82.93    6.97
   0 -12  -9  258.16   13.78
   0  12   9  257.01   14.93
  -1 -12  -9   62.00    4.92
  -1 -12  -9   52.15    4.78
   1  12   9   49.20    5.32
  -2 -12  -9  396.95   20.79
  -2 -12  -9  407.51   20.44
  -3 -12  -9   22.63    3.72
  -3 -12  -9   20.77    3.17
  -3 -12  -9   18.39    3.20
  -4 -12  -9   61.85    5.41
  -4 -12  -9   59.90    5.43
  -4 -12  -9   61.61    5.04
  -5 -12  -9   80.73    6.06
  -5 -12  -9   73.42    6.17
  -6 -12  -9   33.49    3.60
  -6 -12  -9   33.93    4.21
  -7 -12  -9  130.08    8.11
  -7 -12  -9  118.19    7.60
   1 -13  -9   68.36    4.39
  -1  13   9   60.39    5.11
   0 -13  -9   31.00    3.17
   0  13   9   31.19    4.15
  -1 -13  -9   80.02    5.66
   1  13   9   79.31    6.38
  -2 -13  -9   31.40    3.67
  -2 -13  -9   33.82    3.76
   2  13   9   42.42    4.40
  -3 -13  -9    2.88    1.57
  -3 -13  -9    2.67    1.59
   3  13   9    4.20    2.07
  -4 -13  -9  230.78   12.43
  -4 -13  -9  225.06   12.95
  -5 -13  -9   14.44    2.75
  -5 -13  -9   15.87    2.81
  -6 -13  -9   89.58    6.55
  -7 -13  -9  249.49   13.42
  -1 -14  -9   33.10    2.94
   1  14   9   28.70    3.46
  -2 -14  -9   27.75    3.03
  -2 -14  -9   29.81    2.93
   2  14   9   19.04    3.12
  -3 -14  -9  118.03    7.60
  -3 -14  -9  127.93    7.40
   3  14   9  122.18    7.86
  -4 -14  -9   16.45    2.48
  -4 -14  -9   17.32    2.81
   4  14   9   16.82    3.46
  -5 -14  -9   75.03    5.60
  -6 -14  -9   52.64    4.43
  -7 -14  -9   99.05    6.24
  -2 -10  10   98.61    6.27
   1  10 -10   11.13    2.26
  -1 -10  10   11.81    2.09
  -5  -9  10   37.66    3.74
  -4  -9  10  154.98    9.05
  -3  -9  10  289.22   15.32
   2   9 -10   31.80    4.10
  -2  -9  10   29.33    3.75
   1   9 -10   13.78    2.91
  -1  -9  10   11.66    2.45
   0   9 -10   69.61    5.99
   0  -9  10   68.53    5.29
  -1   9 -10  454.76   23.17
   1  -9  10  454.04   22.34
  -2   9 -10   25.08    3.42
   2  -9  10   25.69    2.78
  -6  -8  10   13.31    2.32
  -5  -8  10   34.28    3.10
  -5  -8  10   29.92    3.66
  -4  -8  10  217.80   12.31
  -4  -8  10  215.62   11.30
  -3  -8  10   57.68    5.19
   2   8 -10  308.62   17.56
  -2  -8  10  328.39   17.23
   1   8 -10    3.50    2.33
  -1  -8  10    3.00    1.90
   0   8 -10   -0.11    1.80
   0  -8  10    0.93    1.49
  -1   8 -10   81.09    6.99
   1  -8  10   85.08    6.14
  -2   8 -10  113.54    8.07
   2  -8  10   96.87    6.71
  -3   8 -10   27.10    3.83
   3  -8  10   23.41    2.93
   7   7 -10   47.83    3.39
  -6  -7  10   18.50    2.78
  -5  -7  10   35.16    3.89
  -5  -7  10   32.29    3.23
  -4  -7  10   22.33    2.93
  -4  -7  10   22.53    3.57
  -3  -7  10   69.42    5.95
  -3  -7  10   72.40    5.75
   2   7 -10  453.75   24.51
  -2  -7  10  478.98   24.07
   1   7 -10  306.45   17.22
  -1  -7  10  285.05   16.14
   0   7 -10   78.98    7.03
   0  -7  10   71.24    5.93
  -1   7 -10   45.05    6.01
   1  -7  10   43.59    4.40
  -2   7 -10  111.01    8.80
   2  -7  10  110.40    7.36
  -3   7 -10  230.34   13.77
   3  -7  10  229.93   12.45
  -4   7 -10  315.21   17.67
   4  -7  10  347.04   16.72
   7   6 -10   14.27    2.01
  -6  -6  10   56.56    4.74
  -5  -6  10   90.12    6.63
  -5  -6  10   88.99    6.12
  -4  -6  10  209.98   11.55
  -4  -6  10  208.89   12.44
  -3  -6  10    7.60    2.41
  -3  -6  10   10.06    2.07
   2   6 -10  178.48   11.67
  -2  -6  10  179.75   11.11
   1   6 -10  134.56    9.24
  -1  -6  10  101.47    7.77
   0   6 -10  347.71   19.21
   0  -6  10  312.25   17.50
  -1   6 -10  115.49    9.01
   1  -6  10  103.45    7.37
  -2   6 -10   92.67    7.98
   2  -6  10   83.38    6.24
  -3   6 -10   42.48    5.77
   3  -6  10   38.64    3.93
  -4   6 -10   16.99    3.73
   4  -6  10   27.75    3.28
   5  -6  10   18.58    2.51
   7   5 -10  139.37    7.67
  -7  -5  10  123.45    8.26
   6   5 -10   11.16    2.22
  -6  -5  10   13.85    2.86
  -6  -5  10   16.54    3.24
  -5  -5  10  402.94   19.80
  -5  -5  10  381.34   20.36
  -5  -5  10  392.70   20.82
  -4  -5  10   57.50    5.42
  -4  -5  10   58.02    5.26
  -4  -5  10   53.03    4.56
  -3  -5  10   80.41    5.64
  -3  -5  10   73.69    6.24
   2   5 -10  115.68    8.39
  -2  -5  10   93.54    7.37
   1   5 -10  346.21   20.04
  -1  -5  10  374.11   19.23
   0   5 -10  368.48   19.74
   0  -5  10  315.16   17.80
  -1   5 -10    1.78    2.12
   1  -5  10    2.19    1.62
  -2   5 -10  577.70   30.66
   2  -5  10  583.56   28.47
  -3   5 -10   -0.13    1.81
   3  -5  10    1.33    1.32
  -4   5 -10  556.90   29.48
   4  -5  10  568.67   27.32
  -5   5 -10  164.07   11.43
   5  -5  10  172.36    9.50
   6  -5  10    5.87    1.47
   8   4 -10   35.40    2.94
  -8  -4  10   37.45    3.74
   7   4 -10   46.11    4.01
  -7  -4  10   56.88    5.38
   6   4 -10    8.00    2.10
  -6  -4  10   15.14    3.34
  -5  -4  10  171.79   11.35
  -5  -4  10  165.91    9.77
  -4  -4  10  242.90   13.32
  -4  -4  10  249.40   14.76
  -3  -4  10   58.77    4.80
  -3  -4  10   58.23    5.63
  -2  -4  10  497.37   24.66
  -2  -4  10  432.47   23.39
   1   4 -10  391.52   20.67
  -1  -4  10  356.08   19.10
   0   4 -10  225.09   14.01
  -1   4 -10  104.23    8.48
  -2   4 -10  106.48    8.86
  -3   4 -10   21.83    4.31
  -4   4 -10    8.30    2.99
   4  -4  10   12.26    2.35
  -5   4 -10   73.95    6.99
   5  -4  10   71.45    5.12
   8   3 -10   61.64    4.09
  -8  -3  10   56.62    5.01
   7   3 -10  133.89    7.77
  -7  -3  10  116.77    9.09
   6   3 -10   94.79    6.16
  -6  -3  10   78.25    7.62
  -5  -3  10  132.06   10.13
  -4  -3  10  224.24   12.25
  -4  -3  10  219.32   14.06
  -3  -3  10  587.25   29.75
  -3  -3  10  575.75   28.16
  -2  -3  10   59.29    5.47
  -2  -3  10   53.86    4.48
   1   3 -10  267.06   16.16
  -1  -3  10  304.47   15.60
   0   3 -10  402.88   21.39
   0  -3  10  380.10   19.55
  -1   3 -10   71.21    6.62
   1  -3  10   65.64    4.78
  -2   3 -10  567.59   29.76
   2  -3  10  567.19   27.03
  -3   3 -10  309.79   18.22
  -4   3 -10   21.87    4.32
  -5   3 -10  119.36    9.47
   8   2 -10   16.94    2.12
  -8  -2  10   13.47    2.85
   7   2 -10   10.39    2.06
   6   2 -10   55.25    4.57
  -6  -2  10   50.91    6.97
   5   2 -10   10.53    2.27
  -5  -2  10    9.91    3.43
  -4  -2  10  159.66   11.65
  -3  -2  10  214.11   13.09
  -3  -2  10  192.02   11.06
  -2  -2  10  886.05   42.11
  -2  -2  10  915.88   43.63
   1   2 -10   83.45    6.74
  -1  -2  10   89.54    6.46
   0   2 -10  140.41    9.46
   0  -2  10  136.97   13.74
   0  -2  10  137.28    8.27
  -1   2 -10  514.52   26.34
   1  -2  10  514.14   34.90
   1  -2  10  484.89   24.22
  -2   2 -10  684.94   33.50
   2  -2  10  634.96   30.88
  -3   2 -10  349.55   18.88
   3  -2  10  308.33   16.02
  -4   2 -10   55.65    6.29
  -4   2 -10   56.14    4.20
  -5   2 -10  225.57   11.69
  -5   2 -10  217.86   14.31
  -7   2 -10  157.16    9.70
  -8   2 -10    4.75    1.74
   8   1 -10  104.63    6.09
  -8  -1  10  109.31    7.49
   7   1 -10  112.40    6.95
  -7  -1  10  108.45    8.70
   6   1 -10    4.09    1.63
  -6  -1  10    6.16    2.85
   5   1 -10   27.19    3.46
  -5  -1  10   35.48    5.77
   4   1 -10  102.98    6.82
  -4  -1  10   94.86    8.78
   3   1 -10  229.47   12.54
  -3  -1  10  236.10   14.53
   2   1 -10  472.64   31.41
  -2  -1  10  432.20   23.54
   1   1 -10   64.29    5.72
  -1  -1  10   63.96    5.27
  -1  -1  10   63.37    9.68
   0   1 -10  146.56    9.51
   0  -1  10  136.99   13.44
   0  -1  10  147.72    8.55
  -1   1 -10  187.55   11.15
   1  -1  10  163.80   14.00
   1  -1  10  167.40    9.36
  -2   1 -10  202.94   13.30
   2  -1  10  232.79   16.50
   2  -1  10  228.79   11.59
  -3   1 -10  167.27   11.34
  -3   1 -10  172.60    9.29
  -4   1 -10  124.03    7.29
  -4   1 -10  123.66    9.44
  -5   1 -10  328.66   16.25
  -5   1 -10  311.67   18.59
  -6   1 -10    9.54    2.61
  -6   1 -10    8.14    1.83
  -7   1 -10   65.57    5.80
  -7   1 -10   68.33    4.67
  -8   1 -10   10.73    1.72
  -8   1 -10   11.02    2.45
  -9   1 -10    2.98    1.40
   8   0 -10   26.63    2.43
  -8   0  10   24.19    3.37
   7   0 -10   80.95    5.43
  -7   0  10   75.97    6.82
   6   0 -10  152.25    9.24
  -6   0  10  163.82   11.53
   5   0 -10  158.64    9.76
  -5   0  10  177.99   12.30
   4   0 -10  214.30   11.81
  -4   0  10  210.02   14.12
   3   0 -10  108.50    6.71
  -3   0  10  101.69    8.35
   2   0 -10  217.78   11.48
   2   0 -10  223.33   18.38
  -2   0  10  204.05   19.18
  -2   0  10  204.67   12.75
   1   0 -10  266.11   14.97
   1   0 -10  298.47   21.57
  -1   0  10  317.15   16.24
  -1   0  10  325.08   23.46
   0   0 -10  214.53   13.03
   0   0  10  229.02   17.81
   0   0  10  237.08   12.36
  -1   0 -10  158.50   10.24
   1   0  10  155.77    8.74
   1   0  10  158.67   13.15
  -2   0 -10  104.55    7.84
   2   0  10  102.65    9.69
   2   0  10   97.50    5.99
  -3   0 -10  158.46   10.61
  -3   0 -10  154.58    8.68
  -3   0 -10  148.25   15.62
   3   0  10  168.77   13.06
  -4   0 -10   79.30    5.23
  -4   0 -10   69.69    6.64
  -5   0 -10  511.20   26.50
  -5   0 -10  520.64   27.66
  -5   0 -10  550.51   25.60
  -6   0 -10  523.05   26.14
  -6   0 -10  485.60   24.58
  -6   0 -10  520.58   27.20
  -7   0 -10   13.99    2.27
  -7   0 -10   18.07    3.38
  -8   0 -10   32.61    4.32
  -8   0 -10   30.46    3.03
  -9   0 -10   79.50    4.79
  -9   0 -10   79.57    5.79
   7  -1 -10   21.33    2.66
  -7   1  10   15.69    3.23
   6  -1 -10    1.44    1.33
  -6   1  10    0.46    1.77
   5  -1 -10    0.70    1.21
  -5   1  10    3.39    2.19
   4  -1 -10  659.65   31.77
  -4   1  10  658.11   34.00
   3  -1 -10  167.36    9.60
  -3   1  10  165.70   11.17
   2  -1 -10   70.35    9.79
   2  -1 -10   65.15    4.84
  -2   1  10   72.67    6.08
  -2   1  10   66.29    9.93
   1  -1 -10   86.32    5.49
   1  -1 -10   89.51   10.39
  -1   1  10   85.60   10.47
  -1   1  10   81.10    6.17
   0   1  10  603.58   29.08
   0   1  10  605.71   35.25
  -1  -1 -10 1044.64   47.00
   1   1  10  894.88   44.20
   1   1  10  947.25   49.78
   2   1  10   40.00    5.70
  -3  -1 -10  498.50   32.71
  -3  -1 -10  500.01   23.70
   3   1  10  487.60   28.38
  -4  -1 -10  271.25   15.54
  -4  -1 -10  264.67   22.79
  -4  -1 -10  262.27   13.69
  -4  -1 -10  260.90   14.28
   4   1  10  274.42   19.09
  -5  -1 -10  195.94   11.65
  -5  -1 -10  206.32   10.88
  -5  -1 -10  189.02   12.44
  -6  -1 -10    5.34    2.11
  -6  -1 -10    7.30    2.71
  -6  -1 -10    6.27    1.78
  -7  -1 -10  119.04    7.55
  -7  -1 -10  131.10    8.92
  -8  -1 -10   79.25    6.62
  -8  -1 -10   88.10    5.71
  -9  -1 -10   46.52    3.63
  -9  -1 -10   49.25    4.55
 -10  -1 -10   26.42    2.88
   7  -2 -10    1.19    1.10
  -7   2  10    2.82    1.61
   6  -2 -10   44.90    4.01
  -6   2  10   46.04    5.10
   5  -2 -10   30.96    3.61
  -5   2  10   36.97    5.15
   4  -2 -10   85.51    6.00
  -4   2  10   78.32    7.21
   3  -2 -10  288.27   15.04
  -3   2  10  287.03   16.48
   2  -2 -10   58.85    8.85
   2  -2 -10   57.51    4.46
  -2   2  10   58.41    5.37
   1  -2 -10  392.39   26.06
   1  -2 -10  393.38   19.36
  -1   2  10  404.20   20.22
  -1   2  10  381.48   28.28
   0  -2 -10  193.75   15.63
   0   2  10  213.52   11.26
   0   2  10  206.14   15.90
   1   2  10   79.60    5.36
   1   2  10   77.06    8.24
  -2  -2 -10   91.62    6.88
  -2  -2 -10   94.42   10.37
   2   2  10   91.57    8.61
  -3  -2 -10 1070.75   59.28
  -3  -2 -10 1122.14   50.59
  -3  -2 -10 1133.73   52.50
   3   2  10 1077.51   55.22
  -4  -2 -10  812.16   37.41
  -4  -2 -10  788.67   47.64
  -4  -2 -10  807.15   39.25
  -4  -2 -10  766.90   37.87
   4   2  10  818.63   43.44
  -5  -2 -10   83.00    6.23
  -5  -2 -10   83.07    7.05
  -5  -2 -10   88.19    5.76
  -6  -2 -10   93.57    6.36
  -6  -2 -10   98.74    7.26
  -6  -2 -10   95.11    7.61
  -7  -2 -10    2.52    1.91
  -7  -2 -10    2.31    1.53
  -8  -2 -10  254.76   14.49
  -8  -2 -10  244.92   13.21
  -9  -2 -10   43.52    4.40
  -9  -2 -10   42.63    3.64
 -10  -2 -10   11.66    2.19
 -10  -2 -10   10.84    1.67
   7  -3 -10   26.35    2.88
   6  -3 -10  133.49    7.86
  -6   3  10  125.80    8.55
   5  -3 -10    2.21    1.37
  -5   3  10    8.34    2.45
   4  -3 -10   92.27    6.25
  -4   3  10   84.79    7.18
   3  -3 -10  173.85   10.49
  -3   3  10  204.61   11.93
   2  -3 -10  715.17   33.63
  -2   3  10  699.86   34.62
   1  -3 -10  185.15   15.80
   1  -3 -10  199.15   10.25
  -1   3  10  173.91   10.66
   0  -3 -10  197.45   15.79
   0   3  10  204.65   11.04
   1   3  10   30.95    8.44
  -2  -3 -10  594.07   35.50
  -2  -3 -10  639.50   31.35
   2   3  10  659.88   29.99
   2   3  10  627.69   33.52
  -3  -3 -10  106.15   11.76
  -3  -3 -10  111.54    7.91
  -3  -3 -10  113.29    6.49
  -4  -3 -10   34.98    4.62
  -4  -3 -10   32.29    3.39
  -4  -3 -10   30.54    3.08
  -4  -3 -10   34.11    7.30
   4   3  10   39.67    6.13
  -5  -3 -10   14.33    2.26
  -5  -3 -10   20.95    3.80
  -5  -3 -10   18.56    2.92
  -6  -3 -10   42.21    4.80
  -6  -3 -10   39.32    3.91
  -6  -3 -10   46.41    4.56
  -7  -3 -10   72.15    5.46
  -7  -3 -10   78.74    6.37
  -8  -3 -10   62.53    4.88
  -8  -3 -10   57.60    5.50
  -9  -3 -10   90.04    6.71
  -9  -3 -10   90.60    6.00
 -10  -3 -10   39.97    3.19
 -10  -3 -10   34.30    3.59
   7  -4 -10   35.88    2.98
   6  -4 -10   38.09    3.54
   5  -4 -10   13.77    2.42
   4  -4 -10   96.96    6.47
  -4   4  10   92.14    7.12
   3  -4 -10  279.10   14.65
  -3   4  10  277.22   15.55
   2  -4 -10   71.10    5.12
  -2   4  10   71.17    5.80
   1  -4 -10  766.23   44.06
   1  -4 -10  731.49   35.64
  -1   4  10  779.31   36.40
   0  -4 -10  211.50   17.05
   0  -4 -10  196.27   11.29
   0  -4 -10  229.19   12.88
   0   4  10  236.32   11.89
  -1  -4 -10   84.06    6.53
   1   4  10  114.90    7.80
   1   4  10   85.30   12.28
  -2  -4 -10  542.15   27.45
   2   4  10  558.97   26.35
  -3  -4 -10  293.08   21.44
  -3  -4 -10  321.18   15.24
  -3  -4 -10  304.11   15.50
  -4  -4 -10  293.63   14.56
  -4  -4 -10  292.50   15.00
  -4  -4 -10  271.95   21.73
  -4  -4 -10  290.59   16.07
  -5  -4 -10  250.20   13.29
  -5  -4 -10  252.48   14.22
  -5  -4 -10  237.63   12.61
   5   4  10  227.75   17.79
  -6  -4 -10  402.86   21.29
  -6  -4 -10  417.11   22.01
  -6  -4 -10  423.12   20.64
  -7  -4 -10  529.61   26.32
  -7  -4 -10  506.46   25.30
  -8  -4 -10   47.76    4.73
  -8  -4 -10   42.33    4.06
  -9  -4 -10  150.75    8.57
  -9  -4 -10  136.61    9.09
 -10  -4 -10   80.03    5.72
 -10  -4 -10   81.85    5.24
   6  -5 -10   22.33    2.74
   5  -5 -10   94.42    6.37
   4  -5 -10  128.65    7.95
   3  -5 -10  191.52   10.83
   2  -5 -10  380.13   19.16
   1  -5 -10  197.26   10.84
   1  -5 -10  198.51   11.77
   0  -5 -10  274.87   14.35
   0  -5 -10  289.14   15.11
   0  -5 -10  279.71   20.89
  -1  -5 -10  116.89   11.59
  -1  -5 -10  112.03    6.87
  -1  -5 -10  106.40    7.33
   1   5  10  107.06   10.45
   1   5  10   96.82    6.33
  -2  -5 -10   11.17    2.02
  -2  -5 -10   14.90    2.94
   2   5  10   12.55    1.91
   2   5  10   13.35    4.37
  -3  -5 -10  431.80   22.46
  -3  -5 -10  430.80   27.72
  -3  -5 -10  437.82   20.81
  -3  -5 -10  433.71   21.21
  -4  -5 -10  433.53   20.85
  -4  -5 -10  451.78   22.68
  -4  -5 -10  397.95   27.84
  -4  -5 -10  445.30   21.37
  -5  -5 -10  270.46   13.83
  -5  -5 -10  265.17   14.34
  -5  -5 -10  273.53   15.44
  -6  -5 -10  213.75   12.29
  -6  -5 -10  222.47   11.73
  -6  -5 -10  212.66   12.95
  -7  -5 -10   78.65    6.12
  -7  -5 -10   71.88    9.77
  -7  -5 -10   74.24    5.47
  -8  -5 -10   50.23    4.33
  -8  -5 -10   50.86    4.84
  -9  -5 -10  388.07   20.08
  -9  -5 -10  391.02   19.46
 -10  -5 -10  285.44   14.98
 -10  -5 -10  290.86   14.53
   6  -6 -10   38.35    3.20
   5  -6 -10   25.46    3.07
   4  -6 -10   18.26    2.76
   3  -6 -10  533.07   26.77
  -3   6  10  561.35   28.76
   2  -6 -10  806.19   38.43
  -2   6  10  811.41   40.06
   1  -6 -10  111.38    8.15
   1  -6 -10  118.76    7.35
   0  -6 -10   37.90    3.56
   0  -6 -10   35.99    4.00
  -1  -6 -10  523.18   25.67
  -1  -6 -10  537.33   26.15
  -1  -6 -10  512.21   25.15
  -1  -6 -10  507.00   32.63
   1   6  10  519.60   31.34
  -2  -6 -10  138.60    9.09
  -2  -6 -10  149.41    8.47
   2   6  10  137.01   12.54
  -3  -6 -10  263.89   15.37
  -3  -6 -10  281.95   14.38
   3   6  10  285.33   20.61
  -4  -6 -10  346.00   17.21
  -4  -6 -10  345.31   18.48
  -4  -6 -10  328.13   16.57
  -5  -6 -10   65.46    5.90
  -5  -6 -10   69.50    5.13
  -5  -6 -10   68.19    4.68
  -6  -6 -10   68.07    4.78
  -6  -6 -10   60.03    5.71
  -6  -6 -10   67.98    5.25
  -7  -6 -10    9.11    2.27
  -7  -6 -10    9.57    2.14
  -7  -6 -10   11.48    2.86
  -8  -6 -10   74.99    5.32
  -8  -6 -10   68.77    5.65
  -9  -6 -10  354.90   18.22
  -9  -6 -10  351.20   17.71
 -10  -6 -10   91.13    5.63
 -10  -6 -10   88.85    5.86
   5  -7 -10    6.21    1.69
   4  -7 -10  185.99   10.47
  -4   7  10  180.34   11.76
   3  -7 -10  308.41   15.28
  -3   7  10  258.36   16.48
   2  -7 -10   20.84    3.09
  -2   7  10   30.03    4.67
   1  -7 -10  117.66    7.68
   0  -7 -10   85.99    6.71
   0  -7 -10   84.75    5.94
  -1  -7 -10  720.14   34.35
  -1  -7 -10  694.34   34.23
  -1  -7 -10  698.20   33.55
  -2  -7 -10  654.52   30.88
  -2  -7 -10  618.73   31.29
   2   7  10  629.67   48.05
  -3  -7 -10  325.43   16.68
  -3  -7 -10  323.86   17.68
  -4  -7 -10   56.54    4.51
  -4  -7 -10   61.92    5.56
  -5  -7 -10  721.73   35.21
  -5  -7 -10  700.70   33.83
  -6  -7 -10    3.60    1.96
  -6  -7 -10    2.14    1.46
  -6  -7 -10    2.12    1.30
  -7  -7 -10  164.37    9.09
  -7  -7 -10  164.58    9.64
  -7  -7 -10  152.73   10.07
  -8  -7 -10  283.75   14.79
  -8  -7 -10  294.81   15.40
  -9  -7 -10   62.19    4.48
  -9  -7 -10   60.85    4.80
 -10  -7 -10   77.96    4.89
 -10  -7 -10   74.79    5.04
   5  -8 -10   72.53    4.71
   4  -8 -10  114.92    6.98
  -4   8  10  107.73    8.15
   3  -8 -10   11.21    2.28
  -3   8  10    9.99    3.11
   2  -8 -10  259.76   14.08
  -2   8  10  257.46   15.52
   1  -8 -10   96.01    6.94
  -1   8  10  110.49    8.14
   0  -8 -10   28.29    4.24
   0  -8 -10   27.03    3.51
  -1  -8 -10  142.10    8.43
  -1  -8 -10  132.31    9.06
  -1  -8 -10  134.67    8.79
  -2  -8 -10   89.73    6.74
  -2  -8 -10   85.10    6.06
  -2  -8 -10   92.66    6.73
  -3  -8 -10   21.81    3.56
  -3  -8 -10   28.05    3.66
  -4  -8 -10  731.41   35.62
  -4  -8 -10  712.66   34.44
  -5  -8 -10  390.86   20.75
  -5  -8 -10  384.88   19.49
  -6  -8 -10  184.05   10.65
  -6  -8 -10  197.18   11.76
  -7  -8 -10   56.28    4.64
  -7  -8 -10   56.31    5.14
  -8  -8 -10  248.88   13.11
  -8  -8 -10  238.12   12.49
  -9  -8 -10   81.09    5.14
  -9  -8 -10   81.30    5.51
 -10  -8 -10  115.08    6.38
 -10  -8 -10  114.90    6.63
   4  -9 -10  137.57    7.47
  -4   9  10  116.48    8.37
   3  -9 -10   93.35    6.38
  -3   9  10  107.22    7.86
   2  -9 -10   54.14    4.77
  -2   9  10   65.29    6.12
   1  -9 -10  248.35   13.36
  -1   9  10  231.42   14.40
   0  -9 -10    0.49    1.30
  -1  -9 -10  171.15   10.12
  -1  -9 -10  171.11   11.07
  -1  -9 -10  174.55   10.56
  -2  -9 -10   51.65    4.51
  -2  -9 -10   48.76    4.96
  -2  -9 -10   49.61    4.86
  -3  -9 -10  201.32   11.89
  -3  -9 -10  188.09   11.50
  -4  -9 -10   11.67    2.70
  -4  -9 -10    9.33    2.26
  -5  -9 -10  104.95    7.57
  -5  -9 -10   96.25    6.68
  -6  -9 -10  201.80   11.34
  -6  -9 -10  208.27   12.36
  -7  -9 -10  249.08   13.17
  -7  -9 -10  241.23   13.88
  -8  -9 -10  341.82   17.30
  -9  -9 -10    6.99    1.63
 -10  -9 -10    1.57    0.96
   3 -10 -10   46.25    3.75
  -3  10  10   43.67    4.80
   2 -10 -10  250.57   13.39
  -2  10  10  250.06   14.76
   1 -10 -10   49.22    4.41
  -1  10  10   42.67    5.13
   0 -10 -10   81.32    6.23
   0  10  10   86.48    7.12
  -1 -10 -10   23.87    3.38
  -1 -10 -10   24.61    3.61
  -1 -10 -10   22.84    3.83
  -2 -10 -10   55.48    5.47
  -2 -10 -10   52.72    4.71
  -2 -10 -10   56.19    5.18
  -3 -10 -10   71.10    5.62
  -3 -10 -10   70.78    6.04
  -4 -10 -10  533.95   27.62
  -4 -10 -10  560.20   27.44
  -5 -10 -10   61.94    5.28
  -5 -10 -10   74.25    6.05
  -6 -10 -10  100.69    6.73
  -6 -10 -10   97.42    7.31
  -7 -10 -10   76.22    5.44
  -7 -10 -10   76.46    6.06
  -8 -10 -10    7.85    1.81
  -9 -10 -10   75.67    4.95
   3 -11 -10    6.45    1.43
  -3  11  10    5.70    1.93
   2 -11 -10    8.28    1.80
  -2  11  10   12.81    2.84
   1 -11 -10   10.19    2.19
  -1  11  10   13.31    3.11
   0 -11 -10   13.95    2.69
   0  11  10   20.35    3.69
  -1 -11 -10  207.85   11.60
  -1 -11 -10  190.08   11.62
   1  11  10  218.64   12.76
  -2 -11 -10  385.59   20.13
  -2 -11 -10  365.73   19.61
  -2 -11 -10  407.83   21.07
  -3 -11 -10  175.30   10.80
  -3 -11 -10  157.00   10.26
  -3 -11 -10  168.54    9.89
  -4 -11 -10   49.42    4.82
  -4 -11 -10   47.68    4.86
  -5 -11 -10   31.65    3.76
  -5 -11 -10   29.08    4.04
  -6 -11 -10   98.61    6.80
  -6 -11 -10   98.52    7.26
  -7 -11 -10   25.59    3.61
  -7 -11 -10   29.43    3.20
  -8 -11 -10  108.99    8.18
  -8 -11 -10  122.70    7.19
   2 -12 -10  125.62    6.94
  -2  12  10  124.63    7.91
   1 -12 -10   87.12    5.70
  -1  12  10   91.21    6.84
   0 -12 -10  150.41    8.86
   0  12  10  151.29    9.91
  -1 -12 -10   18.41    2.83
   1  12  10   16.73    3.28
  -2 -12 -10  225.51   12.87
  -2 -12 -10  231.18   12.61
   2  12  10  237.36   13.64
  -3 -12 -10   40.16    4.57
  -3 -12 -10   39.26    4.16
  -3 -12 -10   37.51    4.13
  -4 -12 -10    9.09    2.36
  -4 -12 -10    6.22    2.08
  -5 -12 -10   39.17    4.17
  -5 -12 -10   30.92    3.69
  -6 -12 -10   33.96    3.75
  -6 -12 -10   36.12    4.08
  -7 -12 -10   96.10    6.39
  -7 -12 -10   97.66    6.62
  -8 -12 -10   34.22    3.42
   0 -13 -10   46.44    3.50
   0  13  10   31.90    3.93
  -1 -13 -10   96.50    6.26
   1  13  10   98.63    7.11
  -2 -13 -10   26.16    3.39
  -2 -13 -10   29.88    3.35
   2  13  10   34.43    4.02
  -3 -13 -10   18.13    2.65
  -3 -13 -10   17.16    2.84
   3  13  10   17.54    3.08
  -4 -13 -10   55.63    4.60
  -4 -13 -10   61.03    5.13
  -4 -13 -10   60.78    5.06
  -5 -13 -10    2.03    1.47
  -5 -13 -10    1.22    1.37
  -6 -13 -10  155.67    9.13
  -6 -13 -10  140.80    8.69
  -7 -13 -10   59.35    4.71
  -2 -14 -10    8.94    1.70
   2  14  10    9.71    2.19
  -3 -14 -10   27.10    2.92
  -3 -14 -10   27.60    3.00
   3  14  10   23.03    3.21
  -4 -14 -10  100.21    6.51
  -4 -14 -10   97.48    5.92
   4  14  10   96.29    6.54
  -5 -14 -10  103.16    6.55
   5  14  10   89.39    7.13
  -6 -14 -10   11.60    2.15
  -2  -9  11   61.88    5.11
   1   9 -11  206.10   11.56
  -1  -9  11  203.98   11.39
   0   9 -11    2.52    1.55
  -4  -8  11   14.96    2.40
  -3  -8  11   82.62    5.89
   2   8 -11  191.88   11.15
  -2  -8  11  182.61   10.63
   1   8 -11   13.06    2.86
  -1  -8  11   11.85    2.39
   0   8 -11  145.19    9.48
   0  -8  11  139.55    8.53
  -1   8 -11   83.94    6.56
   1  -8  11   73.22    5.41
  -2   8 -11  106.52    7.62
   2  -8  11  115.44    6.79
   5   7 -11   91.24    5.61
  -4  -7  11  145.71    8.78
  -3  -7  11   36.17    4.30
   2   7 -11  158.71   10.50
  -2  -7  11  174.86   10.25
   1   7 -11   69.99    6.57
  -1  -7  11   76.74    5.92
   0   7 -11  102.09    8.03
   0  -7  11   98.11    6.94
  -1   7 -11  227.06   13.98
   1  -7  11  235.52   12.86
  -2   7 -11   95.86    7.85
   2  -7  11  107.63    6.80
  -3   7 -11  137.24    9.09
   3  -7  11  130.49    7.79
   6   6 -11   16.43    2.14
   5   6 -11   46.65    3.86
  -4  -6  11  121.38    7.26
   2   6 -11  213.09   12.96
  -2  -6  11  216.19   12.53
   1   6 -11   16.96    3.63
  -1  -6  11   13.90    2.88
   0   6 -11   81.68    7.26
   0  -6  11   74.67    6.04
  -1   6 -11  367.15   20.16
   1  -6  11  341.17   18.34
  -2   6 -11  333.23   19.09
   2  -6  11  336.61   17.42
  -3   6 -11   63.23    6.37
   3  -6  11   67.11    5.21
  -4   6 -11   93.97    7.23
   7   5 -11   54.49    3.86
   6   5 -11    7.37    1.70
  -6  -5  11    6.75    2.01
   5   5 -11   46.56    3.97
  -5  -5  11   42.42    4.50
  -4  -5  11  101.51    7.29
  -3  -5  11   50.55    4.21
   2   5 -11   19.90    3.85
   1   5 -11  273.94   16.20
   0   5 -11   59.11    6.26
  -1   5 -11  277.31   16.81
  -2   5 -11  534.29   28.43
  -3   5 -11   51.53    6.51
  -4   5 -11  156.65   10.89
  -5   5 -11   31.80    4.30
   7   4 -11   62.27    4.29
  -7  -4  11   57.18    4.82
   6   4 -11  267.84   13.54
  -6  -4  11  248.39   14.49
   5   4 -11   91.55    6.42
  -5  -4  11  105.56    7.66
  -4  -4  11  150.46   10.05
  -3  -4  11    8.22    2.48
  -3  -4  11    8.59    2.02
  -2  -4  11   69.75    5.85
   1   4 -11  150.52   10.27
  -1  -4  11  139.84    9.09
   0   4 -11  288.24   17.08
  -1   4 -11  206.84   13.59
  -2   4 -11  108.21    8.94
  -3   4 -11   73.57    7.27
  -4   4 -11   78.45    7.36
  -5   4 -11   35.07    5.03
   7   3 -11   15.76    2.28
  -7  -3  11   23.22    3.49
   6   3 -11   25.01    3.15
  -6  -3  11   28.28    4.33
   5   3 -11   62.50    4.65
  -5  -3  11   47.40    5.59
   4   3 -11   69.34    5.29
  -4  -3  11   68.98    6.59
  -3  -3  11   84.64    7.12
  -2  -3  11   28.90    4.28
   1   3 -11  695.62   34.63
  -1  -3  11  681.43   33.56
   0   3 -11   79.67    6.86
   0  -3  11   61.59    5.10
  -1   3 -11  404.65   22.32
   1  -3  11  399.66   20.14
  -2   3 -11   89.92    7.62
   2  -3  11   71.86    5.30
  -3   3 -11  105.28    8.89
  -4   3 -11  240.13   15.31
  -5   3 -11  202.08   13.18
   7   2 -11   42.73    3.55
  -7  -2  11   41.26    4.77
   6   2 -11   71.22    5.16
  -6  -2  11   63.54    6.44
   5   2 -11   22.33    3.21
  -5  -2  11   32.30    5.17
   4   2 -11    6.66    1.93
  -4  -2  11    3.67    2.42
   3   2 -11  178.39   10.40
  -3  -2  11  185.05   12.00
  -2  -2  11  329.34   18.21
   1   2 -11  145.76   10.41
  -1  -2  11  172.51   10.15
   0   2 -11  212.02   13.10
   0  -2  11  206.68   11.75
  -1   2 -11  399.19   21.73
   1  -2  11  387.42   19.67
  -2   2 -11  126.41    9.33
   2  -2  11  107.27    6.87
  -3   2 -11  285.76   16.77
   3  -2  11  256.05   13.67
  -4   2 -11  133.38    9.49
   4  -2  11   93.15    6.19
  -5   2 -11  355.78   20.85
   5  -2  11  379.13   18.16
   7   1 -11   90.82    5.86
  -7  -1  11   97.79    7.37
   6   1 -11  175.73    9.78
  -6  -1  11  163.32   11.50
   5   1 -11   62.16    4.86
  -5  -1  11   44.51    6.39
   4   1 -11   26.17    3.36
  -4  -1  11   27.31    4.90
   3   1 -11  328.34   16.33
  -3  -1  11  298.73   18.05
   2   1 -11   96.52    6.36
  -2  -1  11   99.41    7.74
   1   1 -11  904.10   43.40
  -1  -1  11  886.81   42.95
   0   1 -11  215.70   13.04
   0  -1  11  206.35   11.82
  -1   1 -11   93.54    7.54
   1  -1  11   82.03    5.83
  -2   1 -11  579.20   30.89
   2  -1  11  610.63   28.55
  -3   1 -11  247.90   15.57
   3  -1  11  257.81   13.15
  -4   1 -11  479.39   26.03
  -5   1 -11   85.98    7.57
  -5   1 -11   77.19    5.33
  -6   1 -11  572.90   26.97
  -6   1 -11  556.89   29.64
  -7   1 -11   33.28    2.95
  -7   1 -11   33.21    3.72
  -8   1 -11  103.92    6.57
   7   0 -11   42.22    3.54
  -7   0  11   51.42    4.88
   6   0 -11   46.83    4.08
  -6   0  11   41.94    5.64
   5   0 -11    1.84    1.45
  -5   0  11    2.69    2.15
   4   0 -11  143.24    8.82
  -4   0  11  144.43   10.68
   3   0 -11   24.77    3.22
   2   0 -11   98.60    6.43
  -2   0  11   99.25    7.77
  -1   0  11   49.78    4.77
   0   0 -11    8.16    2.50
   0   0  11    8.77    2.19
  -1   0 -11  172.81   11.69
   1   0  11  199.21   10.55
  -2   0 -11  639.33   30.85
   2   0  11  562.44   28.30
  -3   0 -11  374.02   20.81
  -4   0 -11   51.38    4.08
  -4   0 -11   47.10    6.06
  -5   0 -11   99.36    6.29
  -5   0 -11   93.01    8.13
  -6   0 -11  432.51   20.99
  -6   0 -11  421.92   21.97
  -6   0 -11  427.55   23.48
  -7   0 -11  315.38   15.95
  -7   0 -11  323.56   17.13
  -8   0 -11   57.42    4.81
  -8   0 -11   57.17    3.96
  -9   0 -11   67.19    4.72
   7  -1 -11    6.60    1.50
  -7   1  11   10.57    2.39
   6  -1 -11   59.63    4.54
  -6   1  11   53.94    5.69
   5  -1 -11   91.58    6.18
  -5   1  11   81.49    7.46
   4  -1 -11   21.77    3.11
  -4   1  11   19.29    4.13
   3  -1 -11  316.92   16.31
  -3   1  11  306.15   17.99
   2  -1 -11  409.83   21.04
  -2   1  11  440.73   22.74
   1  -1 -11   70.04    4.91
  -1   1  11   66.17    5.62
   0  -1 -11   49.79    4.88
   0   1  11   46.10    7.79
   0   1  11   50.42    4.38
  -1  -1 -11  455.02   24.06
   1   1  11  470.99   22.74
   1   1  11  462.38   28.85
  -2  -1 -11  898.06   44.02
   2   1  11  867.87   47.66
   2   1  11  942.70   42.06
  -3  -1 -11  113.29    8.61
  -4  -1 -11  228.46   14.35
  -4  -1 -11  243.82   12.54
  -5  -1 -11   33.07    3.39
  -5  -1 -11   37.22    5.42
  -5  -1 -11   34.80    3.84
  -6  -1 -11  474.28   25.20
  -6  -1 -11  467.24   23.93
  -6  -1 -11  464.91   22.93
  -7  -1 -11   12.55    2.72
  -7  -1 -11   12.47    2.20
  -8  -1 -11   25.81    2.90
  -8  -1 -11   33.83    3.98
  -9  -1 -11   93.43    6.27
  -9  -1 -11   95.83    5.53
   7  -2 -11   13.55    2.02
  -7   2  11   24.08    2.99
   6  -2 -11   35.15    3.43
  -6   2  11   39.72    4.81
   5  -2 -11   84.27    5.86
  -5   2  11   80.50    7.00
   4  -2 -11  105.99    6.92
  -4   2  11   95.65    8.02
   3  -2 -11   65.38    5.41
  -3   2  11   87.07    7.14
   2  -2 -11   92.27    6.05
  -2   2  11   82.77    7.00
   1  -2 -11  390.99   20.11
  -1   2  11  427.16   21.33
   0  -2 -11   93.84    7.48
   0   2  11  123.70   16.58
   0   2  11  119.47    7.39
  -1  -2 -11  380.83   19.91
   1   2  11  371.85   18.53
   1   2  11  359.76   23.93
  -2  -2 -11   55.19    5.30
   2   2  11   52.38    3.98
   2   2  11   53.02    6.96
  -3  -2 -11   22.04    2.81
  -3  -2 -11   18.29    3.64
  -3  -2 -11   22.68    9.39
   3   2  11   27.46    4.97
  -4  -2 -11   27.22    4.48
  -4  -2 -11   27.96    3.20
  -4  -2 -11   27.78    2.98
  -5  -2 -11  207.50   11.14
  -5  -2 -11  197.49   11.63
  -5  -2 -11  204.00   12.88
  -6  -2 -11  227.43   13.65
  -6  -2 -11  219.04   12.63
  -6  -2 -11  206.21   11.71
  -7  -2 -11  124.27    7.68
  -7  -2 -11  126.20    8.53
  -8  -2 -11   17.41    2.63
  -8  -2 -11   22.31    3.40
  -9  -2 -11   53.62    4.63
  -9  -2 -11   51.24    3.87
   7  -3 -11   41.88    3.22
   6  -3 -11  119.62    7.09
  -6   3  11  115.94    7.70
   5  -3 -11  457.22   22.30
  -5   3  11  441.63   23.32
   4  -3 -11  199.30   10.70
  -4   3  11  172.35   11.58
   3  -3 -11  310.56   16.29
  -3   3  11  315.63   17.62
   2  -3 -11   94.50    6.56
  -2   3  11  112.28    7.78
   1  -3 -11   94.15    6.06
  -1   3  11   89.43    6.69
   0  -3 -11 1142.72   53.83
   0   3  11 1142.21   53.31
  -1  -3 -11   96.43    7.10
   1   3  11   94.11    6.14
  -2  -3 -11  246.74   14.74
   2   3  11  269.21   13.36
  -3  -3 -11   79.14    5.27
  -3  -3 -11   87.04    6.79
  -3  -3 -11   72.68    9.91
   3   3  11   71.28    7.85
  -4  -3 -11   82.72    5.59
  -4  -3 -11   86.98    5.91
  -5  -3 -11  398.78   20.46
  -5  -3 -11  399.00   21.61
  -5  -3 -11  402.71   19.91
  -6  -3 -11   43.39    4.39
  -6  -3 -11   45.42    5.12
  -6  -3 -11   35.91    3.69
  -7  -3 -11   71.38    5.94
  -8  -3 -11   78.01    6.09
  -8  -3 -11   71.47    5.26
  -9  -3 -11  109.72    6.92
  -9  -3 -11  127.77    7.79
 -10  -3 -11   11.90    2.01
 -10  -3 -11   12.56    1.72
   6  -4 -11   19.42    2.54
   5  -4 -11   29.42    3.39
   4  -4 -11   15.53    2.54
  -4   4  11   14.20    3.06
   3  -4 -11   57.83    4.78
  -3   4  11   65.06    5.78
   2  -4 -11  311.27   15.31
  -2   4  11  268.44   15.80
   1  -4 -11  486.18   24.52
  -1   4  11  522.48   25.42
   0  -4 -11  127.88    9.09
   0  -4 -11  114.00    7.23
   0   4  11  130.31    7.88
  -1  -4 -11   37.33    4.12
   1   4  11   30.94    3.16
  -2  -4 -11   49.54    4.03
  -2  -4 -11   47.03    4.83
   2   4  11   61.39    4.14
  -3  -4 -11   36.06    4.82
  -3  -4 -11   29.06    6.33
  -3  -4 -11   34.39    3.21
  -4  -4 -11   35.46    3.42
  -4  -4 -11   29.50    4.42
  -4  -4 -11   32.62    3.12
  -5  -4 -11  166.07   10.85
  -5  -4 -11  165.32    9.76
  -5  -4 -11  162.79    9.29
  -6  -4 -11    9.36    2.04
  -6  -4 -11   11.84    3.17
  -6  -4 -11    6.25    2.04
  -7  -4 -11  275.85   15.00
  -7  -4 -11  260.88   14.15
  -7  -4 -11  270.80   15.61
  -8  -4 -11  309.22   15.84
  -8  -4 -11  304.90   16.58
  -9  -4 -11  105.54    6.44
  -9  -4 -11   99.70    6.91
 -10  -4 -11   37.81    3.38
 -10  -4 -11   37.55    3.03
   6  -5 -11   15.62    2.18
   5  -5 -11  104.20    6.67
   4  -5 -11   37.22    3.74
   3  -5 -11   38.20    3.83
   2  -5 -11  201.10   11.23
   1  -5 -11  257.06   13.61
   0  -5 -11  132.46    8.57
   0  -5 -11  128.52    7.78
   0   5  11  133.86    8.23
  -1  -5 -11  568.45   28.86
  -1  -5 -11  584.70   29.59
   1   5  11  631.34   28.72
  -2  -5 -11  362.09   18.10
  -2  -5 -11  354.21   19.25
   2   5  11  341.65   23.44
   2   5  11  378.14   17.88
  -3  -5 -11   70.32    6.14
  -3  -5 -11   67.79    5.03
   3   5  11   78.74    4.90
  -4  -5 -11   67.06    5.94
  -4  -5 -11   61.20    4.44
  -4  -5 -11   62.66    4.74
  -5  -5 -11    8.85    1.91
  -5  -5 -11    8.41    2.06
  -5  -5 -11    5.28    2.26
  -6  -5 -11   42.15    4.15
  -6  -5 -11   39.30    5.12
  -6  -5 -11   41.56    3.85
  -7  -5 -11  667.35   31.65
  -7  -5 -11  638.78   32.97
  -7  -5 -11  677.60   32.42
  -8  -5 -11  116.25    7.88
  -8  -5 -11  120.32    7.38
  -9  -5 -11   28.75    3.06
  -9  -5 -11   30.82    3.41
 -10  -5 -11   16.32    2.08
 -10  -5 -11   15.79    2.26
   5  -6 -11   12.44    2.20
   4  -6 -11   48.67    4.41
   3  -6 -11  116.39    7.53
   2  -6 -11  335.74   17.57
  -2   6  11  342.61   18.99
   1  -6 -11  375.81   19.17
   0  -6 -11  678.81   34.27
   0  -6 -11  724.63   33.60
  -1  -6 -11  133.83    8.22
  -1  -6 -11  133.36    8.54
  -1  -6 -11  131.73    8.84
  -2  -6 -11  353.30   19.18
  -2  -6 -11  363.13   18.40
  -3  -6 -11   94.80    7.18
  -3  -6 -11   85.16    5.96
   3   6  11   89.74    5.57
  -4  -6 -11   28.06    4.31
  -4  -6 -11   26.92    3.08
  -4  -6 -11   27.70    2.75
  -5  -6 -11  553.00   28.08
  -5  -6 -11  547.35   26.00
  -5  -6 -11  533.63   26.51
  -6  -6 -11  148.10    8.65
  -6  -6 -11  158.67   10.33
  -6  -6 -11  150.75    9.15
  -7  -6 -11  100.35    6.45
  -7  -6 -11   96.58    7.47
  -7  -6 -11  100.43    6.93
  -8  -6 -11   54.06    4.68
  -8  -6 -11   53.81    4.31
  -9  -6 -11   13.10    2.37
  -9  -6 -11   11.88    2.00
 -10  -6 -11   34.96    2.89
 -10  -6 -11   33.59    3.07
   5  -7 -11   43.98    3.52
   4  -7 -11   55.57    4.46
   3  -7 -11  209.22   11.50
  -3   7  11  201.27   12.74
   2  -7 -11  191.12   10.63
  -2   7  11  169.27   11.58
   1  -7 -11  384.79   19.31
  -1   7  11  366.88   20.25
   0  -7 -11  177.40   11.18
   0  -7 -11  177.86   10.26
  -1  -7 -11  132.42    8.62
  -1  -7 -11  126.76    8.46
  -1  -7 -11  121.89    7.81
  -2  -7 -11   46.33    4.50
  -2  -7 -11   51.36    4.89
  -3  -7 -11   98.95    7.38
  -3  -7 -11   93.93    6.53
  -4  -7 -11   38.80    3.64
  -4  -7 -11   32.53    4.58
  -5  -7 -11  147.45    8.56
  -5  -7 -11  146.76    9.76
  -5  -7 -11  129.80    7.78
  -6  -7 -11   84.06    6.03
  -6  -7 -11   87.60    7.01
  -6  -7 -11   86.50    5.56
  -7  -7 -11   78.15    5.32
  -7  -7 -11   79.21    6.43
  -7  -7 -11   79.38    5.79
  -8  -7 -11  142.74    8.62
  -8  -7 -11  141.45    8.15
  -9  -7 -11    8.19    1.72
  -9  -7 -11    8.55    1.89
 -10  -7 -11    5.99    1.30
 -10  -7 -11    8.08    1.55
   4  -8 -11    5.29    1.59
   3  -8 -11   75.93    5.26
  -3   8  11   58.82    5.82
   2  -8 -11   16.21    2.78
  -2   8  11   14.61    3.35
   1  -8 -11  100.98    6.91
  -1   8  11   97.68    7.78
   0  -8 -11   31.54    3.78
   0  -8 -11   26.82    4.18
  -1  -8 -11  498.48   25.46
  -1  -8 -11  518.06   26.04
  -1  -8 -11  499.85   24.93
  -2  -8 -11  394.58   20.53
  -2  -8 -11  383.99   20.50
  -3  -8 -11  252.25   14.84
  -3  -8 -11  267.69   14.45
  -4  -8 -11  474.77   24.56
  -4  -8 -11  467.70   23.47
  -5  -8 -11  118.36    8.52
  -5  -8 -11  117.79    7.50
  -6  -8 -11  150.47    8.84
  -6  -8 -11  141.63    9.67
  -7  -8 -11   96.06    6.40
  -7  -8 -11   90.88    6.94
  -8  -8 -11   39.37    3.69
  -8  -8 -11   35.97    3.12
  -9  -8 -11    0.10    0.98
  -9  -8 -11    1.09    0.93
 -10  -8 -11   77.75    4.76
 -10  -8 -11   73.37    4.45
   4  -9 -11    9.05    1.66
   3  -9 -11   13.95    2.32
  -3   9  11   15.78    3.07
   2  -9 -11   51.14    4.51
  -2   9  11   59.68    5.69
   1  -9 -11   42.22    4.11
  -1   9  11   42.59    4.92
   0  -9 -11  210.13   11.84
  -1  -9 -11  203.63   12.18
  -1  -9 -11  217.77   11.95
  -1  -9 -11  217.36   13.10
  -2  -9 -11   56.24    5.38
  -2  -9 -11   48.89    4.91
  -2  -9 -11   59.83    4.85
  -3  -9 -11  108.90    7.65
  -3  -9 -11  101.28    7.60
  -4  -9 -11   93.69    7.09
  -4  -9 -11   86.99    6.51
  -5  -9 -11   97.57    7.30
  -5  -9 -11   89.61    6.45
  -6  -9 -11   56.68    5.34
  -6  -9 -11   54.23    4.58
  -7  -9 -11  185.94   10.25
  -7  -9 -11  173.56   10.83
  -8  -9 -11   37.49    3.52
  -9  -9 -11   40.92    3.39
 -10  -9 -11   92.08    5.38
   3 -10 -11  159.01    8.33
  -3  10  11  140.99    9.14
   2 -10 -11    6.01    1.76
  -2  10  11    5.54    2.26
   1 -10 -11  368.79   17.99
  -1  10  11  327.56   18.92
   0 -10 -11  345.51   17.66
   0  10  11  332.25   18.68
  -1 -10 -11    1.07    1.33
  -1 -10 -11   -0.51    1.59
  -1 -10 -11    1.24    1.35
  -2 -10 -11  124.07    8.56
  -2 -10 -11  129.83    9.12
  -2 -10 -11  137.71    8.29
  -3 -10 -11   22.43    3.61
  -3 -10 -11   24.49    3.68
  -4 -10 -11  238.08   13.44
  -4 -10 -11  227.75   13.51
  -5 -10 -11   31.46    4.34
  -6 -10 -11  375.64   19.22
  -6 -10 -11  376.39   19.89
  -7 -10 -11   26.02    3.61
  -7 -10 -11   20.14    2.84
  -8 -10 -11   27.38    3.51
  -8 -10 -11   26.30    2.86
  -9 -10 -11   35.85    3.13
   2 -11 -11   77.56    4.95
  -2  11  11   70.86    5.65
   1 -11 -11   85.80    5.89
  -1  11  11   86.77    7.07
   0 -11 -11  400.90   19.93
   0  11  11  392.80   21.13
  -1 -11 -11   45.08    4.06
   1  11  11   37.01    4.90
  -2 -11 -11   28.48    3.77
  -2 -11 -11   34.80    3.99
  -2 -11 -11   31.11    4.36
  -3 -11 -11  360.78   19.07
  -3 -11 -11  372.89   19.51
  -3 -11 -11  348.01   18.30
  -4 -11 -11   38.97    4.40
  -4 -11 -11   42.52    4.50
  -5 -11 -11    1.24    1.46
  -5 -11 -11    2.00    1.60
  -6 -11 -11   10.62    2.61
  -6 -11 -11   11.73    2.42
  -7 -11 -11  137.85    8.43
  -7 -11 -11  126.63    7.99
  -8 -11 -11   49.11    3.95
  -8 -11 -11   44.95    3.96
  -9 -11 -11   20.33    2.41
   1 -12 -11   10.62    1.89
  -1  12  11   18.99    2.98
   0 -12 -11  418.85   20.36
   0  12  11  410.39   21.46
  -1 -12 -11   29.51    3.41
   1  12  11   27.77    4.04
  -2 -12 -11  135.66    7.70
  -2 -12 -11  119.91    7.73
   2  12  11  112.90    8.25
  -3 -12 -11   32.36    3.98
  -3 -12 -11   34.25    4.47
  -3 -12 -11   28.56    3.39
  -4 -12 -11   22.56    3.51
  -4 -12 -11   23.81    3.49
  -5 -12 -11   45.95    4.44
  -5 -12 -11   43.27    4.32
  -6 -12 -11   28.74    3.31
  -6 -12 -11   26.82    3.57
  -7 -12 -11  139.36    8.24
  -7 -12 -11  125.41    7.87
  -8 -12 -11  123.47    7.21
  -8 -12 -11  118.51    7.10
  -1 -13 -11  135.90    7.70
   1  13  11  137.95    8.65
  -2 -13 -11   37.82    3.31
  -2 -13 -11   32.38    3.31
   2  13  11   30.60    3.99
  -3 -13 -11   69.83    5.31
  -3 -13 -11   67.86    4.86
   3  13  11   79.45    5.93
  -4 -13 -11   78.20    5.77
  -5 -13 -11   31.35    3.63
  -5 -13 -11   30.43    3.73
  -6 -13 -11   91.66    6.24
  -6 -13 -11   93.77    6.32
  -7 -13 -11   85.64    5.66
  -7 -13 -11   90.17    5.84
  -3 -14 -11   57.60    4.95
   3  14  11   60.18    4.71
  -4 -14 -11   31.84    3.20
   4  14  11   35.01    3.48
  -5 -14 -11  122.00    7.31
  -6 -14 -11  172.63    9.47
   1   8 -12  496.74   24.58
   0   8 -12   93.62    6.62
   1   7 -12  177.15   10.98
   0   7 -12   69.42    6.24
  -1   7 -12   56.38    5.58
  -2   7 -12   28.38    4.05
  -3   7 -12   56.67    4.92
   5   6 -12   44.79    3.34
   4   6 -12  110.14    7.29
   1   6 -12  225.98   13.66
   0   6 -12  286.25   16.53
  -1   6 -12  338.06   18.97
  -2   6 -12  208.98   13.11
  -3   6 -12   61.52    5.78
  -4   6 -12   84.64    6.18
   6   5 -12  191.34    9.90
   5   5 -12   15.28    2.20
   4   5 -12   49.58    3.83
   1   5 -12  128.56    9.39
   0   5 -12   18.31    3.79
  -1   5 -12  177.41   12.04
  -2   5 -12  148.34   10.77
  -3   5 -12   97.59    8.04
  -4   5 -12   18.92    3.62
  -5   5 -12   32.74    6.09
   6   4 -12   44.21    3.60
  -6  -4  12   48.20    4.27
   5   4 -12   25.11    2.96
  -5  -4  12   23.21    3.46
   4   4 -12   13.49    2.23
  -4  -4  12   22.01    3.48
   3   4 -12  156.29    9.09
  -3  -4  12  164.54   10.18
  -2  -4  12  304.39   16.48
   1   4 -12   56.73    5.97
  -1  -4  12   60.44    5.20
   0   4 -12   60.80    6.35
  -1   4 -12  273.63   16.68
  -2   4 -12  485.58   26.40
  -3   4 -12  105.46    8.79
  -4   4 -12  159.84   10.92
  -5   4 -12   35.53    4.63
   6   3 -12   45.24    3.68
  -6  -3  12   44.60    4.61
   5   3 -12   21.96    2.82
  -5  -3  12   18.56    3.37
   4   3 -12   26.97    3.18
  -4  -3  12   21.45    3.81
   3   3 -12  270.40   14.08
  -3  -3  12  268.26   15.48
  -2  -3  12  412.01   21.63
   1   3 -12  293.43   17.28
  -1  -3  12  311.30   16.57
   0   3 -12  596.94   31.07
   0  -3  12  596.21   29.31
  -1   3 -12  438.43   24.09
   1  -3  12  430.49   21.75
  -2   3 -12   27.75    4.96
   2  -3  12   27.14    3.38
  -3   3 -12  140.12   10.63
  -4   3 -12  118.37    9.25
  -5   3 -12   35.94    5.11
   6   2 -12   27.69    3.27
  -6  -2  12   47.14    4.96
   5   2 -12   95.11    6.21
  -5  -2  12   84.99    7.29
   4   2 -12   91.07    6.22
  -4  -2  12   93.29    7.71
   3   2 -12  303.33   15.73
  -3  -2  12  304.39   17.37
  -2  -2  12  299.41   16.85
   1   2 -12  210.11   13.13
  -1  -2  12  215.22   12.63
   0   2 -12 1420.22   65.22
   0  -2  12 1310.74   63.38
  -1   2 -12  263.37   15.72
   1  -2  12  241.26   13.55
  -2   2 -12  179.38   12.31
   2  -2  12  173.11   10.02
  -3   2 -12  105.34    8.95
   3  -2  12  110.64    6.87
  -4   2 -12  187.49   12.93
   4  -2  12  200.83   10.62
  -5   2 -12   93.59    8.10
   5  -2  12  106.73    6.24
  -6   2 -12   81.16    7.07
   7   1 -12   17.40    2.10
  -7  -1  12   17.88    2.81
   6   1 -12   20.92    2.70
  -6  -1  12   17.00    3.44
   5   1 -12   52.36    4.42
  -5  -1  12   49.28    5.62
   4   1 -12  335.24   16.88
  -4  -1  12  311.84   18.56
   3   1 -12  281.38   14.79
  -3  -1  12  277.49   16.43
   2   1 -12   72.50    5.19
  -2  -1  12   61.38    6.07
  -1  -1  12  150.79    9.87
   0   1 -12   32.21    4.77
   0  -1  12   27.87    3.79
  -1   1 -12  451.90   24.28
   1  -1  12  443.42   22.40
  -2   1 -12  137.45   10.25
   2  -1  12  137.73    8.33
  -3   1 -12   54.91    6.14
   3  -1  12   57.66    4.52
  -4   1 -12  395.24   22.46
   4  -1  12  408.80   19.87
  -5   1 -12  133.00   10.24
   5  -1  12  148.19    8.17
  -6   1 -12   11.37    3.07
   6  -1  12    5.09    1.39
   7  -1  12   21.38    2.25
   6   0 -12   11.74    2.23
  -6   0  12    8.71    2.71
   5   0 -12   19.15    2.87
  -5   0  12   29.84    4.68
   4   0 -12   58.38    4.59
  -4   0  12   42.63    5.90
   3   0 -12    7.21    2.03
  -3   0  12   11.37    3.10
   2   0 -12   99.94    6.72
  -2   0  12  103.32    8.00
  -1   0  12   65.17    5.92
   0   0 -12  327.50   18.59
   0   0  12  347.99   17.95
  -1   0 -12  187.66   12.11
   1   0  12  183.07   10.64
  -2   0 -12  238.67   15.03
   2   0  12  252.84   13.23
  -3   0 -12  345.01   19.97
   3   0  12  354.08   17.65
  -4   0 -12   96.70    8.27
   4   0  12   98.76    6.28
  -5   0 -12   93.32    8.08
  -6   0 -12   99.56    8.29
  -6   0 -12  108.02    6.50
  -7   0 -12   11.17    1.89
  -8   0 -12    8.07    1.84
   6  -1 -12  194.36   10.34
  -6   1  12  186.49   11.48
   5  -1 -12   12.00    2.31
  -5   1  12   15.60    3.41
   4  -1 -12   73.18    5.45
  -4   1  12   73.44    6.88
   3  -1 -12  512.53   26.23
  -3   1  12  567.02   28.33
   2  -1 -12   28.26    3.47
  -2   1  12   20.10    3.95
  -1   1  12  617.99   30.91
   0  -1 -12  226.02   13.63
   0   1  12  233.40   13.02
  -1  -1 -12  263.32   15.44
   1   1  12  264.08   14.18
  -2  -1 -12  199.56   12.57
   2   1  12  192.61   10.85
  -3  -1 -12  981.04   49.94
   3   1  12 1068.85   47.81
  -4  -1 -12   14.52    3.73
  -5  -1 -12  249.75   15.36
  -6  -1 -12   52.12    4.09
  -6  -1 -12   44.56    5.76
  -6  -1 -12   44.44    4.32
  -7  -1 -12  158.69    9.52
  -7  -1 -12  158.28    8.83
  -8  -1 -12   85.73    5.95
  -8  -1 -12   89.30    5.40
  -9  -1 -12   10.31    2.00
   6  -2 -12  106.47    6.47
  -6   2  12  110.20    7.42
   5  -2 -12   19.22    2.67
  -5   2  12   19.21    3.81
   4  -2 -12   42.42    3.89
  -4   2  12   34.91    5.02
   3  -2 -12   41.64    3.99
  -3   2  12   38.42    5.22
   2  -2 -12  140.74    8.96
  -2   2  12  167.53   10.59
   1  -2 -12  391.11   19.27
  -1   2  12  375.09   20.32
   0  -2 -12   20.91    3.53
   0   2  12   14.87    2.88
  -1  -2 -12  802.40   39.20
   1   2  12  791.09   37.91
  -2  -2 -12  356.01   19.91
   2   2  12  365.26   18.24
  -3  -2 -12  159.17   10.91
   3   2  12  159.24    9.01
  -4  -2 -12  329.46   18.87
  -5  -2 -12  221.83   11.89
  -5  -2 -12  215.87   12.25
  -5  -2 -12  225.96   13.95
  -6  -2 -12  114.49    6.91
  -6  -2 -12  103.82    8.32
  -6  -2 -12  103.72    7.30
  -7  -2 -12   84.85    5.63
  -7  -2 -12   81.99    6.18
  -8  -2 -12   19.79    2.92
  -8  -2 -12   16.31    2.26
  -9  -2 -12   10.77    1.67
  -9  -2 -12   11.06    1.95
   6  -3 -12   37.14    3.27
  -6   3  12   38.34    3.99
   5  -3 -12  110.98    7.01
  -5   3  12  120.16    8.02
   4  -3 -12   19.97    2.93
  -4   3  12   19.46    3.54
   3  -3 -12   19.89    2.92
  -3   3  12   32.06    4.65
   2  -3 -12  142.37    8.32
  -2   3  12  127.71    9.17
   1  -3 -12   34.79    3.44
   0  -3 -12   15.61    3.12
   0   3  12   24.57    3.56
  -1  -3 -12  644.08   33.05
   1   3  12  690.71   32.29
  -2  -3 -12  895.49   43.57
   2   3  12  894.30   41.95
  -3  -3 -12   37.46    5.13
   3   3  12   47.56    3.78
  -4  -3 -12  325.43   16.48
  -4  -3 -12  320.29   16.61
  -4  -3 -12  328.55   18.49
  -5  -3 -12   61.63    5.03
  -5  -3 -12   63.75    4.86
  -5  -3 -12   65.69    6.26
  -6  -3 -12  104.90    7.18
  -6  -3 -12  103.55    8.18
  -6  -3 -12  103.21    6.65
  -7  -3 -12   36.84    3.58
  -7  -3 -12   34.64    4.87
  -7  -3 -12   39.18    4.10
  -8  -3 -12   53.65    4.71
  -8  -3 -12   53.76    4.17
  -9  -3 -12    5.08    1.35
  -9  -3 -12    4.30    1.53
   6  -4 -12   26.72    2.60
   5  -4 -12    3.79    1.52
   4  -4 -12   47.75    4.11
  -4   4  12   46.54    4.75
   3  -4 -12   73.78    5.29
  -3   4  12   63.17    5.85
   2  -4 -12   80.82    6.01
  -2   4  12   97.48    7.11
   1  -4 -12  236.74   12.66
  -1   4  12  234.27   13.52
   0   4  12  217.77   12.38
  -1  -4 -12  522.81   26.10
   1   4  12  496.06   25.02
  -2  -4 -12  103.61    8.13
   2   4  12  122.77    7.22
  -3  -4 -12  151.49    8.88
  -3  -4 -12  148.86   10.30
   3   4  12  163.42    8.87
  -4  -4 -12  170.28   11.09
  -4  -4 -12  158.51    9.34
  -5  -4 -12   28.77    4.63
  -5  -4 -12   29.95    3.23
  -5  -4 -12   33.90    3.60
  -6  -4 -12   93.67    6.57
  -6  -4 -12   85.74    7.43
  -6  -4 -12   97.01    6.26
  -7  -4 -12  119.67    7.91
  -7  -4 -12  120.77    7.44
  -7  -4 -12  120.77    8.76
  -8  -4 -12   19.99    2.70
  -8  -4 -12   19.14    2.99
  -9  -4 -12   45.44    4.01
  -9  -4 -12   49.56    3.73
   5  -5 -12   89.59    5.81
   4  -5 -12   50.62    4.28
   3  -5 -12   77.54    5.64
   2  -5 -12  100.87    6.74
   1  -5 -12   74.35    5.63
  -1   5  12   82.79    6.28
   0  -5 -12  733.04   34.99
   0   5  12  741.24   35.57
  -1  -5 -12  570.49   28.43
  -1  -5 -12  540.13   29.02
   1   5  12  577.53   27.55
  -2  -5 -12  576.45   29.15
  -2  -5 -12  584.80   28.01
   2   5  12  563.80   27.70
  -3  -5 -12   56.28    4.50
  -3  -5 -12   58.18    5.65
   3   5  12   57.48    4.30
  -4  -5 -12  470.12   23.20
  -4  -5 -12  473.05   24.97
  -5  -5 -12  202.59   12.68
  -5  -5 -12  195.46   11.11
  -6  -5 -12   33.72    3.65
  -6  -5 -12   33.84    3.41
  -6  -5 -12   34.87    4.92
  -7  -5 -12   30.47    3.25
  -7  -5 -12   29.90    3.53
  -7  -5 -12   30.22    4.44
  -8  -5 -12   63.50    5.19
  -8  -5 -12   65.92    4.78
  -9  -5 -12  102.92    6.30
  -9  -5 -12  107.06    6.71
 -10  -5 -12   79.80    4.67
 -10  -5 -12   77.83    4.91
   5  -6 -12   30.25    2.90
   4  -6 -12    3.86    1.51
   3  -6 -12  220.99   12.18
   2  -6 -12   96.90    6.66
   1  -6 -12  195.34   11.14
   0  -6 -12  107.94    6.96
   0  -6 -12   99.47    7.50
  -1  -6 -12  495.43   25.29
  -1  -6 -12  495.22   25.04
  -2  -6 -12   12.87    2.72
  -2  -6 -12   14.24    3.00
  -3  -6 -12  394.49   21.93
  -3  -6 -12  416.71   20.80
   3   6  12  424.26   20.36
  -4  -6 -12   23.09    3.15
  -4  -6 -12   25.16    4.24
   4   6  12   34.98    3.07
  -5  -6 -12   37.87    3.45
  -5  -6 -12   39.68    3.80
  -5  -6 -12   35.52    4.99
  -6  -6 -12  194.21   12.41
  -6  -6 -12  209.50   11.37
  -6  -6 -12  195.09   10.75
  -7  -6 -12   45.06    4.89
  -7  -6 -12   50.51    4.05
  -7  -6 -12   52.28    4.48
  -8  -6 -12   90.71    6.18
  -8  -6 -12   84.68    5.64
  -9  -6 -12   59.87    4.53
  -9  -6 -12   57.43    4.12
 -10  -6 -12   29.52    2.40
 -10  -6 -12   27.97    2.58
   4  -7 -12   41.59    3.59
   3  -7 -12  113.31    7.21
   2  -7 -12  131.95    7.91
  -2   7  12  104.85   11.36
   1  -7 -12  430.06   20.79
  -1   7  12  388.30   21.58
   0  -7 -12  151.88    9.13
   0  -7 -12  150.86   10.06
  -1  -7 -12  556.36   27.67
  -1  -7 -12  548.10   27.81
  -1  -7 -12  548.42   26.86
  -2  -7 -12    9.12    2.42
  -2  -7 -12    8.10    2.57
  -3  -7 -12  259.58   15.15
  -3  -7 -12  265.24   14.38
  -4  -7 -12   15.27    3.43
  -4  -7 -12   22.16    3.11
  -5  -7 -12   64.39    6.11
  -5  -7 -12   70.11    5.13
   5   7  12   59.91    4.44
  -6  -7 -12  205.81   11.11
  -6  -7 -12  221.60   11.82
  -6  -7 -12  206.43   12.81
  -7  -7 -12    7.22    1.88
  -7  -7 -12    8.51    2.37
  -7  -7 -12    7.56    1.65
  -8  -7 -12   39.35    3.71
  -8  -7 -12   36.74    3.24
  -9  -7 -12   14.23    1.98
  -9  -7 -12   19.41    2.56
 -10  -7 -12    9.36    1.57
   4  -8 -12   29.11    2.70
   3  -8 -12   49.83    4.17
   2  -8 -12  150.55    8.91
  -2   8  12  145.80    9.75
   1  -8 -12   82.89    5.83
  -1   8  12   72.39    6.47
   0  -8 -12   78.65    5.81
  -1  -8 -12  169.31    9.92
  -1  -8 -12  172.95   10.96
  -1  -8 -12  170.73   10.43
  -2  -8 -12  134.13    9.02
  -2  -8 -12  138.53    9.16
  -3  -8 -12 1143.53   56.39
  -3  -8 -12 1238.23   56.20
  -4  -8 -12  161.12    9.73
  -4  -8 -12  159.14   10.49
  -5  -8 -12    9.64    2.20
  -5  -8 -12   10.86    2.81
  -6  -8 -12  265.96   15.46
  -6  -8 -12  279.30   14.50
  -7  -8 -12   69.44    5.12
  -7  -8 -12   66.53    5.69
  -8  -8 -12   51.31    3.68
  -8  -8 -12   50.86    4.16
  -9  -8 -12  168.71    8.96
  -9  -8 -12  154.98    8.34
   3  -9 -12   43.64    3.52
  -3   9  12   40.71    4.26
   2  -9 -12   29.88    3.33
  -2   9  12   28.07    4.15
   1  -9 -12   86.45    5.89
  -1   9  12   72.61    6.48
   0  -9 -12  149.07    8.74
   0   9  12  137.89    9.56
  -1  -9 -12   56.21    4.67
  -1  -9 -12   53.90    4.85
  -1  -9 -12   54.74    5.56
  -2  -9 -12  300.09   16.38
  -2  -9 -12  301.22   16.82
  -3  -9 -12  287.89   15.84
  -3  -9 -12  278.29   15.76
  -4  -9 -12   47.80    4.71
  -4  -9 -12   52.96    5.07
  -5  -9 -12  141.14    8.85
  -5  -9 -12  144.07    9.52
  -6  -9 -12  176.69   11.11
  -6  -9 -12  184.07   10.41
  -7  -9 -12   26.67    3.69
  -7  -9 -12   27.04    3.42
  -8  -9 -12   38.97    3.51
  -8  -9 -12   37.24    3.83
  -9  -9 -12   69.25    4.64
   2 -10 -12   30.71    3.04
  -2  10  12   33.51    3.89
   1 -10 -12    8.57    1.96
  -1  10  12    7.08    2.34
   0 -10 -12    4.32    1.77
   0  10  12    4.34    2.15
  -1 -10 -12  404.44   20.31
  -2 -10 -12   10.14    2.12
  -2 -10 -12   10.10    2.68
  -2 -10 -12   10.87    2.52
  -3 -10 -12   86.68    6.61
  -3 -10 -12   89.98    6.95
  -4 -10 -12   59.40    5.32
  -4 -10 -12   57.32    5.23
  -5 -10 -12  359.03   18.85
  -5 -10 -12  340.84   18.27
  -6 -10 -12  328.47   17.39
  -6 -10 -12  343.64   18.02
  -7 -10 -12   15.79    2.60
  -7 -10 -12   13.36    2.69
  -8 -10 -12   14.85    2.53
  -8 -10 -12   16.77    2.46
  -9 -10 -12   72.15    4.71
   1 -11 -12   44.08    3.58
  -1  11  12   44.88    4.55
   0 -11 -12    6.40    1.76
   0  11  12    6.41    2.39
  -1 -11 -12  192.50   10.64
   1  11  12  191.62   11.70
  -2 -11 -12  156.20    9.53
  -2 -11 -12  167.76   10.53
  -2 -11 -12  156.57    9.18
  -3 -11 -12   63.43    5.51
  -3 -11 -12   76.56    6.27
  -4 -11 -12   69.72    5.87
  -4 -11 -12   70.54    5.91
  -5 -11 -12   43.48    4.56
  -5 -11 -12   48.89    4.60
  -6 -11 -12   24.16    3.28
  -6 -11 -12   33.50    4.16
  -7 -11 -12   14.15    2.52
  -7 -11 -12   12.95    2.36
  -8 -11 -12   77.94    5.30
  -8 -11 -12   79.50    5.38
   0 -12 -12  110.47    6.50
   0  12  12  111.98    7.46
  -1 -12 -12   53.69    4.26
   1  12  12   63.09    5.37
  -2 -12 -12   15.43    2.55
  -2 -12 -12   17.90    2.53
   2  12  12   29.56    3.97
  -3 -12 -12   92.03    6.30
  -3 -12 -12   90.24    6.86
  -4 -12 -12  122.57    8.09
  -4 -12 -12  118.44    7.75
  -5 -12 -12   17.18    2.87
  -5 -12 -12   14.53    2.72
  -6 -12 -12   57.16    4.93
  -6 -12 -12   58.82    4.81
  -7 -12 -12  108.38    6.86
  -7 -12 -12  113.22    7.02
  -2 -13 -12    6.21    1.53
   2  13  12    6.07    1.98
  -3 -13 -12   15.30    2.43
   3  13  12   23.34    3.23
  -4 -13 -12  174.84    9.85
  -5 -13 -12   72.60    5.46
  -5 -13 -12   78.70    5.45
  -6 -13 -12   66.46    4.75
  -6 -13 -12   59.21    4.65
  -7 -13 -12   12.65    2.48
   0   7 -13    1.10    1.44
   1   6 -13  518.65   25.90
   0   6 -13   43.78    4.77
  -1   6 -13  266.63   15.01
  -2   6 -13  131.53    8.68
  -3   6 -13  226.31   12.52
   1   5 -13  124.33    8.61
   0   5 -13  129.50    9.11
  -1   5 -13   90.87    7.44
  -2   5 -13   23.56    4.10
  -3   5 -13   17.35    3.41
  -4   5 -13    6.78    2.11
   5   4 -13   95.66    5.45
  -5  -4  13   82.54    5.92
   4   4 -13   21.57    2.59
  -4  -4  13   17.88    2.89
  -3  -4  13  108.32    7.37
  -2  -4  13  168.82   10.15
   1   4 -13  170.83   10.83
  -1  -4  13  161.23   12.54
   0   4 -13  235.88   14.39
  -1   4 -13   71.28    6.88
  -2   4 -13  106.67    8.60
  -3   4 -13   14.27    3.41
  -4   4 -13  439.89   22.98
  -5   4 -13  110.84    7.43
   5   3 -13   21.64    2.51
  -5  -3  13   14.62    2.79
   4   3 -13   16.68    2.37
  -4  -3  13   17.08    3.07
  -3  -3  13   18.12    3.27
  -2  -3  13  164.39   10.27
   1   3 -13  109.46    8.13
  -1  -3  13  106.24    7.50
   0   3 -13  220.75   13.49
   0  -3  13  206.03   12.09
  -1   3 -13   42.37    5.63
   1  -3  13   40.64    4.05
  -2   3 -13   98.47    8.31
   2  -3  13   93.54    6.38
  -3   3 -13   75.64    7.19
  -4   3 -13   23.74    4.17
  -5   3 -13   79.10    6.60
   6   2 -13   25.01    2.44
  -6  -2  13   30.23    3.58
   5   2 -13    7.19    1.72
  -5  -2  13    4.55    2.21
   4   2 -13  193.22   10.34
  -4  -2  13  178.51   11.48
   3   2 -13  131.24    7.63
  -3  -2  13  115.22    8.61
  -2  -2  13  451.70   23.49
   1   2 -13   42.73    7.53
  -1  -2  13   34.59    4.44
   0   2 -13   41.75    5.44
   0  -2  13   35.67    4.38
  -1   2 -13   98.48    8.23
   1  -2  13   97.04    6.82
  -2   2 -13  262.01   16.09
   2  -2  13  260.91   14.02
  -3   2 -13   25.37    4.64
   3  -2  13   30.21    3.20
  -4   2 -13   40.01    5.52
   4  -2  13   42.30    3.68
  -5   2 -13   37.04    5.14
  -6   2 -13   14.86    2.94
   6   1 -13    3.13    1.15
  -6  -1  13    2.74    1.70
   5   1 -13    2.26    1.36
  -5  -1  13    4.53    2.64
   4   1 -13  156.45    8.94
  -4  -1  13  149.96   10.28
   3   1 -13   84.04    5.88
  -3  -1  13   90.64    7.36
  -2  -1  13  284.41   16.23
  -1  -1  13   44.21    4.79
   0   1 -13  227.57   13.11
   0  -1  13  184.22   11.76
  -1   1 -13  165.39   11.21
   1  -1  13  157.33    9.74
  -2   1 -13  164.72   11.11
   2  -1  13  139.55    8.92
  -3   1 -13  284.31   17.35
   3  -1  13  295.72   15.23
  -4   1 -13   67.75    6.75
   4  -1  13   70.51    5.04
  -5   1 -13   54.02    5.86
   5  -1  13   56.88    4.22
  -6   1 -13   19.92    3.60
   6  -1  13   24.99    2.58
   6   0 -13   45.81    3.53
  -6   0  13   53.34    4.63
  -5   0  13   16.50    3.38
   4   0 -13   43.81    3.94
  -4   0  13   36.22    5.14
   3   0 -13   64.27    5.15
  -3   0  13   84.79    6.96
   2   0 -13  126.56    7.60
  -2   0  13  114.97    8.69
  -1   0  13  162.07   10.50
   0   0 -13    8.18    2.73
   0   0  13    4.19    1.90
  -1   0 -13   42.10    5.47
   1   0  13   27.99    3.71
  -2   0 -13   49.90    5.78
   2   0  13   52.94    4.60
  -3   0 -13  162.38   10.92
   3   0  13  134.40    8.52
  -4   0 -13  102.60    8.58
   4   0  13   98.07    6.43
  -5   0 -13  339.86   19.75
   5   0  13  358.60   17.51
  -6   0 -13   98.77    7.52
   6   0  13   83.88    5.52
   7   0  13    9.23    1.58
   6  -1 -13   31.48    2.65
  -6   1  13   22.22    3.16
   5  -1 -13   57.47    4.49
  -5   1  13   67.01    5.88
   4  -1 -13   69.99    5.18
  -4   1  13   71.51    6.64
   3  -1 -13   15.66    2.55
  -3   1  13   23.14    4.03
   2  -1 -13  134.53    8.63
  -2   1  13  164.51   10.40
  -1   1  13  604.45   30.48
   0  -1 -13  345.52   18.82
   0   1  13  334.39   18.16
  -1  -1 -13  376.58   20.79
   1   1  13  377.68   19.56
  -2  -1 -13   68.00    6.68
   2   1  13   69.50    5.39
  -3  -1 -13  283.09   17.41
   3   1  13  307.63   15.57
  -4  -1 -13  289.02   16.90
   4   1  13  270.77   14.39
  -5  -1 -13   51.88    5.81
   5   1  13   49.99    4.07
  -6  -1 -13  116.34    8.69
   8   1  13    8.53    1.47
   6  -2 -13    8.38    1.54
   5  -2 -13   51.70    4.11
  -5   2  13   55.31    5.10
   4  -2 -13   66.54    4.99
  -4   2  13   66.25    6.16
   3  -2 -13   31.32    3.56
  -3   2  13   35.53    4.98
   2  -2 -13   48.40    4.16
  -2   2  13   46.93    5.19
  -1   2  13  869.88   42.28
   0  -2 -13  125.99    8.53
   0   2  13  113.50    8.13
  -1  -2 -13   31.67    4.60
   1   2  13   19.25    3.12
  -2  -2 -13  105.07    8.39
   2   2  13  109.22    7.18
  -3  -2 -13   73.20    6.72
   3   2  13   61.58    4.91
  -4  -2 -13   98.44    7.97
   4   2  13   87.98    6.05
  -5  -2 -13   88.29    7.53
  -6  -2 -13   94.94    7.67
  -6  -2 -13   93.73    6.31
  -7  -2 -13  131.34    7.61
  -7  -2 -13  129.81    7.92
  -7  -2 -13  132.95    9.15
  -8  -2 -13    1.86    1.21
   5  -3 -13   52.38    3.90
  -5   3  13   44.10    4.35
   4  -3 -13   17.82    2.56
  -4   3  13   16.23    3.17
   3  -3 -13  159.42    8.88
  -3   3  13  136.77    9.72
   2  -3 -13   15.81    2.57
  -2   3  13   17.64    3.48
   1  -3 -13  889.31   42.24
  -1   3  13  913.12   43.61
   0   3  13  258.76   14.57
  -1  -3 -13  391.16   21.60
   1   3  13  422.71   21.00
  -2  -3 -13   55.14    5.60
   2   3  13   48.02    4.45
  -3  -3 -13  214.72   12.53
   3   3  13  169.93   10.35
  -4  -3 -13  151.13   10.62
   4   3  13  155.27    8.89
  -5  -3 -13    5.40    1.69
  -5  -3 -13    5.12    2.27
  -6  -3 -13   50.97    5.46
  -6  -3 -13   49.07    4.27
  -7  -3 -13   42.22    5.17
  -7  -3 -13   39.03    3.62
  -7  -3 -13   39.38    3.78
  -8  -3 -13   32.47    3.05
  -8  -3 -13   31.58    3.22
  -9  -3 -13   33.20    2.88
   5  -4 -13    8.49    1.70
   4  -4 -13   60.76    4.51
  -4   4  13   53.99    4.93
   3  -4 -13   40.55    3.82
  -3   4  13   47.30    4.81
   2  -4 -13  239.16   12.76
  -2   4  13  235.12   13.77
   1  -4 -13  176.20   10.24
  -1   4  13  192.95   11.44
   0   4  13   23.51    3.68
  -1  -4 -13  159.63   10.58
   1   4  13  167.59    9.95
  -2  -4 -13   70.77    6.61
   2   4  13   80.75    5.82
  -3  -4 -13  420.56   22.64
   3   4  13  415.77   20.81
  -4  -4 -13   47.02    4.04
  -4  -4 -13   37.26    5.26
   4   4  13   48.20    4.00
  -5  -4 -13  212.15   11.75
  -5  -4 -13  218.21   13.49
  -6  -4 -13   25.72    4.17
  -6  -4 -13   24.36    3.22
  -6  -4 -13   29.42    3.13
  -7  -4 -13   23.87    3.16
  -7  -4 -13   29.97    3.12
  -7  -4 -13   25.22    4.01
  -8  -4 -13   32.60    3.11
  -8  -4 -13   34.74    3.39
  -9  -4 -13    6.90    1.42
  -9  -4 -13    6.95    1.53
   5  -5 -13   21.89    2.43
   4  -5 -13   82.89    5.66
   3  -5 -13  216.41   11.84
   2  -5 -13  388.03   20.17
  -2   5  13  426.61   24.80
   1  -5 -13  292.39   15.45
  -1   5  13  298.89   16.18
   0   5  13   29.29    3.99
  -1  -5 -13  159.10   10.65
   1   5  13  180.36   10.28
  -2  -5 -13   86.29    7.11
   2   5  13   91.74    6.34
  -3  -5 -13   64.52    6.09
  -3  -5 -13   70.55    5.10
   3   5  13   52.52    4.54
  -4  -5 -13  108.16    6.90
  -4  -5 -13  101.58    8.21
   4   5  13  108.77    6.74
  -5  -5 -13   27.19    3.11
  -5  -5 -13   31.07    4.67
   5   5  13   19.66    2.76
  -6  -5 -13   66.65    4.91
  -6  -5 -13   67.03    5.10
  -6  -5 -13   67.86    6.27
  -7  -5 -13  282.53   14.69
  -7  -5 -13  273.25   15.70
  -8  -5 -13   67.72    4.96
  -8  -5 -13   68.61    4.72
  -9  -5 -13   10.81    1.69
  -9  -5 -13   12.82    1.98
   4  -6 -13   70.87    4.83
   3  -6 -13   27.69    3.27
   2  -6 -13  385.74   19.50
   1  -6 -13  163.77    9.61
   0  -6 -13  399.06   20.04
  -1  -6 -13   85.51    6.73
  -1  -6 -13   95.21    7.00
  -2  -6 -13  121.35    8.57
  -2  -6 -13  125.40    8.15
   2   6  13  112.46    7.50
  -3  -6 -13  214.20   13.23
  -3  -6 -13  224.93   12.33
   3   6  13  216.30   11.87
  -4  -6 -13  141.33    8.46
  -4  -6 -13  139.33    9.73
   4   6  13  132.66    8.01
  -5  -6 -13   10.19    2.86
  -5  -6 -13    6.50    1.82
   5   6  13    2.76    1.32
  -6  -6 -13  101.88    7.84
  -6  -6 -13  100.70    6.67
  -7  -6 -13   71.01    5.30
  -7  -6 -13   74.11    5.01
  -7  -6 -13   72.15    6.06
  -8  -6 -13  186.80   10.29
  -8  -6 -13  184.98    9.89
  -9  -6 -13   43.09    3.13
  -9  -6 -13   37.98    3.32
   4  -7 -13   79.65    5.02
   3  -7 -13   74.44    5.75
   2  -7 -13   60.57    4.85
   1  -7 -13   34.60    3.84
   0  -7 -13  638.03   30.74
  -1  -7 -13   62.74    5.53
  -1  -7 -13   72.82    6.05
  -2  -7 -13   58.02    5.31
  -2  -7 -13   58.77    5.39
  -3  -7 -13   70.24    5.66
  -3  -7 -13   64.75    6.00
  -4  -7 -13   60.46    5.00
  -4  -7 -13   62.12    5.88
  -5  -7 -13   15.68    2.77
  -5  -7 -13   15.25    3.34
   5   7  13   27.38    2.70
  -6  -7 -13  228.47   12.19
  -6  -7 -13  233.10   13.39
   6   7  13  210.21   11.53
  -7  -7 -13    2.48    1.70
  -7  -7 -13    5.69    1.76
  -8  -7 -13    4.72    1.55
  -9  -7 -13  110.08    6.47
   3  -8 -13   65.72    4.50
   2  -8 -13   88.89    5.92
   1  -8 -13   15.77    2.69
  -1   8  13   21.60    3.52
   0  -8 -13  140.07    8.43
   0   8  13  139.75    9.25
  -1  -8 -13   20.22    3.57
  -1  -8 -13   20.67    3.34
  -2  -8 -13  737.75   36.34
  -2  -8 -13  746.38   36.16
  -3  -8 -13  275.38   15.38
  -3  -8 -13  279.89   15.64
  -4  -8 -13  218.70   12.39
  -4  -8 -13  215.24   13.02
  -5  -8 -13   59.25    5.61
  -5  -8 -13   57.10    4.81
  -6  -8 -13   29.71    4.26
  -6  -8 -13   28.74    3.31
  -7  -8 -13   78.45    5.33
  -7  -8 -13   65.11    5.67
  -8  -8 -13   26.58    2.98
  -8  -8 -13   25.68    3.37
  -9  -8 -13   14.10    2.00
   2  -9 -13    7.58    1.72
  -2   9  13   11.91    3.38
   1  -9 -13  352.68   17.82
  -1   9  13  358.82   18.86
   0  -9 -13   38.92    3.73
   0   9  13   39.01    4.52
  -1  -9 -13   80.85    5.65
  -1  -9 -13   75.02    6.55
  -2  -9 -13  109.63    7.92
  -2  -9 -13  104.85    7.37
  -3  -9 -13   12.46    2.72
  -3  -9 -13   12.53    2.76
  -4  -9 -13  132.22    8.81
  -4  -9 -13  128.28    8.54
  -5  -9 -13   14.68    2.67
  -5  -9 -13   18.13    3.27
  -6  -9 -13   58.58    4.91
  -6  -9 -13   63.96    5.59
  -7  -9 -13    8.38    1.85
  -7  -9 -13    8.36    2.15
  -8  -9 -13    2.32    1.24
  -8  -9 -13    2.22    1.41
  -9  -9 -13    3.62    1.19
   2 -10 -13   12.95    1.89
   1 -10 -13  361.25   17.76
  -1  10  13  358.45   18.73
   0 -10 -13    1.31    1.18
   0  10  13    2.65    1.74
  -1 -10 -13   97.95    6.46
   1  10  13  100.33    7.29
  -2 -10 -13  143.86    9.49
  -2 -10 -13  134.80    8.64
  -3 -10 -13  135.21    9.06
  -3 -10 -13  133.26    8.64
  -4 -10 -13   59.26    5.32
  -4 -10 -13   60.54    5.39
  -5 -10 -13  196.22   11.62
  -5 -10 -13  195.15   11.38
  -6 -10 -13   18.89    3.05
  -6 -10 -13   14.60    2.58
  -7 -10 -13   75.50    5.45
  -7 -10 -13   75.58    5.67
  -8 -10 -13   26.08    2.96
  -8 -10 -13   26.74    2.82
   0 -11 -13   29.04    2.84
   0  11  13   24.54    3.51
  -1 -11 -13   76.51    5.45
   1  11  13   98.53    6.87
  -2 -11 -13   91.20    6.13
  -3 -11 -13    4.84    2.00
  -3 -11 -13    4.34    1.73
  -4 -11 -13    4.26    1.83
  -4 -11 -13    3.74    1.76
  -5 -11 -13    9.25    2.33
  -5 -11 -13    6.53    1.96
  -6 -11 -13   30.42    3.74
  -6 -11 -13   26.02    3.57
  -7 -11 -13   50.88    4.37
  -7 -11 -13   59.85    4.51
  -8 -11 -13    3.40    1.30
  -1 -12 -13  403.36   20.01
   1  12  13  426.21   20.96
   2  12  13   55.82    4.87
  -3 -12 -13   34.13    3.47
  -4 -12 -13   16.53    2.60
  -4 -12 -13   18.02    2.93
  -5 -12 -13   78.80    5.79
  -5 -12 -13   80.42    5.70
  -6 -12 -13   50.16    4.16
  -6 -12 -13   46.19    4.04
  -7 -12 -13    9.98    1.92
  -7 -12 -13   12.71    2.06
   3  13  13   99.49    6.53
  -4 -13 -13   32.16    3.16
   4  13  13   42.85    3.73
  -5 -13 -13    6.93    1.77
  -5 -13 -13   12.10    2.03
   0   5 -14  105.89    7.34
  -1   5 -14   97.98    7.13
  -2   5 -14   35.75    4.30
  -3  -4  14   16.48    2.65
   0   4 -14   53.44    5.23
  -1   4 -14  103.16    7.79
  -2   4 -14   60.59    5.84
  -3   4 -14   60.64    5.56
  -4   4 -14   29.31    3.80
  -4  -3  14  334.53   17.15
  -3  -3  14   23.40    3.39
  -2  -3  14   63.99    5.28
  -1  -3  14   16.39    2.86
   0   3 -14  140.81    9.13
   0  -3  14  108.74    7.69
  -1   3 -14  266.42   14.78
   1  -3  14  224.60   12.96
  -2   3 -14  182.44   11.83
  -3   3 -14   11.12    3.09
  -4   3 -14   54.40    5.33
  -5   3 -14    4.52    1.87
  -5  -2  14  124.20    7.64
   4   2 -14   13.15    2.02
  -4  -2  14   14.92    2.80
  -3  -2  14   29.43    3.95
  -2  -2  14   95.21    7.08
  -1  -2  14  125.81    8.42
   0   2 -14   33.74    4.82
   0  -2  14   26.76    3.71
  -1   2 -14  262.59   16.08
   1  -2  14  288.74   15.03
  -2   2 -14   49.60    6.19
   2  -2  14   51.26    4.40
  -3   2 -14   34.40    5.01
   3  -2  14   30.21    3.28
  -4   2 -14  254.86   15.03
   4  -2  14  251.89   13.02
  -5   2 -14   27.12    3.97
   5   1 -14   16.66    2.04
  -5  -1  14   15.37    2.75
   4   1 -14   28.80    2.89
  -4  -1  14   30.24    4.12
   3   1 -14  211.06   12.62
  -3  -1  14  217.58   12.77
  -2  -1  14  270.20   15.28
  -1  -1  14   40.16    4.93
   0   1 -14    6.76    2.51
   0  -1  14    7.67    2.22
  -1   1 -14   12.44    3.17
   1  -1  14   14.96    2.76
  -2   1 -14  468.12   25.50
   2  -1  14  483.16   23.78
  -3   1 -14  101.12    8.43
   3  -1  14  102.38    6.74
  -4   1 -14  103.31    7.92
   4  -1  14   76.90    5.62
  -5   1 -14   35.13    4.74
   5  -1  14   38.60    3.31
  -6   1 -14   88.35    6.43
   6  -1  14   81.81    5.09
   5   0 -14   63.02    4.14
  -5   0  14   59.79    5.07
   4   0 -14   78.46    4.94
  -4   0  14   64.02    5.97
   3   0 -14  114.87    6.93
  -3   0  14  111.80    8.17
  -2   0  14    4.37    2.06
  -1   0  14  429.47   22.51
   0   0 -14    1.13    1.67
   0   0  14    1.76    1.60
  -1   0 -14   26.07    4.45
   1   0  14   30.69    3.88
  -2   0 -14  725.84   37.50
   2   0  14  762.08   35.88
  -3   0 -14   23.44    4.60
   3   0  14   29.88    3.39
  -4   0 -14  151.65   10.59
   4   0  14  144.89    8.64
  -5   0 -14   82.66    7.06
   5   0  14   81.13    5.45
  -6   0 -14  125.35    8.27
   6   0  14  107.94    6.57
   7   0  14   11.72    1.71
   5  -1 -14   18.43    2.21
  -5   1  14   18.66    2.89
   4  -1 -14   34.19    3.18
  -4   1  14   30.50    4.21
   3  -1 -14    9.11    1.92
  -3   1  14   14.92    3.12
  -2   1  14   15.86    3.22
  -1   1  14  176.95   11.20
   0  -1 -14   92.69    7.35
   0   1  14  109.47    7.65
  -1  -1 -14  197.07   12.83
   1   1  14  219.83   12.27
  -2  -1 -14  113.25    8.55
   2   1  14   95.92    6.99
  -3  -1 -14   92.11    8.08
   3   1  14  108.28    6.93
  -4  -1 -14  361.76   20.06
   4   1  14  348.66   17.93
  -5  -1 -14  120.41    9.38
   5   1  14  147.52    8.16
  -6  -1 -14   16.39    3.18
   6   1  14   11.56    1.99
   7   1  14  297.21   14.63
   5  -2 -14   94.50    5.61
  -5   2  14   96.58    6.37
   4  -2 -14   14.62    2.19
  -4   2  14   13.62    2.88
   3  -2 -14  179.58    9.72
  -3   2  14  166.73   10.87
   2  -2 -14    4.55    1.48
  -2   2  14    1.92    1.80
  -1   2  14   21.56    3.72
   0   2  14   59.67    5.51
  -1  -2 -14  699.30   36.31
   1   2  14  771.41   35.86
  -2  -2 -14  214.26   13.52
   2   2  14  225.21   12.50
  -3  -2 -14   70.01    6.48
   3   2  14   58.79    4.95
  -4  -2 -14   24.79    4.36
   4   2  14   28.21    3.44
  -5  -2 -14   58.67    5.91
   5   2  14   57.35    4.48
  -6  -2 -14   35.22    4.73
   6   2  14   26.66    2.89
  -7  -2 -14   10.96    2.68
   7   2  14   11.69    2.05
   8   2  14   27.52    2.42
   4  -3 -14  150.08    8.49
  -4   3  14  155.83    9.38
   3  -3 -14    6.14    1.65
  -3   3  14    5.09    2.06
   2  -3 -14    1.63    1.14
  -2   3  14    2.96    1.89
  -1   3  14  199.69   12.14
   0   3  14  165.26   10.41
  -1  -3 -14  404.66   21.86
   1   3  14  419.00   21.31
  -2  -3 -14  362.15   19.51
   2   3  14  340.15   18.22
  -3  -3 -14  113.20    8.62
   3   3  14  107.38    7.22
  -4  -3 -14   55.80    5.90
   4   3  14   63.50    4.82
  -5  -3 -14  134.83    9.67
   5   3  14  130.92    7.87
  -6  -3 -14    2.48    1.93
  -6  -3 -14    2.41    1.75
   6   3  14    3.02    1.37
  -7  -3 -14   58.44    5.45
  -7  -3 -14   57.50    4.31
   7   3  14   64.47    4.37
  -8  -3 -14   39.69    3.04
   8   3  14   30.37    2.77
   4  -4 -14  262.26   13.36
   3  -4 -14   39.83    3.55
  -3   4  14   38.25    4.13
   2  -4 -14   27.06    3.29
  -2   4  14   30.49    4.18
   1  -4 -14    9.58    2.61
  -1   4  14   16.77    3.09
   0   4  14  112.25    7.89
  -1  -4 -14  189.85   11.79
   1   4  14  192.45   11.33
  -2  -4 -14  108.48    8.46
   2   4  14  121.97    7.78
  -3  -4 -14  241.36   14.45
   3   4  14  233.91   12.94
  -4  -4 -14   89.64    7.71
   4   4  14  102.54    6.58
  -5  -4 -14  195.83   11.01
  -5  -4 -14  210.89   12.97
   5   4  14  207.21   11.12
  -6  -4 -14  130.92    7.75
  -6  -4 -14  137.21    9.29
   6   4  14  124.53    7.60
  -7  -4 -14   33.81    3.17
  -7  -4 -14   30.38    4.14
  -8  -4 -14  102.45    5.98
   8   4  14   94.63    5.75
   4  -5 -14   31.93    2.88
   3  -5 -14  138.76    8.08
   2  -5 -14  322.06   16.48
   1  -5 -14   60.59    4.93
  -1   5  14   77.69    5.89
   0   5  14   31.77    4.21
  -1  -5 -14  243.78   13.41
   1   5  14  210.15   12.63
  -2  -5 -14   65.96    5.97
   2   5  14   64.28    5.19
  -3  -5 -14  188.42   12.06
   3   5  14  189.29   10.77
  -4  -5 -14   82.87    7.41
  -4  -5 -14   96.32    6.38
   4   5  14  102.96    6.45
  -5  -5 -14   68.56    6.27
  -5  -5 -14   61.45    4.79
   5   5  14   66.37    4.83
  -6  -5 -14  189.33   11.82
  -6  -5 -14  182.48   10.44
   6   5  14  198.61   10.39
  -7  -5 -14   85.76    6.93
  -7  -5 -14   97.72    6.19
   7   5  14  106.03    6.12
  -8  -5 -14  165.11    8.79
   8   5  14  153.47    8.48
   3  -6 -14   38.79    3.42
   2  -6 -14  131.49    7.80
   1  -6 -14   82.25    5.69
  -1  -6 -14  241.59   13.86
   1   6  14  251.77   13.96
  -2  -6 -14  208.17   13.01
   2   6  14  234.67   12.44
  -3  -6 -14   17.32    3.03
  -3  -6 -14   17.15    3.36
   3   6  14   27.39    3.32
  -4  -6 -14   71.22    6.58
  -4  -6 -14   71.25    5.62
   4   6  14   92.21    5.78
  -5  -6 -14   17.90    3.41
  -5  -6 -14   18.65    2.77
  -6  -6 -14   43.21    4.91
  -6  -6 -14   41.48    3.89
   6   6  14   53.47    3.90
  -7  -6 -14   47.45    3.92
  -7  -6 -14   38.11    4.36
   7   6  14   54.64    3.83
  -8  -6 -14  159.23    8.80
   8   6  14  159.88    8.49
   3  -7 -14   94.56    5.74
   2  -7 -14   39.33    3.59
   1  -7 -14   61.35    4.69
   0  -7 -14  120.32    7.56
  -1  -7 -14   13.23    2.81
  -1  -7 -14   15.85    3.28
  -2  -7 -14  305.08   16.37
  -2  -7 -14  293.47   16.34
  -3  -7 -14   80.15    6.14
  -3  -7 -14   77.30    6.43
  -4  -7 -14   15.08    3.08
   4   7  14   16.25    3.81
  -5  -7 -14  363.37   19.65
  -5  -7 -14  348.58   18.44
   5   7  14  377.36   18.10
  -6  -7 -14   26.45    3.96
  -6  -7 -14   25.24    3.32
   6   7  14   34.19    3.03
  -7  -7 -14   52.21    4.84
  -7  -7 -14   51.79    4.22
   7   7  14   59.22    3.99
  -8  -7 -14   94.91    5.65
   8   7  14   80.59    5.11
   2  -8 -14   28.11    2.77
   1  -8 -14    2.16    1.27
   0  -8 -14   60.38    4.30
   0   8  14   42.95    4.61
  -1  -8 -14  128.68    8.77
  -2  -8 -14  115.03    7.99
  -2  -8 -14  112.72    7.67
  -3  -8 -14   31.32    4.15
  -3  -8 -14   32.44    4.28
  -4  -8 -14  115.14    7.72
  -4  -8 -14  113.86    8.10
  -5  -8 -14   72.19    6.09
  -5  -8 -14   72.09    5.53
  -6  -8 -14   10.17    2.51
  -6  -8 -14   11.35    2.21
  -7  -8 -14   31.48    3.24
  -7  -8 -14   30.17    3.79
  -8  -8 -14   38.47    3.33
  -8  -8 -14   35.98    3.47
   2  -9 -14   31.24    3.38
   1  -9 -14   56.46    4.19
   0  -9 -14   14.40    2.33
   0   9  14   11.39    2.59
   1   9  14  233.19   13.22
  -2  -9 -14   65.97    5.21
  -2  -9 -14   63.77    5.79
  -3  -9 -14   82.88    6.51
  -3  -9 -14   83.44    6.38
  -4  -9 -14   62.05    5.37
  -4  -9 -14   63.03    5.60
  -5  -9 -14   29.46    3.56
  -5  -9 -14   35.16    3.96
  -6  -9 -14   99.14    6.99
  -6  -9 -14   98.02    6.57
  -7  -9 -14   24.56    2.94
  -7  -9 -14   27.44    3.49
  -8  -9 -14   27.17    3.74
  -8  -9 -14   21.45    2.54
   0 -10 -14   17.77    2.32
   0  10  14   14.71    2.73
   1  10  14   47.99    4.67
  -2 -10 -14   99.36    6.59
  -2 -10 -14  103.03    7.30
  -3 -10 -14   23.83    3.56
  -3 -10 -14   22.52    3.21
  -4 -10 -14   63.43    5.15
  -4 -10 -14   61.08    5.22
  -5 -10 -14   34.36    3.75
  -5 -10 -14   29.75    3.76
  -6 -10 -14   52.13    4.59
  -6 -10 -14   62.13    5.03
  -7 -10 -14   84.26    5.93
  -7 -10 -14   93.23    5.97
  -8 -10 -14   95.46    5.87
   1  11  14  116.22    7.51
   2  11  14    0.65    1.34
  -3 -11 -14   38.48    4.20
  -3 -11 -14   38.87    3.77
  -4 -11 -14  127.14    7.93
  -4 -11 -14  128.92    8.22
  -5 -11 -14    1.49    1.42
  -5 -11 -14    3.14    1.63
  -6 -11 -14    2.80    1.46
  -6 -11 -14    2.63    1.45
  -7 -11 -14   65.33    4.65
  -7 -11 -14   65.42    4.67
   2  12  14   35.49    3.59
  -3 -12 -14  115.97    8.58
   3  12  14  115.58    7.28
  -4 -12 -14   19.17    2.54
  -4 -12 -14   19.01    2.80
  -5 -12 -14   24.76    2.78
  -5 -12 -14   22.55    2.98
   0   4 -15   13.89    2.56
  -1   4 -15  160.04    9.65
  -2   4 -15   58.10    4.98
  -2  -3  15  123.05    7.54
  -1  -3  15   43.15    4.02
   0   3 -15    4.92    1.94
   0  -3  15    4.00    1.58
  -1   3 -15  256.34   14.43
  -2   3 -15  192.71   11.60
  -3   3 -15  116.76    7.98
  -3  -2  15    3.28    1.65
  -2  -2  15   82.32    6.11
  -1  -2  15   17.24    2.89
   0   2 -15  170.09   10.76
   0  -2  15  188.27   10.54
  -1   2 -15   61.94    5.68
   1  -2  15   59.77    4.87
  -2   2 -15   19.61    3.66
   2  -2  15   27.40    3.11
  -3   2 -15   59.84    5.73
   3  -2  15   57.68    4.38
  -4   2 -15   27.41    3.87
  -4  -1  15  171.31    9.76
  -3  -1  15   55.81    4.91
  -2  -1  15   18.55    3.30
  -1  -1  15   41.95    4.46
   0   1 -15  255.19   14.78
   0  -1  15  278.93   14.77
  -1   1 -15   88.45    7.33
   1  -1  15  100.42    6.83
  -2   1 -15   86.75    7.18
   2  -1  15   85.82    6.12
  -3   1 -15   93.04    7.55
   3  -1  15   95.59    6.25
  -4   1 -15   98.50    7.43
   4  -1  15   89.66    5.87
  -5   1 -15   28.28    3.75
   5  -1  15   23.67    2.52
  -4   0  15   17.32    2.85
  -3   0  15   19.97    3.30
  -2   0  15  133.12    8.87
  -1   0  15   13.40    2.81
   0   0 -15   21.24    3.47
   0   0  15   16.83    3.15
  -1   0 -15   40.92    5.14
   1   0  15   36.95    4.18
  -2   0 -15    7.51    2.70
   2   0  15    6.04    2.03
  -3   0 -15  212.65   12.92
   3   0  15  196.93   11.29
  -4   0 -15   76.82    6.61
   4   0  15   73.04    5.26
  -5   0 -15   65.93    5.75
   5   0  15   57.40    4.37
  -6   0 -15   22.09    3.24
   6   0  15   23.20    2.40
  -4   1  15   22.41    3.10
  -3   1  15    1.34    1.71
  -2   1  15  129.19    8.73
  -1   1  15    4.49    2.08
   0   1  15    2.46    1.81
  -1  -1 -15   17.53    3.35
   1   1  15   27.53    3.66
  -2  -1 -15   67.18    6.20
   2   1  15   68.34    5.51
  -3  -1 -15  174.85   11.45
   3   1  15  170.83   10.11
  -4  -1 -15   17.76    3.59
   4   1  15   22.77    3.01
  -5  -1 -15   49.24    5.15
   5   1  15   46.02    3.89
  -6  -1 -15  384.45   20.29
   6   1  15  398.70   19.04
  -4   2  15   92.76    6.26
   3  -2 -15   54.16    3.98
  -3   2  15   57.89    5.13
  -2   2  15  118.12    8.20
  -1   2  15  362.68   19.34
   0   2  15   93.38    7.08
  -1  -2 -15  218.37   13.32
   1   2  15  233.91   13.06
  -2  -2 -15   46.07    5.06
   2   2  15   50.01    4.65
  -3  -2 -15  330.32   18.80
   3   2  15  343.49   17.58
  -4  -2 -15   41.03    5.47
   4   2  15   55.88    4.52
  -5  -2 -15   63.56    5.97
   5   2  15   64.04    4.78
  -6  -2 -15   74.38    6.35
   6   2  15   84.98    5.38
   7   2  15   64.88    4.24
   3  -3 -15   34.77    3.24
  -3   3  15   42.33    4.19
  -2   3  15   50.65    4.92
  -1   3  15   12.74    2.82
   0   3  15  288.59   15.93
  -1  -3 -15  120.15    8.33
   1   3  15  116.96    8.01
  -2  -3 -15   65.24    5.92
   2   3  15   59.27    5.17
  -3  -3 -15   68.47    6.17
   3   3  15   51.05    4.77
  -4  -3 -15  177.36   11.67
   4   3  15  181.48   10.31
  -5  -3 -15    7.72    2.65
   5   3  15    5.68    1.64
  -6  -3 -15   92.54    6.88
   6   3  15   79.77    5.49
  -7  -3 -15   42.40    4.01
   7   3  15   27.18    2.78
   3  -4 -15  193.33   10.49
  -3   4  15  211.21   11.24
   2  -4 -15   38.00    3.41
  -2   4  15   34.78    3.94
  -1   4  15  125.57    8.47
   0   4  15    6.59    2.24
  -1  -4 -15  262.46   14.68
   1   4  15  258.90   14.45
  -2  -4 -15   10.76    2.68
   2   4  15   14.07    2.64
  -3  -4 -15   80.01    6.89
   3   4  15   87.61    6.20
  -4  -4 -15  113.28    8.67
   4   4  15  124.44    7.64
  -5  -4 -15   41.18    5.03
   5   4  15   31.83    3.39
  -6  -4 -15   83.44    6.57
   6   4  15   80.90    5.43
  -7  -4 -15   67.50    5.24
  -7  -4 -15   66.51    5.40
   7   4  15   65.28    4.49
   3  -5 -15   18.89    2.28
   2  -5 -15    9.54    1.84
  -1   5  15  105.13    7.29
   0   5  15   47.75    4.59
  -1  -5 -15   31.32    4.03
   1   5  15   34.51    3.94
  -2  -5 -15   91.29    7.12
   2   5  15   97.91    6.75
  -3  -5 -15   49.04    5.08
   3   5  15   44.37    4.17
  -4  -5 -15  131.48    9.27
   4   5  15  129.43    8.01
  -5  -5 -15  105.97    7.79
  -5  -5 -15  102.46    6.84
   5   5  15  100.92    6.58
  -6  -5 -15    5.76    1.53
  -6  -5 -15    3.23    1.91
   6   5  15    5.14    1.56
  -7  -5 -15   46.67    3.55
  -7  -5 -15   42.22    4.35
   7   5  15   40.08    3.41
   8   5  15   23.81    2.32
   2  -6 -15   84.03    5.34
   1   6  15   32.25    4.11
  -2  -6 -15  235.79   13.31
   2   6  15  226.63   12.69
  -3  -6 -15   62.24    5.64
   3   6  15   57.98    4.76
  -4  -6 -15   29.73    3.79
  -4  -6 -15   34.21    4.75
   4   6  15   31.76    3.34
  -5  -6 -15    7.46    2.42
  -5  -6 -15   11.01    2.28
   5   6  15    6.65    1.78
  -6  -6 -15  117.13    8.37
  -6  -6 -15  123.31    7.47
   6   6  15  137.30    7.48
  -7  -6 -15  303.85   14.85
  -7  -6 -15  295.70   15.61
   7   6  15  284.04   14.58
  -8  -6 -15    7.20    1.53
   8   6  15    7.39    1.44
   2  -7 -15   30.77    2.74
   1  -7 -15   13.54    2.03
  -2  -7 -15   32.92    3.79
  -3  -7 -15  242.29   13.68
  -3  -7 -15  235.58   13.21
  -4  -7 -15   23.97    3.42
  -4  -7 -15   23.23    3.66
  -5  -7 -15   21.64    3.11
  -5  -7 -15   23.06    3.56
   5   7  15   25.23    3.00
  -6  -7 -15   47.46    4.08
  -6  -7 -15   46.29    4.68
   6   7  15   55.64    3.93
  -7  -7 -15   35.28    3.62
  -7  -7 -15   33.40    3.09
   7   7  15   23.57    2.61
  -8  -7 -15    3.18    1.20
   1  -8 -15   19.77    2.36
  -2  -8 -15   47.78    4.76
  -2  -8 -15   50.39    4.44
  -3  -8 -15   38.46    4.17
  -3  -8 -15   38.51    4.07
  -4  -8 -15  140.55    9.05
  -4  -8 -15  141.92    8.77
  -5  -8 -15   69.42    5.83
  -5  -8 -15   77.58    5.58
  -6  -8 -15  121.36    8.27
  -6  -8 -15  124.06    7.56
  -7  -8 -15    3.90    1.59
  -7  -8 -15    5.09    1.51
   1   9  15   75.36    5.66
  -2  -9 -15  109.22    6.91
  -3  -9 -15   99.96    6.74
  -3  -9 -15   99.52    6.96
  -4  -9 -15   13.67    2.56
  -4  -9 -15   10.94    2.43
  -5  -9 -15  136.61    8.32
  -5  -9 -15  131.32    8.47
  -6  -9 -15  119.63    7.50
  -6  -9 -15  113.22    7.18
  -7  -9 -15    3.09    1.35
  -7  -9 -15    4.12    1.51
   1  10  15   68.19    5.18
   2  10  15   10.34    2.27
  -3 -10 -15    0.78    1.45
  -3 -10 -15    2.14    1.42
  -4 -10 -15   14.04    2.52
  -4 -10 -15   14.86    2.65
  -5 -10 -15   47.71    4.16
  -5 -10 -15   42.66    4.04
  -6 -10 -15   86.21    5.79
  -6 -10 -15   86.88    5.85
   3  11  15  114.93    7.14
  -4 -11 -15   52.89    4.35
  -4 -11 -15   49.17    3.94
  -5 -11 -15   43.69    3.92
  -5 -11 -15   47.59    3.83
  -1  -2  16  103.48    6.66
   0  -2  16   38.50    3.58
  -1   2 -16   70.82    5.10
   1  -2  16   52.04    4.30
  -2   2 -16    2.04    1.54
  -3   2 -16   34.36    3.62
  -2  -1  16   56.21    4.57
  -1  -1  16   16.47    2.75
   0  -1  16   23.70    3.15
  -1   1 -16   11.67    2.60
   1  -1  16   12.76    2.42
  -2   1 -16   84.81    6.54
   2  -1  16   94.16    6.07
  -3   1 -16   61.93    5.61
   3  -1  16   82.82    5.17
  -4   1 -16    4.55    1.75
  -2   0  16   30.16    3.48
  -1   0  16   51.53    4.65
   0   0  16   72.72    6.66
  -1   0 -16    3.68    1.82
   1   0  16    5.95    2.10
  -2   0 -16  120.25    8.13
   2   0  16  111.96    7.41
  -3   0 -16  103.00    7.41
   3   0  16   96.30    6.39
  -4   0 -16  205.92   11.65
   4   0  16  188.77   10.39
  -5   0 -16   55.00    4.66
  -2   1  16   29.99    3.84
  -1   1  16    3.45    1.89
   0   1  16   36.73    4.19
  -1  -1 -16   39.35    4.17
   1   1  16   37.42    4.14
  -2  -1 -16   66.97    5.92
   2   1  16   76.31    5.68
  -3  -1 -16   11.38    2.84
   3   1  16   19.51    2.84
  -4  -1 -16  144.83    9.52
   4   1  16  145.13    8.41
  -5  -1 -16  115.13    7.79
   5   1  16  118.48    6.87
  -2   2  16  192.69   11.06
  -1   2  16   88.41    6.59
   0   2  16   19.88    3.29
  -1  -2 -16   88.23    6.51
   1   2  16   87.24    6.47
  -2  -2 -16  379.18   20.10
   2   2  16  381.71   19.53
  -3  -2 -16   42.87    4.78
   3   2  16   50.10    4.37
  -4  -2 -16   52.88    5.34
   4   2  16   53.92    4.47
  -5  -2 -16   27.06    3.77
   5   2  16   23.02    2.78
  -6  -2 -16   14.82    2.66
   6   2  16   18.07    2.20
  -2   3  16   61.53    4.99
  -1   3  16  127.50    8.31
   0   3  16   25.00    3.57
  -1  -3 -16    7.18    2.23
   1   3  16    4.48    1.86
  -2  -3 -16  261.91   14.71
   2   3  16  260.62   14.21
  -3  -3 -16   60.34    5.46
   3   3  16   51.30    4.56
  -4  -3 -16    0.93    1.66
   4   3  16    1.23    1.37
  -5  -3 -16    9.22    2.63
   5   3  16    9.13    1.94
  -6  -3 -16   59.29    4.88
   6   3  16   54.59    4.05
  -2   4  16   87.99    5.95
  -1   4  16  140.68    8.76
   0   4  16  288.49   15.45
   1   4  16   61.93    5.21
  -2  -4 -16   77.37    5.87
   2   4  16   59.44    5.18
  -3  -4 -16   94.65    7.00
   3   4  16   84.10    6.12
  -4  -4 -16   34.58    4.45
   4   4  16   26.43    3.34
  -5  -4 -16   66.96    5.75
   5   4  16   64.00    4.81
  -6  -4 -16    9.52    2.31
   6   4  16    8.03    1.74
  -1   5  16   18.67    2.93
   0   5  16   22.03    3.18
   1   5  16  228.28   12.62
  -2  -5 -16   26.90    3.66
   2   5  16   23.80    3.28
  -3  -5 -16   47.36    4.79
   3   5  16   54.14    4.48
  -4  -5 -16    6.77    2.25
   4   5  16    4.80    1.66
  -5  -5 -16  238.77   13.32
   5   5  16  218.38   11.98
  -6  -5 -16   49.24    4.55
   6   5  16   52.44    3.96
  -2  -6 -16   13.05    2.46
   2   6  16    8.15    2.10
  -3  -6 -16   28.40    3.81
   3   6  16   27.20    3.36
  -4  -6 -16    0.43    1.48
   4   6  16    0.42    1.15
  -5  -6 -16   76.54    5.95
   5   6  16   69.67    4.98
  -6  -6 -16   35.80    3.80
   6   6  16   38.00    3.25
  -2  -7 -16   45.46    3.99
  -3  -7 -16  139.03    8.63
  -4  -7 -16   90.55    6.59
  -5  -7 -16   25.01    3.38
  -5  -7 -16   21.58    2.83
   5   7  16   13.99    2.30
  -6  -7 -16    8.50    1.82
  -6  -7 -16    7.15    1.96
   6   7  16    8.80    1.68
  -2  -8 -16   53.80    5.55
  -3  -8 -16   56.90    4.74
  -4  -8 -16   69.34    5.24
  -4  -8 -16   64.47    5.02
  -5  -8 -16   25.33    2.94
  -5  -8 -16   21.78    3.04
  -6  -8 -16    2.47    1.39
  -6  -8 -16    1.79    1.27
  -3  -9 -16   40.76    3.53
  -3  -9 -16   36.90    3.76
  -4  -9 -16  235.38   12.50
  -4  -9 -16  232.81   12.42
  -5  -9 -16    4.64    1.60
  -5  -9 -16    3.77    1.48
  -6  -9 -16   57.20    4.29
  -4 -10 -16    5.61    1.70
   0   0  17   18.52    2.65
   1   0  17    4.12    1.54
  -2   0 -17   77.29    5.95
   2   0  17   72.29    5.07
   0   1  17   16.96    2.65
   1   1  17   13.31    2.37
  -2  -1 -17   24.31    3.15
   2   1  17   19.41    2.80
  -3  -1 -17   19.95    2.95
   3   1  17   14.63    2.34
  -1   2  17   83.18    5.76
   0   2  17   52.99    4.51
   1   2  17    8.67    2.13
  -2  -2 -17   42.28    4.10
   2   2  17   46.06    4.12
  -3  -2 -17    9.89    2.35
   3   2  17    9.31    2.06
  -4  -2 -17  165.89    9.75
   4   2  17  163.56    9.08
  -1   3  17   19.58    2.87
   0   3  17   38.07    3.74
   1   3  17   59.71    4.86
  -2  -3 -17   25.77    3.38
   2   3  17   30.84    3.43
  -3  -3 -17    1.17    1.43
   3   3  17    3.66    1.57
  -4  -3 -17   37.21    3.97
   4   3  17   39.64    3.52
  -5  -3 -17    0.82    1.28
   5   3  17    0.25    1.01
   0   4  17   19.54    2.78
   1   4  17   51.90    4.42
  -2  -4 -17  192.40   10.51
   2   4  17  177.73   10.35
  -3  -4 -17   19.17    3.01
   3   4  17   17.04    2.64
  -4  -4 -17   69.49    5.50
   4   4  17   72.22    5.01
  -5  -4 -17   13.13    2.47
   5   4  17    8.31    1.76
   1   5  17    0.33    1.28
  -2  -5 -17    2.01    1.35
   2   5  17    1.43    1.36
  -3  -5 -17  135.42    8.08
   3   5  17  123.21    7.65
  -4  -5 -17   38.43    3.88
   4   5  17   36.05    3.42
  -5  -5 -17   39.19    3.70
   5   5  17   34.40    3.13
  -2  -6 -17   55.51    4.51
  -3  -6 -17  180.06    9.49
   3   6  17  146.99    8.88
  -4  -6 -17  100.20    6.60
   4   6  17   99.51    6.14
  -5  -6 -17    5.28    1.69
  -3  -7 -17   59.22    4.43
  -4  -7 -17   11.44    2.13
  -5  -7 -17  173.00    9.64

_computing_structure_solution     'SHELXT 2014/4 (Sheldrick, 2014)'
;
_shelx_hkl_checksum              89535
_shelx_shelxl_version_number     2014/7
_olex2_submission_special_instructions 'No special instructions were received'
loop_
_space_group_symop_operation_xyz
'x, y, z'
loop_
_atom_site_label
_atom_site_type_symbol
_atom_site_fract_x
_atom_site_fract_y
_atom_site_fract_z
_atom_site_U_iso_or_equiv
_atom_site_adp_type
_atom_site_occupancy
_atom_site_site_symmetry_order
_atom_site_calc_flag
_atom_site_refinement_flags_posn
_atom_site_refinement_flags_occupancy
_atom_site_disorder_assembly
_atom_site_disorder_group
Br2 Br 0.26236(14) -0.09792(6) 0.89231(6) 0.0821(4) Uani 1 1 d . . . .
Br1 Br 0.05917(13) 1.09792(8) 0.09783(8) 0.0928(4) Uani 1 1 d . . . .
S4 S 0.80226(10) 0.44392(8) 0.64717(6) 0.0143(2) Uani 1 1 d . . . .
S2 S 1.04366(11) 0.59036(9) 0.33349(7) 0.0174(2) Uani 1 1 d . . . .
S1 S 0.48980(12) 0.70462(9) 0.20352(7) 0.0221(2) Uani 1 1 d . . . .
S3 S 0.28585(12) 0.32902(10) 0.77721(8) 0.0253(3) Uani 1 1 d . . . .
Cl2 Cl -0.16077(14) 0.99664(10) 0.51395(9) 0.0358(3) Uani 1 1 d . . . .
Cl1 Cl 0.45828(17) 0.05244(12) 0.48559(10) 0.0432(3) Uani 1 1 d . . . .
O7 O 0.9032(3) 0.4413(3) 0.5645(2) 0.0210(7) Uani 1 1 d . . . .
O8 O 0.8483(3) 0.4470(3) 0.7317(2) 0.0185(6) Uani 1 1 d . . . .
O3 O 0.7210(3) 0.4677(3) 0.3985(2) 0.0199(7) Uani 1 1 d . . . .
O2 O 1.1343(3) 0.5873(3) 0.2459(2) 0.0230(7) Uani 1 1 d . . . .
O1 O 1.1005(3) 0.5958(3) 0.4129(2) 0.0247(7) Uani 1 1 d . . . .
O9 O 0.4004(3) 0.5767(3) 0.5918(2) 0.0217(7) Uani 1 1 d . . . .
O10 O 0.1508(3) 0.5462(3) 0.9046(2) 0.0227(7) Uani 1 1 d . . . .
O4 O 0.6333(3) 0.4727(3) 0.0901(2) 0.0193(6) Uani 1 1 d . . . .
O5 O 0.4908(4) 0.4565(3) -0.0852(2) 0.0310(9) Uani 1 1 d . . . .
N5 N 0.3141(4) 0.5598(3) 0.7464(2) 0.0167(7) Uani 1 1 d . . . .
H5 H 0.3347 0.5551 0.8024 0.020 Uiso 1 1 calc R . . .
N2 N 0.7140(4) 0.4703(3) 0.2463(2) 0.0161(7) Uani 1 1 d . . . .
H2 H 0.7641 0.4705 0.1907 0.019 Uiso 1 1 calc R . . .
O12 O -0.1648(5) 0.6791(3) 0.9589(3) 0.0399(10) Uani 1 1 d . . . .
O11 O -0.0898(4) 0.5457(4) 1.0833(2) 0.0392(10) Uani 1 1 d . . . .
N6 N -0.0311(4) 0.5238(3) 0.8502(2) 0.0165(7) Uani 1 1 d . . . .
H6 H -0.0714 0.5305 0.8005 0.020 Uiso 1 1 calc R . . .
N3 N 0.3991(4) 0.4955(3) 0.1443(2) 0.0165(7) Uani 1 1 d . . . .
H3 H 0.3375 0.4880 0.1945 0.020 Uiso 1 1 calc R . . .
O6 O 0.4563(4) 0.3323(3) 0.0445(3) 0.0338(8) Uani 1 1 d . . . .
N1 N 0.9966(4) 0.4790(3) 0.3630(2) 0.0147(7) Uani 1 1 d . . . .
H1 H 0.945(6) 0.468(4) 0.427(4) 0.018 Uiso 1 1 d R . . .
N4 N 0.6667(4) 0.5559(3) 0.6235(3) 0.0166(7) Uani 1 1 d . . . .
H4 H 0.639(6) 0.560(5) 0.573(4) 0.020 Uiso 1 1 d R . . .
C6 C 0.5358(5) 0.4819(4) 0.1539(3) 0.0153(8) Uani 1 1 d . . . .
C53 C 0.4138(4) 0.5709(4) 0.6740(3) 0.0154(8) Uani 1 1 d . . . .
C16 C 0.6291(5) 0.2683(4) 0.3023(3) 0.0202(9) Uani 1 1 d . . . .
H16 H 0.7079 0.2656 0.2546 0.024 Uiso 1 1 calc R . . .
C1AA C 0.5380(5) 0.3715(4) 0.3189(3) 0.0179(9) Uani 1 1 d . . . .
C47 C 0.0844(4) 0.6649(4) 0.6803(3) 0.0164(9) Uani 1 1 d . . . .
C0AA C 0.3506(5) 0.5224(4) 0.0525(3) 0.0181(9) Uani 1 1 d . . . .
H0AA H 0.2504 0.5179 0.0625 0.022 Uiso 1 1 calc R . . .
C35 C -0.1151(5) 0.5742(5) 1.0032(3) 0.0248(10) Uani 1 1 d . . . .
C21 C 0.7815(4) 0.4634(4) 0.3193(3) 0.0150(8) Uani 1 1 d . . . .
C38 C 0.0961(5) 0.5410(4) 0.8401(3) 0.0179(9) Uani 1 1 d . . . .
C52 C 0.0609(5) 0.7633(4) 0.7093(3) 0.0265(10) Uani 1 1 d . . . .
H52 H 0.0985 0.7605 0.7641 0.032 Uiso 1 1 calc R . . .
C49 C -0.0494(5) 0.7713(4) 0.5508(3) 0.0240(10) Uani 1 1 d . . . .
H49 H -0.0875 0.7744 0.4961 0.029 Uiso 1 1 calc R . . .
C17 C 0.6077(6) 0.1694(4) 0.3539(3) 0.0268(10) Uani 1 1 d . . . .
H17 H 0.6718 0.0995 0.3429 0.032 Uiso 1 1 calc R . . .
C7 C 0.5635(4) 0.4772(4) 0.2548(3) 0.0145(8) Uani 1 1 d . . . .
C24 C 1.1779(5) 0.3017(4) 0.2480(4) 0.0284(11) Uani 1 1 d . . . .
H24A H 1.1778 0.3454 0.1838 0.043 Uiso 1 1 calc GR . . .
H24B H 1.2256 0.2225 0.2473 0.043 Uiso 1 1 calc GR . . .
H24C H 1.2298 0.3262 0.2836 0.043 Uiso 1 1 calc GR . . .
C20 C 0.4234(5) 0.3741(4) 0.3890(3) 0.0218(9) Uani 1 1 d . . . .
H20 H 0.3606 0.4436 0.4020 0.026 Uiso 1 1 calc R . . .
C46 C 0.1721(6) 0.2352(4) 0.6739(3) 0.0280(11) Uani 1 1 d . . . .
H46 H 0.1548 0.3028 0.6283 0.034 Uiso 1 1 calc R . . .
C48 C 0.0268(5) 0.6698(4) 0.6014(3) 0.0214(9) Uani 1 1 d . . . .
H48 H 0.0396 0.6031 0.5818 0.026 Uiso 1 1 calc R . . .
C54 C 0.5492(4) 0.5817(4) 0.6998(3) 0.0158(8) Uani 1 1 d . . . .
H54 H 0.5774 0.5264 0.7587 0.019 Uiso 1 1 calc R . . .
C39 C 0.1719(4) 0.5551(4) 0.7380(3) 0.0162(8) Uani 1 1 d . . . .
C22 C 0.9440(5) 0.4433(4) 0.2951(3) 0.0162(9) Uani 1 1 d . . . .
H22 H 0.9619 0.4888 0.2316 0.019 Uiso 1 1 calc R . . .
C36 C -0.1040(5) 0.4940(4) 0.9434(3) 0.0183(9) Uani 1 1 d . . . .
H36 H -0.2043 0.5001 0.9358 0.022 Uiso 1 1 calc R . . .
C60 C 0.6299(6) 0.2157(5) 0.6274(4) 0.0296(11) Uani 1 1 d . . . .
H60 H 0.5807 0.2049 0.5837 0.036 Uiso 1 1 calc R . . .
C19 C 0.4000(6) 0.2755(5) 0.4403(3) 0.0293(11) Uani 1 1 d . . . .
H19 H 0.3213 0.2776 0.4881 0.035 Uiso 1 1 calc R . . .
C51 C -0.0158(6) 0.8647(4) 0.6599(4) 0.0305(11) Uani 1 1 d . . . .
H51 H -0.0315 0.9314 0.6802 0.037 Uiso 1 1 calc R . . .
C50 C -0.0699(5) 0.8678(4) 0.5799(3) 0.0227(10) Uani 1 1 d . . . .
C3 C 0.4437(5) 0.4357(4) -0.0050(3) 0.0213(10) Uani 1 1 d . . . .
C61 C 0.6568(6) 0.1368(5) 0.7092(4) 0.0306(12) Uani 1 1 d . . . .
C27 C 0.7635(5) 0.7180(4) 0.3695(3) 0.0249(10) Uani 1 1 d . . . .
H27 H 0.7574 0.6608 0.4229 0.030 Uiso 1 1 calc R . . .
C10 C 0.2676(7) 0.8938(5) 0.1669(4) 0.0373(13) Uani 1 1 d . . . .
H10 H 0.3046 0.8948 0.1031 0.045 Uiso 1 1 calc R . . .
C5 C 0.3436(6) 0.6388(4) 0.0006(4) 0.0299(11) Uani 1 1 d . . . .
H5A H 0.2793 0.6924 0.0379 0.045 Uiso 1 1 calc GR . . .
H5B H 0.3067 0.6537 -0.0594 0.045 Uiso 1 1 calc GR . . .
H5C H 0.4404 0.6463 -0.0105 0.045 Uiso 1 1 calc GR . . .
C41 C 0.2286(5) 0.2256(4) 0.7548(3) 0.0241(10) Uani 1 1 d . . . .
C58 C 0.7433(5) 0.3262(4) 0.6720(3) 0.0180(9) Uani 1 1 d . . . .
C63 C 0.7707(7) 0.2495(5) 0.7547(3) 0.0327(12) Uani 1 1 d . . . .
H63 H 0.8184 0.2608 0.7989 0.039 Uiso 1 1 calc R . . .
C23 C 1.0226(5) 0.3190(4) 0.2937(3) 0.0214(9) Uani 1 1 d . . . .
H23 H 0.9715 0.2965 0.2542 0.026 Uiso 1 1 calc R . . .
C37 C -0.0307(6) 0.3742(5) 0.9897(4) 0.0342(12) Uani 1 1 d . . . .
H37A H -0.0239 0.3246 0.9486 0.051 Uiso 1 1 calc GR . . .
H37B H -0.0873 0.3542 1.0491 0.051 Uiso 1 1 calc GR . . .
H37C H 0.0662 0.3665 1.0013 0.051 Uiso 1 1 calc GR . . .
C59 C 0.6726(5) 0.3103(4) 0.6071(3) 0.0242(10) Uani 1 1 d . . . .
H59 H 0.6540 0.3631 0.5501 0.029 Uiso 1 1 calc R . . .
C28 C 0.6449(6) 0.8120(5) 0.3496(4) 0.0321(11) Uani 1 1 d . . . .
H28 H 0.5575 0.8186 0.3902 0.039 Uiso 1 1 calc R . . .
C55 C 0.5178(5) 0.7006(4) 0.7157(3) 0.0220(9) Uani 1 1 d . . . .
H55 H 0.4307 0.7155 0.7628 0.026 Uiso 1 1 calc R . . .
C18 C 0.4907(5) 0.1751(4) 0.4219(3) 0.0263(10) Uani 1 1 d . . . .
C42 C 0.2500(7) 0.1273(5) 0.8220(4) 0.0373(13) Uani 1 1 d . . . .
H42 H 0.2828 0.1211 0.8795 0.045 Uiso 1 1 calc R . . .
C40 C 0.1899(5) 0.4530(4) 0.6986(3) 0.0180(9) Uani 1 1 d . . . .
H40A H 0.2448 0.4586 0.6356 0.022 Uiso 1 1 calc R . . .
H40B H 0.0941 0.4492 0.6933 0.022 Uiso 1 1 calc R . . .
C62 C 0.7269(7) 0.1547(5) 0.7723(4) 0.0369(13) Uani 1 1 d . . . .
H62 H 0.7460 0.1013 0.8290 0.044 Uiso 1 1 calc R . . .
C11 C 0.1477(8) 0.9784(5) 0.1928(5) 0.0455(15) Uani 1 1 d . . . .
C9 C 0.3316(5) 0.8075(4) 0.2372(4) 0.0259(10) Uani 1 1 d . . . .
C56 C 0.4825(7) 0.7900(4) 0.6267(4) 0.0364(13) Uani 1 1 d . . . .
H56A H 0.5696 0.7839 0.5819 0.055 Uiso 1 1 calc GR . . .
H56B H 0.4475 0.8640 0.6421 0.055 Uiso 1 1 calc GR . . .
H56C H 0.4079 0.7793 0.5991 0.055 Uiso 1 1 calc GR . . .
C25 C 1.0165(6) 0.2447(5) 0.3909(4) 0.0346(12) Uani 1 1 d . . . .
H25A H 1.0658 0.1666 0.3867 0.052 Uiso 1 1 calc GR . . .
H25B H 0.9157 0.2541 0.4167 0.052 Uiso 1 1 calc GR . . .
H25C H 1.0643 0.2655 0.4318 0.052 Uiso 1 1 calc GR . . .
C13 C 0.1554(7) 0.8946(5) 0.3527(5) 0.0476(16) Uani 1 1 d . . . .
H13 H 0.1178 0.8943 0.4163 0.057 Uiso 1 1 calc R . . .
C14 C 0.2756(6) 0.8078(5) 0.3295(4) 0.0345(12) Uani 1 1 d . . . .
H14 H 0.3195 0.7485 0.3775 0.041 Uiso 1 1 calc R . . .
C31 C 0.9011(7) 0.7934(5) 0.2347(4) 0.0396(14) Uani 1 1 d . . . .
H31 H 0.9895 0.7876 0.1954 0.048 Uiso 1 1 calc R . . .
C26 C 0.8903(5) 0.7090(4) 0.3104(3) 0.0204(9) Uani 1 1 d . . . .
C57 C 0.6412(6) 0.7088(4) 0.7563(4) 0.0290(11) Uani 1 1 d . . . .
H57A H 0.6588 0.6532 0.8146 0.044 Uiso 1 1 calc GR . . .
H57B H 0.6162 0.7836 0.7689 0.044 Uiso 1 1 calc GR . . .
H57C H 0.7284 0.6951 0.7115 0.044 Uiso 1 1 calc GR . . .
C12 C 0.0904(7) 0.9813(5) 0.2833(5) 0.0512(17) Uani 1 1 d . . . .
H12 H 0.0085 1.0410 0.2983 0.061 Uiso 1 1 calc R . . .
C29 C 0.6512(7) 0.8966(5) 0.2720(4) 0.0346(13) Uani 1 1 d . . . .
C45 C 0.1408(7) 0.1450(5) 0.6599(4) 0.0381(13) Uani 1 1 d . . . .
H45 H 0.1015 0.1520 0.6046 0.046 Uiso 1 1 calc R . . .
C8 C 0.4659(5) 0.5835(4) 0.2887(3) 0.0166(8) Uani 1 1 d . . . .
H8A H 0.4911 0.5833 0.3498 0.020 Uiso 1 1 calc R . . .
H8B H 0.3638 0.5859 0.2968 0.020 Uiso 1 1 calc R . . .
C64 C 0.6086(7) 0.0354(5) 0.7290(5) 0.0421(14) Uani 1 1 d . . . .
H64A H 0.5441 0.0446 0.6834 0.063 Uiso 1 1 calc GR . . .
H64B H 0.5574 0.0261 0.7921 0.063 Uiso 1 1 calc GR . . .
H64C H 0.6930 -0.0307 0.7242 0.063 Uiso 1 1 calc GR . . .
C44 C 0.1653(7) 0.0472(5) 0.7238(5) 0.0444(14) Uani 1 1 d . . . .
H44 H 0.1437 -0.0142 0.7141 0.053 Uiso 1 1 calc R . . .
C30 C 0.7815(7) 0.8870(5) 0.2163(4) 0.0412(14) Uani 1 1 d . . . .
H30 H 0.7894 0.9455 0.1645 0.049 Uiso 1 1 calc R . . .
C43 C 0.2229(8) 0.0400(5) 0.8037(5) 0.0471(16) Uani 1 1 d . . . .
C2 C 0.5404(8) 0.2403(6) -0.0005(5) 0.0508(17) Uani 1 1 d . . . .
H2A H 0.5339 0.2635 -0.0686 0.061 Uiso 1 1 calc R . . .
H2B H 0.5015 0.1770 0.0242 0.061 Uiso 1 1 calc R . . .
C32 C 0.5182(8) 0.9952(5) 0.2478(5) 0.0460(16) Uani 1 1 d . . . .
H32A H 0.4722 0.9815 0.2015 0.069 Uiso 1 1 calc GR . . .
H32B H 0.5462 1.0627 0.2219 0.069 Uiso 1 1 calc GR . . .
H32C H 0.4503 1.0052 0.3043 0.069 Uiso 1 1 calc GR . . .
C34 C -0.1811(13) 0.7646(8) 1.0095(7) 0.084(4) Uani 1 1 d . . . .
H34A H -0.2453 0.7537 1.0684 0.101 Uiso 0.70(3) 1 calc R P A 2
H34B H -0.0859 0.7567 1.0261 0.101 Uiso 0.70(3) 1 calc R P A 2
H34C H -0.2808 0.8167 1.0086 0.101 Uiso 0.30(3) 1 calc R P A 3
H34D H -0.1652 0.7293 1.0755 0.101 Uiso 0.30(3) 1 calc R P A 3
C1 C 0.6910(10) 0.2053(8) 0.0170(6) 0.067(2) Uani 1 1 d . . . .
H1A H 0.7345 0.2628 -0.0177 0.101 Uiso 1 1 calc GR . . .
H1B H 0.7437 0.1351 -0.0036 0.101 Uiso 1 1 calc GR . . .
H1C H 0.6957 0.1944 0.0840 0.101 Uiso 1 1 calc GR . . .
C2AA C -0.236(4) 0.8664(11) 0.9600(10) 0.138(14) Uani 0.70(3) 1 d . P A 2
H2AA H -0.2201 0.8642 0.8935 0.207 Uiso 0.70(3) 1 calc GR P A 2
H2AB H -0.1878 0.9158 0.9703 0.207 Uiso 0.70(3) 1 calc GR P A 2
H2AC H -0.3392 0.8945 0.9796 0.207 Uiso 0.70(3) 1 calc GR P A 2
C4 C -0.086(3) 0.822(2) 0.9716(15) 0.043(8) Uani 0.30(3) 1 d . P A 3
H4A H 0.0122 0.7724 0.9784 0.065 Uiso 0.30(3) 1 calc GR P A 3
H4B H -0.1059 0.8833 1.0039 0.065 Uiso 0.30(3) 1 calc GR P A 3
H4C H -0.0975 0.8531 0.9052 0.065 Uiso 0.30(3) 1 calc GR P A 3
loop_
_atom_site_aniso_label
_atom_site_aniso_U_11
_atom_site_aniso_U_22
_atom_site_aniso_U_33
_atom_site_aniso_U_23
_atom_site_aniso_U_13
_atom_site_aniso_U_12
Br2 0.1576(10) 0.0231(3) 0.0569(5) 0.0071(3) -0.0215(5) -0.0239(4)
Br1 0.1029(8) 0.0410(5) 0.0925(7) 0.0081(4) -0.0301(6) 0.0234(5)
S4 0.0132(4) 0.0196(5) 0.0119(4) -0.0032(4) -0.0034(3) -0.0062(4)
S2 0.0142(5) 0.0256(5) 0.0171(5) -0.0094(4) 0.0010(4) -0.0099(4)
S1 0.0238(5) 0.0210(5) 0.0214(5) -0.0030(4) 0.0020(4) -0.0105(5)
S3 0.0219(5) 0.0225(6) 0.0312(6) -0.0047(5) -0.0121(4) -0.0026(5)
Cl2 0.0362(6) 0.0252(6) 0.0319(6) -0.0011(5) -0.0044(5) 0.0046(5)
Cl1 0.0513(8) 0.0295(7) 0.0460(8) 0.0102(6) -0.0042(6) -0.0228(6)
O7 0.0174(14) 0.0301(17) 0.0192(15) -0.0075(13) -0.0016(12) -0.0106(13)
O8 0.0150(14) 0.0265(16) 0.0181(15) -0.0054(12) -0.0083(11) -0.0076(12)
O3 0.0158(14) 0.0318(17) 0.0130(14) -0.0017(13) -0.0037(11) -0.0096(13)
O2 0.0203(16) 0.0290(17) 0.0234(16) -0.0104(14) 0.0043(12) -0.0124(14)
O1 0.0210(16) 0.0350(19) 0.0285(17) -0.0175(15) -0.0046(13) -0.0128(15)
O9 0.0174(15) 0.0334(18) 0.0156(15) -0.0006(13) -0.0049(11) -0.0114(14)
O10 0.0208(15) 0.0390(19) 0.0143(15) -0.0050(13) -0.0046(12) -0.0158(15)
O4 0.0134(14) 0.0305(17) 0.0158(14) -0.0056(13) -0.0016(11) -0.0087(13)
O5 0.0221(17) 0.055(2) 0.0137(16) -0.0089(16) -0.0019(13) -0.0079(17)
N5 0.0143(17) 0.0245(19) 0.0135(17) -0.0025(14) -0.0025(13) -0.0093(15)
N2 0.0126(17) 0.0224(19) 0.0140(17) -0.0019(14) -0.0023(13) -0.0072(15)
O12 0.056(3) 0.032(2) 0.033(2) -0.0167(17) 0.0101(17) -0.0176(19)
O11 0.043(2) 0.078(3) 0.0146(17) -0.0119(18) 0.0034(14) -0.043(2)
N6 0.0152(17) 0.027(2) 0.0107(17) -0.0045(14) -0.0018(13) -0.0098(15)
N3 0.0133(16) 0.0256(19) 0.0110(16) -0.0043(14) -0.0030(13) -0.0056(15)
O6 0.047(2) 0.0224(18) 0.0323(19) -0.0084(15) -0.0068(16) -0.0082(16)
N1 0.0129(16) 0.0215(18) 0.0116(17) -0.0036(14) -0.0030(13) -0.0069(14)
N4 0.0145(17) 0.0213(19) 0.0123(17) 0.0017(14) -0.0039(14) -0.0061(15)
C6 0.018(2) 0.016(2) 0.0120(19) 0.0000(16) -0.0055(16) -0.0055(17)
C53 0.0117(19) 0.018(2) 0.016(2) -0.0010(16) -0.0031(15) -0.0057(17)
C16 0.022(2) 0.024(2) 0.016(2) -0.0028(18) -0.0056(16) -0.0067(19)
C1AA 0.017(2) 0.026(2) 0.014(2) -0.0009(17) -0.0070(16) -0.0107(18)
C47 0.0121(19) 0.023(2) 0.016(2) -0.0074(17) 0.0026(15) -0.0087(18)
C0AA 0.019(2) 0.028(2) 0.0120(19) -0.0036(17) -0.0076(16) -0.0097(19)
C35 0.022(2) 0.043(3) 0.017(2) -0.011(2) 0.0068(17) -0.022(2)
C21 0.0145(19) 0.016(2) 0.015(2) 0.0001(16) -0.0058(16) -0.0061(17)
C38 0.018(2) 0.019(2) 0.016(2) -0.0013(17) -0.0017(17) -0.0077(18)
C52 0.030(2) 0.028(3) 0.027(2) -0.013(2) -0.0126(19) -0.005(2)
C49 0.031(2) 0.027(2) 0.016(2) -0.0036(19) -0.0062(18) -0.010(2)
C17 0.032(3) 0.021(2) 0.027(2) -0.0012(19) -0.010(2) -0.008(2)
C7 0.0126(18) 0.021(2) 0.0125(19) -0.0024(16) -0.0043(14) -0.0075(17)
C24 0.021(2) 0.028(3) 0.037(3) -0.013(2) -0.005(2) -0.003(2)
C20 0.019(2) 0.025(2) 0.020(2) -0.0010(18) -0.0041(17) -0.0066(19)
C46 0.032(3) 0.021(2) 0.027(3) -0.008(2) -0.007(2) 0.001(2)
C48 0.029(2) 0.025(2) 0.015(2) -0.0057(18) -0.0029(17) -0.013(2)
C54 0.0130(19) 0.019(2) 0.0150(19) -0.0009(16) -0.0010(15) -0.0065(17)
C39 0.0110(19) 0.023(2) 0.017(2) -0.0027(17) -0.0021(15) -0.0083(17)
C22 0.017(2) 0.020(2) 0.0142(19) -0.0037(16) -0.0044(15) -0.0081(18)
C36 0.016(2) 0.024(2) 0.016(2) -0.0035(17) 0.0004(16) -0.0098(18)
C60 0.030(3) 0.033(3) 0.035(3) -0.018(2) -0.002(2) -0.014(2)
C19 0.027(2) 0.035(3) 0.024(2) 0.010(2) -0.0050(19) -0.018(2)
C51 0.031(3) 0.024(3) 0.038(3) -0.012(2) -0.009(2) -0.003(2)
C50 0.019(2) 0.025(2) 0.018(2) -0.0011(18) 0.0001(17) -0.0032(19)
C3 0.017(2) 0.032(3) 0.017(2) -0.0058(19) -0.0060(17) -0.0080(19)
C61 0.033(3) 0.029(3) 0.033(3) -0.017(2) 0.014(2) -0.016(2)
C27 0.020(2) 0.027(2) 0.025(2) -0.004(2) -0.0022(18) -0.005(2)
C10 0.042(3) 0.026(3) 0.043(3) -0.006(2) -0.002(2) -0.011(2)
C5 0.039(3) 0.022(3) 0.030(3) 0.002(2) -0.022(2) -0.008(2)
C41 0.018(2) 0.021(2) 0.027(2) -0.0087(19) 0.0019(17) 0.0019(19)
C58 0.023(2) 0.018(2) 0.016(2) -0.0053(17) -0.0023(16) -0.0086(18)
C63 0.057(3) 0.030(3) 0.018(2) -0.004(2) -0.009(2) -0.019(3)
C23 0.019(2) 0.023(2) 0.028(2) -0.0080(19) -0.0085(18) -0.0082(19)
C37 0.027(2) 0.030(3) 0.034(3) 0.004(2) 0.003(2) -0.006(2)
C59 0.025(2) 0.028(2) 0.024(2) -0.0080(19) -0.0051(18) -0.010(2)
C28 0.028(3) 0.033(3) 0.040(3) -0.014(2) -0.008(2) -0.006(2)
C55 0.021(2) 0.017(2) 0.027(2) -0.0018(18) -0.0030(17) -0.0064(18)
C18 0.029(2) 0.026(2) 0.028(2) 0.008(2) -0.014(2) -0.018(2)
C42 0.051(3) 0.028(3) 0.032(3) -0.008(2) -0.012(2) -0.004(3)
C40 0.016(2) 0.019(2) 0.019(2) -0.0037(17) -0.0032(16) -0.0044(17)
C62 0.066(4) 0.024(3) 0.023(3) -0.001(2) -0.002(2) -0.022(3)
C11 0.049(4) 0.018(3) 0.058(4) 0.002(2) -0.006(3) -0.004(3)
C9 0.024(2) 0.022(2) 0.032(3) -0.004(2) 0.0010(19) -0.011(2)
C56 0.041(3) 0.016(2) 0.048(3) 0.007(2) -0.010(2) -0.010(2)
C25 0.041(3) 0.023(3) 0.036(3) 0.000(2) -0.007(2) -0.009(2)
C13 0.045(3) 0.031(3) 0.058(4) -0.012(3) 0.018(3) -0.011(3)
C14 0.037(3) 0.029(3) 0.034(3) -0.008(2) 0.007(2) -0.010(2)
C31 0.043(3) 0.033(3) 0.034(3) -0.005(2) 0.006(2) -0.008(3)
C26 0.024(2) 0.022(2) 0.018(2) -0.0109(18) -0.0022(17) -0.0064(19)
C57 0.028(3) 0.025(3) 0.039(3) -0.011(2) -0.002(2) -0.012(2)
C12 0.043(4) 0.021(3) 0.079(5) -0.011(3) 0.005(3) -0.004(3)
C29 0.043(3) 0.026(3) 0.039(3) -0.012(2) -0.021(2) -0.003(2)
C45 0.045(3) 0.031(3) 0.042(3) -0.015(2) -0.012(3) -0.007(3)
C8 0.018(2) 0.020(2) 0.015(2) -0.0013(17) -0.0034(15) -0.0106(18)
C64 0.050(4) 0.033(3) 0.049(3) -0.019(3) 0.019(3) -0.026(3)
C44 0.049(4) 0.025(3) 0.064(4) -0.014(3) -0.009(3) -0.013(3)
C30 0.060(4) 0.024(3) 0.033(3) -0.001(2) 0.001(3) -0.011(3)
C43 0.070(4) 0.019(3) 0.042(3) 0.002(2) -0.004(3) -0.008(3)
C2 0.064(4) 0.031(3) 0.062(4) -0.023(3) -0.019(3) -0.006(3)
C32 0.052(4) 0.026(3) 0.061(4) -0.010(3) -0.031(3) -0.001(3)
C34 0.133(9) 0.066(5) 0.074(6) -0.055(5) 0.060(6) -0.064(6)
C1 0.072(5) 0.066(5) 0.061(5) -0.025(4) -0.020(4) -0.002(4)
C2AA 0.30(4) 0.036(7) 0.056(8) -0.020(6) -0.008(12) -0.026(12)
C4 0.067(17) 0.031(13) 0.046(12) -0.023(9) -0.002(10) -0.025(12)
loop_
_atom_type_symbol
_atom_type_description
_atom_type_scat_dispersion_real
_atom_type_scat_dispersion_imag
_atom_type_scat_source
C C 0.0181 0.0091 'International Tables Vol C Tables 4.2.6.8 and 6.1.1.4'
H H 0.0000 0.0000 'International Tables Vol C Tables 4.2.6.8 and 6.1.1.4'
N N 0.0311 0.0180 'International Tables Vol C Tables 4.2.6.8 and 6.1.1.4'
O O 0.0492 0.0322 'International Tables Vol C Tables 4.2.6.8 and 6.1.1.4'
S S 0.3331 0.5567 'International Tables Vol C Tables 4.2.6.8 and 6.1.1.4'
Cl Cl 0.3639 0.7018 'International Tables Vol C Tables 4.2.6.8 and 6.1.1.4'
Br Br -0.6763 1.2805 'International Tables Vol C Tables 4.2.6.8 and 6.1.1.4'
loop_
_geom_angle_atom_site_label_1
_geom_angle_atom_site_label_2
_geom_angle_atom_site_label_3
_geom_angle
O7 S4 O8 118.30(18)
O7 S4 N4 106.37(19)
O7 S4 C58 109.1(2)
O8 S4 N4 106.85(19)
O8 S4 C58 106.7(2)
N4 S4 C58 109.3(2)
O2 S2 N1 107.82(19)
O2 S2 C26 105.4(2)
O1 S2 O2 118.9(2)
O1 S2 N1 106.1(2)
O1 S2 C26 108.6(2)
N1 S2 C26 109.9(2)
C9 S1 C8 99.6(2)
C41 S3 C40 102.1(2)
C53 N5 H5 118.1
C53 N5 C39 123.8(3)
C39 N5 H5 118.1
C21 N2 H2 118.3
C21 N2 C7 123.4(3)
C7 N2 H2 118.3
C35 O12 C34 116.9(6)
C38 N6 H6 119.8
C38 N6 C36 120.4(4)
C36 N6 H6 119.8
C6 N3 H3 119.3
C6 N3 C0AA 121.4(4)
C0AA N3 H3 119.3
C3 O6 C2 117.7(5)
S2 N1 H1 114(3)
C22 N1 S2 120.5(3)
C22 N1 H1 114(3)
S4 N4 H4 110(4)
C54 N4 S4 117.3(3)
C54 N4 H4 114(4)
O4 C6 N3 123.7(4)
O4 C6 C7 121.3(4)
N3 C6 C7 115.0(3)
O9 C53 N5 125.0(4)
O9 C53 C54 121.0(4)
N5 C53 C54 113.9(4)
C1AA C16 H16 119.2
C17 C16 H16 119.2
C17 C16 C1AA 121.6(4)
C16 C1AA C7 118.4(4)
C20 C1AA C16 118.5(4)
C20 C1AA C7 123.0(4)
C52 C47 C39 118.4(4)
C48 C47 C52 119.0(4)
C48 C47 C39 122.6(4)
N3 C0AA H0AA 107.2
N3 C0AA C3 110.7(3)
N3 C0AA C5 112.7(4)
C3 C0AA H0AA 107.2
C5 C0AA H0AA 107.2
C5 C0AA C3 111.5(4)
O12 C35 C36 111.7(4)
O11 C35 O12 124.5(5)
O11 C35 C36 123.7(5)
O3 C21 N2 123.9(4)
O3 C21 C22 122.4(4)
N2 C21 C22 113.6(3)
O10 C38 N6 123.7(4)
O10 C38 C39 121.3(4)
N6 C38 C39 115.0(4)
C47 C52 H52 119.4
C51 C52 C47 121.1(4)
C51 C52 H52 119.4
C48 C49 H49 120.1
C50 C49 H49 120.1
C50 C49 C48 119.8(4)
C16 C17 H17 120.8
C18 C17 C16 118.4(5)
C18 C17 H17 120.8
N2 C7 C6 104.8(3)
N2 C7 C1AA 110.6(3)
N2 C7 C8 110.5(3)
C1AA C7 C6 108.2(3)
C1AA C7 C8 112.1(3)
C8 C7 C6 110.4(3)
H24A C24 H24B 109.5
H24A C24 H24C 109.5
H24B C24 H24C 109.5
C23 C24 H24A 109.5
C23 C24 H24B 109.5
C23 C24 H24C 109.5
C1AA C20 H20 119.9
C1AA C20 C19 120.3(5)
C19 C20 H20 119.9
C41 C46 H46 120.3
C41 C46 C45 119.5(5)
C45 C46 H46 120.3
C47 C48 H48 119.8
C49 C48 C47 120.3(4)
C49 C48 H48 119.8
N4 C54 C53 108.3(3)
N4 C54 H54 109.0
N4 C54 C55 111.7(4)
C53 C54 H54 109.0
C53 C54 C55 109.8(3)
C55 C54 H54 109.0
N5 C39 C47 110.5(4)
N5 C39 C38 104.7(3)
N5 C39 C40 109.8(3)
C47 C39 C38 108.7(3)
C47 C39 C40 113.2(3)
C40 C39 C38 109.6(4)
N1 C22 C21 109.3(3)
N1 C22 H22 108.8
N1 C22 C23 111.2(3)
C21 C22 H22 108.8
C21 C22 C23 109.9(4)
C23 C22 H22 108.8
N6 C36 C35 111.1(4)
N6 C36 H36 107.5
N6 C36 C37 111.3(4)
C35 C36 H36 107.5
C35 C36 C37 111.7(4)
C37 C36 H36 107.5
C61 C60 H60 119.0
C61 C60 C59 121.9(5)
C59 C60 H60 119.0
C20 C19 H19 120.0
C18 C19 C20 119.9(5)
C18 C19 H19 120.0
C52 C51 H51 120.5
C52 C51 C50 118.9(4)
C50 C51 H51 120.5
C49 C50 Cl2 119.9(4)
C49 C50 C51 120.8(4)
C51 C50 Cl2 119.2(4)
O5 C3 O6 123.9(5)
O5 C3 C0AA 125.2(5)
O6 C3 C0AA 110.7(4)
C60 C61 C64 120.5(5)
C62 C61 C60 118.2(5)
C62 C61 C64 121.3(5)
C28 C27 H27 120.5
C26 C27 H27 120.5
C26 C27 C28 119.0(5)
C11 C10 H10 121.1
C11 C10 C9 117.8(6)
C9 C10 H10 121.1
C0AA C5 H5A 109.5
C0AA C5 H5B 109.5
C0AA C5 H5C 109.5
H5A C5 H5B 109.5
H5A C5 H5C 109.5
H5B C5 H5C 109.5
C46 C41 S3 124.1(4)
C46 C41 C42 119.7(5)
C42 C41 S3 116.0(4)
C63 C58 S4 119.4(4)
C63 C58 C59 120.8(5)
C59 C58 S4 119.8(4)
C58 C63 H63 120.6
C58 C63 C62 118.8(5)
C62 C63 H63 120.6
C24 C23 C22 110.7(4)
C24 C23 H23 107.4
C22 C23 H23 107.4
C25 C23 C24 111.4(4)
C25 C23 C22 112.2(4)
C25 C23 H23 107.4
C36 C37 H37A 109.5
C36 C37 H37B 109.5
C36 C37 H37C 109.5
H37A C37 H37B 109.5
H37A C37 H37C 109.5
H37B C37 H37C 109.5
C60 C59 C58 118.7(5)
C60 C59 H59 120.6
C58 C59 H59 120.6
C27 C28 H28 119.2
C29 C28 C27 121.6(5)
C29 C28 H28 119.2
C54 C55 H55 107.4
C56 C55 C54 112.3(4)
C56 C55 H55 107.4
C57 C55 C54 111.2(4)
C57 C55 H55 107.4
C57 C55 C56 111.0(4)
C17 C18 Cl1 119.4(4)
C19 C18 Cl1 119.3(4)
C19 C18 C17 121.3(5)
C41 C42 H42 120.7
C43 C42 C41 118.6(5)
C43 C42 H42 120.7
S3 C40 H40A 110.0
S3 C40 H40B 110.0
C39 C40 S3 108.3(3)
C39 C40 H40A 110.0
C39 C40 H40B 110.0
H40A C40 H40B 108.4
C61 C62 C63 121.6(5)
C61 C62 H62 119.2
C63 C62 H62 119.2
C10 C11 Br1 118.5(5)
C12 C11 Br1 118.0(5)
C12 C11 C10 123.5(6)
C10 C9 S1 117.2(4)
C14 C9 S1 122.7(4)
C14 C9 C10 120.0(5)
C55 C56 H56A 109.5
C55 C56 H56B 109.5
C55 C56 H56C 109.5
H56A C56 H56B 109.5
H56A C56 H56C 109.5
H56B C56 H56C 109.5
C23 C25 H25A 109.5
C23 C25 H25B 109.5
C23 C25 H25C 109.5
H25A C25 H25B 109.5
H25A C25 H25C 109.5
H25B C25 H25C 109.5
C14 C13 H13 119.9
C12 C13 H13 119.9
C12 C13 C14 120.3(6)
C9 C14 C13 120.4(6)
C9 C14 H14 119.8
C13 C14 H14 119.8
C26 C31 H31 120.3
C26 C31 C30 119.5(5)
C30 C31 H31 120.3
C27 C26 S2 120.2(4)
C31 C26 S2 119.1(4)
C31 C26 C27 120.7(5)
C55 C57 H57A 109.5
C55 C57 H57B 109.5
C55 C57 H57C 109.5
H57A C57 H57B 109.5
H57A C57 H57C 109.5
H57B C57 H57C 109.5
C11 C12 C13 118.0(6)
C11 C12 H12 121.0
C13 C12 H12 121.0
C28 C29 C32 121.0(6)
C30 C29 C28 117.9(5)
C30 C29 C32 121.1(6)
C46 C45 H45 119.3
C44 C45 C46 121.4(5)
C44 C45 H45 119.3
S1 C8 H8A 109.8
S1 C8 H8B 109.8
C7 C8 S1 109.3(3)
C7 C8 H8A 109.8
C7 C8 H8B 109.8
H8A C8 H8B 108.3
C61 C64 H64A 109.5
C61 C64 H64B 109.5
C61 C64 H64C 109.5
H64A C64 H64B 109.5
H64A C64 H64C 109.5
H64B C64 H64C 109.5
C45 C44 H44 121.1
C45 C44 C43 117.7(6)
C43 C44 H44 121.1
C31 C30 H30 119.4
C29 C30 C31 121.3(5)
C29 C30 H30 119.4
C42 C43 Br2 118.9(5)
C42 C43 C44 122.9(5)
C44 C43 Br2 118.1(5)
O6 C2 H2A 109.7
O6 C2 H2B 109.7
O6 C2 C1 109.8(6)
H2A C2 H2B 108.2
C1 C2 H2A 109.7
C1 C2 H2B 109.7
C29 C32 H32A 109.5
C29 C32 H32B 109.5
C29 C32 H32C 109.5
H32A C32 H32B 109.5
H32A C32 H32C 109.5
H32B C32 H32C 109.5
O12 C34 H34A 109.2
O12 C34 H34B 109.2
O12 C34 H34C 109.3
O12 C34 H34D 109.3
H34A C34 H34B 107.9
H34C C34 H34D 108.0
C2AA C34 O12 112.1(11)
C2AA C34 H34A 109.2
C2AA C34 H34B 109.2
C4 C34 O12 111.6(10)
C4 C34 H34C 109.3
C4 C34 H34D 109.3
C2 C1 H1A 109.5
C2 C1 H1B 109.5
C2 C1 H1C 109.5
H1A C1 H1B 109.5
H1A C1 H1C 109.5
H1B C1 H1C 109.5
C34 C2AA H2AA 109.5
C34 C2AA H2AB 109.5
C34 C2AA H2AC 109.5
H2AA C2AA H2AB 109.5
H2AA C2AA H2AC 109.5
H2AB C2AA H2AC 109.5
C34 C4 H4A 109.5
C34 C4 H4B 109.5
C34 C4 H4C 109.5
H4A C4 H4B 109.5
H4A C4 H4C 109.5
H4B C4 H4C 109.5
loop_
_geom_bond_atom_site_label_1
_geom_bond_atom_site_label_2
_geom_bond_distance
Br2 C43 1.905(6)
Br1 C11 1.899(6)
S4 O7 1.432(3)
S4 O8 1.436(3)
S4 N4 1.623(4)
S4 C58 1.761(5)
S2 O2 1.438(3)
S2 O1 1.434(3)
S2 N1 1.611(4)
S2 C26 1.771(5)
S1 C9 1.765(5)
S1 C8 1.813(4)
S3 C41 1.763(5)
S3 C40 1.814(5)
Cl2 C50 1.747(5)
Cl1 C18 1.742(5)
O3 C21 1.224(5)
O9 C53 1.238(5)
O10 C38 1.219(5)
O4 C6 1.219(5)
O5 C3 1.195(6)
N5 H5 0.8800
N5 C53 1.333(5)
N5 C39 1.469(5)
N2 H2 0.8800
N2 C21 1.354(5)
N2 C7 1.452(5)
O12 C35 1.322(7)
O12 C34 1.452(8)
O11 C35 1.204(6)
N6 H6 0.8800
N6 C38 1.336(6)
N6 C36 1.461(5)
N3 H3 0.8800
N3 C6 1.340(6)
N3 C0AA 1.455(5)
O6 C3 1.338(6)
O6 C2 1.449(7)
N1 H1 1.00(5)
N1 C22 1.461(5)
N4 H4 0.83(6)
N4 C54 1.478(5)
C6 C7 1.563(5)
C53 C54 1.530(6)
C16 H16 0.9500
C16 C1AA 1.392(7)
C16 C17 1.388(7)
C1AA C7 1.535(6)
C1AA C20 1.389(6)
C47 C52 1.391(7)
C47 C48 1.384(6)
C47 C39 1.530(6)
C0AA H0AA 1.0000
C0AA C3 1.531(6)
C0AA C5 1.504(7)
C35 C36 1.508(6)
C21 C22 1.532(6)
C38 C39 1.558(6)
C52 H52 0.9500
C52 C51 1.376(7)
C49 H49 0.9500
C49 C48 1.382(7)
C49 C50 1.376(7)
C17 H17 0.9500
C17 C18 1.383(7)
C7 C8 1.538(6)
C24 H24A 0.9800
C24 H24B 0.9800
C24 H24C 0.9800
C24 C23 1.529(7)
C20 H20 0.9500
C20 C19 1.391(7)
C46 H46 0.9500
C46 C41 1.386(7)
C46 C45 1.393(8)
C48 H48 0.9500
C54 H54 1.0000
C54 C55 1.549(6)
C39 C40 1.537(6)
C22 H22 1.0000
C22 C23 1.543(6)
C36 H36 1.0000
C36 C37 1.518(7)
C60 H60 0.9500
C60 C61 1.381(8)
C60 C59 1.388(8)
C19 H19 0.9500
C19 C18 1.371(8)
C51 H51 0.9500
C51 C50 1.385(7)
C61 C62 1.381(8)
C61 C64 1.504(8)
C27 H27 0.9500
C27 C28 1.390(7)
C27 C26 1.380(7)
C10 H10 0.9500
C10 C11 1.387(9)
C10 C9 1.387(8)
C5 H5A 0.9800
C5 H5B 0.9800
C5 H5C 0.9800
C41 C42 1.389(8)
C58 C63 1.379(7)
C58 C59 1.394(6)
C63 H63 0.9500
C63 C62 1.400(8)
C23 H23 1.0000
C23 C25 1.526(7)
C37 H37A 0.9800
C37 H37B 0.9800
C37 H37C 0.9800
C59 H59 0.9500
C28 H28 0.9500
C28 C29 1.388(9)
C55 H55 1.0000
C55 C56 1.531(7)
C55 C57 1.517(7)
C42 H42 0.9500
C42 C43 1.361(9)
C40 H40A 0.9900
C40 H40B 0.9900
C62 H62 0.9500
C11 C12 1.364(10)
C9 C14 1.383(7)
C56 H56A 0.9800
C56 H56B 0.9800
C56 H56C 0.9800
C25 H25A 0.9800
C25 H25B 0.9800
C25 H25C 0.9800
C13 H13 0.9500
C13 C14 1.392(8)
C13 C12 1.384(10)
C14 H14 0.9500
C31 H31 0.9500
C31 C26 1.377(8)
C31 C30 1.389(9)
C57 H57A 0.9800
C57 H57B 0.9800
C57 H57C 0.9800
C12 H12 0.9500
C29 C30 1.384(9)
C29 C32 1.517(8)
C45 H45 0.9500
C45 C44 1.359(9)
C8 H8A 0.9900
C8 H8B 0.9900
C64 H64A 0.9800
C64 H64B 0.9800
C64 H64C 0.9800
C44 H44 0.9500
C44 C43 1.387(10)
C30 H30 0.9500
C2 H2A 0.9900
C2 H2B 0.9900
C2 C1 1.462(11)
C32 H32A 0.9800
C32 H32B 0.9800
C32 H32C 0.9800
C34 H34A 0.9900
C34 H34B 0.9900
C34 H34C 0.9900
C34 H34D 0.9900
C34 C2AA 1.326(19)
C34 C4 1.36(2)
C1 H1A 0.9800
C1 H1B 0.9800
C1 H1C 0.9800
C2AA H2AA 0.9800
C2AA H2AB 0.9800
C2AA H2AC 0.9800
C4 H4A 0.9800
C4 H4B 0.9800
C4 H4C 0.9800
loop_
_geom_torsion_atom_site_label_1
_geom_torsion_atom_site_label_2
_geom_torsion_atom_site_label_3
_geom_torsion_atom_site_label_4
_geom_torsion
Br1 C11 C12 C13 -179.6(5)
S4 N4 C54 C53 -113.3(3)
S4 N4 C54 C55 125.7(3)
S4 C58 C63 C62 -178.2(4)
S4 C58 C59 C60 178.7(4)
S2 N1 C22 C21 -108.0(4)
S2 N1 C22 C23 130.4(3)
S1 C9 C14 C13 176.2(5)
S3 C41 C42 C43 -172.8(5)
O7 S4 N4 C54 -177.0(3)
O7 S4 C58 C63 118.1(4)
O7 S4 C58 C59 -60.5(4)
O8 S4 N4 C54 -49.7(4)
O8 S4 C58 C63 -10.8(5)
O8 S4 C58 C59 170.7(4)
O3 C21 C22 N1 -24.7(6)
O3 C21 C22 C23 97.7(5)
O2 S2 N1 C22 -46.9(4)
O2 S2 C26 C27 159.8(4)
O2 S2 C26 C31 -22.3(5)
O1 S2 N1 C22 -175.3(3)
O1 S2 C26 C27 -71.8(4)
O1 S2 C26 C31 106.1(4)
O9 C53 C54 N4 -21.1(5)
O9 C53 C54 C55 101.1(5)
O10 C38 C39 N5 6.6(6)
O10 C38 C39 C47 -111.5(5)
O10 C38 C39 C40 124.4(4)
O4 C6 C7 N2 4.5(5)
O4 C6 C7 C1AA -113.5(4)
O4 C6 C7 C8 123.5(4)
N5 C53 C54 N4 161.5(4)
N5 C53 C54 C55 -76.3(5)
N5 C39 C40 S3 59.3(4)
N2 C21 C22 N1 158.4(4)
N2 C21 C22 C23 -79.2(5)
N2 C7 C8 S1 61.8(4)
O12 C35 C36 N6 48.4(5)
O12 C35 C36 C37 173.3(4)
O11 C35 C36 N6 -135.6(5)
O11 C35 C36 C37 -10.8(6)
N6 C38 C39 N5 -173.7(4)
N6 C38 C39 C47 68.2(5)
N6 C38 C39 C40 -56.0(5)
N3 C6 C7 N2 -176.1(4)
N3 C6 C7 C1AA 65.9(5)
N3 C6 C7 C8 -57.2(5)
N3 C0AA C3 O5 -135.3(5)
N3 C0AA C3 O6 49.6(5)
N1 S2 C26 C27 43.9(4)
N1 S2 C26 C31 -138.2(4)
N1 C22 C23 C24 -72.0(5)
N1 C22 C23 C25 53.1(5)
N4 S4 C58 C63 -126.0(4)
N4 S4 C58 C59 55.5(4)
N4 C54 C55 C56 56.0(5)
N4 C54 C55 C57 -69.0(5)
C6 N3 C0AA C3 55.7(6)
C6 N3 C0AA C5 -70.1(5)
C6 C7 C8 S1 -53.7(4)
C53 N5 C39 C47 -63.7(5)
C53 N5 C39 C38 179.5(4)
C53 N5 C39 C40 61.9(5)
C53 C54 C55 C56 -64.1(5)
C53 C54 C55 C57 170.9(4)
C16 C1AA C7 N2 -49.7(5)
C16 C1AA C7 C6 64.6(5)
C16 C1AA C7 C8 -173.4(4)
C16 C1AA C20 C19 -0.8(6)
C16 C17 C18 Cl1 178.3(4)
C16 C17 C18 C19 -2.0(7)
C1AA C16 C17 C18 1.3(7)
C1AA C7 C8 S1 -174.4(3)
C1AA C20 C19 C18 0.2(7)
C47 C52 C51 C50 -0.1(8)
C47 C39 C40 S3 -176.7(3)
C0AA N3 C6 O4 -12.4(7)
C0AA N3 C6 C7 168.3(4)
C35 O12 C34 C2AA -178.1(16)
C35 O12 C34 C4 112.5(15)
C21 N2 C7 C6 -179.3(4)
C21 N2 C7 C1AA -62.9(5)
C21 N2 C7 C8 61.8(5)
C21 C22 C23 C24 166.7(4)
C21 C22 C23 C25 -68.1(5)
C38 N6 C36 C35 51.3(6)
C38 N6 C36 C37 -73.7(6)
C38 C39 C40 S3 -55.2(4)
C52 C47 C48 C49 1.8(7)
C52 C47 C39 N5 -56.4(5)
C52 C47 C39 C38 58.0(5)
C52 C47 C39 C40 180.0(4)
C52 C51 C50 Cl2 -177.3(4)
C52 C51 C50 C49 1.0(8)
C17 C16 C1AA C7 -176.3(4)
C17 C16 C1AA C20 0.0(6)
C7 N2 C21 O3 -3.6(7)
C7 N2 C21 C22 173.3(4)
C7 C1AA C20 C19 175.4(4)
C20 C1AA C7 N2 134.1(4)
C20 C1AA C7 C6 -111.6(4)
C20 C1AA C7 C8 10.4(5)
C20 C19 C18 Cl1 -179.0(4)
C20 C19 C18 C17 1.2(8)
C46 C41 C42 C43 4.1(8)
C46 C45 C44 C43 -0.1(10)
C48 C47 C52 C51 -1.3(7)
C48 C47 C39 N5 124.3(4)
C48 C47 C39 C38 -121.3(4)
C48 C47 C39 C40 0.7(6)
C48 C49 C50 Cl2 177.8(4)
C48 C49 C50 C51 -0.4(7)
C39 N5 C53 O9 -1.2(7)
C39 N5 C53 C54 176.1(4)
C39 C47 C52 C51 179.4(5)
C39 C47 C48 C49 -178.9(4)
C36 N6 C38 O10 -8.9(7)
C36 N6 C38 C39 171.5(4)
C60 C61 C62 C63 -0.2(8)
C50 C49 C48 C47 -1.0(7)
C3 O6 C2 C1 90.3(7)
C61 C60 C59 C58 -0.7(7)
C27 C28 C29 C30 -2.6(8)
C27 C28 C29 C32 176.0(5)
C10 C11 C12 C13 -0.4(11)
C10 C9 C14 C13 -0.3(9)
C5 C0AA C3 O5 -8.9(6)
C5 C0AA C3 O6 176.0(4)
C41 S3 C40 C39 154.9(3)
C41 C46 C45 C44 -0.4(9)
C41 C42 C43 Br2 176.4(4)
C41 C42 C43 C44 -4.7(10)
C58 S4 N4 C54 65.4(4)
C58 C63 C62 C61 -0.3(9)
C63 C58 C59 C60 0.1(7)
C59 C60 C61 C62 0.7(8)
C59 C60 C61 C64 179.9(5)
C59 C58 C63 C62 0.4(8)
C28 C27 C26 S2 -180.0(4)
C28 C27 C26 C31 2.1(8)
C28 C29 C30 C31 2.9(9)
C40 S3 C41 C46 21.0(4)
C40 S3 C41 C42 -162.3(4)
C11 C10 C9 S1 -176.6(5)
C11 C10 C9 C14 0.0(9)
C9 S1 C8 C7 161.7(3)
C9 C10 C11 Br1 179.5(4)
C9 C10 C11 C12 0.3(10)
C14 C13 C12 C11 0.1(10)
C26 S2 N1 C22 67.5(3)
C26 C27 C28 C29 0.1(8)
C26 C31 C30 C29 -0.7(10)
C12 C13 C14 C9 0.2(10)
C45 C46 C41 S3 174.9(4)
C45 C46 C41 C42 -1.7(7)
C45 C44 C43 Br2 -178.5(5)
C45 C44 C43 C42 2.7(11)
C8 S1 C9 C10 -145.9(4)
C8 S1 C9 C14 37.6(5)
C64 C61 C62 C63 -179.3(5)
C30 C31 C26 S2 -179.7(5)
C30 C31 C26 C27 -1.8(9)
C2 O6 C3 O5 4.3(7)
C2 O6 C3 C0AA 179.4(4)
C32 C29 C30 C31 -175.7(6)
C34 O12 C35 O11 3.8(8)
C34 O12 C35 C36 179.7(6)
