#------------------------------------------------------------------------------
#$Date: 2015-12-06 07:30:40 +0200 (Sun, 06 Dec 2015) $
#$Revision: 170757 $
#$URL: svn://www.crystallography.net/cod/cif/1/54/06/1540607.cif $
#------------------------------------------------------------------------------
#
# This file is available in the Crystallography Open Database (COD),
# http://www.crystallography.net/
#
# All data on this site have been placed in the public domain by the
# contributors.
#
data_1540607
loop_
_publ_author_name
'Marsini, Maurice A.'
'Reeves, Jonathan T.'
'Desrosiers, Jean-Nicolas'
'Herbage, Melissa A.'
'Savoie, Jolaine'
'Li, Zhibin'
'Fandrick, Keith R.'
'Sader, C. Avery'
'McKibben, Bryan'
'Gao, Donghong A.'
'Cui, Jianwen'
'Gonnella, Nina C.'
'Lee, Heewon'
'Wei, Xudong'
'Roschangar, Frank'
'Lu, Bruce Z.'
'Senanayake, Chris H.'
_publ_section_title
;
 Diastereoselective Synthesis of \a-Quaternary Aziridine-2-carboxylates
 via Aza-Corey-Chaykovsky Aziridination of N-tert-Butanesulfinyl Ketimino
 Esters.
;
_journal_issue                   22
_journal_name_full               'Organic letters'
_journal_page_first              5614
_journal_page_last               5617
_journal_paper_doi               10.1021/acs.orglett.5b02838
_journal_volume                  17
_journal_year                    2015
_chemical_formula_sum            'C15 H21 N O3 S'
_chemical_formula_weight         295.39
_space_group_crystal_system      orthorhombic
_space_group_IT_number           19
_space_group_name_Hall           'P 2ac 2ab'
_space_group_name_H-M_alt        'P 21 21 21'
_symmetry_space_group_name_Hall  'P 2ac 2ab'
_symmetry_space_group_name_H-M   'P 21 21 21'
_atom_sites_solution_hydrogens   geom
_audit_creation_method           SHELXL-2014/7
_cell_angle_alpha                90
_cell_angle_beta                 90
_cell_angle_gamma                90
_cell_formula_units_Z            4
_cell_length_a                   5.92510(10)
_cell_length_b                   14.3949(3)
_cell_length_c                   17.8151(4)
_cell_measurement_temperature    100(2)
_cell_volume                     1519.47(5)
_computing_structure_refinement  'SHELXL-2014/7 (Sheldrick, 2014)'
_diffrn_ambient_temperature      100(2)
_diffrn_measured_fraction_theta_full 0.919
_diffrn_measured_fraction_theta_max 0.919
_diffrn_radiation_type           CuK\a
_diffrn_radiation_wavelength     1.54178
_diffrn_reflns_av_R_equivalents  0.0256
_diffrn_reflns_av_unetI/netI     0.0344
_diffrn_reflns_laue_measured_fraction_full 0.919
_diffrn_reflns_laue_measured_fraction_max 0.919
_diffrn_reflns_limit_h_max       6
_diffrn_reflns_limit_h_min       -6
_diffrn_reflns_limit_k_max       16
_diffrn_reflns_limit_k_min       -17
_diffrn_reflns_limit_l_max       18
_diffrn_reflns_limit_l_min       -18
_diffrn_reflns_number            7088
_diffrn_reflns_point_group_measured_fraction_full 0.891
_diffrn_reflns_point_group_measured_fraction_max 0.891
_diffrn_reflns_theta_full        66.680
_diffrn_reflns_theta_max         66.680
_diffrn_reflns_theta_min         3.948
_exptl_absorpt_coefficient_mu    1.953
_exptl_crystal_density_diffrn    1.291
_exptl_crystal_F_000             632
_exptl_crystal_size_max          0.200
_exptl_crystal_size_mid          0.100
_exptl_crystal_size_min          0.050
_refine_diff_density_max         0.207
_refine_diff_density_min         -0.264
_refine_diff_density_rms         0.057
_refine_ls_abs_structure_details
;
 Flack x determined using 924 quotients [(I+)-(I-)]/[(I+)+(I-)]
 (Parsons, Flack and Wagner, Acta Cryst. B69 (2013) 249-259).
;
_refine_ls_abs_structure_Flack   0.024(5)
_refine_ls_extinction_coef       0.0135(8)
_refine_ls_extinction_expression Fc^*^=kFc[1+0.001xFc^2^\l^3^/sin(2\q)]^-1/4^
_refine_ls_extinction_method     'SHELXL-2014/7 (Sheldrick 2014'
_refine_ls_goodness_of_fit_ref   1.097
_refine_ls_hydrogen_treatment    constr
_refine_ls_matrix_type           full
_refine_ls_number_parameters     186
_refine_ls_number_reflns         2394
_refine_ls_number_restraints     0
_refine_ls_restrained_S_all      1.097
_refine_ls_R_factor_all          0.0257
_refine_ls_R_factor_gt           0.0253
_refine_ls_shift/su_max          0.000
_refine_ls_shift/su_mean         0.000
_refine_ls_structure_factor_coef Fsqd
_refine_ls_weighting_details
'w=1/[\s^2^(Fo^2^)+(0.0396P)^2^+0.0675P] where P=(Fo^2^+2Fc^2^)/3'
_refine_ls_weighting_scheme      calc
_refine_ls_wR_factor_gt          0.0637
_refine_ls_wR_factor_ref         0.0641
_reflns_Friedel_coverage         0.646
_reflns_friedel_fraction_full    0.851
_reflns_friedel_fraction_max     0.851
_reflns_number_gt                2361
_reflns_number_total             2394
_reflns_threshold_expression     'I > 2\s(I)'
_cod_data_source_file            ol5b02838_si_003.cif
_cod_data_source_block           scan_0m_P212121
_cod_database_code               1540607
_shelx_shelxl_version_number     2014/7
_shelx_space_group_comment
;
The symmetry employed for this shelxl refinement is uniquely defined
by the following loop, which should always be used as a source of
symmetry information in preference to the above space-group names.
They are only intended as comments.
;
_shelx_estimated_absorpt_t_min   0.696
_shelx_estimated_absorpt_t_max   0.909
_shelx_res_file
;

    scan_0m_P212121.res created by SHELXL-2014/7


TITL scan_0m_P212121 in P2(1)2(1)2(1)
CELL 1.54178 5.9251 14.3949 17.8151 90.000 90.000 90.000
ZERR 4.00 0.0001 0.0003 0.0004 0.000 0.000 0.000
LATT -1
SYMM x+1/2, -y+1/2, -z
SYMM -x, y+1/2, -z+1/2
SYMM -x+1/2, -y, z+1/2
SFAC C H N O S
UNIT 60 84 4 12 4
TEMP -173.140
SIZE 0.050 0.100 0.200
ACTA
L.S. 10
FMAP 2
PLAN -4 0 0.00
HTAB
BOND $H
CONF
WGHT    0.039600    0.067500
EXTI    0.013453
FVAR       1.14037
S1    5    0.140844    0.515951    0.300402    11.00000    0.01508    0.01513 =
         0.01433   -0.00099   -0.00028    0.00209
O1    4    0.306852    0.435641    0.450205    11.00000    0.01304    0.01359 =
         0.02111   -0.00056    0.00114    0.00107
O2    4   -0.028647    0.369834    0.475677    11.00000    0.01745    0.01839 =
         0.04909    0.01384    0.00087   -0.00249
O3    4    0.036255    0.422798    0.292352    11.00000    0.02898    0.01258 =
         0.02410   -0.00140   -0.00197    0.00168
N1    3    0.006950    0.577157    0.370149    11.00000    0.01481    0.01567 =
         0.01358    0.00108   -0.00041    0.00089
C1    1    0.443154    0.297619    0.386239    11.00000    0.03367    0.02133 =
         0.02878   -0.00584   -0.00292    0.00739
AFIX 137
H14   2    0.293547    0.289368    0.363750    11.00000   -1.50000
H1    2    0.513705    0.236750    0.393754    11.00000   -1.50000
H13   2    0.537411    0.335173    0.352735    11.00000   -1.50000
AFIX   0
C2    1    0.419950    0.345805    0.460243    11.00000    0.01642    0.01604 =
         0.02468    0.00187   -0.00088    0.00421
AFIX  23
H16   2    0.331133    0.306577    0.495040    11.00000   -1.20000
H15   2    0.571161    0.355630    0.482512    11.00000   -1.20000
AFIX   0
C3    1    0.082221    0.435241    0.457488    11.00000    0.01557    0.01722 =
         0.01448    0.00147   -0.00018   -0.00005
C4    1   -0.012301    0.532280    0.444716    11.00000    0.01334    0.01422 =
         0.01552    0.00327    0.00252    0.00011
C5    1    0.020914    0.595005    0.510832    11.00000    0.01706    0.01409 =
         0.01434    0.00416    0.00014    0.00357
C6    1    0.212196    0.650357    0.517574    11.00000    0.01754    0.01756 =
         0.01743    0.00390    0.00315    0.00220
AFIX  43
H20   2    0.320916    0.651477    0.478391    11.00000   -1.20000
AFIX   0
C7    1    0.244555    0.703862    0.581297    11.00000    0.02333    0.01686 =
         0.02536    0.00105   -0.00054   -0.00175
AFIX  43
H19   2    0.375561    0.741490    0.585853    11.00000   -1.20000
AFIX   0
C8    1    0.086138    0.702490    0.638268    11.00000    0.03414    0.01695 =
         0.01949   -0.00251    0.00019    0.00268
AFIX  43
H2    2    0.110309    0.738320    0.682323    11.00000   -1.20000
AFIX   0
C9    1    0.116719    0.686358    0.232103    11.00000    0.02122    0.01863 =
         0.02009    0.00149   -0.00006   -0.00358
AFIX 137
H21   2    0.082163    0.722600    0.186977    11.00000   -1.50000
H3    2    0.280069    0.686571    0.240730    11.00000   -1.50000
H4    2    0.039996    0.713966    0.275431    11.00000   -1.50000
AFIX   0
C10   1    0.035599    0.586557    0.221465    11.00000    0.01659    0.01642 =
         0.01398   -0.00012   -0.00115    0.00155
C11   1    0.146817    0.541637    0.152992    11.00000    0.02319    0.02810 =
         0.01438   -0.00176   -0.00075    0.00300
AFIX 137
H6    2    0.095840    0.573225    0.107307    11.00000   -1.50000
H7    2    0.104651    0.475874    0.150587    11.00000   -1.50000
H5    2    0.311203    0.547035    0.157218    11.00000   -1.50000
AFIX   0
C12   1   -0.220865    0.579882    0.216233    11.00000    0.01791    0.01714 =
         0.02196    0.00061   -0.00427   -0.00021
AFIX 137
H9    2   -0.289216    0.614939    0.257547    11.00000   -1.50000
H8    2   -0.266799    0.514611    0.219573    11.00000   -1.50000
H10   2   -0.271339    0.605807    0.168218    11.00000   -1.50000
AFIX   0
C13   1   -0.214675    0.539762    0.396300    11.00000    0.01471    0.01831 =
         0.01941    0.00166    0.00141    0.00134
AFIX  23
H11   2   -0.332704    0.584948    0.410932    11.00000   -1.20000
H12   2   -0.271643    0.482306    0.372345    11.00000   -1.20000
AFIX   0
C14   1   -0.108264    0.649060    0.631552    11.00000    0.02953    0.01841 =
         0.02078    0.00022    0.00986    0.00254
AFIX  43
H17   2   -0.218504    0.649350    0.670273    11.00000   -1.20000
AFIX   0
C15   1   -0.139676    0.595423    0.567897    11.00000    0.02052    0.01669 =
         0.02149    0.00167    0.00469   -0.00118
AFIX  43
H18   2   -0.271930    0.558587    0.563110    11.00000   -1.20000
REM <hkl>
REM C:\frames\guest\103174072\work\scan_0m_P212121.hkl
REM </hkl>
AFIX   0
HKLF 4 1 1 0 0 0 1 0 0 0 1

REM  scan_0m_P212121 in P2(1)2(1)2(1)
REM R1 =  0.0253 for    2361 Fo > 4sig(Fo)  and  0.0257 for all    2394 data
REM    186 parameters refined using      0 restraints

END

WGHT      0.0358      0.0893

REM Instructions for potential hydrogen bonds
EQIV $1 x+1, y, z
HTAB C2 O2_$1

REM Highest difference peak  0.207,  deepest hole -0.264,  1-sigma level  0.057
Q1    1   0.3097  0.5141  0.3034  11.00000  0.05    0.21
Q2    1  -0.1077  0.5864  0.2192  11.00000  0.05    0.19
Q3    1   0.2500  0.4413  0.4620  11.00000  0.05    0.18
Q4    1  -0.3589  0.5747  0.5516  11.00000  0.05    0.18
;
_shelx_res_checksum              69892
_shelx_hkl_file
;
   1   0   0   -2.95    1.00
  -1   0   0   -0.98    0.88
  -2   0   0 1860.99   77.43
   2   0   0 1828.00   79.12
   3   0   0   11.69    4.14
  -3   0   0    1.36    1.51
  -4   0   0   67.66    7.33
   4   0   0   74.27    9.78
  -5   0   0    1.93    3.18
   5   0   0   -0.17    2.45
   0  -1   0  -13.93    0.44
  -1   1   0 3689.86  160.40
   1   1   0 4060.58  160.26
   1   1   0 4231.04  161.04
   1  -1   0 3763.30  161.06
   2   1   0 2485.19   98.60
  -2   1   0 2310.25   97.00
   2  -1   0 2178.00   98.28
  -3  -1   0 4013.41  148.78
   3  -1   0 3107.63  150.71
   3   1   0 3201.21  151.00
  -3   1   0 3899.83  149.18
  -4   1   0  226.86   15.22
   4  -1   0  214.18   17.77
  -4  -1   0  209.45   14.02
   4   1   0  221.90   17.80
   5   1   0  363.62   22.16
  -5  -1   0  353.70   22.84
   5  -1   0  362.99   20.82
   5  -1   0  337.95   21.10
   6  -1   0  158.47   11.97
  -6  -1   0  164.46   14.04
   0   2   0 9749.73  392.55
   0  -2   0 9486.33  394.80
   1   2   0 8069.54  341.72
   1   2   0 8356.00  338.99
   1  -2   0 8651.85  339.43
  -1   2   0 8012.86  342.06
   1  -2   0 8511.79  340.88
   2  -2   0   41.26    5.07
  -2  -2   0   38.40    3.69
  -2   2   0   36.33    3.99
   3   2   0 1891.49   86.81
  -3  -2   0 1973.19   83.36
   3  -2   0 1982.41   87.06
  -3   2   0 1962.09   84.45
   4  -2   0   27.16    7.01
  -4  -2   0   25.64    5.86
   4  -2   0   31.66    6.04
   4  -2   0   25.67    5.35
  -4   2   0   33.31    6.26
   4   2   0   27.22    6.98
   5  -2   0  104.87    9.79
   5   2   0  100.35   10.32
   5  -2   0   95.07    9.88
  -5  -2   0   99.38   10.88
  -6  -2   0 1358.38   63.91
   6  -2   0 1359.28   61.55
  -6   2   0 1322.31   61.09
   0  -3   0   -0.49    1.38
   0   3   0   -0.63    0.84
   1   3   0   54.77    4.02
   1  -3   0   59.60    4.26
  -1   3   0   58.74    4.51
   1   3   0   58.54    4.38
   2   3   0  173.92   10.07
  -2   3   0  184.48   11.06
   2  -3   0  192.47   12.17
   2   3   0  192.48   11.76
  -3  -3   0  918.93   42.90
   3   3   0  978.68   46.63
   3  -3   0  981.84   47.04
  -3   3   0  977.88   44.81
   4  -3   0  307.40   18.72
   4   3   0  319.08   19.62
   4  -3   0  339.84   19.64
  -4   3   0  315.97   20.29
  -4  -3   0  340.66   20.36
   4   3   0  344.72   23.49
  -5  -3   0 1986.94   90.96
   5  -3   0 2079.57   89.39
   5   3   0 1903.33   88.97
   5  -3   0 2007.35   88.70
   6  -3   0   16.85    4.58
  -6   3   0   14.97    4.31
  -6  -3   0   14.15    5.04
   0   4   0 1034.49   44.32
   1   4   0    8.79    1.98
   1  -4   0    8.37    2.25
  -1   4   0    6.76    1.94
   1   4   0    9.24    1.92
   2   4   0 2092.08   90.53
   2   4   0 2140.19   88.88
  -2   4   0 2136.77   90.31
  -3  -4   0  290.10   16.10
   3   4   0  300.06   18.70
  -3   4   0  279.97   17.25
   4   4   0 1370.57   63.03
   4  -4   0 1344.82   62.44
   4  -4   0 1394.39   62.33
  -4   4   0 1363.08   64.64
   4   4   0 1384.97   67.45
  -4  -4   0 1372.09   63.60
   5  -4   0 2120.96   96.24
   5   4   0 2172.89   96.59
  -5  -4   0 2208.77   98.36
  -6   4   0   61.22    7.40
   6  -4   0   65.35    7.69
  -6  -4   0   67.75    8.74
   6   4   0   60.37    7.71
   0   5   0    0.11    0.97
   0   5   0   -0.01    1.03
   1   5   0 6729.07  300.95
   1   5   0 7474.13  300.97
  -1   5   0 7946.47  302.14
   2   5   0  128.63    8.17
   2   5   0  138.41    9.71
   3   5   0  366.99   22.15
  -3   5   0  379.82   21.76
  -4  -5   0  653.74   34.35
   4   5   0  642.84   34.00
   4   5   0  625.63   37.04
   4  -5   0  677.65   33.69
  -5  -5   0  989.91   49.15
   5  -5   0  920.50   46.83
  -5   5   0  991.50   47.89
   5   5   0  926.73   47.43
   6   5   0  710.63   35.61
  -6  -5   0  725.14   37.92
  -6   5   0  720.86   36.04
   6  -5   0  727.16   36.09
   0   6   0  521.01   25.06
   0   6   0  540.04   24.61
  -1   6   0 4296.74  170.09
   1   6   0 4249.93  168.95
   1   6   0 3736.14  168.65
  -2   6   0 1197.81   55.84
   2   6   0 1273.30   55.64
  -3   6   0  318.51   19.70
   3   6   0  303.94   19.60
   4   6   0 2310.59  100.88
  -4  -6   0 2171.00  100.71
  -4   6   0 2251.46  100.59
   4  -6   0 2386.95  100.42
  -5   6   0  253.84   17.90
  -5  -6   0  265.63   19.03
   5   6   0  258.78   18.22
   5  -6   0  230.48   17.08
   6   6   0   52.75    6.88
  -6  -6   0   58.73    7.84
   6  -6   0   54.28    7.55
  -6   6   0   51.14    6.69
   0   7   0   -1.21    1.47
   1   7   0  267.93   15.02
  -1   7   0  276.64   16.14
   1   7   0  293.77   15.24
  -2   7   0 2249.67   97.79
  -3   7   0  864.78   43.99
   3   7   0  854.89   42.37
  -3   7   0  894.34   42.55
   3  -7   0  873.93   41.60
  -3  -7   0  898.59   42.68
   4   7   0  328.83   21.18
   4  -7   0  337.66   20.70
  -4   7   0  342.21   21.21
  -4  -7   0  316.32   21.03
  -5  -7   0 1691.27   78.40
   5   7   0 1675.91   77.20
   5  -7   0 1660.52   76.53
  -5   7   0 1702.04   77.38
   6  -7   0  842.04   40.41
  -6  -7   0  870.99   42.35
  -6   7   0  842.88   40.87
   6   7   0  849.59   40.31
   0   8   0 2915.57  123.40
  -1   8   0  110.94    9.35
  -2   8   0    2.88    2.40
   3  -8   0 1236.28   57.36
  -3  -8   0 1327.77   58.87
  -3   8   0 1240.64   60.75
   3   8   0 1239.38   58.46
  -3   8   0 1230.09   58.51
  -4   8   0  510.90   29.03
  -4  -8   0  503.65   29.06
   4  -8   0  511.55   28.21
   4   8   0  499.99   28.89
  -5   8   0   81.72    9.28
   5  -8   0   71.69    8.42
  -5  -8   0   72.09    9.31
   5   8   0   72.51    9.17
  -6   8   0  138.86   10.55
  -6  -8   0  147.56   11.53
   6  -8   0  141.08   10.44
   6   8   0  138.62   10.30
   0   9   0   -0.26    1.68
  -1   9   0   33.99    5.86
  -2  -9   0  232.46   14.49
   2  -9   0  230.60   14.69
  -2   9   0  234.54   16.94
   2   9   0  253.96   15.89
  -2   9   0  250.34   16.09
   2  -9   0  231.58   19.70
   3   9   0    4.94    3.59
  -3  -9   0    1.61    2.59
   3  -9   0    4.12    2.70
  -3   9   0    1.31    2.61
   4   9   0  223.79   16.61
  -4   9   0  213.18   16.38
  -4  -9   0  224.44   16.72
   4  -9   0  216.92   15.44
   5   9   0   37.51    7.04
  -5   9   0   35.62    6.77
  -5  -9   0   38.66    7.38
   5  -9   0   38.92    6.68
   6  -9   0  191.26   11.83
  -6   9   0  189.32   12.08
   0 -10   0  239.18   15.09
   1 -10   0   27.21    5.51
  -1 -10   0   26.89    5.44
   1  10   0   24.90    5.01
  -1  10   0   21.20    5.29
  -1  10   0   20.96    4.94
   2  10   0  151.26   12.28
  -2 -10   0  156.70   11.47
   2 -10   0  159.86   11.69
  -2  10   0  156.60   12.67
   3 -10   0  472.96   25.83
  -3 -10   0  445.09   26.20
  -3  10   0  496.89   27.79
   3  10   0  460.31   26.90
   4 -10   0   40.73    7.04
  -4  10   0   44.60    7.91
  -4 -10   0   55.07    8.97
   4  10   0   41.51    7.78
   5 -10   0  308.12   18.76
  -5 -10   0  313.22   19.83
   5  10   0  349.33   20.26
  -5  10   0  324.17   19.93
   0 -11   0    0.09    2.35
   0  11   0    1.60    2.33
   1 -11   0   46.90    7.50
  -1 -11   0   50.50    7.77
   1  11   0   37.53    6.53
   2  11   0 1532.12   69.43
   2 -11   0 1495.19   67.92
  -2 -11   0 1502.33   67.78
  -2  11   0 1507.46   69.51
  -3  11   0  572.97   31.84
   3  11   0  585.99   31.64
   3 -11   0  553.87   29.78
  -4  11   0  229.51   16.36
   4  11   0  204.07   15.71
  -4 -11   0  213.53   15.59
   4 -11   0  215.39   14.89
   5 -11   0  107.42    8.82
   5  11   0  109.95    9.66
  -5  11   0  109.29    9.64
  -5 -11   0   99.69    9.13
   0 -12   0  240.60   16.30
   0  12   0  230.41   15.34
  -1 -12   0 1255.17   57.94
   1  12   0 1231.13   57.92
   1 -12   0 1258.13   58.07
   2 -12   0  113.14   10.22
  -2 -12   0  109.97    9.97
   2  12   0  100.44   10.49
  -2  12   0  118.39   11.27
  -3  12   0   11.56    4.49
   3  12   0   16.32    5.12
  -4  12   0   21.17    5.34
   4  12   0   23.34    5.61
   4 -12   0   17.11    4.31
   5  12   0  150.64   10.74
  -5  12   0  155.07   10.83
   0  13   0    0.82    2.34
   0 -13   0   -1.33    2.42
   1 -13   0   46.28    7.69
   1  13   0   44.97    7.37
  -1 -13   0   34.16    6.84
  -2  13   0  192.32   14.66
  -2 -13   0  185.31   13.66
   2 -13   0  196.93   13.87
   2  13   0  203.76   14.97
   3  13   0   21.83    5.43
  -3  13   0   25.58    5.97
  -4  13   0   -2.45    2.08
   4  13   0    1.58    2.62
   0 -14   0 1242.92   57.80
   0  14   0 1239.12   57.02
  -1 -14   0 1050.68   48.97
   1 -14   0 1008.77   48.51
   1  14   0 1007.67   48.71
  -2 -14   0   38.69    6.55
   2 -14   0   32.42    5.90
   2  14   0   38.06    6.98
  -3  14   0   47.63    7.08
   3  14   0   44.99    7.02
   4  14   0   40.05    5.68
   0 -15   0    0.44    2.35
   1 -15   0  482.79   26.02
  -1 -15   0  512.39   26.39
   1  15   0  475.06   25.85
   2  15   0  236.32   14.96
  -2 -15   0  214.83   13.75
   2 -15   0  214.57   13.69
   3  15   0    6.68    3.05
   0 -16   0  214.08   13.79
   1 -16   0  393.89   21.15
  -1 -16   0  414.73   21.54
   1  16   0  387.23   21.38
   2  16   0    8.72    3.04
  -2 -16   0    9.53    3.14
   0 -17   0    2.00    2.33
  -1   0   1 6691.21  284.46
   1   0   1 7272.83  284.40
   1   0  -1 6962.20  282.76
  -1   0  -1 6873.69  284.40
   2   0  -1 1531.29   64.96
   2   0   1 1474.09   64.51
  -2   0  -1 1455.90   62.87
  -3   0   1    9.04    2.64
   3   0  -1   13.56    4.35
   3   0   1    7.03    3.32
  -3   0  -1    7.97    2.46
   4   0  -1   24.18    6.58
  -4   0   1   19.77    4.59
  -4   0  -1   26.05    5.14
   4   0   1   24.73    6.52
   5   0  -1  103.90    9.49
   5   0  -1  113.05   10.72
  -5   0  -1  106.04   11.14
   5   0  -1  112.81   10.19
   5   0   1  104.73   10.16
   6   0   1   53.96    6.84
   0  -1   1  143.56    6.97
   0   1   1  137.21    6.08
   0   1  -1  139.25    6.61
   1  -1   1 6330.30  231.70
   1   1  -1 5433.44  229.86
  -1  -1  -1 5400.96  229.89
   1   1  -1 6314.79  230.32
  -1   1   1 5404.85  229.62
   1   1   1 5311.53  230.65
  -1   1  -1 5379.92  230.14
   1  -1  -1 5600.33  230.42
  -2   1   1 5763.58  231.08
   2  -1   1 5748.22  232.52
  -2  -1  -1 5667.19  230.30
   2   1  -1 5700.93  232.52
   2  -1  -1 5323.88  232.26
   3  -1   1 1578.52   72.00
  -3  -1  -1 1630.96   68.62
   3   1  -1 1488.15   71.71
  -3   1   1 1648.80   69.63
   3  -1  -1 1604.89   72.25
  -3   1  -1 1604.12   69.35
  -3  -1   1 1619.39   69.20
   3   1   1 1544.66   71.97
   4  -1   1  154.47   14.35
  -4   1   1  140.92   11.53
   4   1  -1  161.25   14.73
  -4  -1   1  161.71   11.69
   4   1   1  150.45   14.26
   4  -1  -1  145.45   14.27
  -4   1  -1  141.32   11.43
  -5  -1  -1  427.68   26.48
   5  -1   1  425.02   24.60
   5   1  -1  424.42   24.99
   5   1   1  429.94   24.18
  -5  -1   1  435.48   26.03
   5  -1  -1  440.11   24.12
   5  -1  -1  423.72   24.48
  -6  -1  -1  781.18   40.94
   6  -1   1  789.73   38.60
   0   2   1  114.53    5.63
   0   2  -1  104.91    6.08
  -1   2   1 7736.18  321.21
   1   2  -1 8105.43  320.43
   1   2  -1 7641.95  320.62
   1  -2   1 7829.12  319.93
   1  -2   1 7645.95  321.10
  -1   2  -1 7981.15  322.68
   1   2   1 8507.66  318.84
   1   2   1 7319.54  320.42
   2  -2   1  410.16   20.55
   2   2  -1  426.90   21.43
  -2   2   1  434.69   21.85
   2  -2   1  449.45   23.02
  -2  -2  -1  429.55   20.83
   2   2  -1  487.15   23.18
   2   2   1  497.91   23.23
   2  -2  -1  520.99   23.97
  -2   2  -1  511.02   22.37
  -3  -2  -1  928.34   38.93
  -3   2   1  910.13   40.11
   3  -2   1  939.78   42.76
   3   2  -1  990.10   43.40
  -3  -2   1  756.55   38.62
   3   2   1  775.67   41.33
  -3   2  -1  754.30   39.32
   3  -2  -1  811.42   42.11
  -4  -2  -1  588.07   31.27
   4   2  -1  575.57   30.50
   4  -2   1  583.46   29.84
   4  -2   1  591.69   34.42
  -4   2   1  620.99   31.64
   4   2  -1  599.20   34.48
  -4   2  -1  549.14   30.48
  -4  -2   1  565.04   30.37
   4  -2  -1  557.84   33.91
   4   2   1  591.58   34.38
   4  -2  -1  570.56   29.80
  -4  -2   1  565.05   29.71
   4  -2  -1  616.09   29.82
   5   2  -1  234.80   16.89
   5  -2   1  205.91   15.84
  -5  -2  -1  239.12   17.73
   5  -2   1  206.16   15.27
   5  -2  -1  258.49   16.42
   5  -2  -1  250.83   16.75
  -5  -2   1  242.25   17.59
  -6   2   1  204.20   14.28
   6  -2   1  208.20   14.52
   6   2  -1  208.64   14.88
  -6  -2  -1  214.94   16.39
   6  -2  -1  199.70   14.18
  -6  -2   1  212.12   15.98
   0   3  -1   29.78    2.96
   0  -3   1   33.61    3.56
   0   3   1   31.21    2.53
  -1   3   1  113.79    6.59
   1  -3   1  119.55    6.78
   1   3  -1  111.30    6.34
   1  -3   1  114.10    6.81
   1   3  -1  110.68    6.52
   1   3   1   98.77    6.56
   1   3   1   89.29    5.48
  -1   3  -1   97.26    6.55
   2   3  -1 1910.88   77.95
  -2  -3  -1 1893.37   76.89
   2  -3   1 1830.83   76.69
  -2   3   1 1844.82   78.37
   2   3  -1 1894.73   79.13
   2  -3   1 1594.36   78.86
   2   3   1 1712.20   78.97
  -2   3  -1 2054.03   78.93
   3   3  -1  812.97   37.57
  -3   3   1  755.52   35.14
   3  -3   1  736.06   36.87
  -3  -3  -1  748.63   32.99
  -3   3  -1  642.27   34.18
  -3  -3   1  667.20   33.27
   3   3   1  669.11   35.85
   4  -3   1   53.78    8.52
   4   3  -1   46.13    7.49
   4   3  -1   54.72    9.89
  -4  -3  -1   53.38    7.08
  -4   3   1   50.49    6.93
   4  -3   1   54.34    6.81
   4  -3   1   50.67    6.32
   4   3   1   42.02    8.69
  -4  -3   1   40.42    7.02
   4  -3  -1   34.52    6.28
   4  -3  -1   44.26    6.89
   4   3   1   37.30    6.72
  -4   3  -1   37.90    7.25
   5   3  -1  310.98   20.30
   5  -3   1  303.09   19.68
  -5  -3  -1  331.90   21.89
  -5  -3   1  306.26   21.00
   5  -3  -1  316.59   20.15
   5  -3  -1  297.16   19.27
   5   3   1  298.66   19.63
  -5   3  -1  314.97   19.66
  -6   3   1  492.51   25.39
  -6  -3  -1  469.57   27.12
   6   3  -1  483.03   25.39
   6  -3   1  493.56   25.29
  -6  -3   1  398.95   25.76
  -6   3  -1  389.35   23.74
   6  -3  -1  411.02   24.27
   0  -4   1 5154.74  244.70
   0   4  -1 6807.20  244.35
   1   4  -1 4951.00  209.19
  -1   4   1 5118.70  209.50
   1   4  -1 4863.06  208.72
   1  -4   1 5164.29  209.82
   1   4   1 5246.55  208.34
   1   4   1 5327.19  209.59
   2   4  -1  820.91   38.07
   2   4  -1  864.91   39.43
  -2   4   1  831.56   38.93
  -2   4  -1  892.73   39.57
   2   4   1  888.20   39.67
   3  -4   1 3065.46  132.17
  -3   4   1 3018.68  130.26
   3   4  -1 2879.77  131.87
  -3  -4   1 3113.02  128.60
  -3   4  -1 3123.93  130.73
   3   4   1 3179.27  131.89
  -4   4   1  171.86   13.56
   4   4  -1  181.07   15.54
   4   4  -1  148.91   12.30
  -4  -4  -1  175.58   13.37
   4  -4   1  168.37   12.24
   4  -4  -1  144.26   11.50
   4   4   1  138.48   11.75
   4  -4  -1  161.83   12.22
  -4   4  -1  146.15   12.94
  -4  -4   1  134.45   11.85
   4   4   1  136.20   14.03
   5   4  -1  203.80   15.69
  -5  -4  -1  200.41   16.53
   5  -4   1  204.69   15.34
   5   4   1  198.84   15.17
   5  -4  -1  219.75   15.68
   5  -4  -1  207.25   15.25
  -5  -4   1  203.33   16.18
  -5   4  -1  207.38   15.53
   6   4  -1  215.72   14.87
  -6   4   1  222.87   14.84
  -6  -4  -1  210.55   16.13
   6  -4   1  203.86   14.47
   6  -4  -1  200.81   14.38
  -6  -4   1  202.97   15.72
  -6   4  -1  205.79   14.26
   0   5   1   60.49    4.76
   0   5  -1   54.39    5.04
   0   5  -1   56.20    4.18
   0  -5   1   62.16    6.20
  -1   5   1 1919.06   82.93
   1   5  -1 1925.26   82.73
   1   5  -1 1838.02   81.96
   1  -5   1 1976.79   83.74
  -1   5  -1 2091.21   83.67
   1   5   1 1991.60   82.89
   1   5   1 2018.49   81.82
   2   5  -1 2680.14  118.95
  -2   5   1 2705.16  120.29
   2   5  -1 2804.66  120.19
   2   5   1 2976.47  120.62
  -2   5  -1 3109.85  121.24
   3   5  -1  970.65   47.46
  -3   5   1  930.40   46.11
  -3   5  -1  977.02   46.53
   3   5   1 1003.80   47.30
   4  -5   1 1178.41   54.42
  -4  -5  -1 1197.55   55.94
   4   5  -1 1198.32   55.45
   4  -5  -1 1159.30   54.19
  -4  -5   1 1146.51   55.09
   4   5   1 1171.37   58.93
   4  -5  -1 1164.02   54.58
  -4   5  -1 1128.95   54.66
   4   5   1 1121.38   54.58
   5   5  -1  393.17   24.85
   5  -5   1  432.75   24.99
  -5  -5  -1  410.11   26.07
  -5   5   1  417.44   24.97
  -5   5  -1  413.04   24.75
  -5  -5   1  421.54   25.91
   5  -5  -1  424.20   24.93
   5   5   1  418.93   25.01
   6   5  -1  791.51   38.29
  -6  -5  -1  755.15   40.03
   6  -5   1  830.34   38.64
  -6   5   1  800.10   38.68
  -6  -5   1  774.87   39.92
   6  -5  -1  728.22   37.69
  -6   5  -1  756.66   37.99
   0   6  -1 1696.42   68.88
   0   6   1 1572.64   69.37
   0   6   1 1640.11   69.95
   0   6  -1 1636.22   70.28
  -1   6   1 1318.96   58.67
   1  -6   1 1368.11   60.17
   1   6  -1 1343.38   58.48
   1   6  -1 1207.17   57.28
   1   6   1 1356.69   58.45
  -1   6  -1 1449.91   59.66
   1   6   1 1401.16   57.57
   2   6  -1   59.50    6.18
   2   6  -1   55.48    5.51
  -2   6   1   54.19    6.25
   2   6   1   74.99    6.78
  -2   6  -1   74.49    7.13
  -3   6   1 2600.61  112.43
   3   6   1 2538.28  112.58
  -3   6  -1 2594.99  112.76
   4   6  -1 1536.73   73.29
  -4  -6  -1 1510.33   73.41
   4  -6   1 1543.49   72.21
  -4  -6   1 1634.18   73.60
   4   6   1 1656.69   73.35
   4  -6  -1 1664.77   72.85
  -4   6  -1 1664.60   73.48
   5   6  -1  495.76   29.50
   5  -6   1  520.92   28.93
  -5  -6  -1  509.42   30.49
  -5   6   1  521.85   29.48
   5   6   1  521.39   29.44
  -5   6  -1  538.22   29.82
   5  -6  -1  523.16   29.17
  -5  -6   1  527.85   30.41
   6  -6   1  264.79   16.83
  -6   6   1  286.16   17.42
  -6  -6  -1  274.42   18.50
   6   6  -1  279.15   17.21
   6   6   1  267.70   16.79
  -6  -6   1  274.84   18.34
  -6   6  -1  270.57   17.09
   6  -6  -1  274.54   16.99
   0   7   1   33.74    4.18
   0   7  -1   34.38    4.64
   0   7   1   31.87    4.07
   1   7  -1  673.56   32.61
  -1   7   1  684.53   33.12
   1   7   1  709.75   32.63
  -1   7  -1  713.71   33.79
  -2   7   1  784.32   37.00
   2   7   1  724.61   35.76
  -2   7  -1  734.00   36.88
   3   7  -1  706.69   36.33
  -3   7   1  714.51   37.86
   3  -7   1  708.87   35.43
  -3  -7  -1  721.25   36.34
  -3   7   1  730.93   36.37
  -3   7  -1  718.90   36.35
   3   7   1  727.90   36.18
   3  -7  -1  779.45   36.05
  -3   7  -1  744.34   38.14
  -4  -7  -1  886.80   44.14
   4  -7   1  877.39   42.54
   4   7  -1  889.74   43.86
  -4   7   1  928.11   43.82
   4  -7  -1  818.34   42.28
  -4   7  -1  764.12   42.54
  -4  -7   1  849.77   43.45
   4   7   1  856.32   43.14
   5   7  -1  931.06   48.33
  -5  -7  -1  960.58   49.42
  -5   7   1  972.25   48.37
   5  -7   1  970.99   47.69
  -5   7  -1  994.68   48.57
  -5  -7   1 1011.44   49.64
   5   7   1  999.75   48.42
   5  -7  -1  971.05   47.79
  -6  -7  -1  233.17   16.56
   6   7  -1  237.67   15.47
  -6   7   1  236.33   15.68
   6  -7   1  247.65   15.48
  -6   7  -1  259.93   15.99
   6  -7  -1  265.53   15.87
  -6  -7   1  261.43   17.10
   6   7   1  251.32   15.26
   0   8  -1 1166.43   53.17
   0   8   1 1178.83   52.39
   0   8   1 1158.61   52.30
   1   8  -1  134.95    9.96
  -1   8   1  144.90   10.58
  -1   8  -1  132.95   10.68
  -2   8   1  111.69   10.16
  -2   8  -1  116.51   10.60
   3   8  -1  427.61   24.18
   3  -8   1  423.67   23.07
  -3   8   1  422.52   25.57
  -3   8   1  438.06   24.19
  -3  -8  -1  427.59   24.00
  -3  -8   1  403.33   23.63
   3  -8  -1  404.25   23.15
  -3   8  -1  408.06   23.96
   3   8   1  398.51   23.54
  -3   8  -1  404.70   27.56
  -4  -8  -1 1282.63   60.95
   4   8  -1 1265.25   60.40
  -4   8   1 1206.98   59.72
   4  -8   1 1168.83   58.48
  -4   8  -1 1257.27   60.22
  -4  -8   1 1312.02   60.61
   4   8   1 1318.20   60.32
   4  -8  -1 1287.68   59.38
  -5  -8  -1  282.50   19.48
   5  -8   1  280.91   18.15
   5   8  -1  281.25   19.04
  -5   8   1  279.12   18.68
  -5   8  -1  285.37   18.97
  -5  -8   1  267.12   19.14
   5  -8  -1  249.38   17.66
   5   8   1  264.74   18.38
  -6   8   1  103.13    9.03
   6  -8   1   98.71    8.79
   6   8  -1   94.82    8.66
  -6  -8  -1  111.14    9.79
  -6  -8   1  116.28   10.02
   6   8   1  101.10    8.54
  -6   8  -1  108.77    9.00
   6  -8  -1  102.90    8.61
   0   9  -1   45.89    6.16
  -1   9   1 1517.72   67.16
  -1   9  -1 1445.61   67.45
  -2  -9  -1  583.42   28.57
   2  -9   1  611.72   29.03
  -2   9   1  605.63   31.75
   2   9  -1  617.91   30.30
  -2   9   1  610.21   30.21
  -2   9  -1  537.45   29.98
   2  -9  -1  535.91   28.66
  -2  -9   1  526.34   28.19
  -2   9  -1  529.90   31.22
   3  -9   1  210.33   14.88
  -3   9   1  221.16   15.92
  -3  -9  -1  195.17   15.10
   3   9  -1  230.72   16.21
  -3  -9   1  238.74   16.15
  -3   9  -1  240.52   16.67
   3  -9  -1  241.28   15.61
   3   9   1  221.96   15.88
  -4  -9  -1  329.12   21.60
  -4   9   1  334.24   21.32
   4   9  -1  338.26   21.65
   4  -9   1  334.39   20.36
  -4  -9   1  313.52   20.93
  -4   9  -1  301.81   20.96
   4  -9  -1  306.42   20.04
   4   9   1  332.66   21.24
   5   9  -1  105.46   10.74
  -5  -9  -1  109.83   10.81
   5  -9   1  111.40   10.17
  -5   9   1   99.43   10.36
   5  -9  -1  108.08   10.24
  -5  -9   1  117.10   11.16
  -5   9  -1  123.70   11.21
   5   9   1  117.20   10.88
   0 -10  -1  582.86   29.22
   0 -10   1  561.61   28.86
   0  10  -1  569.28   34.00
   1 -10   1  633.40   30.71
   1  10  -1  617.11   30.76
  -1 -10  -1  656.80   31.09
   1  10   1  596.31   30.60
  -1  10  -1  572.34   32.53
   1 -10  -1  600.59   30.67
  -1 -10   1  609.58   30.58
  -1  10  -1  582.38   31.24
  -2  10   1  244.79   26.14
  -2 -10  -1  275.43   16.60
  -2  10   1  261.72   17.56
   2 -10   1  277.57   16.71
   2  10  -1  288.25   17.87
   2 -10  -1  251.98   16.22
  -2 -10   1  262.97   16.17
   2  10   1  252.33   17.09
  -2  10  -1  267.85   17.81
   2 -10  -1  270.64   16.71
   3  10  -1  291.60   19.02
  -3  10   1  248.94   18.26
   3 -10   1  256.69   17.07
  -3 -10  -1  252.22   17.86
   3 -10  -1  298.08   18.04
  -3  10  -1  302.01   19.58
  -3 -10   1  275.83   18.22
   3  10   1  280.62   18.76
  -4  10   1  461.95   26.38
   4  10  -1  444.43   26.19
   4 -10   1  435.76   24.61
  -4 -10  -1  450.14   26.21
   4 -10  -1  404.73   24.40
  -4  10  -1  419.84   25.84
  -4 -10   1  424.84   25.65
   4  10   1  431.57   25.73
  -5 -10  -1   23.48    5.61
  -5  10   1   21.44    5.10
   5  10  -1   25.52    5.89
   5 -10   1   22.22    4.84
   5 -10  -1   27.82    5.31
  -5  10  -1   28.11    5.95
  -5 -10   1   27.85    6.06
   5  10   1   30.12    5.93
   0 -11  -1 1157.51   52.68
   0 -11   1 1126.80   52.26
   0  11  -1 1095.94   51.39
   0  11   1 1115.66   51.72
   1 -11   1  450.84   24.90
   1  11  -1  446.72   25.04
  -1 -11  -1  452.73   25.07
  -1 -11   1  459.08   25.15
   1  11   1  474.62   25.37
   1 -11  -1  476.30   25.47
  -1  11  -1  468.60   25.92
  -2 -11  -1  408.47   23.28
   2 -11   1  406.35   23.22
  -2  11   1  419.90   24.44
   2  11  -1  423.70   24.59
  -2  11  -1  426.79   25.02
   2  11   1  408.29   24.31
  -2 -11   1  430.61   23.21
   2 -11  -1  423.76   23.57
   3  11  -1   88.65   10.05
  -3  11   1   93.63   10.28
  -3 -11   1   92.37   12.18
   3  11   1  104.72   10.75
  -3  11  -1  104.37   10.86
   3 -11  -1  108.01    9.80
  -4  11   1   54.29    8.48
   4 -11   1   57.30    7.33
   4  11  -1   57.81    9.09
  -4 -11  -1   56.65    7.64
   4  11   1   64.15    8.51
  -4 -11   1   64.97    7.96
  -4  11  -1   71.23    8.64
   4 -11  -1   71.07    8.02
   5 -11   1  448.46   22.96
   5  11  -1  460.56   24.33
  -5 -11  -1  438.53   23.95
  -5  11   1  463.97   24.21
  -5 -11   1  412.06   23.65
  -5  11  -1  428.29   23.99
   5 -11  -1  447.52   23.21
   5  11   1  451.74   24.06
   0 -12   1 1781.26   78.15
   0  12   1 1742.30   77.44
   0 -12  -1 1740.85   78.15
   0  12  -1 1701.10   76.85
   1 -12   1  856.13   41.64
  -1 -12  -1  840.88   41.55
   1  12  -1  799.25   41.30
   1 -12  -1  873.95   41.88
  -1 -12   1  877.93   41.81
   1  12   1  850.45   41.73
  -1  12  -1  827.49   41.84
  -2  12   1   60.12    9.14
   2  12  -1   57.18    8.74
  -2 -12  -1   57.42    8.34
   2 -12   1   63.77    7.63
  -2  12  -1   59.40    9.45
   2  12   1   61.79    9.23
  -2 -12   1   57.50    8.21
   2 -12  -1   63.46    7.63
   3  12  -1  212.22   16.43
  -3  12   1  226.14   16.71
   3 -12  -1  238.21   15.70
   3  12   1  256.75   17.33
  -3  12  -1  248.28   17.43
   4  12  -1  613.22   32.08
  -4  12   1  601.18   31.87
   4 -12   1  603.41   30.99
   4 -12  -1  588.77   30.41
  -4  12  -1  622.67   32.32
   4  12   1  642.51   32.31
  -4 -12   1  574.41   32.45
   5  12  -1   10.42    3.49
  -5  12   1    9.98    3.30
   5  12   1    7.75    3.33
  -5  12  -1    5.88    2.98
   0 -13   1 1225.60   57.52
   0  13   1 1250.43   56.91
   0 -13  -1 1200.08   57.27
   1  13  -1  781.29   39.65
   1 -13   1  795.39   39.63
  -1  13   1  777.74   38.45
  -1 -13  -1  815.12   39.99
   1 -13  -1  773.54   39.42
  -1 -13   1  820.85   39.71
   1  13   1  793.14   39.81
   2  13  -1  309.83   20.86
  -2 -13  -1  347.69   20.51
   2 -13   1  327.34   20.17
  -2 -13   1  362.17   20.57
  -2  13  -1  353.97   21.74
   2 -13  -1  336.62   20.10
   2  13   1  387.54   22.28
   3  13  -1  261.56   17.70
  -3  13   1  261.14   17.51
   3  13   1  247.90   17.29
  -3  13  -1  262.03   17.67
  -4  13   1  187.41   13.62
   4  13  -1  191.52   13.72
  -4  13  -1  220.23   14.32
   4  13   1  220.23   14.45
   0 -14   1  966.35   45.42
   0  14   1  896.46   44.42
   0 -14  -1  940.44   45.48
   1 -14   1   78.32    8.50
  -1 -14  -1   67.82    8.22
   1  14  -1   73.48    8.27
   1  14   1   85.89    8.90
  -1 -14   1   65.64    7.97
   1 -14  -1   66.67    8.01
   2 -14   1   34.59    6.03
   2  14  -1   33.51    6.30
  -2 -14  -1   42.83    6.61
   2  14   1   36.12    6.78
  -2  14  -1   35.76    6.67
  -2 -14   1   32.98    6.01
   2 -14  -1   32.94    6.03
   3  14  -1  192.41   13.74
  -3  14  -1  194.45   13.77
   3  14   1  202.92   14.24
   4  14  -1   25.75    4.77
   4  14   1   45.04    5.68
   0 -15   1  498.79   26.86
   0 -15  -1  527.36   27.39
   0  15   1  492.55   26.40
  -1 -15  -1   90.84    8.79
   1 -15   1   93.03    8.71
   1  15  -1   90.78    8.54
   1 -15  -1   84.41    8.48
   1  15   1   84.04    8.58
  -1 -15   1   90.86    8.70
   2 -15   1   21.63    4.54
  -2 -15  -1   19.84    4.55
   2  15  -1   24.58    5.20
  -2 -15   1   18.78    4.30
   2 -15  -1   27.47    5.03
   2  15   1   27.49    5.25
   3  15  -1  125.76    9.51
  -3  15  -1  121.16   12.08
   3  15   1  107.51    9.20
   0 -16  -1   59.40    6.75
   0 -16   1   57.55    7.54
   1 -16   1  214.05   13.42
  -1 -16  -1  209.01   13.35
   1  16   1  209.16   13.39
  -1 -16   1  212.71   13.38
   1 -16  -1  206.24   13.22
  -2 -16  -1   93.73    7.32
   2 -16   1   94.19    8.05
   2  16  -1   86.25    8.41
   2  16   1   83.07    7.68
  -2 -16   1   80.44    7.71
   0 -17  -1  133.12    9.34
   0 -17   1  138.27    9.55
   0   0  -2  862.92   35.77
  -1   0  -2  323.13   14.66
   1   0  -2  338.03   15.33
   1   0  -2  347.54   15.86
  -1   0   2  317.56   14.53
   1   0   2  339.12   15.53
   2   0   2  161.31   10.54
  -2   0   2  171.11    9.89
  -2   0  -2  170.99    9.35
   2   0  -2  178.96   11.11
  -3   0  -2 1057.49   47.02
   3   0   2 1065.02   50.36
   3   0  -2 1026.07   50.12
  -3   0   2 1049.31   47.61
   4   0  -2 1655.79   80.28
   4   0   2 1787.99   83.62
   4   0   2 1722.34   80.20
  -4   0   2 1617.80   75.45
   5   0  -2  309.22   19.94
   5   0  -2  291.63   18.60
   5   0   2  319.54   19.33
  -5   0  -2  304.42   21.12
   6   0   2   27.83    5.38
   6   0  -2   30.93    6.09
   0   1  -2 2761.57  117.48
   0  -1   2 2990.17  117.03
  -1  -1  -2  338.38   14.96
   1   1  -2  343.07   16.15
  -1   1   2  368.81   16.11
   1  -1   2  342.63   16.16
   1   1  -2  351.11   16.22
   2   1  -2 1051.00   46.61
  -2   1   2  965.43   45.22
  -2  -1  -2 1093.90   44.39
   2  -1   2  999.43   46.25
  -2  -1   2  989.93   45.18
   2  -1  -2 1003.02   46.72
  -2   1  -2 1085.91   45.17
   2   1   2 1118.00   46.69
  -3   1   2 2234.20  108.75
  -3  -1  -2 2715.68  108.19
   3   1  -2 2379.52  111.44
   3  -1   2 2375.27  111.35
  -3   1  -2 2806.97  109.41
   3  -1  -2 2314.99  111.46
  -3  -1   2 2794.33  109.48
   3   1   2 2973.64  112.79
   4  -1   2  254.89   16.48
  -4   1   2  268.70   17.36
   4   1  -2  291.48   21.13
   4   1  -2  267.05   17.25
  -4  -1  -2  284.57   18.44
   4  -1   2  279.80   20.51
  -4  -1   2  279.45   17.38
   4   1   2  261.67   20.15
   4  -1  -2  280.82   16.61
  -4   1  -2  248.55   16.80
   4  -1  -2  276.75   20.59
   5   1  -2  656.12   31.80
   5  -1   2  651.10   33.01
  -5  -1  -2  641.24   35.20
   5   1  -2  647.81   33.47
  -5  -1   2  577.35   33.13
   5  -1  -2  588.03   32.59
   5  -1  -2  618.61   32.20
   5   1   2  583.58   31.56
   5  -1  -2  601.00   32.24
   6  -1   2  662.25   34.39
  -6  -1  -2  703.74   37.46
   6   1  -2  700.36   35.16
   6  -1  -2  689.20   34.35
   0  -2   2 1334.59   56.43
   0   2  -2 1322.73   55.81
   0   2   2 1329.45   54.67
  -1  -2  -2  975.22   38.91
   1  -2   2  973.94   41.09
   1   2  -2  979.85   40.68
   1   2  -2  792.51   40.00
  -1   2   2  997.02   40.39
   1  -2   2  852.23   40.32
   1   2   2  999.34   41.02
  -1  -2   2 1013.66   41.12
  -2  -2  -2  745.98   32.48
   2   2  -2  716.96   33.78
   2  -2   2  736.55   34.99
   2   2  -2  806.40   35.35
  -2   2   2  734.89   33.99
  -2   2  -2  753.07   34.03
   2   2   2  739.14   34.94
   2  -2  -2  789.82   35.73
  -3  -2  -2  149.13    8.94
   3  -2   2  153.77   11.96
  -3   2   2  152.08   10.37
   3   2  -2  153.52   11.99
   3  -2  -2  131.68   11.46
  -3   2  -2  117.83    9.51
   3   2   2  122.87   10.90
  -3  -2   2  130.14    9.52
   4   2  -2  255.98   19.32
   4   2  -2  228.23   15.70
  -4  -2  -2  252.55   16.94
   4  -2   2  244.10   15.38
  -4   2   2  248.46   16.39
   4  -2   2  248.07   18.91
   4   2   2  233.66   18.56
   4  -2  -2  213.61   14.45
   4  -2  -2  205.13   14.62
  -4   2  -2  235.99   16.00
   4  -2  -2  230.86   16.24
  -4  -2   2  203.55   14.92
  -4  -2   2  216.15   14.88
  -5  -2  -2  354.91   22.31
   5   2  -2  325.68   20.46
   5  -2   2  349.80   20.20
   5  -2  -2  263.95   18.26
  -5   2  -2  277.70   18.50
   5  -2  -2  295.48   19.17
  -5  -2   2  293.66   20.06
   5  -2  -2  280.27   18.92
   5   2   2  279.78   18.59
   6   2  -2   42.36    7.19
  -6  -2  -2   46.81    8.81
   6  -2   2   41.20    6.90
   6  -2  -2   56.98    7.80
  -6  -2   2   63.22    8.21
   0   3  -2 4387.94  197.14
   0   3   2 5266.44  196.27
   1  -3   2 2762.62  110.67
  -1   3   2 2685.66  109.77
   1   3  -2 2785.71  109.45
   1   3  -2 2733.22  110.32
  -1  -3   2 2726.92  111.25
   1   3   2 2350.60  108.14
   1   3   2 2669.54  110.45
  -1   3  -2 2574.02  110.25
  -2   3   2  693.23   33.73
  -2  -3  -2  741.20   32.13
   2   3  -2  747.52   33.82
   2  -3   2  790.63   35.12
   2  -3   2  680.17   33.14
   2   3  -2  751.04   34.95
  -2   3  -2  813.37   34.72
   2   3   2  767.22   34.83
  -3   3   2   14.08    3.41
   3   3  -2   17.10    4.57
  -3   3  -2    6.37    2.65
   3   3   2    9.37    3.67
  -3  -3   2    8.48    2.66
  -4   3   2  124.23   10.90
   4  -3   2  105.61    9.54
   4  -3   2  106.15    9.33
   4  -3   2  119.29   12.58
   4   3  -2  116.13   12.48
  -4  -3  -2  114.58   10.86
   4   3  -2  121.80   10.74
  -4   3  -2   98.79   10.03
  -4  -3   2  103.62    9.78
   4  -3  -2  101.75    9.44
   4  -3  -2   94.78    8.98
  -4  -3   2   91.52    8.93
   4  -3  -2   97.16    9.23
   4   3   2  106.22   12.02
   4   3   2   96.78    9.13
   5   3  -2  475.07   26.26
  -5  -3  -2  489.29   27.89
   5  -3   2  469.45   25.68
  -5  -3   2  388.87   25.41
  -5   3  -2  409.56   24.49
   5  -3  -2  398.85   24.19
   5  -3  -2  399.39   24.57
   6   3  -2  455.19   25.80
   6  -3   2  464.07   25.59
  -6  -3  -2  490.93   28.02
  -6   3   2  512.69   26.21
  -6  -3   2  430.14   26.39
   6  -3  -2  435.88   24.92
   0   4  -2 5293.31  197.86
   0   4  -2 4291.15  195.30
   0  -4   2 4874.94  198.70
   1   4  -2 1012.93   48.07
   1   4  -2 1130.03   49.40
  -1   4   2 1186.96   49.12
   1  -4   2 1196.11   50.11
   1   4   2 1204.77   49.74
  -1  -4   2 1039.94   50.57
  -1   4  -2 1217.56   49.96
   1   4   2 1146.11   47.42
  -2   4   2   54.08    5.42
   2   4  -2   52.38    5.56
   2  -4   2   54.36    5.82
   2   4  -2   56.84    5.23
   2  -4   2   54.49    5.01
   2   4   2   61.01    6.03
  -2   4  -2   65.48    6.02
  -3   4   2  252.51   16.42
   3  -4   2  252.57   17.65
   3   4  -2  274.77   18.08
  -3  -4   2  288.54   15.92
   3   4   2  287.31   18.06
  -3   4  -2  292.56   17.34
   4   4  -2 1162.79   56.28
  -4   4   2 1122.04   53.27
   4  -4   2 1164.48   51.86
   4   4  -2 1167.78   52.84
  -4  -4  -2 1131.08   53.24
  -4  -4   2 1053.48   51.81
  -4   4  -2 1081.12   51.49
   4  -4  -2 1154.94   51.91
   4  -4  -2 1026.93   50.62
   4  -4  -2 1044.66   50.78
  -4   4  -2 1021.58   52.85
   4   4   2 1030.14   51.07
   4   4   2 1060.34   55.77
  -5  -4  -2  304.22   20.80
   5  -4   2  299.96   19.07
   5   4  -2  307.61   20.01
   5   4   2  271.93   19.43
   5  -4  -2  273.45   18.77
   5  -4  -2  283.55   18.55
  -5   4  -2  281.80   18.67
  -5  -4   2  254.26   19.12
  -6  -4  -2  200.52   15.63
   6  -4   2  191.96   13.87
  -6   4   2  185.80   13.86
   6   4  -2  203.31   14.42
  -6   4  -2  196.70   13.61
   6  -4  -2  203.79   13.91
  -6  -4   2  201.02   15.20
   0   5  -2   17.14    1.83
   0   5   2   15.92    2.32
   0   5  -2   13.62    2.82
   0  -5   2   23.17    4.36
  -1   5   2 2118.57   88.35
   1  -5   2 2140.00   89.51
   1   5  -2 2162.22   87.23
   1   5  -2 2021.74   88.52
   1   5   2 2060.01   88.62
   1   5   2 2021.49   86.47
  -1   5  -2 2155.15   89.26
  -2   5   2 1139.61   50.68
   2   5  -2 1133.86   50.56
   2   5  -2 1179.14   50.38
   2   5   2 1067.69   50.89
  -2   5  -2 1137.61   51.28
  -3   5   2   92.68    8.77
   3   5  -2  112.52   10.28
  -3   5  -2   91.98    9.16
   3   5   2   94.27    9.52
   4  -5   2  654.16   31.97
   4   5  -2  647.53   32.85
  -4  -5  -2  643.56   33.36
   4   5   2  580.54   38.04
  -4  -5   2  573.48   31.86
   4  -5  -2  549.98   30.71
  -4   5  -2  609.01   31.97
   4  -5  -2  578.19   31.26
   4   5   2  580.31   31.41
  -5  -5  -2  966.63   49.36
   5  -5   2  960.05   47.36
   5   5  -2 1054.59   48.99
  -5  -5   2  913.68   48.24
  -5   5  -2  903.72   47.22
   5   5   2  932.61   47.20
   5  -5  -2 1026.93   48.02
   6  -5   2   76.58    8.24
  -6   5   2   80.41    8.53
   6   5  -2   75.84    8.47
  -6  -5  -2   78.45    9.41
   6  -5  -2   95.60    8.91
  -6  -5   2   89.82    9.52
  -6   5  -2   99.19    8.93
   0   6   2   64.87    5.94
   0   6   2   68.63    5.34
   0  -6   2   65.49    7.11
   0   6  -2   74.37    6.51
   1  -6   2   71.04    6.69
   1   6  -2   67.12    5.90
  -1   6  -2   44.80    5.50
   1   6   2   43.13    4.94
   2   6  -2  759.88   34.25
  -2   6   2  748.42   34.94
  -2   6  -2  676.84   34.88
   2   6   2  685.44   34.52
  -3   6   2 1288.71   60.03
   3   6   2 1300.56   60.69
  -3   6  -2 1272.96   60.24
   4  -6   2 1819.50   81.19
   4   6  -2 1757.33   82.18
  -4  -6  -2 1816.95   82.98
   4   6   2 1802.87   81.55
  -4   6  -2 1820.16   82.05
   4  -6  -2 1805.90   81.42
   4  -6  -2 1790.28   81.30
  -4  -6   2 1912.98   82.77
   5   6  -2  806.06   40.57
  -5   6   2  785.29   40.01
  -5  -6  -2  819.15   41.62
   5  -6   2  797.67   39.56
  -5   6  -2  735.32   39.41
   5  -6  -2  743.39   39.19
   5   6   2  722.30   38.92
  -5  -6   2  725.21   40.16
   6  -6   2  194.06   13.41
   6   6  -2  201.22   13.66
  -6   6   2  204.39   13.79
  -6  -6  -2  197.38   14.77
   6  -6  -2  170.43   12.83
  -6  -6   2  181.04   14.00
  -6   6  -2  175.28   12.99
   0   7   2    6.36    2.36
   0   7   2    9.77    2.41
   0   7  -2    7.29    2.75
   1  -7   2 1147.19   53.39
  -1   7   2 1075.82   51.09
   1   7  -2 1147.09   51.69
  -1   7  -2 1207.61   52.90
   1   7   2 1170.70   51.64
  -2   7   2  965.80   45.62
   2   7  -2  966.26   44.53
   2   7   2  969.75   45.38
  -2   7  -2  951.37   46.12
  -3  -7  -2   83.94    8.34
   3  -7   2   83.22    7.72
  -3   7   2   86.08    8.19
  -3   7   2   79.24    8.79
   3   7  -2   73.24    8.19
   3   7   2   52.24    7.66
   3  -7  -2   58.53    7.10
  -3   7  -2   54.64    7.86
  -3   7  -2   55.16    7.23
   3   7   2   48.57    6.67
  -4  -7  -2  298.95   19.85
   4  -7   2  303.44   18.66
   4   7  -2  298.42   19.60
  -4   7   2  302.89   19.16
   4   7   2  250.04   18.02
  -4   7  -2  248.49   18.25
  -4  -7   2  247.98   18.29
   4  -7  -2  274.83   18.41
  -5  -7  -2  329.73   21.26
   5   7  -2  323.74   20.73
  -5   7   2  326.20   20.23
   5  -7   2  320.00   19.74
  -5  -7   2  278.81   20.04
  -5   7  -2  264.46   19.26
   5  -7  -2  274.16   18.89
   5   7   2  265.00   18.93
  -6   7   2   51.87    6.49
  -6  -7  -2   55.62    7.40
   6   7  -2   56.85    6.81
   6  -7   2   59.71    6.76
   6  -7  -2   38.92    6.14
  -6   7  -2   42.82    6.49
  -6  -7   2   35.78    6.75
   0   8   2   20.07    4.19
   1   8  -2  305.76   17.76
  -1   8   2  295.02   17.44
   1   8   2  309.38   17.50
  -1   8  -2  306.85   18.44
  -2   8   2 1300.36   57.41
  -2   8  -2 1185.40   57.66
   2   8   2 1192.10   56.34
  -3   8   2  174.31   13.32
  -3  -8  -2  161.27   13.19
  -3   8   2  164.52   15.75
   3   8  -2  173.45   13.70
   3  -8   2  179.76   12.66
   3   8   2  183.40   13.47
  -3   8  -2  189.57   14.05
   3  -8  -2  200.82   13.48
  -4   8   2  590.59   33.72
   4  -8   2  584.18   32.91
  -4  -8  -2  583.96   34.49
   4   8  -2  627.67   34.80
  -4   8  -2  660.50   35.00
   4   8   2  660.44   34.45
  -4  -8   2  703.24   35.33
   4  -8  -2  708.26   34.37
   5  -8   2  351.15   21.37
  -5   8   2  360.61   22.07
   5   8  -2  345.30   22.18
  -5  -8  -2  339.34   22.56
   5   8   2  349.15   21.63
  -5  -8   2  357.76   22.64
  -5   8  -2  360.68   22.44
   5  -8  -2  345.96   21.41
   6   8  -2  128.06    9.92
  -6  -8  -2  123.12   10.62
   6  -8   2  123.62    9.69
  -6   8   2  123.60    9.90
   6  -8  -2  129.04    9.71
  -6   8  -2  122.77    9.57
  -6  -8   2  144.28   11.42
   0   9  -2  141.31   11.35
   1   9  -2 1138.76   51.49
  -1   9   2 1109.84   51.41
  -1   9  -2 1055.90   52.28
  -2   9   2  120.78   11.34
   2  -9   2  129.59   10.03
   2   9  -2  117.82   10.56
  -2   9   2  118.92   10.48
  -2  -9  -2  121.91    9.87
   2   9   2  140.37   10.75
  -2   9  -2  147.63   11.58
  -2   9  -2  133.14   12.29
   2  -9  -2  139.67   10.47
  -3  -9  -2  382.77   23.45
  -3   9   2  394.18   23.53
   3   9  -2  402.10   23.96
   3  -9   2  387.18   22.25
  -3   9  -2  401.10   24.20
   3  -9  -2  408.57   23.11
   3   9   2  400.71   23.42
  -4  -9  -2  644.97   35.89
   4  -9   2  632.72   34.22
  -4   9   2  663.29   35.53
   4   9  -2  672.18   36.14
  -4  -9   2  671.80   35.76
   4   9   2  670.27   35.50
   4  -9  -2  681.77   35.05
  -4   9  -2  679.00   36.40
  -5  -9  -2   87.81    9.85
   5  -9   2   90.27    8.88
   5   9  -2   86.46    9.72
  -5   9   2   91.31    9.55
   5   9   2   99.73    9.79
  -5  -9   2   92.14    9.92
   5  -9  -2   95.64    9.38
  -5   9  -2   90.29    9.62
   0 -10   2 2059.62   89.57
   0  10  -2 2014.35   91.68
   0 -10  -2 2117.95   90.06
   1 -10   2  584.82   29.18
  -1 -10  -2  608.89   29.60
   1  10  -2  569.71   29.33
  -1  10  -2  542.67   31.65
  -1 -10   2  574.15   28.99
   1 -10  -2  579.34   29.53
  -1  10  -2  554.49   30.15
   1  10   2  571.45   29.30
  -2  10   2  128.22   11.10
  -2 -10  -2  133.71   10.47
   2  10  -2  117.25   10.86
   2 -10   2  128.84   10.35
   2 -10  -2  118.35   10.04
   2  10   2  136.84   11.15
  -2  10  -2  120.89   11.14
  -2 -10   2  119.13    9.95
   3  10  -2  122.81   11.66
   3 -10   2  108.75   10.07
  -3  10   2  108.62   11.01
   3  10   2  134.71   11.78
   3 -10  -2  123.92   10.87
  -3  10  -2  138.37   12.37
  -3 -10   2  144.31   11.86
   4  10  -2  134.26   12.76
  -4  10   2  120.30   12.00
  -4 -10  -2  128.17   12.28
   4 -10   2  126.33   11.26
   4  10   2  161.16   13.23
   4 -10  -2  163.19   12.58
  -4 -10   2  164.58   13.19
  -4  10  -2  156.89   13.41
  -5  10   2  152.31   12.29
   5  10  -2  159.01   12.59
   5 -10   2  154.30   11.51
  -5 -10  -2  153.37   12.45
   5 -10  -2  163.08   11.89
  -5  10  -2  153.66   12.16
  -5 -10   2  147.62   12.25
   5  10   2  157.35   12.17
   0 -11   2    1.23    2.63
   0 -11  -2    4.13    2.97
  -1 -11  -2  364.49   21.20
   1  11  -2  349.56   21.09
   1 -11   2  383.02   21.33
   1  11   2  380.12   21.53
  -1  11  -2  372.17   22.11
   1 -11  -2  369.28   21.43
  -1 -11   2  343.38   20.81
  -2 -11  -2 1258.50   56.50
   2  11  -2 1181.13   57.21
   2 -11   2 1237.06   56.26
  -2  11   2 1237.14   57.45
  -2 -11   2 1163.74   55.51
   2 -11  -2 1208.11   56.19
   2  11   2 1218.19   57.49
   2 -11  -2 1203.23   56.15
  -2  11  -2 1270.22   58.62
   3  11  -2  278.53   19.19
  -3  11   2  248.84   18.17
   3  11   2  257.08   18.34
  -3 -11   2  286.53   18.31
  -3  11  -2  300.74   19.71
   3 -11  -2  277.65   17.73
  -4 -11  -2  431.95   25.32
   4 -11   2  419.21   23.78
  -4  11   2  440.77   25.61
   4  11  -2  456.19   26.01
   4 -11  -2  444.27   24.61
  -4  11  -2  432.65   25.81
  -4 -11   2  438.34   25.39
   4  11   2  452.44   25.69
   5 -11   2  161.17   11.15
  -5  11   2  172.97   12.30
  -5 -11  -2  172.93   12.16
   5  11  -2  176.80   12.51
  -5  11  -2  169.18   12.46
   5 -11  -2  173.15   11.79
   5  11   2  165.41   12.14
  -5 -11   2  169.51   12.25
   0  12   2  845.06   40.58
   0 -12   2  827.64   40.77
   0 -12  -2  808.01   40.79
  -1 -12  -2  921.33   46.77
   1 -12   2  950.41   46.63
   1  12  -2  907.80   46.58
  -1  12  -2  987.69   47.81
   1  12   2 1031.67   47.39
   1 -12  -2 1034.53   47.39
  -1 -12   2 1004.20   47.00
  -2 -12  -2  155.47   12.47
   2  12  -2  143.11   12.82
   2 -12   2  145.06   12.15
  -2  12  -2  191.99   14.62
   2  12   2  182.27   14.07
  -2 -12   2  183.31   12.81
   2 -12  -2  178.22   12.89
  -3  12   2 1014.72   48.05
   3  12  -2  980.12   48.38
   3  12   2 1000.92   48.26
   3 -12  -2  935.58   46.35
  -3  12  -2  954.62   48.56
  -4  12   2  226.68   15.01
   4  12  -2  214.57   14.97
  -4 -12   2  192.40   13.96
   4  12   2  198.31   14.61
   4 -12  -2  194.93   13.62
  -4  12  -2  201.46   14.93
   0  13   2  134.84   11.32
   0 -13   2  123.99   11.32
   0 -13  -2  145.44   12.06
   1  13  -2  422.15   25.10
   1 -13   2  423.44   25.09
  -1  13   2  434.20   24.61
  -1 -13  -2  450.27   25.83
   1  13   2  479.84   26.05
  -1  13  -2  475.84   26.42
   1 -13  -2  481.06   25.91
  -1 -13   2  486.42   25.85
   2 -13   2  757.35   38.74
   2  13  -2  806.35   40.08
  -2 -13  -2  800.92   39.22
   2 -13  -2  769.88   38.77
  -2 -13   2  781.49   38.63
   2  13   2  839.87   40.75
  -2  13  -2  803.19   40.63
  -3  13   2   70.84    8.42
   3  13  -2   67.62    8.29
   3  13   2   76.95    8.77
  -3  13  -2   71.32    8.69
  -4  13   2  174.32   12.39
   4  13  -2  185.50   12.83
   4  13   2  174.46   12.70
  -4  13  -2  178.16   12.74
   4 -13  -2  166.50   11.31
   0  14   2    4.12    2.93
   0 -14   2    4.70    3.24
   0 -14  -2    4.50    3.62
   1  14  -2  264.62   18.52
  -1 -14  -2  265.02   18.09
  -1  14   2  265.48   17.41
   1 -14   2  272.93   18.17
   1 -14  -2  334.27   19.23
  -1 -14   2  341.62   19.13
   1  14   2  345.44   19.77
  -2 -14  -2  687.48   35.59
   2  14  -2  677.94   36.12
   2 -14   2  694.65   35.43
  -2  14  -2  792.20   37.52
   2  14   2  756.13   37.16
  -2 -14   2  755.46   35.63
   2 -14  -2  730.49   35.47
   3  14  -2  578.53   29.87
   3  14   2  587.75   30.26
  -3  14  -2  570.93   30.02
   4  14  -2  101.86    9.23
  -4  14  -2   89.05   11.25
   4  14   2   93.32    8.05
   0  15   2   89.44    8.44
   0 -15  -2   86.83    8.67
   0 -15   2   84.72    8.60
  -1 -15  -2  154.41   12.11
   1 -15   2  153.93   11.91
   1 -15  -2  180.38   12.45
  -1 -15   2  176.41   12.39
   1  15   2  171.62   12.64
   2 -15   2  150.75   10.35
   2  15  -2  156.72   11.13
  -2 -15  -2  163.65   10.92
  -2 -15   2  113.60    9.48
   2  15   2  115.89   10.47
   3  15  -2   91.90    8.25
  -3  15  -2  120.07    9.07
   3  15   2  125.05    9.48
   0  16   2   29.23    5.00
   0 -16  -2   30.69    5.44
   0 -16   2   33.76    5.70
   1 -16   2  134.51   10.16
  -1 -16  -2  138.55   10.49
  -1 -16   2  148.86   10.43
   1 -16  -2  143.44   10.22
   1  16   2  153.37   10.73
  -2 -16  -2  271.11   15.20
   2 -16   2  260.82   16.86
   2  16   2  299.21   16.34
   0 -17  -2   70.38    6.47
   0 -17   2   70.39    6.60
   0   0  -3    2.03    0.88
   1   0   3 4700.66  211.07
   1   0  -3 5076.48  211.09
  -1   0  -3 5271.91  211.30
  -1   0   3 5640.79  210.97
   2   0  -3 1024.79   49.77
  -2   0   3 1162.56   48.92
   2   0   3 1155.42   49.87
  -2   0  -3 1133.41   47.95
  -3   0   3 2771.45  106.33
   3   0   3 2378.62  107.47
   3   0  -3 2164.80  107.35
  -3   0  -3 2581.91  104.59
  -4   0  -3   18.43    5.23
   4   0  -3   16.08    4.22
   4   0   3   16.33    4.25
  -4   0   3   18.62    4.87
   4   0  -3   19.56    5.24
   4   0   3   23.84    6.79
   4   0  -3   17.74    5.95
   5   0  -3  233.80   15.70
  -5   0  -3  235.05   18.18
   5   0  -3  236.70   16.99
   5   0   3  235.89   16.07
   6   0   3   44.46    6.61
   6   0  -3   43.98    7.35
   6   0  -3   46.90    6.37
  -6   0  -3   57.63    9.43
   0   1  -3  106.64    6.03
   0  -1   3  108.17    5.25
   0  -1  -3  107.75    5.23
   1  -1   3 2196.27  101.92
   1   1  -3 2468.72  102.44
  -1   1   3 2325.06  101.88
   1   1  -3 2504.50  102.16
  -1  -1  -3 2380.93  100.69
  -1   1  -3 2635.12  102.06
   1   1   3 2760.55  102.95
  -1  -1   3 2528.20  102.33
  -2   1   3 2272.66   93.07
   2  -1   3 2291.72   94.04
  -2  -1  -3 2203.39   91.59
   2   1  -3 2214.63   93.05
  -2   1  -3 2436.40   93.02
   2   1   3 1852.89   93.40
  -3   1   3 1196.42   56.71
  -3  -1  -3 1247.00   55.23
   3  -1   3 1330.74   59.58
   3   1  -3 1347.21   59.92
   3   1   3 1250.11   58.77
  -3  -1   3 1266.02   56.69
   3  -1  -3 1258.11   59.45
  -3   1  -3 1284.81   56.60
   4  -1   3  182.80   16.41
   4  -1   3  182.44   13.32
   4   1  -3  185.73   14.02
  -4   1   3  203.59   14.64
   4   1  -3  191.32   13.21
  -4  -1  -3  190.13   15.06
   4   1  -3  206.68   17.45
   4  -1  -3  219.40   13.88
   4  -1  -3  215.66   14.58
  -4  -1   3  235.41   21.12
  -4   1  -3  198.80   15.70
  -4  -1   3  207.76   14.40
   4   1   3  232.88   14.01
   4   1   3  218.64   17.69
  -5  -1  -3  226.54   17.49
   5  -1   3  202.01   14.85
   5   1  -3  228.97   14.80
   5   1  -3  216.30   15.81
  -5   1  -3  187.93   16.12
  -5  -1   3  187.87   15.25
   5  -1  -3  198.95   15.22
   5   1   3  183.36   14.09
   5  -1  -3  221.01   15.05
  -6  -1  -3  179.01   14.78
   6  -1   3  172.56   12.60
   6   1  -3  145.69   13.61
   6   1  -3  167.22   13.08
   6   1   3  171.67   12.20
   6  -1  -3  169.23   12.87
   6  -1  -3  162.85   12.19
   0   2   3 9977.49  402.60
   0   2  -3 9738.04  405.13
   0  -2   3 9999.00  405.89
  -1   2   3  721.20   35.80
   1   2  -3  737.27   35.58
   1  -2   3  765.20   35.83
   1   2  -3  913.35   36.83
  -1  -2   3  909.77   37.19
   1   2   3  876.53   36.91
  -1   2  -3  944.02   36.76
  -2   2   3 1003.79   45.11
   2  -2   3 1003.51   46.05
  -2  -2  -3  992.62   43.13
   2   2  -3 1017.29   45.26
   2   2  -3  891.91   45.38
   2   2   3 1098.40   46.23
  -2   2  -3 1118.91   45.52
   3  -2   3 1132.05   52.44
   3   2  -3 1146.86   52.50
  -3   2   3 1156.44   50.51
  -3  -2   3 1039.26   49.51
  -3   2  -3 1041.75   49.76
   3   2   3 1069.00   51.67
   4   2  -3  582.39   30.66
   4   2  -3  572.79   28.94
  -4   2   3  561.84   30.58
   4  -2   3  575.41   33.76
   4   2  -3  604.65   34.71
   4  -2   3  574.79   29.73
  -4  -2  -3  572.31   31.69
   4  -2  -3  580.97   29.48
   4   2   3  604.17   34.56
  -4  -2   3  548.94   29.88
   4  -2  -3  551.86   29.90
   4   2   3  566.82   28.83
  -4  -2   3  574.56   30.32
  -4   2  -3  563.69   30.49
   4  -2  -3  579.18   29.77
   5  -2   3  218.59   15.94
  -5  -2  -3  238.19   18.18
   5   2  -3  236.53   17.05
   5   2  -3  219.22   14.91
   5  -2  -3  215.74   15.59
   5   2   3  208.38   14.83
   5  -2  -3  208.29   15.80
   5  -2  -3  231.30   15.87
  -5  -2   3  216.25   16.36
   6   2  -3  240.29   16.09
  -6  -2  -3  243.27   17.78
   6  -2   3  233.04   15.37
   6  -2  -3  192.03   14.52
   0   3  -3   54.66    4.66
   0   3   3   57.26    3.37
   0  -3   3   53.90    5.13
  -1   3   3  734.22   30.62
   1   3  -3  739.33   31.44
   1   3  -3  671.93   29.79
   1  -3   3  716.34   30.44
   1  -3   3  738.72   32.25
  -1   3  -3  592.66   30.87
  -1  -3   3  662.80   31.82
   2   3  -3   29.21    4.16
   2  -3   3   32.33    4.40
   2   3  -3   23.26    3.54
   2  -3   3   19.60    3.60
  -2   3   3   21.62    3.88
   2   3   3   14.00    3.59
   3   3  -3  316.79   19.90
  -3   3   3  300.20   18.13
   3  -3   3  298.46   19.53
   3   3   3  337.29   20.14
  -3   3  -3  341.34   19.00
  -3  -3   3  342.22   18.27
   4  -3   3  783.96   38.12
  -4  -3  -3  816.24   40.52
   4  -3   3  784.68   42.59
   4   3  -3  793.80   39.50
   4   3  -3  842.08   43.40
   4   3  -3  782.27   37.08
  -4   3   3  784.98   39.88
   4  -3  -3  755.01   38.17
   4   3   3  725.77   36.64
  -4  -3   3  740.08   38.34
  -4   3  -3  737.20   39.32
   4  -3  -3  808.36   38.38
   4   3   3  781.30   42.63
  -4   3  -3  745.41   37.85
  -4  -3   3  766.15   38.46
   4  -3  -3  720.77   37.44
   5  -3   3  273.63   18.88
   5   3  -3  277.79   19.78
  -5  -3  -3  274.87   20.80
   5  -3  -3  296.36   19.36
  -5  -3   3  318.84   20.43
   5  -3  -3  309.14   19.45
  -5   3  -3  296.55   18.83
   5  -3  -3  321.04   19.39
  -6  -3  -3   97.72   10.86
   6  -3   3   83.96    8.91
   6   3  -3   90.86    9.59
   6  -3  -3  100.22    9.13
  -6  -3   3  106.35   10.24
   0   4  -3 3165.61  131.28
   0   4   3 3085.39  129.19
   0  -4   3 3228.35  132.38
   1   4  -3 1255.56   58.67
   1   4  -3 1543.30   61.18
   1  -4   3 1488.79   61.68
  -1  -4   3 1448.83   62.07
   1   4   3 1393.36   60.92
  -1   4  -3 1355.34   60.92
   2  -4   3 1745.54   80.54
   2   4  -3 1906.77   80.99
  -2   4   3 1921.47   80.93
   2  -4   3 1681.30   80.93
   2   4  -3 1692.01   80.62
  -2   4  -3 2175.13   82.24
   2   4   3 2132.15   82.43
   3   4  -3  282.00   17.41
  -3   4   3  276.53   16.30
   3  -4   3  292.28   17.77
  -3   4  -3  204.43   15.26
   3   4   3  197.63   15.74
  -4  -4  -3  487.49   27.97
   4  -4   3  475.36   29.82
   4   4  -3  480.30   29.55
   4   4  -3  475.32   27.32
   4  -4   3  499.49   26.40
  -4   4   3  473.90   27.64
   4  -4  -3  486.61   26.34
   4  -4  -3  499.77   26.59
  -4  -4   3  489.14   26.70
   4  -4  -3  478.42   25.96
   4   4   3  477.32   29.78
  -4   4  -3  447.79   25.95
  -4   4  -3  453.76   27.52
   4   4   3  471.97   26.58
  -4  -4   3  473.96   33.35
   5   4  -3  125.84   12.34
   5  -4   3  124.21   11.77
  -5  -4  -3  124.68   12.95
  -5  -4   3  124.41   11.97
   5  -4  -3  132.19   12.02
   5  -4  -3  146.09   11.88
  -5   4  -3  135.62   11.86
   5  -4  -3  147.37   12.19
  -6   4   3  321.96   19.71
  -6  -4  -3  323.40   21.45
   6  -4   3  309.69   19.29
   6   4  -3  312.61   19.75
   6  -4  -3  333.65   19.40
  -6  -4   3  343.86   20.72
   0   5   3  264.48   14.39
   0  -5   3  258.33   15.10
   0   5   3  230.57   12.08
   0   5  -3  254.57   14.09
  -1   5   3 1720.07   74.62
   1   5  -3 1739.97   75.49
   1  -5   3 1760.05   76.37
  -1   5  -3 1753.02   75.92
  -1  -5   3 1830.37   77.54
   1   5   3 1757.58   75.60
   2  -5   3 4274.21  180.83
  -2   5   3 4341.69  180.93
   2   5  -3 4544.56  181.24
  -2   5  -3 4319.16  181.82
   2   5   3 4284.99  181.76
   3   5  -3  428.26   22.93
  -3   5   3  407.98   23.67
  -3   5  -3  440.10   24.55
   3   5   3  438.81   25.07
   4   5  -3  122.35   11.52
  -4  -5  -3  118.93   11.70
   4  -5   3  132.09   11.02
  -4   5  -3  123.01   11.03
   4  -5  -3  122.01   10.58
   4  -5  -3  112.77   10.33
   4   5   3  119.14   10.75
  -4  -5   3  122.64   11.07
   4  -5  -3  123.93   10.96
   5   5  -3   91.29   10.47
   5  -5   3   93.51    9.93
  -5  -5  -3   92.40   11.00
  -5  -5   3   84.06    9.71
   5  -5  -3   78.41    9.41
   5  -5  -3   90.98    9.71
  -5   5  -3   79.16    9.31
  -6   5   3  349.85   20.74
   6  -5   3  351.74   20.57
   6   5  -3  330.66   20.62
  -6  -5  -3  351.64   22.42
   6  -5  -3  383.72   20.88
  -6   5  -3  357.30   25.21
  -6  -5   3  362.60   21.79
   0  -6   3  333.77   18.98
   0   6   3  320.78   15.85
   0   6  -3  326.15   17.86
   0   6   3  322.37   17.67
  -1   6   3  862.41   37.84
   1   6  -3  844.33   38.66
   1  -6   3  852.60   39.70
   1   6   3  790.04   38.35
  -1  -6   3  824.74   40.86
  -1   6  -3  812.61   39.05
  -2   6   3  776.99   39.67
   2   6  -3  800.83   39.58
   2   6   3  926.11   41.16
  -2   6  -3  893.36   41.30
   3   6  -3  418.46   24.42
   3   6  -3  424.87   23.67
  -3   6   3  437.01   25.22
  -3   6  -3  453.24   25.88
  -3   6  -3  428.59   24.68
   3  -6  -3  453.75   24.06
   3   6   3  455.10   26.07
   3  -6  -3  468.60   24.68
   4   6  -3  421.82   24.33
   4  -6   3  422.03   23.05
  -4  -6  -3  399.37   24.40
   4  -6  -3  366.98   22.26
  -4  -6   3  363.78   22.95
   4   6   3  345.40   22.16
  -4   6  -3  382.47   23.25
   4  -6  -3  385.04   22.96
   4  -6  -3  374.31   21.89
  -5  -6  -3  578.02   34.87
  -5   6   3  587.52   33.51
   5  -6   3  599.54   33.25
   5   6  -3  608.50   34.28
  -5   6  -3  659.28   34.37
   5   6   3  658.55   33.72
  -5  -6   3  659.49   34.95
   5  -6  -3  700.54   34.40
  -6  -6  -3  367.54   21.81
   6   6  -3  362.20   20.15
   6  -6   3  371.69   19.96
  -6   6   3  383.43   20.58
   6  -6  -3  281.32   18.61
  -6   6  -3  303.74   18.82
  -6  -6   3  310.82   20.14
   0   7  -3  745.35   35.76
   0   7   3  712.66   35.20
   0  -7   3  761.12   37.66
   1  -7   3 2374.52  115.36
  -1   7   3 2737.67  113.77
   1   7  -3 2753.98  114.87
   1   7   3 2767.95  114.77
  -1   7  -3 2841.69  115.73
   2   7  -3   54.84    6.16
  -2   7   3   57.60    6.61
   2   7   3   45.15    6.15
  -2   7  -3   49.33    6.72
  -3  -7  -3  935.50   45.05
   3   7  -3  929.18   45.10
  -3   7   3  914.48   45.68
   3  -7   3  931.14   43.25
   3   7   3  878.18   43.55
  -3   7  -3  929.08   44.76
   3  -7  -3  918.37   43.76
   3  -7  -3  939.89   43.36
  -3   7  -3  925.10   46.53
   3   7   3  866.25   45.71
   4   7  -3  245.36   17.55
  -4  -7  -3  249.70   17.97
   4  -7   3  250.11   16.46
  -4   7   3  224.89   16.40
   4   7   3  230.68   16.53
  -4  -7   3  229.32   16.86
   4  -7  -3  230.08   16.31
   4  -7  -3  225.48   15.58
  -4   7  -3  228.91   17.03
   5  -7   3  759.07   37.86
  -5   7   3  772.41   38.67
  -5  -7  -3  774.82   40.31
   5   7  -3  780.10   39.29
   5   7   3  697.48   37.41
   5  -7  -3  716.91   37.88
  -5   7  -3  694.90   38.27
  -5  -7   3  721.94   38.89
   6  -7   3  155.62   11.57
  -6   7   3  152.87   11.78
   6   7  -3  157.51   11.76
  -6  -7  -3  159.95   12.94
  -6   7  -3  178.82   11.82
   6  -7  -3  172.28   11.73
  -6  -7   3  187.54   13.10
   0   8   3  272.74   16.61
   0   8  -3  259.85   16.61
  -1   8   3  246.42   14.76
   1   8  -3  252.84   15.56
   1  -8   3  255.82   17.16
   1   8   3  212.34   14.64
  -1   8  -3  230.23   15.87
  -2   8   3  483.82   25.34
   2   8  -3  497.50   24.91
   2   8   3  415.17   24.58
   2   8   3  429.25   24.91
  -2   8  -3  435.99   25.43
  -2   8  -3  421.11   25.82
  -3   8   3  480.60   28.14
   3  -8   3  496.89   27.37
   3   8  -3  554.49   29.86
  -3  -8  -3  485.80   28.70
   3  -8  -3  559.95   27.94
  -3   8  -3  558.14   29.80
   3   8   3  552.91   28.78
   3  -8  -3  568.12   28.82
   4   8  -3  437.91   26.54
  -4   8   3  454.27   26.14
   4  -8   3  463.92   25.36
  -4  -8  -3  466.18   27.25
   4  -8  -3  422.07   25.32
  -4  -8   3  444.77   26.42
   4   8   3  408.90   25.45
  -4   8  -3  433.29   26.48
   5   8  -3   68.64    9.07
  -5   8   3   72.44    8.92
  -5  -8  -3   72.74    9.50
   5  -8   3   68.96    8.43
   5  -8  -3  101.15    9.76
  -5   8  -3  108.75   10.44
   5   8   3   97.85    9.69
  -5  -8   3  105.36   10.58
  -6   8   3  189.81   12.51
   6   8  -3  186.55   12.24
   6  -8   3  190.98   12.12
  -6  -8  -3  185.12   13.26
   6  -8  -3  171.78   11.73
  -6   8  -3  173.43   11.73
  -6  -8   3  184.18   12.97
   0   9   3 2090.27   89.88
   0   9  -3 1980.43   90.01
   1   9  -3   50.08    6.89
   1   9   3   73.19    7.82
  -1   9  -3   74.60    8.63
   1   9   3   80.60    9.63
  -2  -9  -3  275.48   16.91
   2   9  -3  285.17   18.17
  -2   9   3  269.17   18.71
   2  -9   3  278.91   16.83
  -2   9   3  271.91   17.48
   2   9   3  332.32   18.41
   2  -9  -3  329.19   18.23
  -2   9  -3  295.49   20.08
  -3   9   3  543.96   30.14
   3  -9   3  512.84   28.58
  -3  -9  -3  524.45   30.22
   3   9  -3  542.98   30.87
   3  -9  -3  569.34   29.89
   3  -9  -3  559.44   28.83
  -3   9  -3  614.92   31.74
   3   9   3  598.11   30.56
   4  -9   3  163.33   13.53
  -4   9   3  169.95   14.48
   4   9  -3  181.79   15.29
  -4  -9  -3  170.63   14.93
   4   9   3  214.14   15.70
  -4   9  -3  217.44   16.26
  -4  -9   3  230.06   16.19
   4  -9  -3  221.65   15.27
  -5   9   3  294.26   19.27
   5   9  -3  337.11   20.30
   5  -9   3  322.43   18.90
  -5  -9  -3  302.57   20.17
   5  -9  -3  310.38   19.11
   5   9   3  311.48   19.24
  -5  -9   3  307.15   20.00
  -5   9  -3  300.65   19.61
   0 -10  -3   10.41    3.86
   0 -10   3    5.49    2.92
   0  10  -3    5.14    3.28
   0  10  -3    2.44    2.93
  -1 -10  -3  887.40   45.64
   1 -10   3  931.56   45.56
   1  10  -3  881.71   45.70
  -1  10  -3 1057.82   50.02
   1 -10  -3 1048.74   46.61
  -1  10  -3 1005.33   47.39
  -1 -10   3 1024.59   45.93
   1  10   3 1021.50   46.38
   2  10  -3  748.19   37.01
  -2 -10  -3  736.94   35.65
   2 -10   3  755.88   35.60
   2  10   3  690.25   35.92
  -2  10  -3  700.79   37.21
   2 -10  -3  679.44   35.46
  -3  10   3  139.15   12.18
   3  10  -3  141.38   12.87
   3  10   3  149.03   12.50
   3 -10  -3  146.25   11.99
   4 -10   3  222.45   15.71
  -4 -10  -3  225.33   17.12
   4  10  -3  227.40   17.34
  -4  10   3  228.03   16.97
   4  10   3  288.16   18.32
   4 -10  -3  262.07   17.06
  -4  10  -3  267.85   18.24
  -4 -10   3  262.47   17.66
  -5 -10  -3  194.72   14.32
   5 -10   3  206.06   13.49
  -5  10   3  215.31   14.63
   5  10  -3  206.05   14.43
   5 -10  -3  194.64   13.66
  -5  10  -3  206.63   14.49
   5  10   3  203.56   14.01
  -5 -10   3  197.93   14.45
   0 -11   3  158.74   11.84
   0 -11  -3  145.27   11.73
   0  11  -3  147.17   12.11
   1  11  -3  413.15   23.95
  -1 -11  -3  442.47   24.46
   1 -11   3  425.56   23.84
  -1 -11   3  421.19   23.74
   1 -11  -3  447.44   24.44
   1  11   3  434.10   24.28
  -1  11  -3  442.50   25.26
   2  11  -3  166.19   13.24
  -2 -11  -3  163.81   12.52
   2 -11   3  160.86   12.29
   2 -11  -3  146.04   11.88
   2  11   3  169.73   13.21
  -2 -11   3  152.45   11.81
  -2  11  -3  154.29   13.49
   3  11  -3   57.78    9.28
  -3  11   3   51.87    8.44
  -3 -11   3   38.69    7.26
  -3  11  -3   34.59    7.21
   3  11   3   39.41    7.38
   3 -11  -3   39.36    6.90
  -4  11   3  207.39   16.12
   4 -11   3  208.59   17.42
   4  11  -3  208.51   16.28
   4 -11  -3  276.54   16.75
  -4 -11   3  250.21   16.69
   4  11   3  265.62   17.24
  -4  11  -3  271.52   17.84
   5  11  -3    2.08    2.58
   5 -11   3    2.04    2.37
  -5 -11  -3    0.76    2.06
  -5  11   3    1.06    2.40
   5  11   3    2.59    2.82
  -5 -11   3    1.75    2.22
  -5  11  -3    1.62    2.69
   5 -11  -3    2.23    2.42
   0  12  -3  131.16   11.80
   0  12   3  154.04   11.88
   0 -12  -3  135.40   12.00
   0 -12   3  156.05   12.00
   1  12  -3  690.43   38.13
  -1 -12  -3  705.58   38.27
   1 -12   3  736.82   38.06
   1 -12  -3  824.90   39.06
  -1  12  -3  812.88   39.96
  -1 -12   3  802.97   38.55
   1  12   3  821.04   39.14
  -2 -12  -3  166.92   12.40
   2 -12   3  155.50   11.85
   2  12  -3  148.66   12.60
   2 -12  -3  141.54   14.26
   2  12   3  147.65   12.75
  -2 -12   3  141.02   11.37
  -2  12  -3  135.69   12.65
   2 -12  -3  143.70   11.54
   3  12  -3   64.07    8.39
  -3  12   3   59.61    7.99
  -3  12  -3   55.74    9.02
   3  12   3   50.45    8.45
   3 -12  -3   46.03    7.28
  -4  12   3  311.67   19.45
   4  12  -3  324.99   20.07
   4  12   3  348.20   20.30
   4 -12  -3  342.06   19.29
  -4  12  -3  329.70   20.38
  -4 -12   3  328.92   19.60
   0 -13  -3   78.68    8.91
   0  13   3   76.36    8.46
   0 -13   3   77.70    8.74
  -1 -13  -3  736.75   34.81
   1 -13   3  706.55   34.23
   1  13   3  628.27   33.90
   1 -13  -3  618.25   33.58
  -1 -13   3  635.48   33.51
  -1  13  -3  601.52   34.14
  -2 -13  -3  393.45   22.09
   2  13  -3  390.41   22.62
   2 -13   3  367.47   21.52
  -2 -13   3  352.89   20.80
  -2  13  -3  370.00   22.99
   2  13   3  381.54   22.89
   2 -13  -3  356.73   23.71
   3  13  -3  172.18   13.01
   3 -13  -3  146.13   11.41
   3  13   3  167.33   13.04
  -3  13  -3  150.37   12.81
  -4  13   3  451.55   23.18
   4  13  -3  414.81   23.24
   4  13   3  445.98   23.58
   4 -13  -3  420.06   22.10
  -4  13  -3  432.65   23.59
   0  14   3   48.92    7.47
   0 -14  -3   54.57    8.20
   0 -14   3   51.89    8.16
  -1  14   3  326.24   19.32
  -1 -14  -3  296.15   19.66
   1 -14   3  292.34   19.28
   1  14   3  356.34   20.69
  -1  14  -3  352.35   20.71
  -1 -14   3  332.80   19.67
   1 -14  -3  325.37   19.79
   2  14  -3  130.06   11.10
   2 -14   3  142.65   10.89
  -2 -14  -3  133.78   10.96
  -2 -14   3  127.66   10.31
  -2  14  -3  138.91   11.84
   2  14   3  137.63   11.67
   3  14  -3   78.84    8.01
   3  14   3   78.45    8.35
  -3  14  -3   79.26    8.29
   0 -15   3  151.98   11.60
   0 -15  -3  144.55   11.61
   0  15   3  152.39   11.47
  -1  15   3  103.63    8.56
  -1 -15  -3   99.38    9.06
   1 -15   3  108.50    9.17
   1  15   3   81.71    8.65
   1 -15  -3   77.21    8.12
  -1 -15   3   84.38    8.30
   2 -15   3   63.69    6.73
  -2 -15  -3   72.96    7.21
   2  15   3   80.74    8.16
  -2  15  -3   67.79    7.62
  -2 -15   3   90.54    9.47
  -3  15  -3   39.16    5.69
   3  15   3   31.43    5.28
   0  16   3 1018.22   46.55
   0 -16   3 1006.93   46.68
   0 -16  -3 1026.12   46.82
  -1 -16  -3  329.55   18.08
   1 -16   3  331.82   17.84
  -1 -16   3  306.25   17.43
   1  16   3  313.33   17.91
   1 -16  -3  301.54   17.34
  -2 -16  -3  151.37   10.04
   2  16   3  153.09   10.70
   0   0  -4 1720.88   62.13
   0   0   4 1263.44   61.90
  -1   0  -4  597.05   25.47
   1   0   4  583.66   26.35
  -1   0   4  573.34   26.31
   1   0  -4  585.80   26.25
  -2   0   4  257.46   13.10
  -2   0   4  253.67   13.81
   2   0   4  247.74   14.40
  -2   0  -4  244.00   12.85
  -3   0  -4  512.83   25.18
  -3   0   4  502.31   26.18
   3   0   4  533.79   28.29
   4   0   4   97.40    8.81
  -4   0  -4   90.99   10.10
   4   0  -4   95.21    9.48
  -4   0   4  101.50    9.70
   4   0  -4   95.20    8.69
   4   0   4   97.96   11.58
  -5   0  -4    3.50    3.86
   5   0  -4    3.04    2.72
   5   0  -4    6.28    3.67
   5   0   4    4.98    3.24
   6   0  -4   49.88    6.41
   6   0  -4   46.91    7.61
   6   0   4   49.91    7.23
  -6   0  -4   47.79    8.76
   0  -1  -4 1400.18   56.53
   0  -1   4 1347.95   56.63
   0   1  -4 1332.84   57.44
   1  -1   4 2543.28  100.13
  -1  -1  -4 2374.83   98.56
  -1  -1   4 2310.80  100.67
  -1   1  -4 2439.44  100.04
   1   1   4 2421.47  100.65
  -2   1   4  405.26   20.25
   2   1  -4  435.76   21.29
  -2  -1  -4  417.65   18.75
   2  -1   4  415.97   20.95
   2   1  -4  407.61   20.41
   2   1   4  373.51   20.68
  -2  -1   4  395.02   19.32
  -2   1  -4  396.23   19.83
  -3   1   4  111.36    9.05
   3   1  -4  106.42   10.13
   3  -1   4  120.31   10.67
   3   1   4  103.20    9.75
  -3  -1   4  114.48    9.03
  -3   1  -4  103.26    8.29
   4  -1   4 1187.37   59.82
   4   1  -4 1165.66   54.41
  -4   1   4 1160.02   56.24
  -4  -1  -4 1187.73   57.69
   4   1  -4 1217.66   56.27
   4  -1   4 1142.47   54.62
   4  -1  -4 1215.24   55.94
  -4  -1   4 1215.80   56.36
   4   1   4 1203.87   60.09
   4  -1  -4 1247.06   55.13
  -4   1  -4 1160.55   57.12
   4   1   4 1215.38   54.53
  -4  -1   4 1182.48   55.07
   5   1  -4   15.81    5.47
  -5  -1  -4   10.50    5.12
   5  -1   4   10.46    4.16
   5   1  -4   16.01    4.46
   5  -1  -4   11.59    4.18
   5  -1  -4    6.43    3.99
  -5   1  -4    5.46    3.98
   5   1   4    6.51    3.47
   6  -1   4  183.80   13.11
  -6  -1  -4  187.35   15.41
   6   1  -4  180.90   13.69
   6   1  -4  174.60   12.35
   6   1   4  154.89   12.11
   6  -1  -4  187.54   13.06
   6  -1  -4  190.69   13.69
   0   2  -4 1170.58   51.16
   0  -2   4 1175.66   52.48
   0  -2   4 1216.48   49.12
   0   2   4 1220.54   49.50
   1   2  -4 1608.57   73.90
   1  -2   4 1693.21   73.14
  -1   2   4 1608.93   73.15
  -1  -2   4 1889.59   74.87
  -1   2  -4 1895.12   74.20
   1   2   4 1842.78   74.50
   2   2  -4 1521.03   65.64
   2   2  -4 1448.45   65.72
   2  -2   4 1573.78   66.15
  -2   2   4 1557.53   65.50
   2   2   4 1513.03   66.26
  -2  -2   4 1518.62   65.24
  -2   2  -4 1472.30   65.17
   3  -2   4 1354.36   62.13
   3   2  -4 1436.16   62.64
  -3   2   4 1237.00   59.70
  -3  -2   4 1306.79   59.65
   3   2   4 1312.07   61.61
  -3   2  -4 1354.76   59.99
   4  -2   4  213.40   17.55
  -4  -2  -4  238.48   16.83
   4   2  -4  226.67   15.56
   4  -2   4  230.43   14.51
   4   2  -4  218.59   13.95
  -4   2   4  219.19   15.41
   4   2   4  191.06   13.51
  -4  -2   4  205.03   14.32
  -4  -2   4  209.25   14.97
   4  -2  -4  193.53   14.40
   4  -2  -4  193.54   13.93
  -4   2  -4  179.23   14.87
   4   2   4  185.34   16.87
   4  -2  -4  194.15   13.86
   5  -2   4  298.00   19.16
  -5  -2  -4  280.04   21.02
   5   2  -4  262.27   19.34
   5   2  -4  265.06   17.76
   5  -2  -4  297.61   19.07
   5  -2  -4  296.10   19.51
   5   2   4  316.43   18.69
   5  -2  -4  310.14   19.23
  -5  -2   4  317.68   19.99
   6   2  -4   30.27    6.29
  -6  -2  -4   29.77    6.95
   6  -2   4   30.04    5.73
   6   2   4   40.94    8.34
   6  -2  -4   39.46    6.48
   6  -2  -4   47.01    7.01
   0  -3   4  900.63   38.99
   0   3   4  746.28   35.32
   0   3  -4  912.40   37.88
   1   3  -4   69.19    5.89
   1  -3   4   71.88    6.67
  -1   3   4   69.22    5.16
  -1   3  -4   73.47    5.99
   1   3   4   76.92    6.09
  -1  -3   4   78.65    6.55
   2   3  -4  877.52   40.62
   2  -3   4  965.45   41.44
   2   3  -4  921.07   40.78
  -2   3   4  889.97   40.48
   2  -3   4  873.26   41.46
  -2   3  -4  880.41   40.84
   2   3   4  875.54   41.35
  -2  -3   4  873.73   41.12
   3  -3   4  106.47    9.97
   3   3  -4  111.81   10.06
  -3   3   4  116.01    9.23
   3   3   4   91.42    9.50
  -3   3  -4   86.02    8.35
  -3  -3   4   88.12    8.22
   4  -3   4 1602.06   75.59
   4  -3   4 1632.87   70.72
  -4  -3  -4 1540.12   72.80
  -4   3   4 1514.25   71.94
   4   3  -4 1596.31   69.81
   4   3  -4 1588.26   71.89
   4   3   4 1547.57   69.22
   4   3   4 1560.32   75.03
   4  -3  -4 1591.00   71.13
  -4   3  -4 1504.83   71.57
  -4   3  -4 1494.86   69.97
  -4  -3   4 1541.38   71.10
   4  -3  -4 1653.46   70.81
   4  -3  -4 1536.04   70.02
   5   3  -4  852.59   44.08
   5  -3   4  845.48   43.00
   5   3  -4  784.81   41.04
  -5  -3  -4  812.78   45.24
  -5  -3   4  863.63   43.54
   5   3   4  853.22   41.28
   5  -3  -4  906.68   43.19
   5  -3  -4  930.76   43.18
   5  -3  -4  880.91   43.24
   6   3  -4  120.20   11.16
   6  -3   4  111.34   10.44
  -6  -3  -4  118.96   12.14
   6  -3  -4  174.99   16.29
  -6  -3   4  161.08   12.19
   0   4  -4 4827.92  190.85
   0  -4   4 4583.98  191.60
   0   4   4 4451.60  187.94
   1  -4   4 1177.68   49.71
  -1   4   4 1175.00   50.35
   1  -4   4 1139.31   52.45
   1   4  -4 1155.56   51.63
  -1  -4   4 1216.31   52.99
   1   4   4 1166.43   51.78
  -1   4  -4 1187.49   51.99
   2  -4   4  256.30   15.42
   2   4  -4  265.36   14.58
  -2   4   4  260.65   14.63
   2   4  -4  263.70   15.12
   2  -4   4  274.11   15.24
   2   4   4  253.67   15.61
  -2   4  -4  239.49   15.14
   3  -4   4  261.02   17.10
   3   4  -4  252.00   15.38
  -3   4   4  264.11   15.93
   3   4   4  213.91   16.11
  -3   4  -4  219.32   15.44
   4  -4   4  888.62   43.83
   4   4  -4  881.87   43.03
   4   4  -4  926.68   45.87
  -4  -4  -4  877.03   46.00
   4  -4   4  877.34   48.04
   4  -4  -4  962.65   44.39
   4   4   4  897.62   42.65
  -4  -4   4  881.74   44.26
  -4   4  -4  941.93   44.68
   4  -4  -4  974.42   44.90
   4  -4  -4  975.45   44.79
  -4   4  -4  866.91   45.76
   5   4  -4  689.12   37.03
  -5  -4  -4  683.52   38.36
   5  -4   4  719.05   36.23
   5   4  -4  645.95   37.71
   5  -4  -4  688.64   35.65
   5  -4  -4  687.59   35.57
  -5   4  -4  681.14   35.41
  -5  -4   4  705.15   36.73
   5  -4  -4  666.24   35.62
   6  -4   4  125.23   10.56
  -6   4   4  126.59   10.67
  -6  -4  -4  119.09   11.90
   6   4  -4  131.94   11.24
  -6  -4   4  120.55   10.95
   6  -4  -4  117.33    9.92
   0   5  -4  799.79   36.40
   0  -5   4  800.99   37.49
   0   5   4  787.88   36.62
   0   5   4  744.02   33.46
   1  -5   4  352.28   19.15
   1   5  -4  347.37   18.26
  -1   5   4  357.61   17.04
  -1   5  -4  316.37   18.17
   1   5   4  318.99   18.03
  -1  -5   4  322.48   19.15
   2  -5   4 2234.74  102.72
  -2   5   4 2398.46  102.42
   2   5  -4 2426.32  103.00
   2   5   4 2530.82  103.79
  -2   5  -4 2432.35  103.72
   3   5  -4  394.61   21.34
  -3   5   4  389.53   21.82
  -3   5  -4  344.31   21.81
   3   5   4  346.16   22.33
   4   5  -4  287.56   21.09
  -4  -5  -4  299.64   21.62
   4  -5   4  307.38   20.21
   4   5  -4  301.37   19.25
   4  -5  -4  385.10   21.13
  -4   5  -4  408.85   22.29
   4  -5  -4  369.43   21.11
   4  -5  -4  407.07   22.03
   5   5  -4 1584.04   74.07
  -5  -5  -4 1576.42   75.55
   5  -5   4 1548.44   72.61
   5  -5  -4 1658.48   73.08
  -5  -5   4 1560.65   73.71
   5  -5  -4 1645.20   73.33
   5  -5  -4 1548.91   71.83
  -5   5  -4 1612.12   73.14
   6  -5   4    3.97    2.64
  -6   5   4    6.44    3.08
   6   5  -4    5.21    3.12
  -6  -5  -4    4.60    3.40
   6  -5  -4    1.94    2.45
  -6  -5   4    4.78    3.08
   0  -6   4   26.86    5.40
   0   6  -4   23.38    4.58
   0   6   4   21.49    4.09
   1  -6   4 1564.92   77.68
   1   6  -4 1730.42   77.05
  -1   6   4 1775.58   75.70
   1   6   4 1885.83   77.56
  -1  -6   4 1864.04   79.70
  -1   6  -4 1809.77   77.66
  -2   6   4  434.70   22.03
   2   6  -4  429.21   22.24
   2  -6   4  413.73   22.54
   2   6   4  368.99   21.98
  -2   6  -4  354.40   22.17
   3   6  -4   51.18    6.55
   3  -6   4   34.97    5.83
  -3  -6  -4   40.84    7.42
   3   6  -4   39.78    7.09
  -3   6   4   33.93    6.38
   3   6   4   27.48    6.29
  -3   6  -4   28.94    5.95
   3  -6  -4   37.69    6.13
   3  -6  -4   39.13    6.33
   3   6   4   35.30    6.85
  -3   6  -4   37.57    6.97
   3  -6  -4   39.61    6.50
  -4  -6  -4  147.05   13.69
   4   6  -4  145.02   13.50
   4  -6   4  141.34   12.30
   4  -6  -4  182.99   13.59
   4  -6  -4  192.64   13.57
  -4   6  -4  179.88   13.98
   4  -6  -4  170.27   12.89
   4   6   4  162.10   12.86
   5   6  -4  722.32   38.62
   5  -6   4  796.55   38.09
  -5  -6  -4  736.38   39.90
   5  -6  -4  716.86   37.69
  -5  -6   4  717.86   38.35
   5  -6  -4  710.33   36.22
  -5   6  -4  697.06   37.74
  -6   6   4   83.18    8.09
  -6  -6  -4   75.22    8.78
   6   6  -4   68.34    7.80
   6  -6   4   65.60    7.31
   6  -6  -4   56.36    6.78
  -6  -6   4   60.19    7.59
   0   7  -4  660.08   33.06
   0   7   4  654.53   32.90
   0  -7   4  683.67   34.73
   1  -7   4 1047.55   47.45
  -1   7   4 1026.38   44.38
   1   7  -4 1033.28   46.11
   1   7   4  892.89   45.27
  -1  -7   4  943.07   48.29
  -1   7  -4  927.88   46.18
   2   7  -4 1129.12   53.39
  -2   7   4 1154.06   53.55
  -2   7  -4 1168.34   55.28
   2   7   4 1188.89   54.47
  -3   7   4  127.45   11.49
   3   7  -4  139.40   11.56
   3  -7   4  112.65    9.49
  -3  -7  -4  121.94   11.00
   3   7   4  110.88    9.81
  -3   7  -4  107.84   10.39
   3  -7  -4  103.57    9.40
  -3   7  -4  111.73   11.44
   3   7   4   95.82   10.76
   3  -7  -4  109.03    9.62
   4  -7   4  986.49   50.04
  -4  -7  -4 1062.34   52.67
   4   7  -4 1032.82   52.18
   4   7   4 1048.33   50.91
   4  -7  -4 1068.64   50.16
  -4   7  -4 1054.59   52.09
  -4  -7   4 1075.82   51.90
   4  -7  -4 1134.34   51.76
   5  -7   4   96.66    9.75
   5   7  -4   84.80   10.04
  -5   7   4   96.11   10.14
  -5  -7  -4   83.76   10.31
  -5  -7   4   98.03   10.35
  -5   7  -4  100.90   10.22
   5  -7  -4  100.40   10.09
   6   7  -4   90.33    8.56
   6  -7   4   90.34    8.27
  -6   7   4   93.29    8.52
  -6  -7  -4   95.04    9.38
  -6   7  -4   84.26    7.56
   6  -7  -4   79.14    7.63
  -6  -7   4   90.92    8.85
   0   8  -4  459.07   26.05
   0  -8   4  488.95   28.42
   0   8   4  501.12   26.52
   1   8  -4 1215.96   56.07
   1  -8   4 1189.53   57.65
   1   8   4 1201.62   55.88
  -1   8  -4 1236.70   57.14
   2   8  -4 1295.41   61.64
  -2   8   4 1256.30   61.63
   2   8   4 1390.10   63.13
   2  -8  -4 1382.39   60.72
   2   8   4 1377.55   60.67
  -2   8  -4 1360.93   63.84
   2  -8  -4 1373.72   61.01
  -2   8  -4 1363.68   62.18
  -3  -8  -4  490.25   28.27
   3  -8   4  531.16   26.91
   3   8  -4  499.36   28.43
  -3   8   4  509.90   27.68
   3  -8  -4  506.19   26.98
   3  -8  -4  504.90   27.56
   3   8   4  504.59   27.44
  -3   8  -4  483.21   28.30
  -4  -8  -4  148.03   13.33
   4  -8   4  156.46   12.24
  -4   8   4  158.75   13.07
   4   8  -4  159.03   13.73
  -4   8  -4  139.34   12.92
   4  -8  -4  135.09   12.16
   4  -8  -4  122.54   10.97
  -4  -8   4  140.33   12.62
   4   8   4  128.85   12.06
   5   8  -4  465.30   25.95
  -5   8   4  435.86   25.14
   5  -8   4  462.54   24.74
  -5  -8  -4  419.82   26.00
   5   8   4  399.81   23.93
   5  -8  -4  419.78   24.59
  -5  -8   4  433.88   25.58
  -5   8  -4  419.83   25.09
   6   8  -4   98.44    8.29
  -6  -8  -4   97.56    8.86
  -6   8   4   96.84    8.28
   6  -8   4   94.35    7.84
  -6  -8   4   77.69    7.98
   6  -8  -4   86.71    7.60
   0   9   4 2985.54  127.56
   0   9  -4 2912.07  127.74
  -1   9   4  784.23   41.42
  -1  -9  -4  763.01   38.61
   1   9  -4  751.66   40.16
   1  -9   4  778.44   38.06
  -1   9  -4  868.38   40.55
   1   9   4  867.98   39.03
  -1   9  -4  857.97   42.32
   1   9   4  846.99   40.73
   2  -9   4  905.31   42.29
  -2  -9  -4  919.60   43.05
   2   9  -4  899.24   44.10
   2   9   4  881.32   46.53
  -2   9  -4  884.58   46.61
   2   9   4  945.40   43.71
   2  -9  -4  914.15   43.53
   2  -9  -4  917.23   43.18
  -2   9  -4  917.85   44.91
  -3   9   4  241.21   16.00
   3   9  -4  225.17   16.34
   3  -9  -4  201.37   14.95
   3   9   4  205.71   15.16
  -3   9  -4  203.25   15.94
   3  -9  -4  201.93   14.37
   4  -9   4  506.57   27.07
  -4   9   4  512.04   28.32
   4   9  -4  516.64   29.06
  -4  -9  -4  494.77   28.91
  -4  -9   4  490.55   28.39
   4  -9  -4  473.23   27.42
  -4   9  -4  485.08   28.70
   4  -9  -4  465.96   25.92
   4   9   4  459.50   27.45
  -5  -9  -4  153.51   12.93
   5   9  -4  173.72   13.17
  -5   9   4  160.46   12.56
   5  -9   4  159.91   11.94
  -5   9  -4  155.55   12.61
   5  -9  -4  152.44   11.99
   5   9   4  148.61   11.86
  -5  -9   4  142.74   12.49
   0 -10   4   14.82    4.25
   0  10  -4    6.99    3.46
   0 -10  -4    9.51    3.63
   0  10  -4   10.31    4.17
  -1 -10  -4  427.18   23.68
   1  10  -4  413.53   25.12
   1 -10   4  425.62   23.06
   1  10  -4  418.01   23.60
  -1  10  -4  436.61   24.75
  -1  10  -4  434.95   26.70
   1  10   4  427.30   23.43
   1 -10  -4  444.22   23.80
  -1 -10   4  424.69   23.05
   1 -10  -4  417.06   22.97
   2 -10   4  954.97   45.78
  -2 -10  -4  947.72   46.15
   2  10  -4  920.11   47.10
  -2  10  -4  999.23   48.67
   2  10   4 1018.86   47.23
   2 -10  -4 1033.92   47.19
   3  10  -4   76.56    9.19
  -3  10   4   63.42    7.95
  -3  10  -4   56.01    9.44
   3 -10  -4   42.09    7.30
   3  10   4   55.71    8.96
  -4  10   4  150.41   12.74
  -4 -10  -4  129.54   12.37
   4  10  -4  151.81   13.29
   4 -10   4  141.74   11.52
  -4 -10   4  162.86   13.03
  -4  10  -4  153.13   13.39
   4  10   4  166.47   13.31
   4 -10  -4  150.25   12.37
   5 -10   4   63.38    6.69
  -5  10   4   68.23    7.59
  -5 -10  -4   61.68    7.42
   5  10  -4   55.50    7.23
  -5  10  -4   52.02    7.00
  -5 -10   4   50.25    6.81
   5 -10  -4   53.93    6.72
   5  10   4   52.31    6.77
   0 -11  -4 1681.30   74.12
   0  11  -4 1586.87   74.08
   0 -11   4 1654.58   73.35
  -1 -11  -4  475.20   27.30
   1 -11   4  505.62   27.28
   1  11  -4  489.09   27.30
   1  11   4  529.02   27.83
   1 -11  -4  526.38   27.96
   1 -11  -4  547.65   29.15
  -1  11  -4  506.70   28.57
  -1 -11   4  507.47   27.04
  -2 -11  -4  110.26    9.87
   2 -11   4  122.14   10.05
   2  11  -4  101.93   10.34
   2 -11  -4   89.82    9.23
   2  11   4   92.29    9.70
  -2  11  -4   92.62   10.26
  -3  11   4  996.50   51.14
   3  11  -4  991.45   51.69
  -3 -11   4 1071.34   51.29
   3 -11  -4 1073.08   51.13
  -3  11  -4 1135.04   53.50
   3  11   4 1148.99   52.21
  -4  11   4  109.76   10.46
   4  11  -4  107.80   10.65
   4  11   4  103.78   10.23
  -4 -11   4  112.07   10.27
   4 -11  -4  113.58   10.18
  -4  11  -4  105.42   10.74
   5  11  -4   15.10    4.15
  -5  11   4   16.25    3.97
   5 -11  -4   11.54    3.50
  -5  11  -4    9.23    3.51
  -5 -11   4   11.84    3.69
   5  11   4    8.66    3.39
   0 -12   4  987.70   46.62
   0  12  -4  940.30   47.20
   0  12   4  956.04   46.43
   0 -12  -4  990.83   47.29
   1 -12   4  427.30   23.67
  -1 -12  -4  434.27   24.15
  -1  12  -4  379.98   24.21
   1  12   4  406.75   23.76
   1 -12  -4  402.86   23.77
  -1 -12   4  401.69   23.16
  -2 -12  -4  570.71   29.10
   2 -12   4  554.91   28.49
   2  12  -4  553.22   29.58
  -2  12  -4  511.44   29.89
  -2 -12   4  507.68   27.59
   2 -12  -4  495.20   27.86
   2  12   4  525.12   29.36
   3  12  -4   39.69    7.26
   3 -12  -4   31.52    5.98
  -3  12  -4   28.54    6.54
   3  12   4   34.46    6.95
  -3 -12   4   31.69    6.23
  -4  12   4   83.00    8.37
   4  12  -4   82.93    8.90
   4 -12  -4   88.59    8.30
  -4  12  -4   96.43    9.46
  -4 -12   4   87.42    8.53
   4  12   4   83.51    8.73
   0  13   4  140.14   11.70
   0 -13  -4  134.09   11.85
   0  13  -4  136.98   11.86
   0 -13   4  141.72   11.72
  -1 -13  -4  266.50   17.44
   1 -13   4  261.79   16.84
  -1 -13   4  233.48   16.21
  -1  13  -4  243.36   17.43
   1 -13  -4  247.92   16.75
   1  13   4  242.49   16.88
   2  13  -4  405.11   23.09
   2 -13   4  404.25   22.34
  -2 -13  -4  390.84   22.56
   2  13   4  396.84   23.48
  -2 -13   4  349.44   21.07
  -2  13  -4  387.84   23.79
   3  13  -4 1395.76   65.70
  -3  13  -4 1489.09   66.86
   3  13   4 1455.92   66.15
   3 -13  -4 1446.30   64.72
   4  13  -4   62.56    6.89
   4 -13  -4   51.85    5.91
  -4  13  -4   56.77    7.05
   4  13   4   43.30    6.45
   0 -14   4   12.73    4.38
   0 -14  -4   15.23    4.73
   0  14   4   19.39    4.87
  -1  14   4  527.91   28.22
   1 -14   4  555.70   28.86
  -1 -14  -4  533.90   28.90
   1  14   4  541.52   29.13
  -1  14  -4  563.83   29.73
   1 -14  -4  512.02   28.48
  -1 -14   4  536.77   28.39
  -2  14   4  580.90   28.39
   2 -14   4  588.37   29.01
  -2 -14  -4  603.26   29.38
  -2  14  -4  526.89   29.84
  -2 -14   4  533.57   32.90
   2  14   4  523.96   29.50
   3  14  -4    6.27    2.99
   3  14   4    4.60    3.06
  -3  14  -4    3.86    2.88
   0 -15  -4   22.48    5.10
   0 -15   4   22.44    5.14
   0  15   4   16.86    4.32
  -1  15   4   53.76    6.50
   1 -15   4   55.02    7.66
  -1 -15  -4   51.95    7.71
   1  15   4   69.14    7.73
   1 -15  -4   71.90    7.39
  -1 -15   4   78.51    7.53
  -1  15  -4   77.38    8.18
  -2 -15  -4   72.01    7.24
   2 -15   4   68.77    6.81
   2  15   4   71.17    7.65
  -2  15  -4   70.37    7.56
   3  15   4  876.47   39.22
  -3  15  -4  798.30   38.78
   0 -16  -4   23.60    4.88
   0 -16   4   24.95    4.95
   0  16   4   24.32    4.79
  -1  16   4  189.67   11.61
  -1 -16  -4  185.04   12.15
   1 -16   4  193.13   12.15
   1  16   4  188.57   12.43
  -1 -16   4  179.84   11.76
   1 -16  -4  172.11   11.63
   2  16   4  290.93   16.39
   0   0   5    1.74    1.08
   0   0  -5    0.25    0.90
  -1   0  -5 1741.65   78.13
   1   0  -5 1981.64   79.35
   1   0   5 1939.62   79.45
   2   0   5 3772.95  151.43
  -2   0   5 3454.38  150.28
  -3   0   5 1869.55   83.30
   3   0   5 1952.65   85.37
   4   0  -5  400.71   22.24
   4   0   5  390.10   26.26
  -4   0   5  378.84   23.15
   4   0   5  400.95   22.14
  -4   0  -5  376.00   24.48
   4   0  -5  411.47   23.41
   5   0   5  357.00   20.91
   5   0  -5  325.20   21.37
   5   0  -5  326.13   20.17
  -5   0  -5  301.32   22.51
   6   0   5   45.17    6.83
   6   0  -5   40.90    7.09
   6   0  -5   45.61    6.16
   0  -1  -5 4171.42  165.56
   0   1  -5 3945.58  166.48
   1  -1   5 2373.64   94.31
  -1  -1  -5 2319.21   92.61
   1   1   5 2191.73   94.80
  -1   1  -5 2121.02   94.08
   1  -1  -5 2314.25   94.30
   2   1  -5  404.68   20.35
  -2   1   5  402.68   20.11
   2  -1   5  411.40   20.68
  -2   1  -5  377.75   19.35
   2   1   5  380.74   20.47
  -2  -1   5  378.01   18.99
  -3   1  -5  328.31   18.29
   3   1   5  325.17   20.41
  -3  -1   5  351.09   19.48
   4   1  -5  340.40   21.26
   4  -1   5  360.22   24.53
   4   1  -5  327.26   19.80
  -4   1   5  346.70   21.65
   4  -1   5  326.83   19.99
  -4  -1  -5  339.45   22.63
   4  -1  -5  359.73   20.44
   4  -1  -5  351.62   21.20
  -4  -1   5  375.26   26.71
   4   1   5  375.83   25.07
  -4  -1   5  339.96   21.37
  -4   1  -5  333.64   22.38
   4   1   5  336.43   19.86
  -5  -1  -5   73.50   10.18
   5  -1   5   77.87    9.04
   5   1  -5   73.69    8.24
   5   1  -5   74.06    9.33
   5  -1  -5   84.46    8.95
   5  -1  -5   84.76    9.62
   5   1   5   78.63    8.44
  -5   1  -5   64.45   10.90
   6   1  -5  160.19   12.66
  -6  -1  -5  146.13   13.63
   6   1  -5  158.06   11.41
   6  -1   5  134.24   11.32
   6   1   5  149.34   11.27
   6  -1  -5  163.46   12.48
   6  -1  -5  142.51   11.34
   0  -2   5 3637.03  153.91
   0   2  -5 3859.17  156.22
   0   2   5 3933.80  154.26
   0  -2   5 3715.45  157.83
   1   2  -5 2149.08   88.67
   1  -2   5 2041.73   87.32
  -1   2  -5 2137.66   88.34
  -1  -2   5 2086.42   89.29
   1   2   5 2092.86   88.76
   2  -2   5 3176.18  133.35
  -2   2   5 3170.92  132.88
   2   2   5 3237.97  133.98
  -2   2  -5 3149.21  132.93
  -2  -2   5 3148.25  132.65
   3  -2   5  818.90   40.12
  -3   2   5  756.04   37.76
   3   2   5  813.71   39.98
  -3  -2   5  794.07   38.00
  -3   2  -5  751.68   37.45
   4   2  -5  377.29   20.47
  -4  -2  -5  378.02   23.39
  -4   2   5  353.26   21.76
   4  -2   5  360.83   24.30
   4   2  -5  353.56   21.49
   4  -2   5  345.60   20.30
  -4   2  -5  318.80   21.93
   4  -2  -5  336.83   20.88
  -4  -2   5  320.88   21.00
   4  -2  -5  347.15   20.26
   4   2   5  327.81   19.63
   4  -2  -5  316.62   19.88
   4   2   5  338.36   23.81
   5   2  -5   39.96    6.90
   5   2  -5   42.83    7.86
   5  -2   5   40.63    7.20
  -5  -2  -5   51.42   10.01
   5  -2  -5   51.11    8.27
  -5  -2   5   39.53    7.30
   5  -2  -5   40.06    7.45
   5   2   5   32.54    6.23
   6   2  -5  281.49   16.31
   6  -2   5  282.17   17.11
   6   2  -5  268.09   17.58
  -6  -2  -5  289.44   19.79
   6  -2  -5  241.77   16.53
   6   2   5  248.11   15.82
   6  -2  -5  257.27   16.59
   0  -3   5 4956.26  207.16
   0   3   5 4945.96  202.88
   0   3  -5 5085.20  205.69
  -1   3   5 2432.35  104.74
   1  -3   5 2794.93  108.56
   1  -3   5 2157.98  104.08
   1   3  -5 2704.27  106.50
  -1   3  -5 2480.81  105.99
   1   3   5 2585.09  106.45
  -1  -3   5 2519.24  107.15
   2  -3   5 1206.15   52.77
   2   3  -5 1191.57   52.68
  -2   3   5 1254.16   52.38
   2  -3   5 1173.92   54.13
   2   3   5 1150.68   53.34
  -2   3  -5 1053.34   52.28
  -2  -3   5 1196.89   53.00
  -3   3   5 1714.13   78.87
   3  -3   5 1771.11   80.59
   3   3   5 1914.84   81.47
  -3   3  -5 1764.64   79.24
   4  -3   5  608.33   35.92
   4  -3   5  606.62   31.84
   4   3  -5  611.87   33.25
   4   3  -5  623.59   31.54
  -4  -3  -5  618.95   34.64
   4   3   5  618.35   30.93
   4  -3  -5  609.03   31.72
   4  -3  -5  639.66   32.86
  -4  -3   5  618.14   32.84
   4  -3  -5  613.85   31.95
   5   3  -5  829.86   39.77
   5  -3   5  798.22   40.66
   5   3  -5  808.64   42.06
  -5  -3  -5  828.42   43.84
   5   3   5  778.86   39.09
   5  -3  -5  802.51   40.47
   5  -3  -5  734.44   39.78
  -5  -3   5  813.48   41.15
   5  -3  -5  826.10   41.23
   6  -3   5   42.85    6.84
   6   3  -5   57.57    7.40
  -6  -3  -5   49.07    8.51
   6  -3  -5   42.15    6.67
   6  -3  -5   36.62    6.33
   0   4   5 7248.65  298.54
   0  -4   5 7252.28  303.05
   0   4  -5 7576.89  301.91
   1   4  -5 1916.76   82.78
   1  -4   5 2003.28   84.56
  -1   4   5 2040.80   81.22
  -1   4  -5 2026.74   83.15
   1   4   5 1975.56   83.14
  -1  -4   5 1622.42   83.18
   2  -4   5 1035.83   49.71
   2   4  -5 1090.43   48.88
   2  -4   5 1082.31   48.19
  -2   4   5 1043.53   47.93
   2   4   5 1111.57   49.57
  -2   4  -5 1059.96   49.14
  -2  -4   5 1044.41   49.67
  -3   4   5  439.48   23.99
   3  -4   5  436.06   25.22
   3   4  -5  449.32   24.15
  -3   4  -5  407.31   24.33
   3   4   5  447.71   25.87
   4   4  -5  540.06   31.19
   4  -4   5  510.81   29.38
   4   4  -5  543.73   29.14
  -4  -4  -5  496.71   31.56
   4   4   5  550.35   28.48
   4  -4  -5  601.88   30.48
  -4   4  -5  614.00   30.72
   4  -4  -5  602.95   30.92
   4  -4  -5  626.54   30.56
  -5  -4  -5  267.22   20.23
   5   4  -5  270.40   17.06
   5  -4   5  295.61   18.88
   5   4  -5  294.32   19.98
   5   4   5  261.54   16.80
   5  -4  -5  260.36   18.03
  -5  -4   5  267.72   18.55
   5  -4  -5  259.25   18.10
   5  -4  -5  282.11   18.29
  -6   4   5  210.38   13.95
   6  -4   5  209.64   13.86
   6   4  -5  194.01   14.05
  -6  -4  -5  200.33   15.45
  -6  -4   5  178.59   13.72
   6  -4  -5  185.29   12.63
   6  -4  -5  170.27   12.51
   0   5   5  208.80   13.53
   0  -5   5  228.71   14.71
   0   5  -5  216.19   13.47
   1  -5   5  604.14   29.88
   1   5  -5  624.06   28.96
  -1   5   5  600.21   26.93
  -1   5  -5  535.63   28.59
  -1  -5   5  528.30   29.46
  -2   5   5  322.77   17.96
   2  -5   5  293.32   18.57
   2   5  -5  320.68   18.58
  -2   5  -5  327.03   19.15
   2   5   5  338.90   19.24
  -2  -5   5  312.21   19.73
   3   5  -5 1227.56   57.25
   3   5  -5 1219.90   58.85
  -3   5   5 1242.86   57.73
   3  -5  -5 1230.91   57.79
  -3   5  -5 1194.87   58.30
   3   5   5 1288.64   59.73
  -4  -5  -5 1038.36   51.58
   4   5  -5 1021.66   50.72
   4  -5   5 1039.20   48.93
   4   5  -5  981.58   47.61
   4  -5  -5  987.02   48.72
   4   5   5  971.00   47.43
  -4   5  -5 1020.54   49.48
   4  -5  -5 1060.09   49.32
   4  -5  -5 1026.28   48.58
   5   5  -5   67.31   10.23
  -5  -5  -5   66.39   10.99
   5   5  -5   66.29    8.58
   5  -5   5   67.64    8.33
   5  -5  -5   59.95    8.98
  -5  -5   5   62.22    8.39
  -5   5  -5   69.34    8.44
   5  -5  -5   69.92    8.29
   5  -5  -5   70.10    8.11
  -6  -5  -5   67.53    8.51
  -6   5   5   71.06    7.66
   6  -5   5   62.44    7.18
   6   5  -5   71.64    7.92
  -6  -5   5   62.30    7.54
   6  -5  -5   49.83    6.42
   0  -6   5  152.98   12.23
   0   6   5  160.47   11.40
   1  -6   5  277.17   18.37
   1   6  -5  273.14   17.31
  -1   6   5  271.94   15.81
  -1  -6   5  330.11   19.61
   1   6   5  343.79   18.44
  -1   6  -5  340.71   18.69
   2  -6   5 1696.92   75.20
  -2   6   5 1790.28   73.77
   2   6  -5 1811.02   74.86
  -2   6  -5 1496.18   74.63
   2   6   5 1545.61   74.39
  -3   6   5   25.95    5.76
   3   6  -5   21.57    5.27
   3   6  -5   26.51    5.19
  -3  -6  -5   23.72    6.03
   3   6  -5   23.26    5.87
   3  -6   5   22.86    5.03
   3  -6  -5   14.01    4.02
   3   6   5   12.39    3.98
   3   6   5   12.26    4.54
   3  -6  -5   11.27    3.92
   3  -6  -5   14.31    4.34
  -3   6  -5   13.09    4.56
  -3   6  -5   14.79    4.82
  -4  -6  -5  234.26   18.53
   4  -6   5  260.22   17.27
   4   6  -5  244.73   16.12
   4   6  -5  257.84   18.76
   4  -6  -5  275.94   18.04
   4  -6  -5  263.41   17.31
   4  -6  -5  259.25   17.15
  -4   6  -5  274.79   18.51
   5  -6   5  369.28   21.50
   5   6  -5  365.76   22.58
  -5  -6  -5  340.90   23.01
   5  -6  -5  306.16   19.88
   5  -6  -5  336.33   21.23
  -5  -6   5  336.05   21.69
  -5   6  -5  325.38   21.01
  -6  -6  -5  237.36   16.45
   6  -6   5  228.28   14.59
  -6   6   5  245.93   15.26
   6   6  -5  235.16   15.25
  -6  -6   5  236.48   15.58
   6  -6  -5  219.26   14.21
   0   7  -5  444.31   24.84
   0   7   5  470.54   25.19
   0  -7   5  461.24   26.31
   1  -7   5  533.26   28.23
   1   7  -5  527.21   26.82
  -1  -7   5  483.70   28.59
   1   7   5  453.60   26.06
  -1   7  -5  482.96   27.00
   2   7  -5 1049.33   48.64
  -2   7   5 1019.21   47.96
   2   7   5 1018.27   49.14
  -2   7  -5  988.15   49.52
  -3  -7  -5  910.81   45.56
   3   7  -5  866.41   43.08
   3   7  -5  860.07   44.82
   3  -7   5  900.23   43.30
  -3   7   5  896.38   45.87
   3   7  -5  879.80   45.31
   3  -7  -5  950.76   44.30
   3   7   5  915.04   43.86
  -3   7  -5  891.65   48.05
  -3   7  -5  978.91   45.96
   3  -7  -5  957.00   44.72
   3   7   5  962.62   47.80
   3  -7  -5  958.64   43.98
  -4  -7  -5 1469.63   66.82
   4  -7   5 1436.30   63.57
   4   7  -5 1453.36   66.24
   4  -7  -5 1296.85   62.83
   4   7   5 1276.62   63.02
   4  -7  -5 1369.94   63.75
  -4   7  -5 1325.19   64.70
   4  -7  -5 1358.61   64.12
  -5  -7  -5   84.84   10.16
   5   7  -5   89.38   10.11
   5  -7   5   82.97    9.08
  -5   7   5   79.79    9.24
   5  -7  -5   82.12    8.44
  -5   7  -5   76.98    9.10
  -5  -7   5   90.74    9.81
   5  -7  -5   91.89    9.63
   6   7  -5  147.21   10.94
  -6   7   5  143.28   10.77
  -6  -7  -5  141.46   11.54
   6  -7   5  132.53   10.07
   6  -7  -5  137.23    9.99
  -6  -7   5  138.64   10.97
   0  -8   5   13.87    4.91
   0   8   5   14.14    4.11
   0   8  -5   15.58    4.53
   1  -8   5 1053.97   53.16
   1   8  -5 1118.96   52.14
   1   8   5 1106.73   51.99
  -1   8  -5 1105.31   53.05
  -2  -8  -5  457.36   23.91
   2   8  -5  444.27   24.03
   2   8  -5  467.51   25.18
   2   8  -5  477.33   25.78
   2   8   5  432.10   23.63
   2  -8  -5  440.22   24.17
   2  -8  -5  434.21   23.87
   2   8   5  437.79   25.82
  -2   8  -5  412.40   26.31
  -2   8  -5  459.06   25.45
  -3  -8  -5   23.65    6.21
  -3   8   5   16.98    4.74
   3  -8   5   22.69    5.70
   3   8  -5   20.99    4.87
   3   8  -5   21.68    5.82
   3  -8  -5   14.99    4.53
  -3   8  -5   11.01    4.28
   3   8   5   14.19    4.50
   3  -8  -5   13.74    4.34
   4   8  -5  251.90   18.51
   4  -8   5  227.98   16.18
  -4  -8  -5  226.44   17.83
  -4   8   5  236.54   17.15
   4  -8  -5  250.59   17.34
   4   8   5  262.75   17.38
   4  -8  -5  250.40   16.45
  -4   8  -5  237.77   17.74
  -5   8   5  522.52   27.11
   5  -8   5  501.14   26.08
  -5  -8  -5  496.46   28.21
   5   8  -5  515.50   27.66
   5  -8  -5  437.92   25.87
  -5  -8   5  427.40   26.36
  -5   8  -5  419.60   26.03
  -6   8   5  717.33   33.94
  -6  -8  -5  697.48   35.42
   6   8  -5  694.60   33.74
   6  -8   5  704.46   34.28
  -6  -8   5  769.56   34.84
   6  -8  -5  714.66   35.00
   0   9  -5 2410.02  106.71
   0   9   5 2503.29  108.71
   0  -9  -5 2526.20  106.24
   0  -9   5 2499.44  105.08
   0  -9   5 2397.42  111.39
   0   9  -5 2439.81  108.60
   1  -9   5  676.53   38.02
   1  -9   5  705.37   33.21
   1   9  -5  723.29   36.37
   1   9  -5  680.97   34.34
  -1   9   5  701.07   37.00
  -1  -9  -5  714.23   34.11
  -1   9  -5  660.81   34.91
   1   9   5  658.84   35.55
  -1   9  -5  675.05   37.02
   1  -9  -5  640.95   33.36
  -1  -9   5  702.02   33.16
   1  -9  -5  688.33   34.06
  -2  -9  -5  559.68   29.13
   2  -9   5  563.74   28.46
   2   9  -5  566.78   30.34
   2   9  -5  559.50   29.24
   2   9  -5  541.76   30.80
   2   9   5  569.08   31.89
   2   9   5  561.50   29.27
   2  -9  -5  571.19   29.69
  -2   9  -5  568.88   31.01
   2  -9  -5  582.37   29.48
  -3   9   5  584.16   33.84
   3   9  -5  626.78   35.38
  -3   9  -5  686.27   36.24
   3   9   5  711.97   35.14
   3  -9  -5  715.34   35.21
   3  -9  -5  681.73   34.31
  -4   9   5  299.73   19.18
   4  -9   5  317.82   18.42
   4   9  -5  334.26   20.95
  -4  -9  -5  296.52   20.05
  -4   9  -5  258.22   19.10
   4   9   5  262.59   18.34
   4  -9  -5  261.05   18.32
   4  -9  -5  255.96   17.32
  -4  -9   5  273.19   19.04
  -5   9   5   69.58    7.96
   5   9  -5   76.70    8.55
   5  -9   5   68.40    7.44
  -5  -9  -5   74.15    8.59
   5  -9  -5   69.85    7.80
  -5   9  -5   66.90    8.02
  -5  -9   5   69.42    8.23
   0 -10   5  278.23   17.03
   0  10  -5  270.88   19.62
   0 -10  -5  295.26   18.02
   0  10  -5  297.37   18.55
   0  10   5  283.31   19.49
  -1  10   5  580.36   34.66
   1  10  -5  628.75   32.92
  -1 -10  -5  639.92   32.72
   1  10  -5  628.16   35.52
   1 -10   5  637.77   31.86
  -1 -10   5  679.50   32.27
   1  10   5  651.63   32.57
  -1  10  -5  647.65   33.92
   1 -10  -5  657.80   32.55
   1 -10  -5  662.76   33.06
   2  10  -5  183.65   14.48
   2  10  -5  206.87   13.99
  -2 -10  -5  220.81   14.36
   2 -10   5  205.57   13.63
   2 -10  -5  173.92   13.53
  -2  10  -5  186.63   15.03
   2  10   5  168.83   13.47
   3  10  -5  925.04   44.73
  -3  10   5  863.98   42.96
   3 -10  -5  873.20   43.06
   3  10   5  834.48   42.92
  -3  10  -5  835.93   44.39
   4  10  -5   34.41    7.32
  -4  10   5   57.17    7.59
   4  10   5   54.14    8.34
  -4 -10   5   54.79    7.58
   4 -10  -5   50.22    7.64
  -4  10  -5   53.99    8.97
  -5  10   5   70.90    7.61
   5  10  -5   67.17    7.58
   5 -10   5   63.45    6.58
  -5 -10  -5   65.03    7.44
  -5  10  -5   53.93    6.89
  -5 -10   5   65.76    7.50
   5 -10  -5   70.17    7.31
   0 -11  -5 1273.81   59.93
   0 -11   5 1321.33   59.46
   0  11  -5 1282.67   60.61
   1 -11   5  710.33   36.24
   1  11  -5  697.05   36.77
  -1 -11  -5  707.67   36.91
   1 -11  -5  764.87   37.29
   1  11   5  757.83   37.06
  -1 -11   5  728.30   36.07
   1 -11  -5  727.23   36.37
  -1  11  -5  747.92   38.36
   2 -11   5  855.16   41.82
  -2 -11  -5  841.25   42.12
   2  11  -5  804.22   42.75
   2 -11  -5  853.25   42.14
  -2  11  -5  898.59   44.48
   2  11   5  917.04   43.11
   3  11  -5  368.52   22.65
  -3 -11  -5  377.66   24.94
   3  11   5  344.58   21.66
   3 -11  -5  347.28   21.35
  -3  11  -5  341.27   22.67
   4  11  -5  378.51   22.96
  -4  11   5  376.94   22.36
   4  11   5  392.02   22.43
   4 -11  -5  386.19   22.15
  -4 -11   5  375.74   22.40
  -4  11  -5  398.34   23.45
   5  11  -5   27.56    4.87
  -5  11   5   31.30    5.10
   5 -11  -5   24.34    4.44
  -5 -11   5   33.31    5.54
  -5  11  -5   30.06    5.31
   0 -12   5 1114.20   52.78
   0  12  -5 1132.00   54.05
   0 -12  -5 1122.33   53.48
   1 -12   5  516.16   26.71
  -1 -12  -5  524.38   27.19
   1  12  -5  506.65   26.72
  -1  12  -5  443.21   27.13
   1  12   5  450.03   26.22
  -1 -12   5  424.67   25.24
   1 -12  -5  446.80   26.14
   2 -12   5  280.74   17.44
   2  12  -5  280.98   20.74
  -2 -12  -5  276.71   17.73
  -2  12  -5  253.09   18.48
   2 -12  -5  265.72   17.24
   2  12   5  251.28   17.76
   3  12  -5  520.70   27.46
   3 -12  -5  451.13   25.72
  -3  12  -5  492.05   27.91
  -3 -12   5  461.75   26.11
   3  12   5  476.94   26.83
   4  12  -5   38.05    6.65
   4  12   5   36.30    6.15
   4 -12  -5   40.72    6.12
  -4  12  -5   38.73    6.65
  -4 -12   5   39.86    5.71
   0 -13  -5  871.36   44.01
   0 -13   5  879.48   43.37
   0  13   5  931.60   44.03
   0  13  -5  887.62   44.21
  -1 -13  -5  210.19   15.98
   1 -13   5  227.53   16.05
   1 -13  -5  245.44   16.64
   1  13   5  249.53   16.77
  -1  13  -5  259.88   17.70
  -1 -13   5  261.33   16.43
  -2 -13  -5  144.60   11.52
   2 -13   5  146.78   11.28
   2 -13  -5  121.87   10.84
   2  13   5  136.49   11.96
  -2  13  -5  129.22   12.13
   3  13  -5  154.93   12.16
  -3  13  -5  155.79   12.91
   3  13   5  176.23   12.93
   3 -13  -5  168.95   12.05
   4  13  -5  109.31    8.89
  -4  13  -5  123.77   10.26
   4  13   5  117.00    9.35
   4 -13  -5  116.52    8.88
   0  14   5    3.86    2.95
   0 -14   5    2.88    2.91
   0  14  -5    4.22    3.15
   0 -14  -5    4.35    3.06
  -1  14   5  761.30   38.03
   1 -14   5  763.32   38.30
  -1 -14  -5  770.83   38.71
   1  14   5  783.41   38.76
  -1  14  -5  804.10   39.47
   1 -14  -5  751.44   38.15
  -1 -14   5  801.68   38.18
  -2 -14  -5  133.26   10.71
   2 -14   5  116.31    9.92
   2  14   5  136.15   11.27
  -2  14  -5  131.75   11.39
   3  14   5   10.86    3.79
   3 -14  -5   10.11    4.76
  -3  14  -5    9.35    3.75
   0 -15   5  209.51   14.07
   0  15   5  203.20   14.05
   0 -15  -5  218.02   14.42
  -1 -15  -5  140.29   11.07
   1 -15   5  154.42   11.38
  -1  15   5  157.68   11.18
  -1 -15   5  145.25   10.75
  -1  15  -5  143.27   11.29
   1 -15  -5  140.50   10.84
   1  15   5  152.95   11.61
  -2  15   5  207.15   12.88
  -2 -15  -5  221.49   13.75
   2 -15   5  198.61   13.04
   2  15   5  227.33   14.37
  -2  15  -5  228.67   14.41
   0  16   5    0.65    2.17
   0 -16   5    2.49    2.51
   0 -16  -5   -0.70    2.07
  -1 -16  -5  236.73   15.06
  -1  16   5  243.70   14.57
   1 -16   5  256.60   15.08
   1  16   5  284.08   15.86
   1 -16  -5  270.91   14.99
  -1 -16   5  291.86   15.23
   0   0   6   53.29    4.31
   0   0  -6   47.89    4.05
  -1   0  -6 8694.83  359.13
   1   0  -6 8981.07  360.37
   2   0   6  910.71   42.97
  -2   0  -6  957.23   41.32
  -3   0   6   12.64    3.56
   3   0   6   17.27    4.63
  -4   0  -6   92.31   10.78
   4   0   6  104.10   12.16
  -4   0   6  101.02   10.78
   4   0  -6  104.27    9.36
   4   0   6   99.53    9.31
   4   0  -6   94.75    9.87
   5   0   6  861.38   42.62
  -5   0  -6  850.81   46.49
   5   0  -6  910.96   44.65
   5   0  -6  831.24   42.54
   6   0  -6  157.53   11.38
   6   0   6  144.70   11.22
   6   0  -6  136.62   11.90
   0   1   6 6945.82  279.76
   0   1  -6 6674.70  279.21
   0  -1  -6 6932.10  278.17
   0  -1   6 6791.17  278.49
  -1  -1  -6 3179.77  135.58
   1   1  -6 3407.21  138.37
   1  -1  -6 3526.16  137.70
  -1  -1   6 3323.26  139.33
  -1   1  -6 3306.70  137.55
   1   1   6 3213.96  138.14
   2   1  -6  712.59   33.38
   2  -1   6  701.17   33.40
  -2   1   6  684.69   32.84
   2   1   6  702.11   33.64
  -2   1  -6  681.29   32.23
  -2  -1   6  708.94   32.39
  -3   1   6  671.02   33.96
   3  -1   6  665.62   35.17
   3   1   6  682.13   35.41
  -3  -1   6  694.89   34.07
  -4  -1  -6 1965.44   88.69
   4  -1   6 1899.56   84.29
   4   1  -6 1916.63   85.91
   4  -1   6 1863.07   89.55
   4   1  -6 1958.11   84.51
  -4   1  -6 1796.58   87.39
   4  -1  -6 1877.65   85.56
   4   1   6 1933.98   84.18
   4   1   6 1937.50   94.08
  -4  -1   6 1946.60   98.82
   4  -1  -6 1924.31   84.48
   5  -1   6  603.83   31.34
  -5  -1  -6  593.13   34.66
   5   1  -6  585.30   32.51
   5   1   6  558.71   30.36
   5  -1  -6  565.04   31.88
  -5   1  -6  544.89   33.83
   5  -1  -6  572.84   30.84
   6   1  -6  143.81   10.78
   6  -1   6  152.90   11.37
   6   1  -6  153.43   12.11
   6  -1  -6  127.53   10.56
   6   1   6  118.52   10.24
   6  -1  -6  128.02   11.15
   0  -2   6  244.02   15.22
   0   2  -6  246.83   13.52
   0  -2   6  250.19   11.60
   0   2   6  253.41   11.73
   0   2   6  258.06   14.04
   1  -2   6 7375.23  352.75
   1   2  -6 9060.47  354.71
   1   2   6 9189.63  355.04
  -1  -2   6 9093.74  355.88
  -2   2   6   18.85    3.73
   2   2  -6   20.61    4.22
   2  -2   6   19.61    4.00
  -2   2  -6   16.97    3.63
   2   2   6   15.21    3.82
  -2  -2   6   20.15    4.09
  -3   2   6   72.40    7.57
   3  -2   6   79.56    8.77
  -3   2  -6   65.63    8.73
   3   2   6   76.21    8.72
  -3  -2   6   74.22    7.60
   4  -2   6  869.33   42.76
   4   2  -6  895.67   42.83
   4  -2   6  869.08   47.48
   4   2  -6  859.92   44.22
  -4  -2  -6  851.59   45.81
   4   2   6  901.71   42.28
   4  -2  -6  900.43   42.95
   4  -2  -6  904.05   43.86
  -4   2  -6  891.06   46.02
   5   2  -6  551.09   31.15
   5   2  -6  542.21   29.20
   5  -2   6  555.62   29.89
  -5  -2  -6  575.51   33.56
   5   2   6  482.70   28.28
   5  -2  -6  540.90   29.67
   5  -2  -6  554.01   30.68
  -5  -2   6  534.07   29.70
   6   2  -6   19.27    5.02
   6  -2   6   17.91    4.43
   6   2  -6   21.63    4.60
   6  -2  -6   16.75    4.30
   6   2   6   18.40    4.20
   6  -2  -6   17.78    4.58
   0   3   6 1930.06   79.83
   0   3  -6 1947.48   82.85
   0  -3   6 1947.27   84.88
   1  -3   6 3911.48  162.97
   1  -3   6 3947.66  167.65
   1   3  -6 3883.85  165.29
  -1   3   6 4098.27  163.82
  -1  -3   6 3874.55  166.20
  -1   3  -6 4017.73  165.43
   1   3   6 4081.11  165.64
   2  -3   6  553.65   27.02
   2   3  -6  517.47   26.99
   2  -3   6  517.27   28.89
  -2   3   6  559.74   26.73
  -2  -3   6  528.54   27.26
  -2   3  -6  542.91   27.40
   2   3   6  548.62   27.88
   3  -3   6 2188.33   94.05
  -3   3   6 2034.36   92.13
  -3   3  -6 2019.63   92.10
   3   3   6 2174.25   94.50
   4  -3   6  514.92   26.95
  -4  -3  -6  501.45   29.89
   4   3  -6  491.73   28.25
   4   3  -6  486.29   26.53
   4  -3  -6  497.26   26.96
   4  -3  -6  475.28   26.57
   4  -3  -6  494.18   27.61
   4   3   6  467.07   25.70
  -5  -3  -6  163.68   15.31
   5   3  -6  160.34   12.10
   5   3  -6  157.04   13.58
   5  -3   6  172.98   13.29
   5  -3  -6  139.77   12.17
   5   3   6  128.93   11.31
   5  -3  -6  148.00   12.94
   5  -3  -6  129.09   11.87
  -5  -3   6  136.93   12.26
   6   3  -6  455.35   25.48
   6  -3   6  484.98   25.04
  -6  -3  -6  476.33   27.68
   6   3  -6  470.16   23.86
   6   3   6  438.20   26.05
   6  -3  -6  436.37   24.30
   6  -3  -6  449.85   24.62
   0   4  -6  466.67   23.99
   0   4   6  481.46   24.42
   0  -4   6  478.17   25.50
   1  -4   6 1666.94   71.90
  -1   4   6 1338.11   66.92
   1   4  -6 1605.75   69.53
  -1   4  -6 1650.23   69.95
   1   4   6 1600.10   69.77
  -1  -4   6 1670.97   71.20
  -2   4   6  729.51   34.78
   2   4  -6  695.18   35.45
   2  -4   6  706.81   37.22
  -2   4  -6  758.81   36.37
   2   4   6  773.65   36.64
  -2  -4   6  749.90   36.64
  -3   4   6  231.64   16.05
   3   4  -6  239.94   16.41
   3   4   6  287.63   18.91
  -3   4  -6  268.15   17.44
   4   4  -6 3789.50  155.26
  -4  -4  -6 3653.79  159.09
   4  -4   6 3617.79  155.42
   4   4  -6 3590.86  157.28
   4  -4  -6 3626.81  155.37
   4  -4  -6 3808.83  156.65
   4  -4  -6 3634.72  155.70
   4   4   6 3495.74  153.85
   5   4  -6  379.34   22.92
  -5  -4  -6  409.38   27.11
   5  -4   6  392.23   24.29
   5   4  -6  391.39   25.41
   5  -4  -6  451.93   24.80
   5   4   6  434.69   23.42
  -5  -4   6  416.88   24.89
   5  -4  -6  428.40   24.72
   5  -4  -6  452.47   24.94
   6  -4   6  111.57    9.54
   6   4  -6  117.93   10.30
  -6  -4  -6  104.79   11.00
   6  -4  -6  108.05    9.15
  -6  -4   6  113.26    9.92
   0   5   6 1413.15   62.82
   0   5  -6 1424.15   62.67
   0  -5   6 1370.78   63.92
   1  -5   6  298.69   18.79
   1   5  -6  282.92   17.32
  -1   5   6  296.85   15.61
  -1  -5   6  318.67   19.21
  -1   5  -6  319.94   18.32
   1   5   6  301.55   17.77
   2   5  -6  275.44   17.15
   2  -5   6  258.11   17.74
  -2   5   6  266.94   16.14
  -2   5  -6  285.61   17.75
  -2  -5   6  297.71   18.76
   2   5   6  285.20   17.79
  -3  -5  -6  775.82   40.03
   3   5  -6  766.50   37.44
   3  -5   6  778.88   37.18
  -3   5   6  800.82   39.29
   3   5  -6  746.01   38.76
   3   5  -6  754.76   38.80
  -3   5  -6  785.57   38.72
   3  -5  -6  751.42   37.70
  -3   5  -6  745.78   39.81
   3   5   6  798.27   40.90
   3  -5  -6  778.37   37.32
   3  -5  -6  767.87   37.88
  -4  -5  -6  321.38   22.28
   4   5  -6  336.37   21.72
   4  -5   6  318.98   19.86
   4   5  -6  326.47   19.49
   4  -5  -6  313.44   20.26
   4  -5  -6  322.22   19.90
   4  -5  -6  310.25   20.02
   4   5   6  317.02   18.75
  -4   5  -6  323.31   20.64
   5  -5   6  208.24   16.15
   5   5  -6  233.49   15.58
   5   5  -6  228.09   17.71
  -5  -5  -6  248.03   19.20
   5  -5  -6  269.15   17.50
  -5  -5   6  257.33   17.64
   5  -5  -6  245.12   16.57
   5  -5  -6  255.33   17.01
   6  -5   6  381.23   21.69
  -6  -5  -6  390.06   24.02
  -6   5   6  401.16   22.29
   6   5  -6  406.38   22.65
   6  -5  -6  407.13   21.32
   6  -5  -6  400.09   21.03
  -6  -5   6  419.58   22.74
   0  -6   6  814.71   41.43
   0   6  -6  822.25   40.06
   0   6   6  848.19   40.36
   1   6  -6  204.72   14.51
   1  -6   6  218.57   15.94
  -1   6  -6  244.49   15.84
   1   6   6  240.41   15.30
  -1  -6   6  237.06   16.40
  -2   6   6  709.10   34.86
   2  -6   6  667.39   36.72
   2   6  -6  693.07   36.04
  -2   6  -6  736.18   37.00
   2   6   6  779.41   37.32
   3  -6   6  216.58   14.05
   3   6  -6  207.04   13.97
   3   6  -6  199.21   15.11
   3   6  -6  202.93   15.16
  -3   6   6  208.87   15.25
  -3  -6  -6  207.78   15.87
  -3   6  -6  215.19   15.26
  -3   6  -6  200.60   16.12
   3  -6  -6  206.64   14.40
   3  -6  -6  210.35   14.48
   3  -6  -6  207.55   13.79
   3   6   6  193.80   16.08
  -4  -6  -6 1267.84   61.68
   4   6  -6 1197.60   57.55
   4  -6   6 1222.29   58.35
   4   6  -6 1215.25   60.52
  -4   6  -6 1210.71   59.46
   4  -6  -6 1283.32   59.02
   4  -6  -6 1323.85   58.86
   4  -6  -6 1302.49   59.49
  -5  -6  -6  361.96   24.60
   5  -6   6  369.48   22.50
   5   6  -6  362.90   24.33
   5   6  -6  364.26   23.75
  -5  -6   6  417.44   24.11
  -5   6  -6  401.17   22.89
   5  -6  -6  371.53   22.81
   5  -6  -6  407.52   22.68
  -6   6   6  109.40    9.30
  -6  -6  -6  113.65   10.60
   6   6  -6  107.69    9.56
   6  -6   6  108.12    9.03
   6  -6  -6  102.73    8.52
  -6  -6   6  104.72    9.30
   0   7   6 2227.80   99.12
   0   7  -6 2227.93   98.88
   0  -7   6 2311.43  101.02
   1  -7   6 2751.86  119.67
   1   7  -6 2626.43  117.37
  -1  -7   6 2773.74  120.35
  -1   7  -6 2790.76  118.73
   1   7   6 2655.67  117.58
  -2   7   6  359.59   21.83
   2   7  -6  352.14   22.34
   2  -7  -6  403.47   21.77
   2   7   6  400.75   23.66
  -2   7  -6  390.46   22.64
  -2   7  -6  392.81   24.09
   2  -7  -6  409.08   21.83
   3   7  -6   80.05    8.18
   3   7  -6   73.15    9.01
   3  -7   6   77.90    8.02
  -3  -7  -6   79.66    9.46
   3   7   6  111.77    9.35
  -4  -7  -6  222.18   17.34
   4  -7   6  237.41   15.54
   4   7  -6  216.45   14.53
   4   7  -6  235.21   17.48
   4  -7  -6  189.48   15.14
   4  -7  -6  190.69   14.62
  -4   7  -6  205.95   15.97
   4  -7  -6  182.29   14.66
   5   7  -6   17.95    5.37
  -5  -7  -6   24.87    6.62
   5  -7   6   22.01    5.36
  -5   7   6   23.23    5.57
  -5  -7   6   26.06    6.09
  -5   7  -6   34.30    6.57
   5  -7  -6   31.67    6.05
   5  -7  -6   38.14    6.74
  -6  -7  -6  117.78   10.20
   6  -7   6  112.69    8.81
  -6   7   6  126.28    9.39
   6   7  -6  121.43    9.56
  -6  -7   6  107.49    9.26
   6  -7  -6  104.71    8.32
   0  -8   6 1479.28   70.51
   0   8  -6 1439.70   68.42
   0   8   6 1539.54   69.31
   1   8  -6  142.76   12.72
  -1  -8  -6  161.08   12.56
   1  -8   6  160.50   14.19
  -1   8  -6  176.95   13.75
  -1  -8   6  184.02   15.77
  -1   8  -6  195.74   14.93
   1   8   6  187.40   13.88
  -2  -8  -6  582.02   29.99
   2   8  -6  575.50   31.81
   2   8  -6  539.70   30.49
   2   8  -6  590.52   30.31
  -2   8  -6  597.53   31.79
   2   8   6  586.31   32.50
  -2   8  -6  594.67   33.47
   2  -8  -6  609.06   30.61
   2   8   6  606.36   29.88
   2  -8  -6  584.22   30.10
   3   8  -6  575.08   29.90
   3   8  -6  598.77   32.03
  -3   8   6  607.60   30.74
  -3  -8  -6  577.59   32.49
   3   8   6  540.60   29.87
   3  -8  -6  563.94   30.32
  -3   8  -6  543.62   31.55
   3  -8  -6  565.46   30.67
  -4  -8  -6  113.80   11.97
  -4   8   6  121.09   11.18
   4  -8   6  115.90   10.50
   4   8  -6  122.01   12.57
  -4   8  -6  106.22   11.37
   4   8   6  113.21   10.81
   4  -8  -6  113.36   10.51
   4  -8  -6  129.89   11.63
  -5   8   6  508.21   28.29
  -5  -8  -6  481.22   29.43
   5   8  -6  529.74   29.17
   5  -8   6  516.72   27.65
  -5   8  -6  556.60   29.09
   5  -8  -6  554.21   28.70
  -5  -8   6  560.40   29.50
   5  -8  -6  529.57   27.12
   0  -9  -6   65.74    7.52
   0   9   6   76.48    9.05
   0  -9  -6   64.06    7.14
   0   9  -6   67.51    8.78
   0  -9   6   72.97    7.10
   0   9  -6   72.21    8.08
   1  -9   6 3439.84  155.15
   1   9  -6 3644.11  151.09
  -1  -9  -6 3621.64  150.45
   1  -9   6 3654.37  149.27
   1   9  -6 3510.90  152.90
  -1   9   6 3656.04  154.34
   1   9   6 3395.57  152.63
  -1  -9   6 3590.63  149.06
   1  -9  -6 3521.89  150.24
   1  -9  -6 3523.47  150.17
  -1   9  -6 3504.57  151.60
  -1   9  -6 3527.54  154.18
   2  -9   6  354.99   19.60
  -2  -9  -6  337.75   20.30
   2   9  -6  336.20   20.32
   2   9  -6  341.61   21.08
   2  -9  -6  349.77   20.88
   2   9   6  335.19   20.01
   2  -9  -6  350.80   20.39
  -2   9  -6  341.52   21.94
  -3   9   6  185.58   13.17
   3   9  -6  183.89   12.60
  -3  -9  -6  166.23   12.15
   3   9  -6  167.17   13.68
   3  -9  -6  117.63   11.23
   3  -9  -6  143.65   12.35
   3   9   6  121.28   11.43
  -3   9  -6  115.31   12.29
  -4  -9  -6   62.27    8.61
  -4   9   6   57.28    7.59
   4  -9   6   53.45    7.70
   4   9  -6   51.01    8.76
   4  -9  -6   41.12    7.27
   4  -9  -6   40.27    6.96
   4   9   6   38.66    7.18
  -4   9  -6   36.33    7.46
  -4  -9   6   43.53    8.02
  -5  -9  -6  129.77   11.45
   5   9  -6  131.60   11.21
   5  -9   6  124.48   10.08
  -5   9   6  135.31   10.88
   5  -9  -6  136.50   10.94
  -5   9  -6  138.73   11.13
  -5  -9   6  146.62   11.54
   0 -10  -6  201.69   14.39
   0  10  -6  194.20   14.66
   0 -10   6  206.88   13.55
   0 -10  -6  200.59   13.73
   0  10   6  193.70   17.28
   1  10  -6   36.37    6.69
   1 -10   6   34.15    6.02
  -1 -10  -6   40.23    7.03
   1 -10  -6   31.64    6.50
  -1  10  -6   30.12    6.69
   1 -10  -6   30.09    5.88
   1  10   6   27.95    5.49
  -1 -10   6   36.26    6.25
   2  10  -6 1081.13   49.58
  -2 -10  -6 1069.77   49.70
   2 -10   6 1084.10   48.78
  -2  10  -6  978.86   50.94
   2  10   6 1014.30   49.45
   2 -10  -6 1005.47   49.54
  -3 -10  -6  440.79   24.52
   3  10  -6  475.73   26.86
   3 -10  -6  440.66   25.71
   3  10   6  429.83   25.37
  -3  10  -6  443.35   27.11
   4  10  -6  192.68   14.67
  -4  10   6  180.23   13.48
   4 -10  -6  174.31   13.48
   4  10   6  164.43   13.21
  -4 -10   6  170.06   13.68
  -4  10  -6  162.51   13.92
  -5  10   6  374.49   20.61
   5  10  -6  358.12   20.77
  -5 -10  -6  344.31   21.03
  -5 -10   6  399.74   21.65
  -5  10  -6  380.51   20.91
   5 -10  -6  390.31   20.73
   0 -11  -6  704.54   36.03
   0  11  -6  692.94   36.62
   0 -11   6  690.72   34.98
   1  11  -6  696.35   35.99
   1 -11   6  729.20   35.36
  -1 -11  -6  714.55   36.01
   1 -11  -6  669.60   35.37
  -1  11  -6  668.00   36.65
  -1 -11   6  674.13   34.62
   1 -11  -6  725.75   36.16
   2  11  -6  573.68   29.84
   2 -11   6  592.07   29.63
  -2 -11  -6  569.31   29.96
   2  11   6  551.70   30.00
   2 -11  -6  536.09   29.75
  -2  11  -6  525.35   31.06
   3  11  -6   74.28    8.81
  -3 -11  -6   72.72    7.84
   3 -11  -6   39.80    7.11
   3  11   6   39.53    7.37
  -3  11  -6   48.04    8.68
  -4  11   6  128.97   11.21
   4  11  -6  118.84   10.86
   4 -11  -6  132.22   10.66
  -4 -11   6  119.36   10.54
  -4  11  -6  127.68   11.30
   4  11   6  122.59   10.53
   5  11  -6    5.06    3.47
  -5 -11   6   10.30    3.37
  -5  11  -6    8.30    3.85
   5 -11  -6    6.43    2.65
   0 -12  -6   15.98    4.93
   0 -12   6   21.07    5.46
   0  12  -6   21.14    5.47
   1 -12   6  159.19   12.02
   1  12  -6  137.08   11.58
  -1 -12  -6  126.04   11.43
  -1 -12   6  122.26   10.49
   1 -12  -6  111.97   10.48
  -1  12  -6  123.01   11.87
   1  12   6  109.17   10.75
   1 -12  -6  121.79   11.05
   2 -12   6  563.64   31.18
  -2 -12  -6  614.93   32.12
   2 -12  -6  603.38   31.89
  -2  12  -6  612.35   33.73
   2  12   6  662.22   33.07
  -3 -12  -6   76.04    8.23
   3  12  -6   70.70    8.56
  -3  12  -6   89.92    9.81
   3  12   6   95.79    9.49
  -3 -12   6   81.81    8.50
   3 -12  -6   87.91    8.77
   4  12  -6  146.54   11.35
  -4  12  -6  159.03   12.25
   4 -12  -6  173.22   11.76
   4  12   6  169.10   11.86
  -4 -12   6  161.11   11.57
   0  13  -6  164.75   13.48
   0 -13   6  169.42   12.98
   0  13   6  171.26   13.20
   0 -13  -6  167.16   13.43
   1  13  -6  154.60   12.61
  -1 -13  -6  168.52   13.51
   1 -13   6  181.84   13.45
  -1 -13   6  180.92   13.11
   1  13   6  187.61   13.78
  -1  13  -6  178.53   14.34
   1 -13  -6  183.47   13.68
  -2 -13  -6  103.03    9.72
   2 -13   6   95.47    9.18
   2 -13  -6   96.16    9.34
   2  13   6  103.28   10.08
  -2  13  -6  109.43   10.87
   3 -13  -6   54.33    6.81
  -3  13  -6   70.80    8.15
   3  13   6   65.80    7.55
  -4  13  -6  404.83   21.46
   4 -13  -6  390.92   20.50
   4  13   6  396.24   20.85
   0  14   6   46.64    7.33
   0 -14  -6   49.52    8.02
   0  14  -6   47.76    7.45
   0 -14   6   49.66    7.45
  -1 -14  -6  170.00   13.04
   1 -14   6  180.67   13.06
  -1  14   6  177.43   12.86
   1 -14  -6  165.51   12.70
   1  14   6  183.28   13.32
  -1  14  -6  185.19   13.79
  -1 -14   6  173.56   12.65
   2 -14   6  338.64   19.13
  -2 -14  -6  337.07   19.54
  -2  14  -6  326.46   20.17
   2  14   6  332.87   19.87
   3  14   6   71.76    7.50
   3 -14  -6   67.19    6.60
  -3  14  -6   71.63    7.67
   0  15   6  305.52   17.91
   0 -15  -6  305.26   17.87
   0 -15   6  287.51   17.59
   0  15  -6  294.82   20.93
  -1  15   6  278.47   15.47
   1 -15   6  271.78   15.51
  -1 -15  -6  260.25   15.60
  -1 -15   6  213.33   14.12
   1 -15  -6  205.87   14.19
  -1  15  -6  222.73   14.96
   1  15   6  228.65   15.16
  -2 -15  -6   86.58    7.59
  -2  15   6   78.67    6.96
   2 -15   6   82.24    7.18
  -2  15  -6   78.58    7.77
   2  15   6   74.45    7.77
   0 -16  -6    2.45    2.51
   0 -16   6    2.67    2.61
   0  16   6    2.49    2.31
  -1  16   6   17.86    3.71
  -1 -16  -6   22.25    4.47
   1 -16   6   21.41    4.15
   1  16   6   17.22    4.03
  -1 -16   6   16.07    3.67
   0   0   7    0.02    0.88
   0   0  -7    1.28    1.11
  -1   0  -7  918.21   40.59
   1   0   7  924.21   42.04
   1   0  -7  981.32   42.03
   2   0   7  475.16   24.64
  -3   0   7  157.76   11.90
   3   0   7  151.69   12.71
   4   0   7   68.55    7.91
   4   0  -7   68.61    8.74
  -4   0  -7   75.05   10.03
   4   0  -7   68.99    7.77
   5   0   7  379.17   22.05
   5   0  -7  340.26   22.75
   5   0  -7  366.22   22.12
  -5   0  -7  371.51   25.72
   6   0   7  347.90   20.16
   6   0  -7  361.25   20.15
   6   0  -7  356.71   21.01
   0  -1  -7 1684.24   68.39
   0   1   7 1610.27   69.94
   0   1  -7 1601.71   69.48
   1   1  -7  196.89   12.54
   1  -1   7  192.30   11.86
  -1  -1   7  234.58   14.31
   1   1   7  233.23   13.10
  -1   1  -7  227.86   12.32
   1  -1  -7  244.23   12.54
   2   1  -7  715.39   35.13
  -2   1   7  695.58   34.55
   2  -1   7  686.53   34.83
  -2   1  -7  803.79   34.34
   2   1   7  775.96   35.93
  -3   1   7 1058.79   49.17
   3  -1   7 1069.45   50.62
   3   1   7 1007.35   50.35
  -3  -1   7 1007.14   48.87
  -4  -1  -7   46.76    9.56
   4  -1   7   34.31    6.18
   4   1  -7   36.94    7.29
   4   1  -7   34.30    6.10
  -4   1  -7   37.94    8.68
   4  -1  -7   42.74    7.82
   4   1   7   44.25    7.05
   4  -1  -7   35.54    6.48
  -5  -1  -7  427.89   28.67
   5   1  -7  455.11   25.26
   5   1  -7  447.24   26.71
   5  -1   7  415.16   24.96
   5   1   7  435.55   24.88
   5  -1  -7  426.48   26.13
   5  -1  -7  448.58   25.31
   6   1  -7  340.16   19.45
   6  -1   7  356.54   19.99
   6   1  -7  342.21   20.58
   6   1   7  344.04   19.53
   6  -1  -7  340.95   20.26
   6  -1  -7  340.22   19.57
   0  -2   7 6647.48  287.96
   0   2   7 7621.83  288.29
   0   2  -7 7030.44  290.48
   0  -2   7 7163.44  293.52
   0   2   7 6978.78  290.85
  -1   2   7  621.98   27.02
   1  -2   7  605.01   26.58
   1   2  -7  614.98   28.14
   1   2   7  543.24   27.87
  -1   2  -7  519.23   27.31
  -1  -2   7  561.81   29.15
  -2   2   7 2201.66   93.81
   2  -2   7 2298.11   94.26
   2   2  -7 2234.34   94.78
   2   2   7 2243.47   95.40
  -2   2  -7 2052.34   93.70
  -2  -2   7 2128.12   94.31
  -3   2   7  891.18   46.04
   3  -2   7  964.39   48.10
   3   2   7 1010.14   48.53
  -3  -2   7 1031.12   47.03
   4  -2   7  308.40   19.29
   4   2  -7  300.47   19.07
  -4  -2  -7  304.83   22.25
   4   2  -7  282.57   20.03
   4  -2  -7  318.31   20.28
   4   2   7  323.86   18.92
   4  -2  -7  340.79   19.76
   5   2  -7  630.25   32.94
  -5  -2  -7  629.34   36.97
   5  -2   7  625.53   33.38
   5   2  -7  629.28   34.73
   5  -2  -7  655.63   33.46
   5  -2  -7  615.13   34.11
   5   2   7  614.55   32.58
   6  -2   7  471.91   24.77
   6   2  -7  465.86   25.55
   6   2  -7  456.93   24.00
   6  -2  -7  467.65   24.51
   6   2   7  432.72   23.68
   6  -2  -7  456.16   24.73
   0   3   7 2633.81  104.11
   0   3  -7 2606.37  103.66
   0  -3   7 2062.45  104.83
   1   3  -7 4231.76  173.72
  -1   3   7 4298.58  171.95
   1  -3   7 4301.03  176.95
  -1   3  -7 3669.35  173.16
   1   3   7 4265.51  174.05
  -1  -3   7 4226.51  175.15
  -2   3   7 2899.22  118.56
   2   3  -7 2705.21  119.00
   2  -3   7 2699.01  121.93
  -2   3  -7 2764.40  119.19
   2   3   7 2912.23  120.17
  -2  -3   7 2778.41  119.57
  -3  -3  -7  698.96   41.82
  -3   3   7  695.48   33.99
   3   3  -7  634.13   33.12
   3  -3  -7  616.67   32.69
   3   3   7  627.24   35.12
   4   3  -7 1915.83   87.65
   4  -3   7 1946.39   85.68
   4   3  -7 2013.02   85.93
  -4  -3  -7 1978.88   90.22
   4  -3  -7 1880.04   86.58
   4  -3  -7 1885.55   85.57
   4  -3  -7 1913.84   85.51
   4   3   7 1893.76   84.75
   5   3  -7  344.32   20.40
   5  -3   7  334.05   20.95
  -5  -3  -7  349.49   24.09
   5   3  -7  335.66   22.20
   5   3   7  326.02   20.00
   5  -3  -7  355.36   21.30
  -5  -3   7  320.86   20.74
   5  -3  -7  325.57   21.26
   6  -3   7  118.52    9.64
   6   3  -7  107.51    8.79
   6   3  -7  118.14   10.23
   6   3   7  110.94    8.84
   6  -3  -7  110.18    9.39
   6  -3  -7  100.88    9.04
   0   4  -7 1607.83   69.94
   0   4   7 1546.69   69.98
   0  -4   7 1605.70   71.87
   1  -4   7  777.50   38.71
  -1   4   7  797.51   33.90
   1   4  -7  768.99   36.13
  -1   4  -7  717.69   36.10
  -1  -4   7  712.92   37.10
   1   4   7  697.33   35.79
  -2   4   7  971.80   44.70
   2  -4   7  954.42   48.27
   2   4  -7  949.84   45.75
  -2   4  -7 1001.34   46.54
  -2  -4   7  957.39   46.46
   2   4   7  984.15   46.65
  -3   4   7  238.77   16.65
  -3  -4  -7  251.31   18.30
   3  -4   7  256.75   15.89
   3   4  -7  232.54   16.78
   3   4  -7  246.98   15.98
   3   4  -7  256.30   17.32
   3  -4  -7  280.36   16.63
   3  -4  -7  285.39   16.46
   3   4   7  274.75   19.10
  -3   4  -7  274.47   17.99
   3  -4  -7  278.15   17.10
  -4  -4  -7  552.81   33.36
   4   4  -7  541.47   31.55
   4  -4   7  556.12   30.26
   4   4  -7  552.15   29.93
   4  -4  -7  577.05   31.09
   4  -4  -7  597.40   30.54
   4  -4  -7  565.17   30.53
   4   4   7  593.77   29.59
  -5  -4  -7  557.96   33.46
   5   4  -7  541.77   29.38
   5   4  -7  554.73   31.70
   5  -4   7  572.16   30.71
  -5  -4   7  560.18   30.70
   5   4   7  556.82   29.23
   5  -4  -7  572.50   30.41
   5  -4  -7  565.01   30.23
   5  -4  -7  567.53   30.70
   6   4  -7  209.46   12.98
   6  -4   7  210.52   14.02
   6   4  -7  220.74   14.79
   6  -4  -7  223.71   13.83
   0   5   7  137.38   10.88
   0   5  -7  139.06   10.78
   0  -5   7  140.89   11.82
   1   5  -7 1587.38   70.54
   1  -5   7 1571.63   72.68
   1   5   7 1551.32   70.65
  -1  -5   7 1578.28   72.41
  -1   5  -7 1615.35   71.32
  -2   5   7 1247.39   56.75
   2   5  -7 1242.23   58.30
   2  -5   7 1159.38   59.54
  -2  -5   7 1306.15   60.02
  -2   5  -7 1285.06   59.24
   2   5   7 1327.69   59.45
   3   5  -7   27.50    5.46
  -3  -5  -7   27.08    6.69
  -3   5   7   36.00    6.88
   3   5  -7   29.93    6.54
   3  -5   7   34.33    6.01
   3   5  -7   28.97    6.01
   4  -5   7  943.66   44.69
   4   5  -7  917.02   46.70
   4   5  -7  906.18   44.25
  -4  -5  -7  894.24   47.73
  -4   5  -7  868.15   45.48
   4  -5  -7  934.19   44.77
   4  -5  -7  908.39   45.12
   4  -5  -7  916.91   45.14
   5   5  -7  683.96   36.24
   5  -5   7  733.14   35.25
   5   5  -7  705.73   33.89
  -5  -5  -7  699.17   38.03
   5   5   7  630.44   32.78
   5  -5  -7  651.28   34.34
   5  -5  -7  635.54   34.23
  -5  -5   7  632.00   34.79
   5  -5  -7  622.34   34.16
   6  -5   7   10.77    3.62
  -6   5   7   12.43    3.90
   6   5  -7   12.57    4.08
  -6  -5   7   27.75    5.10
   6  -5  -7   23.73    4.45
   0  -6   7  911.14   46.01
   0   6  -7  918.07   44.30
   0   6   7  919.52   44.58
   1   6  -7  798.11   40.92
   1  -6   7  854.05   43.26
   1   6   7  870.57   41.65
  -1   6  -7  848.01   42.07
  -1  -6   7  846.87   43.16
   2   6  -7 1191.51   57.58
  -2   6   7 1166.30   55.69
   2  -6   7 1124.56   58.53
   2   6   7 1281.37   58.76
  -2  -6   7 1320.96   60.51
  -2   6  -7 1289.68   59.05
  -3   6   7   67.98    8.67
  -3  -6  -7   75.54    9.50
   3   6  -7   76.60    9.38
   3   6  -7   79.11    8.26
   3  -6   7   71.92    7.76
   3  -6  -7  109.30    9.65
  -3   6  -7   97.29   10.66
  -3   6  -7  115.10   10.32
   4   6  -7   57.13    7.03
   4  -6   7   58.33    8.33
   4   6  -7   55.88    9.46
  -4  -6  -7   52.45    9.73
   4  -6  -7   24.77    6.08
   4  -6  -7   36.68    6.88
   4  -6  -7   41.79    7.42
  -4   6  -7   28.55    6.66
  -5  -6  -7  218.35   17.95
   5   6  -7  227.36   17.40
   5  -6   7  219.35   16.00
   5   6  -7  219.46   15.11
   5  -6  -7  279.90   17.40
   5  -6  -7  261.79   16.70
  -5  -6   7  287.71   18.10
   5  -6  -7  267.70   17.30
  -6   6   7  321.34   17.50
   6  -6   7  296.41   16.85
   6   6  -7  310.56   17.69
   6  -6  -7  275.81   19.90
  -6  -6   7  299.33   17.49
   6  -6  -7  293.14   16.68
   0  -7   7  997.51   50.20
   0   7  -7  963.42   48.03
   0   7   7 1011.09   48.75
   1  -7   7  284.90   20.10
   1   7  -7  274.12   18.41
  -1   7  -7  301.20   19.61
  -1  -7   7  290.81   20.28
   1   7   7  295.40   18.97
   2   7  -7   89.64    9.41
  -2  -7  -7   84.04    8.17
   2  -7   7   93.58   11.39
   2   7  -7   92.99    8.46
   2  -7  -7   66.29    7.53
  -2   7  -7   66.10    8.99
   2   7   7   65.49    8.61
  -2   7  -7   67.52    8.31
   2   7   7   64.25    7.06
   2  -7  -7   65.24    7.46
   3   7  -7  183.00   12.98
   3   7  -7  191.69   14.77
  -3  -7  -7  184.14   14.72
  -3   7  -7  156.46   13.47
   3  -7  -7  158.16   12.56
   3  -7  -7  153.86   12.72
   3  -7  -7  140.76   11.64
  -4  -7  -7  631.48   38.45
   4  -7   7  667.09   35.96
   4   7  -7  688.58   38.38
   4   7  -7  655.93   35.57
   4  -7  -7  782.37   37.46
  -4   7  -7  772.29   38.63
   4  -7  -7  782.96   37.46
   4  -7  -7  791.55   38.28
   5  -7   7   85.51    8.70
  -5   7   7   96.85    9.39
   5   7  -7   94.75    9.99
  -5  -7  -7   92.18   10.18
  -5  -7   7   69.17    8.56
  -5   7  -7   60.51    7.85
   5  -7  -7   79.47    8.64
   5  -7  -7   72.32    7.92
   6   7  -7  333.42   18.20
   0  -8   7  111.10   11.91
   0   8  -7  114.70   10.18
   0   8  -7  119.79   11.42
   0  -8  -7  113.88   11.87
   0   8   7  119.41   11.43
   0  -8  -7  117.52   10.01
   1   8  -7  550.60   28.52
  -1   8   7  550.40   31.43
   1  -8   7  529.05   31.66
   1   8  -7  522.37   29.75
  -1  -8  -7  536.61   27.98
   1   8   7  520.08   29.82
   1  -8  -7  537.89   27.82
  -1   8  -7  540.14   30.81
  -1   8  -7  518.00   28.71
   1  -8  -7  569.18   34.37
  -1  -8   7  533.45   32.55
  -1  -8   7  509.25   26.16
   2   8  -7  626.36   33.77
   2   8  -7  656.77   36.39
  -2  -8  -7  607.99   33.42
   2  -8  -7  682.12   34.01
   2  -8  -7  717.01   34.79
  -2   8  -7  732.35   36.25
   2   8   7  673.55   33.39
   2   8   7  691.99   38.81
  -3   8   7 1731.10   77.13
   3   8  -7 1762.59   79.36
  -3  -8  -7 1713.07   76.64
   3   8  -7 1762.42   77.20
   3  -8  -7 1683.55   77.28
   3  -8  -7 1750.60   78.08
  -3   8  -7 1708.62   79.43
   3   8   7 1644.93   76.62
   4   8  -7  117.37   10.05
   4  -8   7  108.02   10.05
  -4   8   7  113.77   10.86
   4   8  -7  121.78   12.10
  -4  -8  -7  113.00   11.94
   4  -8  -7  112.80   10.45
  -4   8  -7  119.59   11.89
   4  -8  -7  117.06   11.12
  -5  -8  -7  422.23   25.61
   5   8  -7  440.05   25.05
   5  -8   7  407.94   23.21
  -5   8   7  404.72   23.88
   5  -8  -7  439.88   24.42
  -5  -8   7  481.62   25.48
   5  -8  -7  458.46   23.52
  -5   8  -7  457.10   24.44
   0  -9  -7 4080.39  170.92
   0  -9   7 4249.68  170.03
   0  -9  -7 4148.26  171.47
   0  -9   7 4042.74  177.49
   0   9  -7 4104.43  174.73
   0   9  -7 4242.86  172.68
   0   9   7 3556.73  173.61
   1   9  -7  357.08   20.77
   1  -9   7  348.18   24.13
  -1  -9  -7  349.94   20.26
  -1   9   7  349.31   23.20
   1   9  -7  341.18   22.80
   1   9   7  310.83   21.58
   1  -9  -7  312.29   19.55
  -1  -9   7  314.29   18.30
   1  -9  -7  323.84   19.68
  -1   9  -7  313.56   20.66
  -2  -9  -7 1406.78   62.77
   2   9  -7 1396.79   62.87
   2  -9   7 1419.51   61.50
   2  -9  -7 1328.93   62.78
   2   9   7 1275.47   61.66
   2  -9  -7 1369.35   62.50
  -2   9  -7 1342.58   64.39
   3   9  -7  850.88   42.86
   3   9  -7  821.26   40.62
   3  -9   7  818.54   39.56
  -3  -9  -7  832.25   40.63
  -3   9  -7  812.97   43.09
   3   9   7  803.74   40.87
   3  -9  -7  848.56   42.07
   3  -9  -7  831.83   41.25
   4   9  -7   81.10    9.55
  -4  -9  -7   69.89    9.07
  -4   9   7   79.20    8.74
   5  -9   7  117.20    8.99
  -5  -9  -7  109.52   10.29
  -5   9   7  121.27    9.69
   5   9  -7  113.04   10.00
  -5  -9   7  118.19   10.10
   5  -9  -7   98.89    9.54
  -5   9  -7  103.98    9.28
   0 -10  -7 1886.74   83.03
   0 -10   7 1859.90   81.54
   0  10  -7 1820.42   83.80
  -1 -10  -7  660.98   34.06
   1  10  -7  628.77   34.17
   1 -10   7  631.56   32.78
   1 -10  -7  645.23   33.80
  -1  10  -7  674.11   35.41
   1  10   7  683.12   33.53
   1 -10  -7  653.97   33.90
  -1 -10   7  657.33   32.66
   2 -10   7   47.01    7.27
   2  10  -7   46.67    7.67
  -2 -10  -7   44.31    7.50
  -2  10  -7   41.97    8.01
   2 -10  -7   44.57    7.26
   2  10   7   43.94    7.49
  -3 -10  -7  638.37   33.64
   3  10  -7  681.90   33.97
   3 -10   7  673.50   33.15
   3  10  -7  654.00   35.57
   3  10   7  664.11   34.46
  -3  10  -7  691.22   36.66
   3 -10  -7  649.07   34.71
  -4  10   7  477.22   25.11
   4  10  -7  478.19   26.12
   4 -10  -7  430.34   25.03
  -4 -10   7  467.73   25.93
  -4  10  -7  410.48   25.54
   4  10   7  432.73   24.44
   5  10  -7  206.92   13.51
  -5  10   7  198.99   13.07
   5 -10  -7  212.15   13.38
  -5 -10   7  241.12   14.50
  -5  10  -7  213.76   13.48
   0  11  -7 4355.01  187.53
   0 -11  -7 4425.48  186.80
   0 -11   7 4453.17  185.60
   1  11  -7 1486.99   66.86
   1 -11   7 1515.32   65.74
  -1 -11  -7 1502.94   66.74
  -1  11  -7 1440.32   67.83
   1  11   7 1404.53   65.60
   1 -11  -7 1400.43   65.81
  -1 -11   7 1395.26   64.81
   1 -11  -7 1349.82   65.73
  -2 -11  -7   39.57    7.11
   2  11  -7   48.51    7.58
   2 -11   7   47.23    7.44
   2  11   7   40.56    7.08
  -2  11  -7   48.41    8.70
   2 -11  -7   47.39    7.68
  -3 -11  -7  477.91   26.10
   3 -11   7  483.07   25.60
   3  11  -7  493.76   27.74
   3 -11  -7  511.53   27.32
  -3  11  -7  479.68   28.19
   3  11   7  479.45   26.81
   4  11  -7   18.85    4.77
   4  11   7   10.68    3.90
  -4 -11   7   12.06    3.96
   4 -11  -7   16.81    4.36
  -4  11  -7   11.27    3.99
   0  12  -7 1485.26   69.73
   0 -12  -7 1512.68   69.29
   0 -12   7 1509.55   68.33
  -1 -12  -7  538.09   31.12
   1 -12   7  553.30   30.66
   1  12  -7  534.89   31.00
  -1  12  -7  604.98   32.78
  -1 -12   7  606.80   30.63
   1  12   7  646.21   31.82
   1 -12  -7  604.20   31.63
   1 -12  -7  603.85   31.03
   2 -12   7    8.69    3.89
  -2 -12  -7    8.87    4.00
   2  12  -7    9.98    3.71
   2  12   7   19.81    5.12
   2 -12  -7   18.08    4.90
  -2  12  -7   13.57    4.75
   3 -12   7  251.03   16.44
   3  12   7  297.60   18.27
   3 -12  -7  305.98   18.26
  -3  12  -7  302.89   19.40
   4  12  -7    3.76    2.70
  -4  12  -7    6.25    3.18
  -4 -12   7    5.89    2.87
   4 -12  -7    4.71    2.80
   4  12   7    4.64    2.90
   0 -13   7  321.22   19.55
   0  13  -7  304.93   20.08
   0  13   7  332.38   19.96
   0 -13  -7  315.39   20.12
   1  13  -7  192.76   13.68
   1 -13   7  189.51   13.65
  -1 -13  -7  211.41   14.54
  -1  13  -7  178.05   14.41
   1 -13  -7  168.92   13.34
   1  13   7  169.15   13.31
  -1 -13   7  160.45   12.56
   2 -13   7  103.85    9.54
  -2 -13  -7  107.79   10.11
   2  13   7  129.23   10.96
  -2  13  -7  128.76   11.51
   2 -13  -7  119.78   10.20
  -3  13  -7    1.92    2.73
   3  13   7   -1.32    2.05
   3 -13  -7    0.53    2.26
   0  14  -7  103.70    9.94
   0 -14  -7  106.39    9.95
   0 -14   7  119.05   10.11
   0  14   7  114.74   10.04
  -1 -14  -7  194.97   13.71
   1  14  -7  196.62   13.00
   1 -14   7  189.99   13.26
  -1  14   7  191.10   13.21
   1 -14  -7  171.42   12.78
   1  14   7  184.68   13.33
  -1  14  -7  167.52   13.42
  -1 -14   7  177.87   12.61
   2 -14   7  131.08    9.99
  -2 -14  -7  135.79   10.44
   2  14   7  120.88   10.39
  -2  14  -7  129.33   10.98
  -3  14  -7   54.10    6.65
   3  14   7   49.60    6.12
   3 -14  -7   47.09    5.44
   0  15   7   97.96    8.58
   0 -15  -7   86.57    8.25
   0  15  -7   82.46    7.85
   0 -15   7   97.34    8.48
   1 -15   7   86.03    7.77
  -1  15   7   83.96    7.48
  -1 -15  -7   86.59    8.02
  -1  15  -7   63.11    7.19
   1  15   7   64.44    7.33
   1 -15  -7   63.23    6.76
  -1 -15   7   62.82    6.69
   2 -15   7  202.96   12.43
  -2  15   7  212.52   12.50
  -2 -15  -7  204.74   12.78
   2  15   7  201.54   13.16
  -2  15  -7  211.12   13.33
   0 -16  -7   79.53    6.90
   0  16   7   75.37    7.02
   0 -16   7   79.99    6.91
   1 -16   7  258.59   14.38
   0   0   8   81.48    6.53
   0   0  -8   88.74    6.26
   1   0  -8   98.25    7.41
  -1   0  -8   96.54    6.70
   1   0   8   90.68    7.40
   2   0   8 1189.22   54.25
   3   0  -8  243.37   16.66
  -3   0  -8  249.25   18.24
   3   0  -8  237.17   15.21
  -3   0   8  248.89   16.38
   3   0   8  235.89   17.15
   4   0  -8  748.94   37.98
  -4   0  -8  770.05   42.59
   4   0  -8  769.02   39.48
   4   0   8  743.99   37.84
   5   0   8  152.81   12.46
   5   0  -8  151.82   12.44
   5   0  -8  148.14   13.44
   6   0  -8  118.95    9.65
   6   0  -8  125.17   10.53
   6   0   8  125.23    9.97
   0   1   8    9.56    2.73
   0  -1  -8    9.60    2.09
   0  -1   8    8.65    2.15
   0   1  -8    8.68    2.39
   1   1  -8 1399.85   59.42
   1  -1   8 1367.85   58.46
  -1  -1   8 1323.87   61.29
  -1   1  -8 1341.62   58.36
   1   1   8 1292.35   59.21
   1  -1  -8 1350.89   58.44
  -2   1   8  572.37   28.53
   2  -1   8  571.11   28.82
   2   1  -8  588.30   29.16
   2   1   8  553.80   29.23
   3   1  -8   74.00    8.37
   3   1  -8   73.69    7.39
   3  -1   8   70.59    7.05
  -3  -1  -8   77.94    9.49
  -3   1   8   70.44    7.82
   3  -1   8   75.25    8.81
   3  -1  -8   55.36    6.70
   3  -1  -8   58.07    7.26
   3   1   8   64.14    8.35
  -3  -1   8   66.04    7.71
  -4  -1  -8  642.77   37.14
   4  -1   8  635.93   32.71
   4   1  -8  635.70   34.21
   4   1  -8  662.48   33.09
   4   1   8  634.05   32.45
   4  -1  -8  586.67   32.29
   4  -1  -8  605.80   33.49
   5  -1   8  297.86   19.19
   5   1  -8  294.33   18.87
   5   1  -8  291.49   20.25
   5  -1  -8  295.44   18.96
   5  -1  -8  290.25   19.89
   5   1   8  301.61   19.00
   6  -1   8  187.69   12.78
   6   1  -8  186.80   12.47
   6   1  -8  184.28   13.38
   6  -1  -8  179.21   12.39
   6  -1  -8  177.86   12.97
   6   1   8  190.36   12.60
   0   2   8 5705.19  232.09
   0   2  -8 5578.20  231.44
   0  -2   8 5547.37  234.94
  -1   2   8 2071.57   82.76
   1   2  -8 2061.66   84.31
   1   2   8 1824.88   83.88
  -1  -2   8 1892.30   85.73
  -1   2  -8 1874.50   83.42
  -2   2   8   34.03    4.70
   2   2  -8   39.45    5.44
   2  -2   8   35.89    5.10
  -2  -2   8   47.90    9.87
   2   2   8   37.67    5.66
  -2   2  -8   40.14    5.18
   3  -2   8  656.70   32.01
   3   2  -8  672.29   32.68
  -3  -2  -8  673.07   36.15
   3   2  -8  677.08   33.60
  -3   2   8  675.48   33.93
  -3  -2   8  636.03   33.62
   3  -2  -8  599.14   31.74
   3  -2  -8  630.39   32.91
   3   2   8  615.25   34.86
   4  -2   8 1276.87   61.41
   4   2  -8 1294.70   61.60
  -4  -2  -8 1324.30   66.15
   4   2  -8 1275.41   63.01
   4   2   8 1434.47   61.65
   4  -2  -8 1372.87   63.08
   4  -2  -8 1363.61   61.95
  -5  -2  -8  398.33   27.03
   5   2  -8  380.08   24.46
   5   2  -8  399.95   23.11
   5  -2   8  407.16   23.59
   5   2   8  392.37   22.85
   5  -2  -8  390.36   24.16
   5  -2  -8  377.72   22.92
   6  -2   8  181.99   12.42
   6   2  -8  194.31   13.42
   6  -2  -8  176.61   12.50
   6   2   8  172.94   11.77
   6  -2  -8  162.54   11.86
   0   3  -8 2338.99   95.63
   0   3   8 2429.66   96.32
   0  -3   8 1894.17   97.30
   1   3  -8 2127.26   91.78
  -1   3   8 1794.43   89.24
   1  -3   8 2131.36   95.42
  -1  -3   8 2267.59   94.10
  -1   3  -8 2204.47   92.03
   1   3   8 2241.48   92.50
  -2   3   8   19.88    4.02
   2   3  -8   15.56    4.10
   2  -3   8   17.94    5.81
  -2   3  -8   15.56    4.24
  -2  -3   8   21.72    5.18
   2   3   8   14.12    3.97
  -3   3   8  233.99   16.14
   3   3  -8  210.48   15.54
   3  -3   8  219.85   14.67
  -3  -3  -8  207.54   17.21
   3   3  -8  212.75   14.83
   3  -3  -8  254.88   15.32
   3  -3  -8  270.12   15.87
   3   3   8  255.56   18.27
   3  -3  -8  249.18   16.05
  -4  -3  -8  595.31   35.40
   4  -3   8  591.07   31.48
   4   3  -8  617.79   33.55
   4   3  -8  628.62   31.97
   4   3   8  606.72   31.12
   4  -3  -8  579.99   32.30
   4  -3  -8  584.74   31.47
   4  -3  -8  575.78   32.28
   5   3  -8  528.81   29.42
  -5  -3  -8  505.01   31.29
   5  -3   8  533.08   27.87
   5   3  -8  513.86   27.12
   5   3   8  466.87   26.44
  -5  -3   8  445.15   26.70
   5  -3  -8  467.55   27.68
   5  -3  -8  478.63   27.20
   6   3  -8   84.69    7.51
   6  -3   8   76.18    7.80
   6   3  -8   87.57    8.81
   6  -3  -8   87.06    8.04
   6  -3  -8   93.13    8.19
   6   3   8   84.16    7.43
   0   4  -8 2709.29  114.77
   0   4   8 2609.57  114.93
   0  -4   8 2719.19  117.43
   1   4  -8  205.12   14.11
   1  -4   8  206.04   16.26
  -1   4  -8  233.71   14.82
  -1  -4   8  221.45   15.63
   1   4   8  217.23   14.48
   2  -4   8  326.91   21.67
  -2   4   8  326.53   17.91
   2   4  -8  312.30   18.82
  -2   4  -8  284.41   18.84
   2   4   8  292.84   19.07
  -2  -4   8  278.35   18.87
   3  -4   8 1892.19   81.04
   3   4  -8 1811.95   83.15
   3   4  -8 1802.66   82.60
   3   4  -8 1797.75   81.31
  -3  -4  -8 1864.47   85.36
  -3   4   8 1816.18   82.56
   3  -4  -8 1815.27   80.92
   3   4   8 1889.19   85.50
   3  -4  -8 1890.82   81.53
   3  -4  -8 1847.13   81.96
   4   4  -8   42.44    7.32
   4   4  -8   47.55    8.87
  -4  -4  -8   40.55    9.10
   4  -4   8   44.26    7.33
   4  -4  -8   49.74    7.80
   4  -4  -8   50.29    8.68
   4  -4  -8   43.16    7.13
   5   4  -8  514.88   29.55
   5  -4   8  496.20   27.94
   5   4  -8  511.81   27.43
   5  -4  -8  520.09   34.00
  -5  -4   8  492.43   28.03
   5  -4  -8  517.05   28.42
   5   4   8  507.65   27.01
   5  -4  -8  503.46   27.76
   6  -4   8  673.28   33.41
   6   4  -8  734.67   34.64
   6   4  -8  709.88   32.65
   6  -4  -8  665.65   33.05
   0  -5   8 1473.44   69.10
   0   5  -8 1457.55   66.97
   0   5   8 1512.75   67.66
   1   5  -8  332.27   20.76
   1  -5   8  341.76   22.86
  -1  -5   8  392.06   23.12
  -1   5  -8  369.00   21.65
   1   5   8  376.92   21.56
   2  -5   8   47.42    7.63
  -2   5   8   33.45    5.10
   2   5  -8   37.65    6.72
   2   5   8   48.64    7.02
  -2  -5   8   46.51    7.27
  -2   5  -8   53.44    7.33
  -3   5   8  455.12   27.71
   3   5  -8  471.61   26.80
   3  -5   8  475.66   26.11
  -3  -5  -8  481.08   29.64
   3   5  -8  471.42   27.84
  -3   5  -8  521.81   34.97
   3  -5  -8  542.44   26.84
   3  -5  -8  548.84   27.91
   3  -5  -8  529.01   27.54
  -3   5  -8  538.12   28.26
   4  -5   8 1078.23   49.11
   4   5  -8 1036.88   51.18
  -4  -5  -8 1053.16   53.08
   4   5  -8 1009.91   48.75
   4  -5  -8  998.93   49.29
   4  -5  -8  964.46   48.46
   4  -5  -8  967.13   49.20
   5   5  -8 1137.90   52.84
  -5  -5  -8 1136.97   54.86
   5  -5   8 1094.46   50.88
   5   5  -8 1124.82   50.24
   5   5   8  985.75   48.97
  -5  -5   8 1021.63   51.08
   5  -5  -8 1047.98   50.84
   5  -5  -8 1011.61   50.28
   5  -5  -8 1049.83   50.67
   6   5  -8   30.66    5.36
  -6   5   8   34.24    5.59
   6  -5   8   35.01    5.27
   6  -5  -8   21.61    4.21
  -6  -5   8   24.94    4.92
   0  -6   8    5.54    3.53
   0   6  -8    4.29    2.62
   0   6   8    4.31    2.77
   1   6  -8  121.98   10.53
   1  -6   8  128.80   12.02
   1   6   8   94.72    9.67
  -1   6  -8   97.02    9.99
  -1  -6   8  101.06   10.95
   2   6  -8  863.44   40.59
  -2  -6  -8  896.66   40.72
   2   6  -8  887.36   42.68
   2  -6   8  854.24   44.22
  -2   6  -8  833.45   43.31
  -2   6  -8  794.81   41.09
   2   6   8  801.33   42.58
  -2  -6   8  815.91   44.07
   2  -6  -8  797.82   39.81
   2  -6  -8  802.23   40.11
  -3  -6  -8  195.10   15.90
   3   6  -8  184.15   14.60
   3  -6   8  176.60   12.71
   3   6  -8  186.72   13.46
   3  -6  -8  180.82   13.62
   3  -6  -8  159.36   12.24
  -3   6  -8  173.09   14.10
   3  -6  -8  169.81   13.25
   4   6  -8  400.45   24.26
   4   6  -8  412.63   22.49
  -4  -6  -8  421.77   26.01
   4  -6   8  419.33   22.81
   4  -6  -8  310.56   20.98
  -4   6  -8  333.86   22.28
   4  -6  -8  326.62   21.85
   4  -6  -8  349.65   22.36
   5   6  -8  261.51   17.00
   5   6  -8  219.88   14.21
  -5  -6  -8  226.70   17.33
   5  -6   8  230.64   15.08
   5  -6  -8  195.29   14.37
   5  -6  -8  204.29   14.77
  -5  -6   8  187.15   14.89
   5  -6  -8  207.42   15.02
  -6   6   8  267.92   15.56
   6   6  -8  299.98   16.22
   6  -6   8  263.36   15.20
   0   7  -8  444.09   26.55
   0  -7   8  481.71   29.09
   0   7   8  464.27   27.38
  -1  -7  -8  247.07   15.73
   1   7  -8  238.80   15.82
  -1   7   8  261.31   18.69
   1  -7   8  258.30   19.14
   1   7  -8  245.78   17.14
   1  -7  -8  239.49   15.26
   1   7   8  220.29   16.67
   1  -7  -8  226.41   14.80
  -1   7  -8  238.38   16.32
  -1   7  -8  247.05   17.73
  -1  -7   8  239.99   18.52
   2   7  -8 1897.94   82.55
   2   7  -8 1925.65   85.09
   2  -7   8 1938.40   87.81
  -2  -7  -8 1942.53   82.67
   2  -7  -8 1900.32   82.43
   2   7   8 1813.68   85.32
   2  -7  -8 1845.93   82.42
  -2   7  -8 1778.23   85.95
   2   7   8 1797.70   80.85
  -2   7  -8 1750.45   83.39
   3   7  -8 1523.28   71.06
  -3  -7  -8 1466.15   71.80
   3   7  -8 1532.32   69.23
   3  -7  -8 1570.51   69.70
   3  -7  -8 1560.92   70.13
   3  -7  -8 1493.06   68.17
  -3   7  -8 1499.31   71.01
   4  -7   8  192.84   13.91
   4   7  -8  209.19   14.19
   4   7  -8  199.34   15.71
  -4  -7  -8  184.03   16.00
   4  -7  -8  171.87   13.61
   4  -7  -8  183.12   14.16
   4  -7  -8  186.48   14.70
  -4   7  -8  173.64   14.66
   5  -7   8  214.66   14.63
   5   7  -8  214.87   13.94
   5   7  -8  225.11   15.93
  -5   7   8  225.04   15.34
  -5  -7  -8  214.56   16.76
   5  -7  -8  242.45   15.09
   5  -7  -8  243.48   15.66
  -5  -7   8  230.01   15.83
   0  -8  -8  167.77   12.42
   0   8   8  153.92   13.86
   0  -8  -8  174.86   12.23
   0  -8   8  156.79   14.95
   0   8  -8  148.41   13.44
   0   8  -8  150.33   12.49
  -1   8   8 1770.43   79.97
   1  -8   8 1692.05   80.83
   1   8  -8 1637.22   77.88
  -1  -8  -8 1682.59   75.56
   1   8  -8 1714.45   76.37
   1   8   8 1679.99   78.40
   1  -8  -8 1709.13   75.57
  -1   8  -8 1664.46   79.09
   1  -8  -8 1665.02   75.32
  -1  -8   8 1693.14   81.28
  -1   8  -8 1718.04   77.05
  -1  -8   8 1675.70   73.48
  -2  -8  -8  145.20   11.45
   2   8  -8  141.67   11.28
   2  -8  -8  118.76   10.36
   2   8   8  112.76    9.83
   2  -8  -8  103.48   10.22
  -2   8  -8  116.97   11.44
   3   8  -8  394.51   25.55
   3   8  -8  398.14   24.00
   3  -8  -8  456.06   25.63
  -3   8  -8  462.32   26.62
   3  -8  -8  439.45   24.82
   4   8  -8  388.37   24.55
  -4  -8  -8  403.74   25.43
   4  -8   8  404.42   29.51
   4   8  -8  402.98   22.79
  -4   8   8  407.89   23.64
   4  -8  -8  398.51   24.06
  -4   8  -8  403.22   24.51
   4  -8  -8  421.22   23.63
  -5   8   8   47.22    6.28
  -5  -8  -8   55.53    7.52
   5  -8   8   53.52    6.29
   5   8  -8   53.13    6.84
  -5  -8   8   38.95    6.78
   5  -8  -8   40.25    6.05
   5  -8  -8   40.48    6.59
   0  -9  -8  178.28   13.67
   0   9  -8  177.70   14.18
   0  -9   8  193.06   12.70
   0  -9  -8  184.34   13.44
  -1  -9  -8  988.80   45.49
   1   9  -8  989.30   46.17
   1  -9  -8  874.54   44.66
  -1  -9   8  911.46   43.25
  -1   9  -8  921.57   46.35
   1  -9  -8  893.93   44.93
  -2  -9  -8 1764.48   80.44
   2   9  -8 1708.08   80.22
   2   9   8 1828.91   79.71
   2  -9  -8 1810.89   80.78
   2  -9  -8 1879.64   80.52
  -2   9  -8 1769.24   82.11
   3   9  -8  354.71   23.41
   3   9  -8  347.64   21.78
   3  -9   8  353.00   20.79
  -3   9  -8  405.93   24.54
   3  -9  -8  383.74   23.10
   3  -9  -8  400.43   22.89
   3   9   8  405.73   22.52
   4   9  -8  296.65   20.17
   4   9  -8  292.22   18.39
  -4   9   8  294.39   19.05
  -4   9  -8  339.09   20.97
   4  -9  -8  367.41   20.03
   4  -9  -8  344.41   20.51
   5   9  -8  282.03   17.89
  -5   9   8  279.83   17.34
  -5  -9   8  355.08   19.31
  -5   9  -8  330.53   18.04
   5  -9  -8  345.21   18.51
   0 -10   8    8.73    3.68
   0 -10  -8    6.83    3.95
   0  10  -8    8.00    3.76
   1  10  -8 1426.43   68.22
   1 -10   8 1525.94   66.97
  -1 -10  -8 1430.46   67.68
   1  10   8 1510.24   67.20
   1 -10  -8 1477.07   67.97
  -1  10  -8 1505.46   69.74
  -1 -10   8 1448.66   66.17
   1 -10  -8 1515.67   68.23
   2 -10   8  984.67   46.59
  -2 -10  -8  916.80   47.21
   2  10  -8  933.62   47.34
  -2  10  -8 1001.17   49.64
   2  10   8 1022.98   47.41
   2 -10  -8 1023.74   48.18
   3  10  -8  294.07   25.50
   3  10  -8  312.61   20.24
   3 -10   8  314.00   19.52
  -3  10  -8  403.27   23.64
   3 -10  -8  401.33   22.40
   3  10   8  386.31   21.49
   4  10  -8  245.22   16.04
  -4  10  -8  226.15   16.00
   4 -10  -8  220.25   15.29
  -4 -10   8  230.45   15.90
   5 -10  -8    6.43    2.85
  -5 -10   8    3.71    2.51
   0  11  -8    7.15    3.96
   0 -11   8   11.60    4.17
   0 -11  -8   15.05    5.16
   1  11  -8  797.54   39.46
  -1 -11  -8  782.56   39.04
   1 -11   8  802.68   38.13
   1  11   8  717.44   37.78
   1 -11  -8  745.08   38.43
  -1 -11   8  735.92   37.23
  -1  11  -8  724.34   39.63
   1 -11  -8  780.74   38.81
   2  11  -8  366.62   23.17
  -2 -11  -8  372.19   23.39
   2 -11   8  370.96   22.73
   2  11   8  452.94   24.19
  -2  11  -8  449.04   26.08
   2 -11  -8  467.29   25.06
   3 -11   8   52.86    7.47
   3  11  -8   54.91    6.90
  -3  11  -8   86.19    9.62
   3  11   8   77.45    8.32
   3 -11  -8   81.22    8.57
   4  11  -8  145.94   10.80
  -4 -11   8  135.00   10.82
  -4  11  -8  123.03   10.70
   4 -11  -8  130.80   10.50
   0 -12  -8  216.28   15.61
   0  12  -8  214.32   16.06
   0 -12   8  202.32   14.74
  -1 -12  -8  369.09   22.89
   1 -12   8  416.67   22.99
   1  12  -8  397.01   23.12
  -1  12  -8  390.75   24.20
  -1 -12   8  363.78   21.57
   1  12   8  393.78   22.72
   1 -12  -8  369.49   22.58
   1 -12  -8  375.65   22.34
  -2 -12  -8  248.90   16.91
   2 -12   8  258.11   16.61
   2  12  -8  234.97   16.07
   2  12   8  251.23   16.95
  -2  12  -8  275.34   18.60
   2 -12  -8  268.97   17.29
   3 -12   8  636.41   30.22
   3  12   8  600.84   31.14
   3 -12  -8  620.80   31.69
  -3  12  -8  594.09   32.44
   4 -12  -8  339.97   18.46
  -4  12  -8  329.07   18.75
  -4 -12   8  318.09   18.11
   0 -13  -8   82.77    9.02
   0 -13   8   79.85    8.47
   0  13  -8   81.12    9.14
   0  13   8   77.03    8.54
  -1 -13  -8  162.27   13.07
   1 -13   8  161.86   12.72
   1  13  -8  150.68   12.53
   1 -13  -8  171.97   12.95
  -1 -13   8  186.74   12.76
  -1  13  -8  182.45   14.00
   1  13   8  181.74   13.19
  -2 -13  -8  166.12   12.69
   2  13  -8  163.04   11.91
   2 -13   8  166.15   12.24
   2 -13  -8  183.73   12.75
  -2  13  -8  184.00   14.00
   2  13   8  186.01   13.31
  -3  13  -8  630.01   31.67
  -3 -13   8  606.68   31.11
   3  13   8  613.52   30.54
   3 -13  -8  627.79   30.57
   0  14   8    3.30    2.55
   0  14  -8    4.56    3.03
   0 -14  -8    2.61    2.73
   0 -14   8    2.75    2.80
   1 -14   8  165.46   11.73
  -1  14   8  158.76   11.64
  -1 -14  -8  154.44   11.85
   1  14  -8  150.45   11.31
  -1  14  -8  150.04   12.00
  -1 -14   8  153.31   11.04
   1  14   8  148.84   11.55
   1 -14  -8  145.86   11.27
   2 -14   8  158.70   11.77
  -2 -14  -8  183.36   12.69
   2  14   8  212.02   13.39
  -2  14  -8  203.82   13.66
  -3  14  -8  459.85   23.62
   0 -15  -8  183.55   12.47
   0  15   8  197.26   12.80
   0 -15   8  189.29   12.47
   0  15  -8  187.61   12.38
  -1 -15  -8   82.63    8.04
   1 -15   8   75.68    7.46
  -1  15   8   73.35    7.22
   1 -15  -8   87.19    7.47
   1  15   8   91.18    8.23
  -1  15  -8   90.62    8.08
  -1 -15   8   95.88    7.54
  -2  15   8  390.68   21.59
   2 -15   8  355.53   19.86
   2  15   8  417.64   20.67
  -2  15  -8  410.92   20.82
   0   0   9    9.60    2.73
  -1   0   9 1018.34   50.12
   1   0   9 1080.81   48.01
   1   0  -9 1070.99   47.74
  -2   0   9  490.01   25.28
   2   0   9  450.28   25.03
  -3   0   9 1447.71   67.61
   3   0  -9 1499.02   67.09
   3   0  -9 1460.93   66.25
   3   0   9 1482.08   69.17
   4   0  -9  524.30   30.05
   4   0   9  547.22   29.11
   4   0  -9  531.46   28.98
   5   0  -9   58.95    8.95
   5   0  -9   35.60    6.97
   5   0   9   44.27    7.50
   6   0  -9   12.82    3.68
   6   0  -9   16.55    4.30
   6   0   9   13.97    3.78
   0   1   9   92.64    7.74
   0  -1  -9   88.06    6.97
   0   1  -9   95.58    7.32
   1   1  -9  138.55   10.19
   1  -1   9  153.83   10.04
  -1   1  -9  148.66    9.76
  -1  -1   9  156.09   12.40
   1   1   9  156.33   10.79
  -2   1   9 1609.74   69.53
   2   1  -9 1569.00   69.90
   2  -1   9 1560.38   69.59
   2   1   9 1505.29   70.12
   3  -1   9  353.46   19.68
  -3  -1  -9  362.05   23.93
  -3   1   9  347.63   21.28
   3  -1   9  335.38   24.08
   3   1  -9  333.94   20.61
   3   1  -9  333.37   19.92
   3  -1  -9  362.08   20.23
   3  -1  -9  337.14   20.47
   3   1   9  361.79   22.87
  -3  -1   9  338.78   21.26
   4   1  -9   40.78    7.80
   4   1  -9   26.59    5.70
   4  -1   9   27.36    5.62
   4   1   9   24.84    5.47
   4  -1  -9   30.51    5.99
   4  -1  -9   27.09    6.42
   5  -1   9  146.52   12.34
   5   1  -9  158.77   13.67
   5   1  -9  152.51   12.26
   5  -1  -9  144.66   13.03
   5  -1  -9  152.44   12.27
   5   1   9  140.76   12.09
   6  -1   9   53.73    6.44
   6   1  -9   64.14    6.60
   6   1  -9   53.14    6.95
   6   1   9   64.00    6.61
   6  -1  -9   63.68    6.67
   6  -1  -9   60.47    6.96
   0   2   9 1271.55   61.28
   0   2  -9 1388.57   60.97
   0  -2   9 1472.35   65.43
   1   2  -9  624.54   33.52
  -1   2   9  633.19   32.06
  -1  -2   9  739.54   36.52
  -1   2  -9  740.72   33.71
   1   2   9  751.74   34.62
   2   2  -9 1007.53   47.27
  -2   2   9  967.23   45.82
   2   2   9  996.31   47.68
  -3  -2  -9  661.25   38.59
  -3   2   9  660.00   35.94
   3   2  -9  679.41   34.96
   3   2  -9  639.10   35.22
   3  -2   9  697.59   34.44
   3  -2  -9  721.99   35.82
   3  -2  -9  769.27   35.26
   3   2   9  768.54   38.85
  -3  -2   9  726.17   36.75
   4  -2   9   62.08    7.75
   4   2  -9   69.06   10.43
  -4  -2  -9   51.57   10.29
   4   2  -9   59.87    7.61
   4  -2  -9   68.68    7.90
   4  -2  -9   60.95    9.38
   4   2   9   44.05    7.13
   5  -2   9   27.07    5.97
   5   2  -9   31.14    6.18
   5   2  -9   25.00    6.30
   5  -2  -9   40.56    7.50
   5  -2  -9   38.34    6.68
   5   2   9   33.86    6.20
   6  -2   9   85.40    8.06
   6   2  -9   86.70    7.83
   6   2  -9   90.31    8.88
   6  -2  -9  100.08    8.31
   6  -2  -9  109.07    8.83
   6   2   9   96.67    8.00
   0   3   9  443.47   24.34
   0  -3   9  457.18   27.05
   0   3  -9  445.38   23.87
   1   3  -9  205.62   13.59
   1  -3   9  218.26   16.67
  -1  -3   9  193.83   14.80
   1   3   9  195.15   13.64
  -1   3  -9  196.93   13.45
  -2   3   9  410.74   21.86
   2  -3   9  385.08   25.66
   2   3  -9  386.22   22.60
   3   3  -9  651.35   33.85
  -3  -3  -9  625.11   36.31
   3   3  -9  658.53   33.00
  -3   3   9  685.91   34.45
   3  -3   9  669.61   32.49
   3  -3  -9  621.87   33.17
   3   3   9  630.55   36.00
   3  -3  -9  620.70   32.13
   3  -3  -9  620.31   32.28
   4   3  -9  282.51   18.18
   4   3  -9  281.17   19.54
   4  -3   9  294.93   18.30
   4   3   9  258.93   17.28
   4  -3  -9  241.92   17.99
   4  -3  -9  277.80   17.95
   5   3  -9  133.81   12.67
   5  -3   9  146.04   12.11
   5   3  -9  153.75   11.92
   5  -3  -9  144.01   11.96
   5   3   9  139.45   11.53
   5  -3  -9  134.18   11.97
   6  -3   9  702.29   34.05
   6   3  -9  756.72   35.26
   6   3  -9  681.42   33.35
   6  -3  -9  728.61   34.21
   6   3   9  712.86   33.35
   6  -3  -9  711.54   34.22
   0   4  -9  104.63    9.23
   0  -4   9   91.00   10.26
   0   4   9  101.83    9.45
   1  -4   9 1729.42   81.95
   1   4  -9 1587.64   77.41
   1   4   9 1796.14   78.64
  -1  -4   9 1805.45   80.57
  -1   4  -9 1849.09   78.78
   2   4  -9 1211.22   57.66
  -2   4   9 1288.80   56.42
   2  -4   9 1287.86   62.23
  -2  -4   9 1212.68   58.85
   2   4   9 1224.79   58.57
  -2   4  -9 1179.85   57.97
  -3   4   9  294.46   19.19
  -3  -4  -9  326.19   21.92
   3   4  -9  291.75   19.11
   3   4  -9  307.99   18.45
   3  -4   9  306.74   17.98
   3  -4  -9  269.31   18.04
   3  -4  -9  268.22   17.73
   3  -4  -9  271.02   17.36
   4  -4   9   31.63    6.43
   4   4  -9   36.21    7.81
  -4  -4  -9   30.53    8.05
   4   4  -9   41.34    7.41
   4  -4  -9   42.05    7.06
   4  -4  -9   48.17    7.79
   4  -4  -9   43.07    7.59
   5   4  -9  126.32   10.69
   5  -4   9  105.78   10.56
   5   4  -9  121.32   11.93
   5   4   9  145.35   10.96
   5  -4  -9  125.56   11.17
  -5  -4   9  137.00   11.48
   5  -4  -9  123.12   10.77
   6   4  -9  115.90    9.34
   6   4  -9  106.31    8.10
   6  -4   9  101.47    8.66
   6  -4  -9  128.67    8.95
   0   5  -9   49.38    6.74
   0  -5   9   51.28    7.84
   0   5   9   57.48    7.34
   1   5  -9  263.41   16.64
   1  -5   9  257.11   18.82
   1   5   9  218.23   15.90
  -1  -5   9  222.22   17.25
  -1   5  -9  215.61   16.04
   2   5  -9  696.92   39.45
   2  -5   9  705.78   42.13
   2   5  -9  697.50   38.03
   2   5   9  873.43   41.99
  -2   5  -9  861.83   41.90
  -2  -5   9  836.91   42.13
   2  -5  -9  844.30   38.81
   2  -5  -9  836.45   38.67
   3   5  -9 1033.15   48.74
  -3  -5  -9 1062.95   52.55
   3  -5   9  989.59   47.38
   3   5  -9 1016.94   49.62
   3  -5  -9 1038.41   48.94
   3  -5  -9  974.38   47.40
   3  -5  -9 1008.85   48.63
  -4  -5  -9  196.71   17.14
   4   5  -9  200.42   14.55
   4   5  -9  202.19   16.09
   4  -5   9  197.40   14.23
   4  -5  -9  183.63   14.52
   4  -5  -9  185.47   14.44
   4  -5  -9  183.66   13.98
   5  -5   9  215.47   15.16
   5   5  -9  209.30   16.16
   5   5  -9  227.58   14.93
   5  -5  -9  230.24   15.32
  -5  -5   9  225.79   15.76
   5  -5  -9  226.95   15.22
   5   5   9  231.68   14.61
   5  -5  -9  231.53   15.70
   6  -5   9  284.89   15.42
   6   5  -9  274.73   15.88
  -6   5   9  252.82   15.29
   6  -5  -9  286.25   16.22
   0   6  -9   38.55    7.21
   0  -6   9   37.89    8.44
   0   6   9   42.31    7.77
   1   6  -9  776.24   40.11
  -1   6   9  803.14   41.85
  -1  -6  -9  789.46   38.44
   1   6  -9  789.64   38.54
   1  -6   9  798.13   42.78
   1  -6  -9  740.14   37.54
  -1   6  -9  798.43   40.94
  -1  -6   9  788.20   42.47
   1   6   9  770.21   40.21
   2   6  -9  152.26   12.98
   2  -6   9  154.05   14.64
   2   6  -9  156.43   11.97
  -2  -6  -9  168.47   12.38
  -2   6  -9  145.47   12.31
   2   6   9  145.69   13.42
  -2  -6   9  144.86   14.15
   2  -6  -9  136.66   11.09
  -2   6  -9  137.09   13.28
   3   6  -9  734.80   36.48
  -3  -6  -9  678.01   38.70
   3   6  -9  686.96   37.03
   3  -6  -9  706.52   35.00
  -3   6  -9  703.19   36.98
   3  -6  -9  720.06   36.53
   3  -6  -9  709.88   36.27
  -4  -6  -9  638.23   37.57
   4   6  -9  661.23   34.43
   4  -6   9  625.78   33.89
   4   6  -9  657.20   36.32
   4  -6  -9  683.14   35.41
   4  -6  -9  676.96   34.26
   4  -6  -9  723.60   35.60
   5   6  -9  308.50   19.79
   5  -6   9  303.16   18.36
   5   6  -9  299.57   17.87
  -5  -6   9  297.03   19.11
   5   6   9  315.20   17.71
   5  -6  -9  318.22   18.80
   5  -6  -9  320.76   18.95
   0   7  -9  361.71   21.35
   0   7  -9  328.79   22.28
   0   7   9  357.49   23.18
   0  -7   9  376.04   25.22
   0  -7  -9  340.44   20.12
  -1  -7  -9  143.66   12.29
   1   7  -9  135.28   13.13
  -1   7   9  172.80   14.97
   1   7  -9  164.45   12.87
   1  -7   9  143.81   14.95
   1  -7  -9  192.04   12.55
   1  -7  -9  191.96   13.10
  -1   7  -9  185.82   15.16
  -1   7  -9  183.58   13.87
   1  -7  -9  184.23   12.93
  -1  -7   9  189.55   16.28
   1   7   9  181.13   14.62
   2  -7   9  627.86   44.22
   2   7  -9  650.40   35.50
  -2  -7  -9  681.03   35.77
  -2   7  -9  762.62   37.59
   2  -7  -9  741.40   36.01
   2  -7  -9  759.50   35.84
   3   7  -9  302.11   19.23
   3   7  -9  282.18   19.83
  -3  -7  -9  321.56   22.26
   3  -7  -9  308.43   19.71
   3  -7  -9  307.80   19.49
  -3   7  -9  289.57   20.09
   4   7  -9  213.61   16.35
  -4  -7  -9  208.30   17.18
   4  -7   9  201.57   14.22
   4   7  -9  203.47   14.54
   4  -7  -9  210.11   15.21
   4  -7  -9  216.14   15.64
  -4   7  -9  193.95   15.09
   4  -7  -9  200.52   14.48
   5   7  -9  260.22   16.08
   5  -7   9  246.81   16.32
  -5   7   9  275.33   17.30
   5   7  -9  253.73   17.56
   5  -7  -9  316.75   17.81
   5  -7  -9  328.88   17.69
  -5  -7   9  325.80   18.59
   0   8   9 2516.48  111.57
   0  -8  -9 2537.98  107.41
   0   8  -9 2473.94  108.05
   0   8  -9 2367.21  110.01
   0  -8   9 2396.60  112.80
  -1  -8  -9   95.13    9.40
   1   8  -9   90.21    9.31
  -1  -8   9   88.94    7.88
   1  -8  -9   84.62    8.97
   1  -8  -9   85.76    8.84
  -1   8  -9   88.91    9.80
  -2  -8  -9   76.95    8.82
   2   8  -9   83.42    9.18
   2  -8  -9   88.48    9.22
  -2   8  -9   94.62   10.20
   2   8   9   84.79    8.23
   2  -8  -9   88.38    8.89
   3   8  -9  751.07   37.32
   3   8  -9  726.16   38.15
   3  -8  -9  729.85   37.67
  -3   8  -9  709.17   38.43
   3  -8  -9  714.25   36.97
  -4  -8  -9  169.14   15.08
   4   8  -9  172.32   13.19
  -4   8   9  170.10   13.52
   4   8  -9  165.59   14.41
   4  -8  -9  225.88   15.29
  -4   8  -9  224.06   15.39
   4  -8  -9  239.70   15.05
   5   8  -9  157.13   11.50
   5   8  -9  156.44   11.62
  -5   8   9  160.82   10.94
   5  -8  -9  135.95   10.53
  -5  -8   9  129.46   10.89
   5  -8  -9  129.73    9.94
   0   9  -9 1176.75   56.35
   0  -9  -9 1170.72   55.59
  -1  -9  -9  295.65   18.66
   1   9  -9  284.57   18.71
   1  -9  -9  282.05   18.35
  -1   9  -9  266.56   18.99
   1  -9  -9  258.13   17.73
  -1  -9   9  276.42   16.67
  -2  -9  -9  918.54   45.60
   2   9  -9  922.08   45.87
   2  -9  -9  954.68   46.13
  -2   9  -9  935.33   47.41
   2   9   9  929.00   44.52
   3  -9   9  170.06   12.53
   3   9  -9  173.48   13.55
  -3   9  -9  196.22   15.49
   3  -9  -9  181.63   14.23
   3  -9  -9  192.04   13.88
   4   9  -9  189.61   13.00
   4   9  -9  205.64   14.66
   4  -9  -9  184.76   13.80
  -4   9  -9  172.75   13.81
   4  -9  -9  184.87   13.19
   5   9  -9  121.26    9.78
  -5  -9   9  153.40   10.91
   5  -9  -9  150.95   10.34
   0 -10  -9 1481.53   68.00
   0 -10   9 1516.22   66.47
   0  10  -9 1405.08   68.35
   1  10  -9  202.74   14.80
   1 -10   9  204.39   13.63
  -1 -10  -9  201.22   14.63
   1 -10  -9  174.12   13.70
   1 -10  -9  150.83   13.18
  -1  10  -9  160.94   14.15
  -1 -10   9  151.24   12.03
   1  10   9  158.32   12.55
   2 -10   9  231.84   15.52
   2  10  -9  211.26   16.00
  -2 -10  -9  237.06   16.53
   2  10   9  238.76   15.91
   2 -10  -9  267.45   17.43
  -2  10  -9  230.48   17.68
   3 -10   9  317.95   17.98
   3  10  -9  338.85   19.24
  -3  10  -9  296.17   20.26
   3  10   9  278.00   18.12
   3 -10  -9  279.13   18.98
   4  10  -9   93.42    7.92
   4  10  -9   91.49    8.85
  -4  10  -9   75.41    8.29
  -4 -10   9   80.32    8.51
   4 -10  -9   77.07    8.13
   0 -11   9  280.35   17.72
   0 -11  -9  286.77   18.99
   0  11  -9  268.37   19.09
   1  11  -9  109.62   10.49
  -1 -11  -9  118.29   10.85
   1 -11   9  106.79    9.78
   1  11   9   78.74    8.88
  -1  11  -9   92.80   10.67
   1 -11  -9   92.84    9.55
  -1 -11   9  100.15    9.19
   1 -11  -9   93.14    9.81
   2 -11   9  371.90   21.39
   2  11  -9  357.86   21.69
  -2 -11  -9  353.16   21.98
   2  11   9  356.40   21.45
   2 -11  -9  382.17   22.61
  -2  11  -9  389.54   23.89
   3  11  -9  771.46   38.98
   3 -11   9  749.73   38.50
   3 -11  -9  839.39   40.83
   3  11   9  861.96   39.89
  -3  11  -9  883.70   42.29
  -4  11  -9   16.47    4.28
   4 -11  -9   22.49    4.81
  -4 -11   9   19.09    4.43
   0  12  -9   31.76    6.68
   0 -12  -9   35.92    7.38
   0 -12   9   40.04    6.76
   1  12  -9  273.31   17.74
  -1 -12  -9  279.12   18.04
   1 -12   9  294.08   17.62
   1  12   9  260.64   16.98
  -1 -12   9  232.43   15.91
   1 -12  -9  250.62   17.24
  -1  12  -9  241.82   17.93
   2  12  -9   99.81    9.40
   2 -12   9  101.19    9.52
  -2 -12  -9   95.27    9.77
   2 -12  -9  109.18   10.11
   2  12   9  108.81    9.99
  -2  12  -9  126.83   11.43
   3  12  -9   40.78    5.34
   3 -12   9   39.03    5.89
   3  12   9   38.50    6.12
   3 -12  -9   40.63    6.37
  -3  12  -9   39.81    6.89
  -4  12  -9   70.32    7.66
   4 -12  -9   62.21    6.42
  -4 -12   9   65.85    8.33
   0  13  -9  127.73   11.31
   0 -13  -9  128.14   11.16
   0 -13   9  129.18   10.70
   0  13   9  117.87   10.48
   1 -13   9  576.51   30.31
   1  13  -9  555.49   30.32
  -1 -13  -9  559.15   30.66
  -1  13  -9  592.85   31.66
   1 -13  -9  595.24   30.55
  -1 -13   9  620.35   29.97
   1  13   9  618.55   30.69
   2  13  -9  123.17    9.65
   2 -13   9  129.80    9.97
   2  13   9  116.56   10.06
  -2  13  -9  115.09   10.61
  -3  13  -9  127.20   10.18
   3  13   9  114.97    9.07
   3 -13  -9  125.38    9.38
  -3 -13   9  116.47    8.90
   0 -14  -9  385.33   21.55
   0  14   9  396.69   21.51
   0  14  -9  368.39   21.40
   0 -14   9  383.67   21.14
   1  14  -9  160.61   11.53
  -1  14   9  167.16   11.68
   1 -14   9  174.53   11.83
  -1 -14  -9  156.78   11.90
  -1  14  -9  157.53   12.13
  -1 -14   9  166.16   11.19
   1  14   9  163.42   11.74
   1 -14  -9  149.31   11.27
   2 -14   9  248.16   14.78
  -2  14  -9  270.22   16.19
   2  14   9  251.93   15.28
   0  15   9    3.35    2.77
   0 -15  -9    1.01    2.48
   0  15  -9    3.92    2.59
   0 -15   9    3.36    2.72
   1 -15   9  384.07   19.83
  -1  15   9  381.00   19.74
   1  15   9  377.52   20.03
  -1  15  -9  358.74   19.87
   0   0 -10  212.84   13.67
   0   0  10  198.17   12.65
  -1   0  10   -0.19    1.90
   1   0 -10    0.47    1.40
   1   0  10    0.61    1.67
  -2   0  10   80.92    8.09
   2   0  10   84.04    8.57
   3   0 -10   18.92    5.03
   3   0  10   25.46    7.00
  -3   0  10   20.87    5.26
   3   0 -10   20.43    5.05
   4   0  10    3.77    3.08
   4   0 -10    5.90    3.42
   4   0 -10    6.45    3.85
   5   0 -10   39.79    6.99
   5   0  10   32.15    6.34
   5   0 -10   42.82    8.09
   6   0 -10   98.05    7.96
   6   0  10   97.10    8.09
   6   0 -10   85.91    8.35
   0   1  10  237.47   14.40
   0   1 -10  204.62   13.02
   1   1  10  529.08   27.24
  -1  -1  10  519.29   29.69
  -2   1  10  194.29   13.26
   2   1 -10  168.99   12.97
   2   1  10  196.46   14.07
   3   1 -10  596.55   30.75
   3   1 -10  628.70   31.76
  -3   1  10  595.01   32.49
   3  -1  10  603.52   30.15
   3  -1 -10  574.39   30.28
   3   1  10  561.92   33.16
  -3  -1  10  594.66   37.73
   3  -1 -10  568.52   31.02
   4  -1  10    7.90    3.66
   4   1 -10    5.15    3.12
   4   1 -10    8.63    4.32
   4  -1 -10    1.83    2.52
   4  -1 -10    7.67    3.99
   4   1  10    3.69    3.12
   5   1 -10  252.36   16.55
   5   1 -10  258.45   17.98
   5  -1  10  244.30   16.62
   5  -1 -10  240.73   16.33
   5  -1 -10  248.09   17.57
   5   1  10  243.68   16.49
   6  -1  10   17.96    3.97
   6   1 -10   14.03    3.54
   6   1 -10   12.85    3.94
   6  -1 -10   10.12    3.51
   6  -1 -10   10.50    3.60
   6   1  10   12.65    3.40
   0   2  10  420.49   23.15
   0  -2  10  424.16   26.17
   0   2 -10  410.52   22.30
   1   2 -10  278.23   17.13
  -1   2 -10  276.62   19.06
   1   2  10  288.66   17.59
  -1  -2  10  291.88   19.60
   2   2 -10   86.29    8.98
  -2   2  10   93.25    8.52
   2   2  10  107.92   10.07
   3  -2  10   18.75    4.87
   3   2 -10   23.11    5.61
   3   2 -10   21.92    5.11
   3  -2 -10   24.64    5.62
   3  -2 -10   27.05    5.39
   4  -2  10  590.08   30.59
   4   2 -10  563.51   31.81
   4   2 -10  580.00   30.73
   4   2  10  518.39   29.60
   4  -2 -10  576.96   30.48
   4  -2 -10  549.34   31.27
   5   2 -10   18.29    5.27
   5  -2  10   14.05    4.42
   5   2 -10   18.47    4.82
   5  -2 -10   14.25    4.72
   5  -2 -10   21.84    5.12
   5   2  10   14.55    4.40
   6  -2  10    6.19    3.15
   6   2 -10    3.36    2.35
   6   2  10    6.40    2.58
   6  -2 -10    6.88    3.09
   6  -2 -10    4.86    2.57
   0  -3  10    3.34    3.28
   0   3 -10    0.55    1.60
   1  -3  10  398.74   28.06
   1   3 -10  397.86   24.79
  -1  -3  10  500.52   28.09
   1   3  10  521.56   26.46
  -1   3 -10  506.07   25.70
  -2   3  10  101.72    9.03
   2   3 -10  101.69    9.82
   2  -3  10  110.65   12.44
   2   3 -10  102.28    8.98
   2  -3 -10   88.76    9.07
   2   3  10   95.65   10.11
   3   3 -10  876.76   44.25
   3   3 -10  872.49   43.64
   3  -3  10  902.20   43.05
   3  -3 -10  922.38   43.23
   3  -3 -10  925.04   44.23
   4   3 -10  400.75   23.74
   4   3 -10  415.26   25.25
   4  -3  10  384.68   23.18
   4   3  10  396.41   23.13
   4  -3 -10  403.67   23.45
   4  -3 -10  417.65   24.57
   5   3 -10  521.81   27.40
   5   3 -10  550.90   29.41
   5  -3  10  538.68   27.81
   5   3  10  479.56   26.82
   5  -3 -10  474.35   27.71
   5  -3 -10  492.00   27.30
   6   3 -10  232.90   13.31
   6   3 -10  236.62   14.33
   6  -3  10  230.37   13.71
   6  -3 -10  226.26   13.66
   6  -3 -10  246.82   13.96
   6   3  10  218.11   13.12
   0  -4  10  720.51   39.68
   0   4 -10  712.97   36.54
   0   4  10  733.82   37.34
   1   4 -10  129.73   10.87
   1  -4  10  135.04   13.60
  -1  -4  10  114.34   11.70
   1   4  10  110.45   10.45
  -1   4 -10  115.91   10.59
   2   4 -10  333.75   21.34
   2  -4  10  348.92   24.97
   2   4 -10  336.03   19.96
   2   4  10  366.93   22.54
   2  -4 -10  351.60   19.94
   2  -4 -10  338.07   19.72
   3   4 -10  109.11   10.05
   3  -4  10  108.00    9.67
   3   4 -10  113.39   10.87
  -3  -4 -10  107.19   12.41
   3  -4 -10  109.36    9.92
   3  -4 -10  110.26    9.64
   3  -4 -10  103.39    9.97
   4   4 -10 1208.61   59.73
   4  -4  10 1206.87   57.79
   4   4 -10 1159.83   57.87
   4  -4 -10 1301.49   59.24
   4  -4 -10 1278.04   58.73
   4  -4 -10 1287.08   58.14
   5  -4  10  474.92   26.19
   5   4 -10  485.30   27.61
   5   4 -10  497.45   26.05
   5  -4 -10  472.24   26.51
   5   4  10  519.60   25.94
  -5  -4  10  456.21   25.91
   5  -4 -10  468.82   25.81
   6  -4  10   19.30    3.92
   0  -5  10   66.19    9.38
   0   5  10   70.89    8.51
   0   5 -10   69.22    8.19
   1   5 -10  594.73   32.09
   1  -5  10  628.71   35.92
   1   5 -10  584.42   30.59
  -1   5  10  663.06   34.23
   1   5  10  576.04   32.27
  -1  -5  10  573.94   34.22
   1  -5 -10  559.14   30.07
  -1   5 -10  597.52   32.70
   2   5 -10  284.38   18.71
   2  -5  10  293.15   21.70
   2   5 -10  297.68   17.48
   2  -5 -10  258.48   16.62
   2  -5 -10  246.27   16.32
   2   5  10  245.73   18.56
  -2   5 -10  241.54   17.14
  -2  -5  10  246.41   24.71
  -2   5 -10  261.81   18.88
   3  -5  10   21.79    5.50
  -3  -5 -10   21.58    6.89
   3   5 -10   20.62    5.85
   3  -5 -10   38.66    6.93
   3  -5 -10   32.85    6.45
   3  -5 -10   32.51    5.91
   4   5 -10  601.15   33.85
   4   5 -10  632.89   32.68
   4  -5  10  625.43   32.05
   4  -5 -10  613.54   32.03
   4  -5 -10  607.55   32.86
   4  -5 -10  604.02   32.47
   5   5 -10  341.54   20.21
   5   5 -10  351.40   21.81
   5  -5  10  344.76   20.45
   5   5  10  390.37   20.37
  -5  -5  10  375.09   21.31
   5  -5 -10  351.19   20.43
   5  -5 -10  365.11   21.07
   0   6 -10  121.37   11.80
   0   6  10  136.72   12.62
   0  -6 -10  141.44   11.22
   0  -6  10  129.79   13.72
   0   6 -10  130.05   11.14
  -1   6  10   44.97    7.59
   1   6 -10   44.20    7.55
  -1  -6 -10   53.48    8.35
   1  -6  10   51.05   10.42
   1   6 -10   44.13    8.00
   1  -6 -10   68.04    7.42
  -1   6 -10   60.17    7.86
  -1   6 -10   69.42    8.86
   1  -6 -10   63.39   10.36
  -1  -6  10   62.74    9.45
   1   6  10   61.78    8.27
   1  -6 -10   65.31    6.78
   2   6 -10  977.54   47.97
   2  -6 -10 1006.47   47.87
   2  -6 -10 1011.86   47.74
  -2  -6  10 1024.62   54.79
  -2   6 -10  989.21   48.93
   3   6 -10  344.33   21.83
   3   6 -10  351.57   22.72
   3  -6 -10  399.94   22.81
   3  -6 -10  387.35   22.45
  -3   6 -10  371.95   23.00
   4   6 -10  731.98   39.63
   4  -6  10  752.16   37.89
   4   6 -10  745.84   38.38
   4  -6 -10  791.83   39.13
   4  -6 -10  793.79   39.06
   4  -6 -10  780.41   37.96
   5  -6  10  132.49   10.37
   5   6 -10  145.46   10.53
   5   6 -10  151.08   11.88
   5  -6 -10  134.43   10.59
   5   6  10  131.77    9.97
   5  -6 -10  137.62   10.91
  -5  -6  10  140.43   11.25
   0   7  10  222.22   17.48
   0   7 -10  208.71   15.35
   0  -7 -10  220.36   15.24
   0   7 -10  203.54   16.51
   0  -7  10  210.14   18.65
   1   7 -10 1303.51   61.82
  -1  -7 -10 1357.15   61.97
  -1   7 -10 1285.43   66.88
   1  -7 -10 1350.87   60.41
   1  -7 -10 1306.70   60.81
  -1   7 -10 1391.80   62.95
   1  -7 -10 1319.57   61.33
   2   7 -10   33.81    6.82
  -2   7 -10   67.01    8.52
   2  -7 -10   57.08    8.26
   2  -7 -10   58.62    7.04
   3   7 -10  207.83   14.55
   3  -7 -10  176.62   13.94
  -3   7 -10  158.71   14.00
   3  -7 -10  172.35   13.69
   4   7 -10    4.01    3.18
   4   7 -10    2.34    2.58
   4  -7 -10    0.68    2.40
   4  -7 -10    2.70    2.63
   5   7 -10  578.48   29.91
  -5   7  10  572.97   29.01
   5  -7  10  539.94   28.19
   5   7 -10  591.89   28.60
   5  -7 -10  601.73   29.22
  -5  -7  10  617.62   30.22
   5  -7 -10  588.99   29.27
   0  -8 -10 1402.48   64.48
   0   8 -10 1376.87   65.02
  -1  -8 -10   58.95    9.09
   1   8 -10   60.96    8.22
   1  -8 -10   93.83    9.29
   1  -8 -10   93.36    9.38
  -1   8 -10   93.65    9.94
   2   8 -10  285.87   18.51
   2  -8 -10  268.70   17.49
   2  -8 -10  256.74   17.91
  -2   8 -10  262.10   18.86
   3   8 -10  658.54   35.21
   3  -8 -10  684.50   35.22
  -3   8 -10  675.83   36.61
   3  -8 -10  714.62   36.20
   4   8 -10 1066.30   46.45
   4   8 -10 1029.44   47.35
  -4   8 -10  921.94   46.23
   4   8  10  882.53   44.19
   4  -8 -10  947.04   46.02
   4  -8 -10  954.84   46.67
  -5   8  10  159.02   10.62
   5   8 -10  171.97   11.37
   5   8 -10  159.68   10.08
  -5  -8  10  168.24   11.64
   5  -8 -10  148.22   10.39
   5  -8 -10  138.14   10.55
   0   9 -10   28.74    6.58
   0  -9 -10   33.16    7.18
   1   9 -10 1307.72   61.12
  -1  -9 -10 1331.32   60.92
   1   9  10 1257.50   58.66
  -1  -9  10 1324.31   58.38
  -1   9 -10 1261.66   61.71
   1  -9 -10 1297.94   60.52
   1  -9 -10 1228.68   59.81
   2   9 -10  623.67   31.95
   2   9  10  548.00   29.69
  -2   9 -10  576.06   32.80
   2  -9 -10  567.76   31.61
   3  -9  10   87.64    8.32
   3   9 -10   85.22    8.97
  -3   9 -10   98.30   10.49
   3  -9 -10   91.56    9.20
   3  -9 -10   99.18    9.98
   4   9 -10   68.89    7.28
   4  -9 -10   80.79    8.47
  -4   9 -10   78.41    8.33
   0 -10 -10 1439.47   67.60
   0 -10  10 1450.68   65.79
   0  10 -10 1470.30   68.42
  -1 -10 -10  263.27   18.54
   1 -10  10  286.44   17.84
   1  10 -10  280.00   18.94
   1 -10 -10  297.48   19.03
   1  10  10  284.33   17.81
  -1  10 -10  292.21   20.22
  -1 -10  10  275.85   17.15
   1 -10 -10  284.27   18.71
   2  10 -10  235.61   16.57
   2 -10  10  250.20   16.12
   2 -10 -10  244.31   17.23
  -2  10 -10  256.27   18.26
   2  10  10  233.97   15.74
   3  10 -10 1340.70   59.65
   3 -10  10 1312.92   58.30
  -3  10 -10 1260.56   61.22
   3 -10 -10 1263.26   60.39
   4  10 -10  219.69   12.71
  -4  10 -10  178.67   13.03
  -4 -10  10  191.52   13.49
   4 -10 -10  182.59   13.29
   0 -11 -10  155.22   13.16
   0  11 -10  160.22   13.56
   0 -11  10  150.74   12.01
  -1 -11 -10  316.01   20.41
   1  11 -10  323.85   20.49
   1 -11  10  313.94   19.44
   1 -11 -10  319.36   20.14
   1  11  10  335.66   19.80
  -1  11 -10  311.87   21.16
  -1 -11  10  321.68   19.04
   2  11 -10  668.05   33.72
   2 -11  10  686.59   33.17
   2 -11 -10  623.03   33.83
   2  11  10  604.62   32.67
  -2  11 -10  678.08   35.57
   3 -11  10  171.84   11.98
   3  11 -10  173.00   12.31
  -3  11 -10  182.86   13.87
   3 -11 -10  201.16   13.80
  -4 -11  10  108.78    8.86
   4 -11 -10  114.71    8.97
  -4  11 -10   95.53    8.40
   0  12 -10  271.19   18.53
   0 -12 -10  282.21   18.30
   0 -12  10  284.91   17.64
   0  12  10  255.93   17.11
  -1 -12 -10  298.34   18.56
   1  12 -10  269.24   17.90
   1 -12  10  267.72   17.22
   1  12  10  271.06   17.27
  -1  12 -10  274.90   18.68
  -1 -12  10  259.54   16.44
   1 -12 -10  269.79   17.64
   2 -12  10  249.45   15.79
   2  12 -10  243.65   15.77
   2  12  10  253.99   15.89
  -2  12 -10  241.12   16.97
   2 -12 -10  235.72   15.88
   3 -12  10  296.08   16.67
   3  12 -10  284.21   16.74
   3 -12 -10  328.09   18.26
  -3  12 -10  329.76   19.05
   0 -13 -10   13.62    4.34
   0 -13  10   14.24    4.15
   0  13  10   15.48    4.19
   0  13 -10   15.49    4.60
   1 -13  10  100.11    8.99
  -1 -13 -10  105.18    9.55
   1  13 -10   91.52    8.92
  -1  13 -10   96.73    9.52
   1 -13 -10   85.64    8.50
   1  13  10   90.20    8.68
  -1 -13  10   91.17    8.23
   2 -13  10  825.32   40.94
   2  13 -10  803.45   40.73
   2  13  10  949.61   41.80
  -2  13 -10  968.67   43.27
  -3  13 -10   66.57    6.74
   0 -14 -10    6.40    3.16
   0 -14  10   15.35    4.03
   0  14  10    8.93    3.39
   0  14 -10    9.36    3.42
   1  14 -10  235.29   14.03
   1 -14  10  249.61   14.39
  -1  14  10  253.30   14.50
  -1  14 -10  206.17   14.29
   1  14  10  211.64   13.94
  -1 -14  10  209.09   13.16
   2 -14  10   12.30    3.33
  -2  14  10   10.81    3.10
   2  14  10   13.44    3.55
  -2  14 -10   15.25    4.05
   0  15  10  143.05    9.81
   0 -15  10  144.62    9.70
   0  15 -10  144.68   10.76
   1   0 -11 1014.79   47.23
  -1   0  11 1032.09   51.44
  -2   0  11  852.84   41.59
   2   0 -11  847.85   40.34
   3   0 -11  339.03   20.38
   3   0 -11  336.22   20.84
   4   0 -11   39.85    7.00
   4   0  11   26.19    5.80
   4   0 -11   31.07    6.92
   5   0 -11   21.84    5.66
   5   0  11   21.62    5.03
   5   0 -11   21.30    5.14
   6   0 -11   18.04    3.95
   6   0 -11   18.04    3.67
   6   0  11   19.46    3.80
   0   1  11  874.84   41.86
  -1   1  11  124.81   12.93
   1   1 -11  134.83   10.28
   1   1  11  112.73   10.14
  -1  -1  11  118.93   12.03
   2   1 -11  497.09   24.90
  -2   1  11  526.00   26.07
   2   1  11  433.97   25.82
   2  -1 -11  444.74   27.94
   2  -1 -11  395.63   24.87
   3  -1  11 1022.41   47.51
   3   1 -11  965.90   48.28
   3   1 -11  998.60   48.13
   3  -1 -11 1010.49   47.77
   3  -1 -11 1032.65   48.89
   4   1 -11   44.79    7.30
   4   1 -11   52.74    8.81
   4  -1  11   42.78    7.21
   4  -1 -11   34.61    6.54
   4  -1 -11   31.54    6.91
   4   1  11   32.52    6.35
   5   1 -11   90.24    8.87
   5   1 -11   86.00    9.62
   5  -1  11   88.85    9.07
   5  -1 -11   96.71    9.07
   5  -1 -11   90.37    9.52
   5   1  11   95.41    9.27
   6  -1  11  264.68   14.93
   6   1 -11  243.15   14.96
   6   1 -11  254.74   14.62
   6   1  11  285.62   15.12
   6  -1 -11  274.83   15.33
   6  -1 -11  284.84   15.00
   0   2  11  421.29   23.85
   0  -2  11  428.07   27.51
   0   2 -11  415.30   22.78
   1   2 -11 1988.72   86.27
   1  -2  11 2006.64   92.25
  -1   2  11 2000.36   86.98
   1   2  11 1871.07   86.40
  -1  -2  11 1904.04   89.56
   2   2 -11  960.05   46.81
   2   2 -11  956.00   48.35
   2  -2 -11 1010.48   46.82
   2   2  11 1063.02   49.73
   3   2 -11 1031.76   51.55
   3   2 -11 1038.01   52.04
   3  -2  11 1047.17   50.81
   3  -2 -11 1209.31   53.01
   3  -2 -11 1154.70   51.57
   4   2 -11  156.42   12.62
   4   2 -11  158.78   13.68
   4  -2  11  155.72   12.67
   4  -2 -11  147.05   12.29
   4  -2 -11  152.61   13.05
   4   2  11  155.19   12.56
   5   2 -11   15.81    4.42
   5   2 -11    9.33    4.14
   5  -2  11   13.19    4.15
   5  -2 -11   22.29    5.17
   5  -2 -11   20.16    4.83
   5   2  11   20.30    4.78
   0  -3  11 1538.95   73.73
   0   3  11 1526.08   69.64
   0   3 -11 1480.20   68.52
  -1   3  11  217.06   15.33
   1  -3  11  223.96   18.62
   1   3 -11  201.28   14.60
   1   3  11  187.60   14.46
  -1  -3  11  182.41   15.91
   2   3 -11 1451.74   67.34
   2   3 -11 1388.86   65.05
   2  -3  11 1413.11   72.19
   2  -3 -11 1452.41   64.78
   2  -3 -11 1405.03   64.71
   2   3  11 1522.12   68.49
   3   3 -11  449.76   25.21
   3   3 -11  435.49   25.41
   3  -3  11  439.11   24.29
   3  -3 -11  435.31   24.25
   3  -3 -11  445.02   25.21
   4  -3  11    3.93    3.02
   4   3 -11    5.07    3.76
   4   3 -11    1.64    2.63
   4  -3 -11   11.80    3.96
   4   3  11   12.63    4.25
   4  -3 -11   10.99    4.27
   5   3 -11   33.95    6.77
   5   3 -11   28.56    5.34
   5  -3  11   23.85    5.12
   5  -3 -11   26.65    5.61
   5  -3 -11   30.15    5.53
   5   3  11   27.10    5.41
   0   4 -11  666.17   34.64
   0  -4  11  642.44   37.70
   0   4  11  662.12   35.20
   1   4 -11   17.30    4.65
  -1   4  11   16.03    4.71
   1   4 -11   15.04    4.78
   1  -4  11   17.04    6.53
  -1  -4  11   13.77    5.38
   1   4  11   11.34    4.13
   1  -4 -11   11.81    3.87
  -1   4 -11   13.72    4.53
   2  -4  11  281.77   23.29
   2   4 -11  293.69   18.79
   2   4 -11  285.67   21.89
   2   4  11  339.36   22.00
   2  -4 -11  328.11   19.01
   2  -4 -11  329.32   19.05
   3  -4  11 1304.61   60.89
   3   4 -11 1295.72   62.07
   3   4 -11 1287.38   62.37
   3  -4 -11 1431.43   61.43
   3  -4 -11 1321.11   61.68
   3  -4 -11 1401.99   62.47
   4  -4  11  244.93   16.22
   4   4 -11  230.55   16.32
   4   4 -11  215.48   16.99
   4  -4 -11  236.70   16.64
   4   4  11  257.01   16.22
   4  -4 -11  230.52   15.84
   5   4 -11   56.92    6.81
   5  -4  11   71.84    7.65
   5   4 -11   63.15    7.94
   5  -4 -11   72.43    7.86
   5  -4 -11   73.87    7.44
   5   4  11   61.71    7.08
   0   5 -11  468.03   26.07
   0   5  11  478.05   28.22
   0  -5  11  463.26   30.15
   0   5 -11  484.23   27.78
   1   5 -11    3.47    2.83
   1  -5  11    9.83    5.43
   1   5 -11    5.44    3.04
  -1   5  11    9.57    4.21
  -1   5 -11   19.40    5.15
   1   5  11   20.95    5.66
   1  -5 -11   17.51    4.47
   1  -5 -11    9.17    3.32
  -1   5 -11   12.87    4.78
  -1  -5  11   19.56    6.72
   2   5 -11 1028.51   47.66
   2  -5 -11  943.48   46.88
   3   5 -11  147.18   12.48
   3  -5 -11  150.88   12.57
   3  -5 -11  182.73   13.33
   4   5 -11  331.81   21.81
   4  -5  11  344.62   20.24
   4   5 -11  336.24   20.80
   4  -5 -11  329.91   20.57
   4  -5 -11  351.22   21.31
   4  -5 -11  343.62   20.11
   5   5 -11  212.70   14.40
   5  -5  11  210.21   13.40
   5   5 -11  206.89   13.25
   5   5  11  191.68   12.78
   5  -5 -11  185.66   12.79
   5  -5 -11  189.27   13.38
  -5  -5  11  193.63   13.39
   0  -6  11  652.49   38.69
   0   6 -11  608.74   35.19
   0   6 -11  653.90   33.86
   0   6  11  653.14   36.27
   1   6 -11  256.72   16.34
   1  -6 -11  215.73   14.46
  -1   6 -11  227.82   16.44
   1  -6 -11  217.57   15.31
  -1  -6  11  213.38   24.02
  -1   6 -11  221.38   17.62
   2   6 -11  661.14   34.95
   2  -6 -11  693.82   35.12
   2  -6 -11  673.19   34.49
  -2   6 -11  684.87   36.01
   3   6 -11  209.60   14.90
   3  -6 -11  186.67   14.45
   3  -6 -11  183.10   14.21
   4   6 -11   71.06    8.81
   4   6 -11   83.72    8.48
   4  -6  11   76.54    8.40
   4  -6 -11   53.52    6.76
   4  -6 -11   48.99    7.82
   4  -6 -11   46.24    7.63
   5   6 -11  163.06   11.19
  -5   6  11  165.41   11.39
   5   6 -11  166.52   12.03
   5  -6  11  164.02   11.09
   5   6  11  161.49   10.86
   5  -6 -11  164.00   11.59
  -5  -6  11  164.73   11.79
   0   7 -11  149.18   12.73
   0  -7 -11  151.48   12.62
   1   7 -11  211.23   14.92
  -1   7 -11  178.25   14.76
   1  -7 -11  183.69   13.96
   2   7 -11  693.70   34.33
  -2   7 -11  609.90   34.49
   2  -7 -11  603.74   32.72
   2  -7 -11  655.61   34.18
   3   7 -11   89.50    9.12
  -3   7 -11   66.60    8.79
   3  -7 -11   74.73    8.36
   3  -7 -11   70.62    8.72
   4   7 -11  325.78   20.34
   4   7 -11  331.04   19.65
   4  -7 -11  308.27   19.74
   4  -7 -11  331.29   19.73
   5   7 -11  394.66   20.55
   5   7 -11  394.80   19.74
  -5   7  11  378.04   19.72
  -5  -7  11  363.98   20.48
   5  -7 -11  365.13   19.99
   5  -7 -11  366.54   19.97
   0   8 -11    6.31    3.54
   0  -8 -11    0.86    3.15
   1   8 -11  200.94   14.97
  -1  -8 -11  194.20   14.89
  -1   8 -11  181.21   15.20
   1  -8 -11  175.62   13.98
   2   8 -11   97.96    9.81
   2  -8 -11  101.03   10.23
   2  -8 -11   90.78    9.16
  -2   8 -11   87.30   10.27
   3   8 -11  333.84   22.08
  -3   8 -11  388.71   23.86
   3  -8 -11  430.56   23.33
   3  -8 -11  405.67   23.69
   4   8 -11  231.73   13.95
   4  -8 -11  169.61   12.82
   4   8  11  172.94   12.11
   4  -8 -11  183.87   13.69
  -5  -8  11  193.09   12.35
   0  -9 -11  103.08   10.80
   0   9 -11   99.34   10.71
   1   9 -11  290.45   19.06
  -1  -9 -11  306.55   19.56
   1   9  11  268.13   17.11
   1  -9 -11  255.81   18.17
  -1  -9  11  272.92   16.81
   1  -9 -11  281.77   18.68
  -1   9 -11  285.84   19.85
   2   9 -11  149.81   12.47
  -2   9 -11  154.19   13.65
   2  -9 -11  136.46   12.46
   3  -9  11  820.75   39.27
   3   9 -11  842.87   40.85
   3  -9 -11  838.74   41.85
  -3   9 -11  804.91   41.74
   4   9 -11  294.68   16.92
   4  -9 -11  280.72   17.64
   0 -10 -11  100.16   10.54
   0  10 -11   81.67    9.89
   0 -10  11  104.25    9.38
   1  10 -11  129.28   12.28
   1 -10  11  135.46   11.46
  -1 -10 -11  136.53   12.59
   1  10  11  157.07   11.94
  -1  10 -11  162.04   13.81
  -1 -10  11  164.89   11.68
   1 -10 -11  160.67   13.00
   2  10 -11   77.43    8.88
   2 -10  11   81.07    8.49
   2 -10 -11   89.76    9.62
   2  10  11   98.52   11.42
  -2  10 -11  103.26   10.78
   3  10 -11  610.56   29.90
   3 -10  11  567.24   28.47
  -3  10 -11  548.45   30.60
   3 -10 -11  560.22   30.26
   4  10 -11  354.86   19.12
   4 -10 -11  369.87   20.29
  -4  10 -11  362.60   19.82
  -4 -10  11  385.02   20.74
   0 -11  11  122.03   10.52
   0 -11 -11  128.02   11.76
   0  11 -11  123.45   11.81
   1 -11  11  739.44   35.29
  -1 -11 -11  734.18   36.43
   1  11 -11  716.78   36.41
  -1  11 -11  682.57   36.79
  -1 -11  11  643.36   33.84
   1  11  11  653.15   34.42
   2  11 -11  164.81   12.70
   2 -11  11  176.22   12.39
   2 -11 -11  157.31   12.75
  -2  11 -11  173.38   13.90
   2  11  11  163.72   12.22
   3  11 -11   54.90    6.16
   3 -11  11   48.95    5.69
   3 -11 -11   40.07    6.47
  -3  11 -11   33.95    6.33
   0 -12 -11  779.14   38.77
   0  12 -11  779.36   39.28
   0 -12  11  758.79   37.69
   0  12  11  760.28   37.66
   1  12 -11  330.38   20.50
   1 -12  11  334.83   19.94
   1  12  11  349.56   19.97
  -1  12 -11  355.97   21.53
  -1 -12  11  348.50   19.37
   2 -12  11  202.23   13.25
   2  12 -11  193.04   13.23
  -2  12 -11  198.38   14.24
   2  12  11  182.50   12.85
   3 -12  11   18.19    3.70
   3  12 -11   19.30    3.93
  -3  12 -11   20.17    4.39
   0  13 -11   32.01    5.77
   0 -13  11   36.09    5.97
   0  13  11   30.83    5.45
   1  13 -11  103.01    9.10
   1 -13  11   93.93    8.74
   1  13  11  110.82    9.05
  -1  13 -11  106.70    9.76
  -1 -13  11  104.99    8.42
   2 -13  11  257.87   15.22
   2  13 -11  247.82   15.10
   2  13  11  277.25   15.52
  -2  13 -11  280.66   16.60
   0  14  11  559.45   27.76
   0  14 -11  564.86   28.17
   0 -14  11  576.76   27.73
   1  14 -11  192.17   12.41
  -1  14  11  213.34   12.92
   1 -14  11  196.54   12.73
   1  14  11  222.91   13.11
  -1  14 -11  216.17   13.47
  -1   0  12   14.12    5.55
  -2   0  12  957.62   46.34
   2   0 -12  950.45   44.88
   3   0 -12 1021.46   48.98
   3   0 -12 1031.08   49.61
   4   0 -12  136.97   11.57
   4   0  12  130.05   11.41
   4   0 -12  131.51   12.24
   5   0 -12  294.81   17.90
   5   0  12  305.26   18.03
   5   0 -12  295.01   18.79
   0  -1  12 1878.63   88.95
   1   1 -12  714.82   36.79
  -1  -1  12  773.81   41.35
   2   1 -12  122.06   10.17
   2  -1 -12  114.68   13.85
  -2  -1  12  131.28   11.51
   3  -1  12  854.41   40.70
   3   1 -12  825.46   41.41
   3   1 -12  852.78   41.27
   3  -1 -12  790.72   40.32
   3  -1 -12  817.78   41.35
   4   1 -12  721.49   36.50
   4  -1  12  703.56   36.15
   4   1 -12  723.71   37.66
   4   1  12  681.49   36.01
   4  -1 -12  719.52   37.30
   4  -1 -12  707.09   36.24
   5   1 -12  395.89   23.80
   5  -1  12  422.20   24.24
   5   1 -12  425.01   25.10
   5   1  12  509.25   25.08
   5  -1 -12  484.03   25.61
   5  -1 -12  487.92   24.69
   0   2  12 2736.53  119.37
   0  -2  12 2767.63  125.14
   1  -2  12  123.01   13.71
   1   2 -12  124.52   10.18
   1   2 -12  129.74   10.58
  -1  -2  12   78.82   10.68
   1   2  12   92.13    9.86
   2   2 -12   79.03    7.99
   2   2 -12   66.11   11.98
   2   2  12   61.33    8.71
   2  -2 -12   69.74    7.61
   3   2 -12  187.45   13.90
   3  -2  12  175.51   13.08
   3   2 -12  175.24   13.78
   3  -2 -12  182.92   13.90
   3  -2 -12  176.87   12.99
   4   2 -12  351.51   22.96
   4   2 -12  366.83   24.19
   4  -2  12  367.22   23.08
   4  -2 -12  456.20   24.17
   4  -2 -12  482.88   25.50
   4   2  12  453.36   24.20
   5  -2  12  293.69   17.99
   5   2 -12  297.59   17.92
   5   2 -12  295.10   18.89
   5  -2 -12  296.91   17.92
   5   2  12  315.26   18.22
   5  -2 -12  315.44   18.70
   0   3 -12    1.03    1.97
   0   3  12    3.35    2.70
   0  -3  12    1.32    3.35
   1   3 -12  707.57   37.07
   1  -3  12  742.29   42.84
  -1   3  12  757.58   38.23
   1   3 -12  742.22   35.78
   1   3  12  673.70   37.20
  -1  -3  12  690.72   39.88
   2   3 -12  947.02   46.77
   2  -3 -12 1022.64   55.62
   2  -3 -12  984.48   46.44
   3  -3  12  463.05   24.57
   3   3 -12  455.52   25.48
   3  -3 -12  446.25   25.35
   3  -3 -12  402.64   23.76
   4  -3  12  306.48   19.82
   4   3 -12  311.77   21.15
   4   3 -12  318.45   20.53
   4   3  12  398.75   21.52
   4  -3 -12  353.96   21.36
   4  -3 -12  349.52   20.37
   5  -3  12  309.60   18.94
   5   3 -12  331.91   20.20
   5   3 -12  315.37   19.05
   5  -3 -12  341.46   19.11
   5  -3 -12  345.23   19.95
   5   3  12  380.37   19.78
   0  -4  12   53.13    9.27
   0   4  12   63.00    8.30
   0   4 -12   53.61    7.53
   0   4 -12   59.23    7.18
   1   4 -12  835.48   43.57
   1  -4  12  846.96   48.31
  -1   4  12  817.94   43.97
   1   4 -12  818.70   41.60
   1   4  12  872.02   44.11
   1  -4 -12  884.27   41.61
  -1  -4  12  918.52   47.46
   2   4 -12  178.16   13.17
   2  -4 -12  151.19   11.85
   2  -4 -12  143.81   11.92
   3   4 -12  471.24   26.30
   3  -4  12  474.46   28.45
   3  -4 -12  446.84   25.78
   3  -4 -12  435.31   25.59
   4   4 -12  234.37   17.09
   4   4 -12  255.91   16.98
   4  -4  12  243.24   16.17
   4  -4 -12  241.02   15.97
   4   4  12  239.65   16.14
   4  -4 -12  273.71   17.49
   5   4 -12  546.74   29.07
   5   4 -12  543.22   29.95
   5  -4  12  554.65   29.03
   5  -4 -12  627.90   30.15
   5  -4 -12  605.14   29.20
   5   4  12  656.77   29.80
   0  -5  12  612.47   44.24
   0   5 -12  630.20   32.36
   0   5 -12  588.10   33.78
   0   5  12  604.14   34.38
   1   5 -12   43.38    7.51
  -1   5 -12   58.18    8.67
   1  -5 -12   57.61    7.09
   1  -5 -12   58.17    6.58
   2   5 -12   59.92    7.64
   2  -5 -12   68.56    8.05
   2  -5 -12   66.23    7.66
   3   5 -12  324.22   20.25
   3  -5 -12  319.14   20.19
   3  -5 -12  306.49   19.63
   4  -5  12  655.75   33.75
   4   5 -12  681.25   35.60
   4   5 -12  675.37   34.89
   4  -5 -12  702.54   35.14
   4  -5 -12  667.29   33.61
   4   5  12  713.47   34.42
   5   5 -12  300.96   16.54
   5   5 -12  309.66   17.44
   5  -5  12  291.16   16.17
  -5  -5  12  260.66   16.17
   5  -5 -12  271.18   16.02
   5  -5 -12  275.34   16.69
   5   5  12  278.31   16.07
   0   6 -12    8.72    4.13
   1   6 -12  759.50   38.92
   1  -6 -12  743.76   36.96
  -1   6 -12  763.09   39.29
   1  -6 -12  776.39   38.40
   2   6 -12  580.04   31.67
   2  -6 -12  592.56   30.95
   2  -6 -12  620.84   32.07
  -2   6 -12  572.59   34.24
   3   6 -12  161.06   12.92
   3  -6 -12  149.21   12.47
   3  -6 -12  149.34   12.87
   4   6 -12  854.22   42.71
   4  -6 -12  873.74   43.07
   4  -6 -12  911.66   43.20
   4   6  12  895.89   42.02
   5   6 -12  332.92   18.53
  -5   6  12  318.60   18.46
   5   6 -12  326.55   18.99
  -5  -6  12  371.07   19.42
   5   6  12  390.10   18.77
   5  -6 -12  392.30   19.54
   0   7 -12   27.83    6.59
   1   7 -12  263.23   18.78
   1  -7 -12  301.68   18.98
  -1   7 -12  304.57   20.05
   2   7 -12  213.81   14.94
  -2   7 -12  170.39   14.63
   2  -7 -12  181.04   14.22
   2  -7 -12  177.69   13.54
   3   7 -12  340.18   20.27
   3  -7 -12  309.74   20.24
   3  -7 -12  295.73   19.15
   4   7 -12   93.60    8.94
   4   7  12   95.74    8.53
   4  -7 -12  103.08    9.07
   4  -7 -12   93.24    9.28
   5   7 -12  221.28   13.50
   5  -7 -12  250.37   13.73
   0   8 -12  136.24   12.57
   1   8 -12  335.04   21.19
  -1   8 -12  304.94   21.10
   2   8 -12  378.20   22.32
   2  -8 -12  342.52   21.94
  -2   8 -12  351.24   22.89
   3   8 -12  225.34   16.46
   3  -8 -12  272.30   17.88
  -3   8 -12  267.05   17.75
   3  -8 -12  277.62   17.04
   4   8 -12  356.49   20.02
   4   8  12  358.51   19.24
   4  -8 -12  357.61   19.95
   4  -8 -12  357.78   20.59
   0   9 -12  256.12   18.43
   1   9 -12  122.07   11.25
  -1  -9  12   93.62    8.65
   1   9  12   87.18    8.68
  -1   9 -12   89.14   10.36
   2   9 -12  182.63   14.01
  -2   9 -12  176.59   14.66
   2  -9 -12  188.32   14.39
   3  -9  12  257.09   15.51
   3   9 -12  256.85   16.63
  -3   9 -12  245.49   17.04
   3  -9 -12  275.42   17.52
   4   9 -12   25.82    4.66
   4  -9 -12   17.65    4.10
   0  10 -12   32.86    6.78
   0 -10  12   31.25    5.86
   1  10 -12  526.14   30.08
   1 -10  12  531.83   28.68
   1  10  12  560.75   28.69
  -1 -10  12  552.73   28.18
  -1  10 -12  577.51   31.38
   2  10 -12  247.34   16.62
   2 -10  12  244.65   15.72
  -2  10 -12  253.98   17.52
   2 -10 -12  240.22   16.65
   3 -10  12   65.43    6.55
   3  10 -12   74.36    7.48
   3 -10 -12   63.73    7.41
  -3  10 -12   61.39    7.40
   4  10 -12   70.12    6.82
   4 -10 -12   62.88    6.48
  -4 -10  12   67.90    6.75
   0  11 -12  120.68   11.41
   0 -11  12  122.53   10.28
   1 -11  12  161.57   12.18
   1  11 -12  163.85   13.10
  -1 -11  12  156.85   11.62
  -1  11 -12  183.45   14.13
   1  11  12  162.66   12.02
   2  11 -12  472.67   26.13
   2 -11  12  493.06   25.53
  -2  11 -12  502.69   27.36
   3 -11  12  612.34   29.29
   3  11 -12  610.89   29.90
  -3  11 -12  619.44   30.75
   0 -12  12  701.45   33.71
   0  12 -12  681.17   34.64
   0  12  12  655.27   33.27
   1 -12  12  102.31    8.79
   1  12 -12  106.56    9.40
  -1 -12  12   88.87    7.87
   1  12  12   75.09    7.91
  -1  12 -12   86.38    9.07
   2 -12  12  452.85   22.87
   2  12 -12  426.39   22.84
  -2  12 -12  417.96   23.60
   0 -13  12  125.71    9.53
   0  13  12  122.13    9.54
   0  13 -12  128.77   10.28
  -1  13  12  136.83    9.86
   1 -13  12  131.59    9.89
   1  13 -12  135.36   10.02
   1  13  12  115.71    9.27
  -1  13 -12  126.56   10.31
   2  13 -12  294.62   15.99
   2 -13  12  313.40   16.13
  -2  13 -12  274.95   16.51
   0  14  12  953.40   43.15
   0  14 -12  963.27   43.65
   0 -14  12  971.57   43.03
   2   0 -13  811.74   39.35
   3   0 -13  234.30   16.02
   3   0 -13  219.59   15.39
   4   0  13   29.44    5.89
   4   0 -13   33.06    6.63
   4   0 -13   26.00    5.45
   5   0 -13  268.58   16.58
   5   0 -13  249.01   15.64
   5   0  13  275.00   16.22
   0  -1  13  312.82   23.95
  -1  -1  13  940.77   54.60
   2   1 -13  798.54   39.15
   3   1 -13  286.33   18.76
   3  -1  13  284.83   18.24
   3   1 -13  282.30   18.83
   3  -1 -13  322.48   19.40
   3  -1 -13  312.66   18.63
   4   1 -13  115.96   11.10
   4  -1  13  105.00   10.13
   4   1 -13  112.61   10.24
   4   1  13  132.15   11.13
   4  -1 -13  121.28   10.37
   4  -1 -13  113.18   10.65
   5  -1  13   30.45    5.35
   5   1 -13   40.62    6.45
   5   1 -13   34.76    5.66
   5  -1 -13   47.97    5.74
   5  -1 -13   45.99    6.01
   5   1  13   40.69    5.98
   0  -2  13   58.10   12.02
   1   2 -13 1331.16   61.01
  -1  -2  13 1366.64   67.36
   2   2 -13 1315.58   60.58
   3   2 -13   90.43    9.37
   3  -2  13   90.57    9.19
   3  -2 -13   96.22    9.65
   3  -2 -13  104.20    9.23
   4   2 -13  597.65   32.79
   4  -2  13  602.73   31.84
   4   2 -13  593.36   32.01
   4   2  13  653.50   32.41
   4  -2 -13  616.61   31.80
   4  -2 -13  646.05   32.94
   5   2 -13  311.01   18.28
   5  -2  13  301.60   17.48
   5   2 -13  330.02   17.95
   5   2  13  298.37   17.55
   5  -2 -13  300.21   18.00
   5  -2 -13  297.76   17.33
   0  -3  13   32.23    9.82
   0   3  13   37.79    7.28
   1   3 -13  690.20   34.61
   1   3  13  688.96   42.40
   2   3 -13  121.06   10.56
   2  -3 -13  107.54    9.77
   3   3 -13  394.30   22.67
   3  -3  13  366.73   21.24
   3  -3 -13  347.40   21.74
   4  -3  13   43.06    6.63
   4   3 -13   54.80    6.99
   4   3 -13   46.16    7.73
   4   3  13   34.11    6.18
   4  -3 -13   37.98    6.81
   4  -3 -13   36.86    6.28
   5   3 -13  105.15    8.79
   5   3 -13  109.21    9.17
   5  -3  13  111.79    9.03
   5   3  13  103.76    8.82
   5  -3 -13  106.69    8.50
   5  -3 -13  124.30    9.51
   0   4 -13   60.10    7.48
   1   4 -13  144.56   11.89
   2   4 -13 1314.43   56.95
   2  -4 -13 1119.14   55.21
   2  -4 -13 1137.44   54.94
   3   4 -13  162.74   13.26
   3  -4 -13  178.03   13.35
   4  -4  13   32.78    5.83
   4   4 -13   32.37    6.46
   4   4 -13   37.34    6.59
   4   4  13   40.98    6.77
   4  -4 -13   45.24    5.92
   4  -4 -13   52.65    7.84
   5   4 -13  163.67   11.63
   5  -4  13  153.57   10.96
   5   4 -13  163.34   11.41
   5  -4 -13  180.72   12.02
   5  -4 -13  189.61   11.34
   5   4  13  190.49   11.72
   0   5 -13  238.77   16.48
   1   5 -13  138.22   11.57
   1  -5 -13  102.65    9.88
   2   5 -13    5.09    3.37
   2  -5 -13    1.02    2.71
   2  -5 -13    1.67    2.38
   3   5 -13 1040.03   50.19
   3  -5 -13 1018.36   49.72
   3  -5 -13 1054.37   49.88
   4   5 -13  711.07   33.94
   4  -5 -13  629.52   33.32
   4   5  13  632.78   32.73
   5   5 -13   72.93    6.78
   5   5  13   66.50    6.36
   5  -5 -13   72.70    6.80
   0   6 -13   76.06    8.97
   1   6 -13  345.35   21.15
  -1   6 -13  301.39   20.45
   2   6 -13  105.97   10.24
   2  -6 -13   85.57    8.78
   2  -6 -13   97.82    9.76
   3   6 -13 1148.35   54.35
   3  -6 -13 1171.55   54.39
   3  -6 -13 1104.41   53.30
   4   6 -13  496.82   27.32
   4  -6 -13  538.21   27.55
   4   6  13  539.48   27.14
   0   7 -13  637.07   34.62
   1   7 -13  121.63   11.63
  -1   7 -13  141.42   12.60
   2   7 -13  462.62   26.65
   2  -7 -13  460.18   25.40
   2  -7 -13  478.82   26.65
  -2   7 -13  446.02   26.54
   3   7 -13  359.43   22.58
   3  -7 -13  428.07   23.73
   3  -7 -13  400.62   22.69
   4   7 -13  649.59   31.62
   4  -7 -13  637.81   31.37
   4   7  13  619.08   30.64
   4  -7 -13  617.88   31.36
   0   8 -13   81.29    9.59
   1   8 -13  299.30   18.90
  -1  -8  13  232.66   15.20
  -1   8 -13  243.69   18.06
   2   8 -13   70.55    8.51
  -2   8 -13   61.08    8.34
   2  -8 -13   75.37    8.69
   3   8 -13  636.66   32.15
   3  -8 -13  594.60   31.95
   4   8 -13  326.23   17.82
   4  -8 -13  309.09   17.78
   4   8  13  307.44   16.84
   0   9 -13  811.95   41.92
   1   9 -13  613.18   33.80
  -1  -9  13  629.33   31.36
  -1   9 -13  653.82   34.81
   2   9 -13  167.02   13.06
  -2   9 -13  156.00   13.23
   3   9 -13   74.12    7.87
   3  -9  13   72.13    7.01
   3  -9 -13   92.72    8.66
   4   9 -13  166.69   10.74
   0  10 -13  453.64   25.97
   0 -10  13  426.73   23.82
   1  10 -13  358.85   22.02
   1 -10  13  353.46   20.53
  -1 -10  13  357.26   19.90
  -1  10 -13  364.70   22.53
   2  10 -13  299.12   18.28
   2 -10  13  298.32   17.31
  -2  10 -13  264.90   18.15
   3  10 -13   69.43    7.13
   3 -10  13   63.21    6.24
  -3  10 -13   82.15    7.55
   0  11 -13  445.32   24.79
   0  11  13  409.26   22.84
   0 -11  13  430.19   23.12
   1  11 -13  207.04   14.64
   1 -11  13  203.39   13.59
  -1  11 -13  214.41   15.08
   1  11  13  198.87   13.70
   2 -11  13   34.18    5.55
   2  11 -13   31.40    5.61
  -2  11 -13   26.45    5.49
   3 -11  13   22.35    3.92
   3  11 -13   19.64    3.88
   0 -12  13  347.35   19.46
   0  12 -13  376.58   20.96
   0  12  13  347.46   19.44
   1 -12  13 1077.99   48.61
   1  12 -13 1017.43   48.84
  -1  12 -13 1089.45   49.82
   1  12  13 1068.02   47.86
   2 -12  13  130.43    9.38
   2  12 -13  144.43    9.88
  -2  12 -13  115.61    9.57
   0  13  13  923.50   42.35
   0 -13  13  941.90   42.40
   0  13 -13  952.95   43.52
   1 -13  13  193.65   11.96
  -1  13  13  193.25   11.79
   1  13 -13  195.80   12.20
  -1  13 -13  187.96   12.35
   3   0  14  582.09   30.59
   3   0 -14  589.16   30.68
   4   0  14    0.45    2.32
   4   0 -14    1.08    2.39
   4   0 -14    1.48    2.28
   5   0 -14  148.38   10.65
   5   0 -14  142.53   10.11
   5   0  14  158.70   10.77
   2   1 -14   65.24    7.53
   3  -1  14    5.15    3.24
   3   1 -14    2.62    2.78
   3  -1 -14    7.23    3.26
   3  -1 -14    5.81    3.31
   4  -1  14   34.86    6.23
   4   1 -14   37.90    6.51
   4   1 -14   33.81    6.52
   4   1  14   51.11    7.46
   4  -1 -14   50.65    6.34
   4  -1 -14   42.64    6.91
   5  -1  14  147.40   10.14
   5   1 -14  142.75    9.85
   5   1 -14  138.90   10.01
   5  -1 -14  135.07   10.00
   5  -1 -14  123.29    9.36
   5   1  14  133.91    9.88
   2   2 -14  701.43   35.67
   3  -2  14  212.29   14.77
   3   2 -14  228.51   15.68
   3  -2 -14  213.37   15.07
   4  -2  14  155.23   11.45
   4   2 -14  149.70   11.46
   4   2 -14  140.80   11.43
   4  -2 -14  122.68   10.27
   4  -2 -14  130.39   11.11
   4   2  14  137.87   11.30
   5  -2  14  503.60   24.81
   5   2 -14  466.91   24.79
   5   2 -14  499.54   24.92
   5  -2 -14  511.88   25.21
   5  -2 -14  501.45   24.55
   5   2  14  513.54   25.00
   1   3 -14  638.16   32.88
   2   3 -14   87.36    9.14
   3   3 -14   68.97    8.28
   3  -3 -14   85.19    8.56
   4   3 -14  541.21   27.14
   4  -3  14  493.34   26.06
   4  -3 -14  457.02   25.35
   4  -3 -14  497.04   26.63
   4   3  14  500.05   26.42
   5   3 -14  416.41   21.10
   5  -3  14  424.45   20.88
   5  -3 -14  401.48   23.35
   5  -3 -14  400.59   21.21
   5   3  14  399.46   20.84
   1   4 -14  316.56   19.69
   2   4 -14   46.60    7.64
   2  -4 -14   43.92    6.95
   3   4 -14    4.62    2.98
   3  -4 -14    1.15    2.41
   4   4 -14  330.25   19.40
   4  -4 -14  317.91   19.27
   4   4  14  338.56   19.19
   5   4 -14  643.07   30.35
   5   4  14  666.42   30.37
   5  -4 -14  631.85   30.41
   0   5 -14  468.67   26.63
   1   5 -14  578.90   31.23
   2   5 -14  479.82   27.42
   2  -5 -14  484.34   26.08
   3   5 -14  179.61   13.17
   3  -5 -14  137.21   11.50
   4   5 -14  767.39   36.77
   4   5  14  783.99   36.39
   4  -5 -14  705.68   36.10
   0   6 -14  330.33   21.11
   1   6 -14  302.93   19.73
  -1   6 -14  297.44   19.53
   2   6 -14  468.70   25.77
   2  -6 -14  400.85   23.47
   3   6 -14   61.27    7.60
   3  -6 -14   70.19    7.58
   4   6 -14  409.19   22.50
   4   6  14  416.98   22.03
   4  -6 -14  433.76   22.54
   0   7 -14  149.81   12.84
   1   7 -14  209.52   15.75
  -1   7 -14  212.86   15.86
   2   7 -14  503.37   28.12
   3   7 -14  648.20   32.49
   3  -7 -14  601.60   31.21
   4   7 -14  654.44   32.75
   4   7  14  715.55   32.47
   0   8 -14   22.89    5.90
   1   8 -14   22.17    5.66
  -1   8 -14   35.38    6.90
   2   8 -14  686.95   35.26
  -2   8 -14  672.41   35.03
   3   8 -14   42.87    6.66
   4   8 -14  285.17   15.79
   4   8  14  285.60   15.40
   0   9 -14    5.59    3.30
   1   9 -14  122.02   11.08
  -1   9 -14  111.41   10.86
   2   9 -14   32.00    6.17
  -2   9 -14   30.86    6.02
   3   9 -14  261.36   15.99
   3  -9  14  271.31   15.11
   0  10 -14  873.84   42.99
   0 -10  14  869.18   40.95
   0  10  14  848.81   40.48
   1  10 -14    4.83    3.17
   1 -10  14    6.60    3.14
  -1  10 -14    3.48    2.71
   2  10 -14  136.59   11.18
   2 -10  14  152.13   10.75
  -2  10 -14  161.86   11.76
   3  10 -14   75.04    6.94
   3 -10  14   75.25    6.27
   0  11 -14  511.36   26.82
   0  11  14  484.49   25.03
   0 -11  14  490.39   25.22
   1  11 -14  415.53   23.05
   1 -11  14  407.75   22.16
  -1  11 -14  446.59   23.64
   2 -11  14  342.47   18.04
   2  11 -14  341.27   18.65
  -2  11 -14  311.53   18.40
   0  12 -14  301.40   17.62
   0 -12  14  298.09   16.56
   0  12  14  303.54   16.46
  -1  12  14   72.22    6.62
   1 -12  14   73.45    6.96
   1  12 -14   73.46    7.27
  -1  12 -14   64.39    6.88
   3   0 -15   64.78    7.32
   3   0  15   69.31    7.86
   4   0 -15    0.75    1.86
   4   0 -15    1.62    2.32
   4   0  15    1.95    2.28
   3  -1  15  422.30   23.64
   3   1 -15  430.18   23.90
   4  -1  15  112.55    9.40
   4   1 -15  108.03    9.18
   4  -1 -15  105.46    9.20
   4  -1 -15  100.71    8.67
   4   1  15  110.77    9.44
   2   2 -15  428.61   24.18
   3   2 -15  226.66   15.48
   3  -2  15  228.13   14.88
   3  -2 -15  224.23   14.95
   4  -2  15  484.63   24.00
   4   2 -15  470.02   24.36
   4  -2 -15  428.47   23.76
   4  -2 -15  424.61   23.13
   4   2  15  457.75   24.28
   2   3 -15  184.20   13.80
   3   3 -15  115.30   10.24
   3  -3 -15   97.17    9.29
   4   3 -15  156.52   11.19
   4  -3  15  148.37   10.66
   4   3  15  143.64   10.98
   4  -3 -15  140.10   10.83
   1   4 -15   88.50    9.10
   2   4 -15 1560.59   71.23
   3   4 -15   81.10    8.42
   3  -4 -15   66.54    7.39
   4   4 -15  286.65   16.96
   4  -4 -15  278.90   16.57
   4   4  15  295.95   16.97
   0   5 -15   24.86    6.02
   1   5 -15  289.17   18.86
   2   5 -15    5.48    3.24
   2  -5 -15    7.07    3.18
   3   5 -15  660.49   33.43
   3  -5 -15  637.36   32.32
   4   5 -15   30.94    5.26
   4  -5 -15   30.16    5.06
   4   5  15   34.53    5.32
   0   6 -15  126.61   11.53
   1   6 -15  806.25   40.72
   2   6 -15  769.16   38.97
   3   6 -15  202.24   14.16
   3  -6 -15  209.31   13.53
   4   6 -15  132.13    9.49
   4   6  15  121.24    9.09
   0   7 -15  343.24   21.45
   1   7 -15   39.96    7.30
  -1   7 -15   57.36    7.48
   2   7 -15   61.15    7.64
   3   7 -15  812.35   39.24
   4   7 -15  458.25   23.21
   4   7  15  483.14   23.07
   0   8 -15    1.17    2.77
   1   8 -15  392.10   22.53
  -1   8 -15  353.37   21.78
   2   8 -15   89.68    8.90
   3   8 -15   68.66    7.05
   0   9 -15   84.30    8.99
   0  -9  15   78.58    7.61
   1   9 -15   95.94    9.27
  -1   9 -15   90.86    9.06
   2  -9  15   42.14    5.99
   2   9 -15   41.65    6.46
   3  -9  15  196.57   11.76
   3   9 -15  207.46   12.80
   0  10 -15  315.07   19.19
   0 -10  15  314.16   17.57
   1  10 -15  253.90   15.95
   1 -10  15  249.79   14.94
  -1  10 -15  236.33   15.68
   2 -10  15  247.14   14.47
   2  10 -15  261.76   15.32
  -2  10 -15  238.84   14.55
   0 -11  15  333.15   18.17
   0  11 -15  351.87   19.52
   1  11 -15  461.79   23.86
   1 -11  15  460.03   23.05
  -1  11  15  457.45   22.57
  -1  11 -15  442.67   23.59
   2  11 -15   31.69    4.81
   2 -11  15   33.06    4.73
   0  12 -15  135.80    9.48
   3   0  16  114.58    9.89
   4   0 -16   66.81    6.42
   4   0  16   63.92    6.69
   3  -1  16  180.97   12.71
   3   1 -16  179.04   12.60
   3   1  16  174.10   12.78
   4  -1  16  340.05   18.23
   4   1 -16  336.85   18.34
   4   1  16  317.77   18.24
   3   2 -16   86.68    8.32
   4   2 -16    2.89    2.11
   4  -2  16    0.83    2.41
   4  -2 -16   -0.38    2.41
   4   2  16    1.98    2.35
   2   3 -16   40.24    6.78
   3   3 -16    3.51    2.71
   4   3 -16  315.18   17.17
   4   3  16  313.53   17.27
   4  -3 -16  285.19   16.41
   1   4 -16  436.80   24.85
   2   4 -16  219.28   15.23
   3   4 -16   48.28    6.51
   3  -4 -16   67.31    8.18
   4   4 -16   27.15    4.61
   4  -4 -16   21.08    4.03
   4   4  16   26.50    4.72
   1   5 -16   84.29    8.90
   2   5 -16  319.52   19.70
   3   5 -16  189.33   13.23
   4   5 -16  762.55   36.18
   4   5  16  809.43   36.25
   0   6 -16   56.94    7.26
   1   6 -16  271.95   17.85
   2   6 -16   84.58    8.73
   3   6 -16  149.78   11.10
   0   7 -16  705.69   35.78
   1   7 -16  107.26   10.04
   2   7 -16  133.23   10.91
   3   7 -16  136.41   10.17
   0   8 -16  116.92   10.26
   1   8 -16  331.57   19.95
   2   8 -16  370.73   20.90
   3  -8  16   36.68    4.41
   3   8 -16   39.44    5.09
   0   9 -16  396.96   22.44
   0  -9  16  416.30   21.33
   1   9 -16   87.99    8.59
   1  -9  16   93.51    7.89
  -1   9 -16  101.97    8.84
   2   9 -16  116.37    9.14
   2  -9  16  105.97    8.26
   0  10 -16  195.54   12.78
   0 -10  16  187.50   11.69
   1 -10  16  130.43    9.32
   1  10 -16  143.23   10.31
  -1  10 -16  128.15    9.73
   2 -10  16  202.68   11.97
   2  10 -16  217.05   12.80
   0  11 -16  538.81   26.41
   1 -11  16   29.97    4.50
   3   0  17   10.01    3.45
   4   0  17   34.53    4.84
   3   1  17  261.49   15.84
   4   1  17  370.70   19.19
   3   2 -17  180.76   12.38
   3   2  17  202.11   12.95
   4   2  17  111.98    8.35
   3   3 -17  314.83   17.89
   3   3  17  310.00   17.78
   4   3  17  284.73   15.36
   2   4 -17  244.11   15.62
   3   4 -17  264.69   15.80
   2   5 -17  115.16    9.80
   3   5 -17  551.17   27.61
   1   6 -17  420.59   23.34
   2   6 -17  132.84   10.43
   3   6 -17   50.53    5.70
   1   7 -17   48.55    6.34
   2   7 -17  332.03   18.87
   3   7 -17  168.23   10.79
   0   8 -17  122.27    9.72
   0  -8  17  120.17    8.78
   1   8 -17  161.68   11.59
   2   8 -17   22.82    4.42
   0  -9  17    1.93    2.02
   0   9 -17    1.91    2.17
   1   9 -17   74.08    7.04
   1  -9  17   79.46    6.77
   2  -9  17   52.86    5.22
   2   9 -17   59.24    7.29
   3   1  18  118.18    8.89
   3   2  18   98.03    8.06
   3   3  18  361.96   18.99
   3   4 -18   34.35    5.33
   3   4  18   40.75    5.04
   2   5 -18  152.45   10.68
   3   5  18   97.25    7.42
   2   6 -18   63.35    6.36
   1   7 -18   60.36    6.47
   2   7 -18  156.89   10.47
   0  -8  18  503.25   24.03
   1  -8  18   80.57    6.61
   1   8 -18   84.18    7.73
   0   0   0    0.00    0.00
;
_shelx_hkl_checksum              48671
loop_
_space_group_symop_operation_xyz
'x, y, z'
'x+1/2, -y+1/2, -z'
'-x, y+1/2, -z+1/2'
'-x+1/2, -y, z+1/2'
loop_
_atom_site_label
_atom_site_type_symbol
_atom_site_fract_x
_atom_site_fract_y
_atom_site_fract_z
_atom_site_U_iso_or_equiv
_atom_site_adp_type
_atom_site_occupancy
_atom_site_site_symmetry_order
_atom_site_calc_flag
_atom_site_refinement_flags_posn
_atom_site_refinement_flags_adp
S1 S 0.14084(7) 0.51595(3) 0.30040(3) 0.01485(16) Uani 1 1 d . .
O1 O 0.3069(2) 0.43564(9) 0.45020(8) 0.0159(3) Uani 1 1 d . .
O2 O -0.0286(2) 0.36983(10) 0.47568(10) 0.0283(4) Uani 1 1 d . .
O3 O 0.0363(2) 0.42280(9) 0.29235(9) 0.0219(4) Uani 1 1 d . .
N1 N 0.0070(2) 0.57716(11) 0.37015(10) 0.0147(4) Uani 1 1 d . .
C1 C 0.4432(4) 0.29762(15) 0.38624(15) 0.0279(6) Uani 1 1 d . .
H14 H 0.2935 0.2894 0.3637 0.042 Uiso 1 1 calc R U
H1 H 0.5137 0.2367 0.3938 0.042 Uiso 1 1 calc R U
H13 H 0.5374 0.3352 0.3527 0.042 Uiso 1 1 calc R U
C2 C 0.4200(3) 0.34580(13) 0.46024(13) 0.0190(5) Uani 1 1 d . .
H16 H 0.3311 0.3066 0.4950 0.023 Uiso 1 1 calc R U
H15 H 0.5712 0.3556 0.4825 0.023 Uiso 1 1 calc R U
C3 C 0.0822(3) 0.43524(13) 0.45749(12) 0.0158(5) Uani 1 1 d . .
C4 C -0.0123(3) 0.53228(13) 0.44472(12) 0.0144(4) Uani 1 1 d . .
C5 C 0.0209(3) 0.59501(13) 0.51083(13) 0.0152(4) Uani 1 1 d . .
C6 C 0.2122(3) 0.65036(13) 0.51757(13) 0.0175(5) Uani 1 1 d . .
H20 H 0.3209 0.6515 0.4784 0.021 Uiso 1 1 calc R U
C7 C 0.2446(4) 0.70386(13) 0.58130(14) 0.0219(5) Uani 1 1 d . .
H19 H 0.3756 0.7415 0.5859 0.026 Uiso 1 1 calc R U
C8 C 0.0861(4) 0.70249(13) 0.63827(14) 0.0235(5) Uani 1 1 d . .
H2 H 0.1103 0.7383 0.6823 0.028 Uiso 1 1 calc R U
C9 C 0.1167(3) 0.68636(13) 0.23210(13) 0.0200(5) Uani 1 1 d . .
H21 H 0.0822 0.7226 0.1870 0.030 Uiso 1 1 calc R U
H3 H 0.2801 0.6866 0.2407 0.030 Uiso 1 1 calc R U
H4 H 0.0400 0.7140 0.2754 0.030 Uiso 1 1 calc R U
C10 C 0.0356(3) 0.58656(13) 0.22147(13) 0.0157(5) Uani 1 1 d . .
C11 C 0.1468(4) 0.54164(14) 0.15299(13) 0.0219(5) Uani 1 1 d . .
H6 H 0.0958 0.5732 0.1073 0.033 Uiso 1 1 calc R U
H7 H 0.1047 0.4759 0.1506 0.033 Uiso 1 1 calc R U
H5 H 0.3112 0.5470 0.1572 0.033 Uiso 1 1 calc R U
C12 C -0.2209(3) 0.57988(14) 0.21623(13) 0.0190(5) Uani 1 1 d . .
H9 H -0.2892 0.6149 0.2575 0.028 Uiso 1 1 calc R U
H8 H -0.2668 0.5146 0.2196 0.028 Uiso 1 1 calc R U
H10 H -0.2713 0.6058 0.1682 0.028 Uiso 1 1 calc R U
C13 C -0.2147(3) 0.53976(13) 0.39630(13) 0.0175(5) Uani 1 1 d . .
H11 H -0.3327 0.5849 0.4109 0.021 Uiso 1 1 calc R U
H12 H -0.2716 0.4823 0.3723 0.021 Uiso 1 1 calc R U
C14 C -0.1083(4) 0.64906(13) 0.63155(13) 0.0229(5) Uani 1 1 d . .
H17 H -0.2185 0.6494 0.6703 0.027 Uiso 1 1 calc R U
C15 C -0.1397(4) 0.59542(13) 0.56790(13) 0.0196(5) Uani 1 1 d . .
H18 H -0.2719 0.5586 0.5631 0.023 Uiso 1 1 calc R U
loop_
_atom_site_aniso_label
_atom_site_aniso_U_11
_atom_site_aniso_U_22
_atom_site_aniso_U_33
_atom_site_aniso_U_23
_atom_site_aniso_U_13
_atom_site_aniso_U_12
S1 0.0151(2) 0.0151(2) 0.0143(3) -0.00099(18) -0.00028(18) 0.00209(16)
O1 0.0130(6) 0.0136(6) 0.0211(10) -0.0006(6) 0.0011(5) 0.0011(5)
O2 0.0175(7) 0.0184(7) 0.0491(13) 0.0138(7) 0.0009(7) -0.0025(6)
O3 0.0290(7) 0.0126(6) 0.0241(10) -0.0014(6) -0.0020(7) 0.0017(6)
N1 0.0148(8) 0.0157(8) 0.0136(11) 0.0011(7) -0.0004(7) 0.0009(6)
C1 0.0337(12) 0.0213(10) 0.0288(17) -0.0058(9) -0.0029(11) 0.0074(9)
C2 0.0164(10) 0.0160(9) 0.0247(15) 0.0019(8) -0.0009(8) 0.0042(7)
C3 0.0156(10) 0.0172(9) 0.0145(14) 0.0015(8) -0.0002(8) 0.0000(8)
C4 0.0133(9) 0.0142(9) 0.0155(13) 0.0033(8) 0.0025(8) 0.0001(7)
C5 0.0171(9) 0.0141(9) 0.0143(13) 0.0042(8) 0.0001(8) 0.0036(7)
C6 0.0175(10) 0.0176(9) 0.0174(13) 0.0039(8) 0.0032(8) 0.0022(7)
C7 0.0233(11) 0.0169(9) 0.0254(15) 0.0010(9) -0.0005(9) -0.0017(8)
C8 0.0341(12) 0.0169(9) 0.0195(15) -0.0025(8) 0.0002(10) 0.0027(8)
C9 0.0212(10) 0.0186(9) 0.0201(14) 0.0015(8) -0.0001(9) -0.0036(8)
C10 0.0166(9) 0.0164(9) 0.0140(13) -0.0001(8) -0.0011(8) 0.0016(7)
C11 0.0232(10) 0.0281(10) 0.0144(14) -0.0018(8) -0.0007(9) 0.0030(9)
C12 0.0179(10) 0.0171(9) 0.0220(15) 0.0006(8) -0.0043(8) -0.0002(7)
C13 0.0147(9) 0.0183(9) 0.0194(14) 0.0017(8) 0.0014(8) 0.0013(7)
C14 0.0295(11) 0.0184(9) 0.0208(15) 0.0002(8) 0.0099(10) 0.0025(8)
C15 0.0205(9) 0.0167(9) 0.0215(14) 0.0017(8) 0.0047(9) -0.0012(8)
loop_
_atom_type_symbol
_atom_type_description
_atom_type_scat_dispersion_real
_atom_type_scat_dispersion_imag
_atom_type_scat_source
C C 0.0181 0.0091 'International Tables Vol C Tables 4.2.6.8 and 6.1.1.4'
H H 0.0000 0.0000 'International Tables Vol C Tables 4.2.6.8 and 6.1.1.4'
N N 0.0311 0.0180 'International Tables Vol C Tables 4.2.6.8 and 6.1.1.4'
O O 0.0492 0.0322 'International Tables Vol C Tables 4.2.6.8 and 6.1.1.4'
S S 0.3331 0.5567 'International Tables Vol C Tables 4.2.6.8 and 6.1.1.4'
loop_
_geom_angle_atom_site_label_1
_geom_angle_atom_site_label_2
_geom_angle_atom_site_label_3
_geom_angle
O3 S1 N1 109.91(8)
O3 S1 C10 106.45(9)
N1 S1 C10 96.48(8)
C3 O1 C2 116.03(15)
C4 N1 C13 59.70(13)
C4 N1 S1 117.42(12)
C13 N1 S1 116.54(13)
C2 C1 H14 109.5
C2 C1 H1 109.5
H14 C1 H1 109.5
C2 C1 H13 109.5
H14 C1 H13 109.5
H1 C1 H13 109.5
O1 C2 C1 110.07(17)
O1 C2 H16 109.6
C1 C2 H16 109.6
O1 C2 H15 109.6
C1 C2 H15 109.6
H16 C2 H15 108.2
O2 C3 O1 125.30(18)
O2 C3 C4 124.22(17)
O1 C3 C4 110.35(16)
C13 C4 N1 60.56(12)
C13 C4 C5 121.38(17)
N1 C4 C5 115.62(15)
C13 C4 C3 116.85(16)
N1 C4 C3 120.39(17)
C5 C4 C3 112.80(17)
C6 C5 C15 119.4(2)
C6 C5 C4 121.38(19)
C15 C5 C4 119.16(18)
C7 C6 C5 120.1(2)
C7 C6 H20 119.9
C5 C6 H20 119.9
C8 C7 C6 120.0(2)
C8 C7 H19 120.0
C6 C7 H19 120.0
C7 C8 C14 120.5(2)
C7 C8 H2 119.8
C14 C8 H2 119.8
C10 C9 H21 109.5
C10 C9 H3 109.5
H21 C9 H3 109.5
C10 C9 H4 109.5
H21 C9 H4 109.5
H3 C9 H4 109.5
C9 C10 C12 112.36(16)
C9 C10 C11 111.17(18)
C12 C10 C11 110.72(18)
C9 C10 S1 108.52(15)
C12 C10 S1 110.41(16)
C11 C10 S1 103.27(13)
C10 C11 H6 109.5
C10 C11 H7 109.5
H6 C11 H7 109.5
C10 C11 H5 109.5
H6 C11 H5 109.5
H7 C11 H5 109.5
C10 C12 H9 109.5
C10 C12 H8 109.5
H9 C12 H8 109.5
C10 C12 H10 109.5
H9 C12 H10 109.5
H8 C12 H10 109.5
C4 C13 N1 59.74(13)
C4 C13 H11 117.8
N1 C13 H11 117.8
C4 C13 H12 117.8
N1 C13 H12 117.8
H11 C13 H12 114.9
C15 C14 C8 119.4(2)
C15 C14 H17 120.3
C8 C14 H17 120.3
C14 C15 C5 120.57(19)
C14 C15 H18 119.7
C5 C15 H18 119.7
loop_
_geom_bond_atom_site_label_1
_geom_bond_atom_site_label_2
_geom_bond_distance
S1 O3 1.4841(14)
S1 N1 1.7174(17)
S1 C10 1.844(2)
O1 C3 1.337(2)
O1 C2 1.467(2)
O2 C3 1.193(2)
N1 C4 1.482(3)
N1 C13 1.494(3)
C1 C2 1.496(3)
C1 H14 0.9800
C1 H1 0.9800
C1 H13 0.9800
C2 H16 0.9900
C2 H15 0.9900
C3 C4 1.522(2)
C4 C13 1.481(3)
C4 C5 1.497(3)
C5 C6 1.391(3)
C5 C15 1.392(3)
C6 C7 1.385(3)
C6 H20 0.9500
C7 C8 1.383(3)
C7 H19 0.9500
C8 C14 1.390(3)
C8 H2 0.9500
C9 C10 1.527(3)
C9 H21 0.9800
C9 H3 0.9800
C9 H4 0.9800
C10 C12 1.525(3)
C10 C11 1.530(3)
C11 H6 0.9800
C11 H7 0.9800
C11 H5 0.9800
C12 H9 0.9800
C12 H8 0.9800
C12 H10 0.9800
C13 H11 0.9900
C13 H12 0.9900
C14 C15 1.384(3)
C14 H17 0.9500
C15 H18 0.9500
loop_
_geom_torsion_atom_site_label_1
_geom_torsion_atom_site_label_2
_geom_torsion_atom_site_label_3
_geom_torsion_atom_site_label_4
_geom_torsion
O3 S1 N1 C4 53.51(15)
C10 S1 N1 C4 163.64(13)
O3 S1 N1 C13 -14.40(16)
C10 S1 N1 C13 95.73(15)
C3 O1 C2 C1 91.7(2)
C2 O1 C3 O2 4.8(3)
C2 O1 C3 C4 -179.27(16)
S1 N1 C4 C13 -106.25(15)
C13 N1 C4 C5 -113.11(18)
S1 N1 C4 C5 140.63(14)
C13 N1 C4 C3 105.68(19)
S1 N1 C4 C3 -0.6(2)
O2 C3 C4 C13 -49.0(3)
O1 C3 C4 C13 135.04(19)
O2 C3 C4 N1 -119.0(2)
O1 C3 C4 N1 65.0(2)
O2 C3 C4 C5 98.8(2)
O1 C3 C4 C5 -77.2(2)
C13 C4 C5 C6 -123.0(2)
N1 C4 C5 C6 -53.3(2)
C3 C4 C5 C6 90.8(2)
C13 C4 C5 C15 59.2(2)
N1 C4 C5 C15 128.92(18)
C3 C4 C5 C15 -87.0(2)
C15 C5 C6 C7 1.4(3)
C4 C5 C6 C7 -176.42(18)
C5 C6 C7 C8 -0.2(3)
C6 C7 C8 C14 -1.2(3)
O3 S1 C10 C9 173.58(13)
N1 S1 C10 C9 60.57(15)
O3 S1 C10 C12 50.02(17)
N1 S1 C10 C12 -62.99(15)
O3 S1 C10 C11 -68.37(15)
N1 S1 C10 C11 178.62(13)
C5 C4 C13 N1 103.72(19)
C3 C4 C13 N1 -111.43(19)
S1 N1 C13 C4 107.72(15)
C7 C8 C14 C15 1.5(3)
C8 C14 C15 C5 -0.3(3)
C6 C5 C15 C14 -1.1(3)
C4 C5 C15 C14 176.69(18)
