#------------------------------------------------------------------------------
#$Date: 2016-03-19 04:44:29 +0200 (Sat, 19 Mar 2016) $
#$Revision: 178346 $
#$URL: svn://www.crystallography.net/cod/cif/1/54/28/1542899.cif $
#------------------------------------------------------------------------------
#
# This file is available in the Crystallography Open Database (COD),
# http://www.crystallography.net/
#
# All data on this site have been placed in the public domain by the
# contributors.
#
data_1542899
loop_
_publ_author_name
'Mague, Joel T.'
'Mohamed, Shaaban K.'
'Akkurt, Mehmet'
'Ahmed, Gamal A.-W.'
'Bakhite, Etify A.'
'Albayati, Mustafa R.'
_publ_section_title
;
 2-{[5-(4-Chlorophenoxymethyl)-4-phenyl-4<i>H</i>-1,2,4-triazol-3-yl]sulfanyl}-<i>N</i>-(4-nitrophenyl)acetamide
;
_journal_coeditor_code           IS4005
_journal_issue                   3
_journal_name_full               IUCrData
_journal_page_first              x160452
_journal_paper_doi               10.1107/S2414314616004521
_journal_volume                  1
_journal_year                    2016
_chemical_formula_iupac          'C23 H18 Cl N5 O4 S'
_chemical_formula_moiety         'C23 H18 Cl N5 O4 S'
_chemical_formula_sum            'C23 H18 Cl N5 O4 S'
_chemical_formula_weight         495.93
_chemical_name_systematic
2-{[5-(4-Chlorophenoxymethyl)-4-phenyl-4<i>H</i>-1,2,4-triazol-3-yl]sulfanyl}-<i>N</i>-(4-nitrophenyl)acetamide
_space_group_crystal_system      triclinic
_space_group_IT_number           2
_space_group_name_Hall           '-P 1'
_space_group_name_H-M_alt        'P -1'
_symmetry_space_group_name_Hall  '-P 1'
_symmetry_space_group_name_H-M   'P -1'
_atom_sites_solution_hydrogens   mixed
_atom_sites_solution_primary     direct
_atom_sites_solution_secondary   difmap
_audit_creation_method           SHELXL-2014/7
_cell_angle_alpha                114.4740(10)
_cell_angle_beta                 93.6810(10)
_cell_angle_gamma                96.9490(10)
_cell_formula_units_Z            2
_cell_length_a                   8.1828(2)
_cell_length_b                   12.1541(3)
_cell_length_c                   12.3654(3)
_cell_measurement_reflns_used    6886
_cell_measurement_temperature    150.(2)
_cell_measurement_theta_max      72.2845
_cell_measurement_theta_min      3.9597
_cell_volume                     1102.14(5)
_computing_cell_refinement
;
<i>SAINT</i> (Bruker, 2016)
;
_computing_data_collection
;
<i>APEX3</i> (Bruker, 2016)
;
_computing_data_reduction
;
<i>SAINT</i> (Bruker, 2016)
;
_computing_molecular_graphics
;
<i>DIAMOND</i> (Brandenburg & Putz, 2012)
;
_computing_publication_material
;
<i>SHELXL2014</i> (Sheldrick, 2015<i>a</i>)
;
_computing_structure_refinement
;
<i>SHELXL2014</i> (Sheldrick, 2015<i>a</i>)
;
_computing_structure_solution
;
<i>SHELXT</i> (Sheldrick, 2015<i>b</i>)
;
_diffrn_ambient_temperature      150(2)
_diffrn_detector_area_resol_mean 10.4167
_diffrn_measured_fraction_theta_full 0.964
_diffrn_measured_fraction_theta_max 0.940
_diffrn_measurement_device_type  'Bruker D8 VENTURE PHOTON 100 CMOS'
_diffrn_measurement_method       '\w scans'
_diffrn_radiation_monochromator  mirror
_diffrn_radiation_type           CuK\a
_diffrn_radiation_wavelength     1.54178
_diffrn_reflns_av_R_equivalents  0.0232
_diffrn_reflns_limit_h_max       10
_diffrn_reflns_limit_h_min       -9
_diffrn_reflns_limit_k_max       13
_diffrn_reflns_limit_k_min       -14
_diffrn_reflns_limit_l_max       15
_diffrn_reflns_limit_l_min       -15
_diffrn_reflns_number            8470
_diffrn_reflns_theta_full        67.000
_diffrn_reflns_theta_max         72.278
_diffrn_reflns_theta_min         3.960
_exptl_absorpt_coefficient_mu    2.789
_exptl_absorpt_correction_T_max  0.93
_exptl_absorpt_correction_T_min  0.80
_exptl_absorpt_correction_type   multi-scan
_exptl_absorpt_process_details
;
(<i>SADABS</i>; Bruker, 2016)
;
_exptl_crystal_colour            colourless
_exptl_crystal_density_diffrn    1.494
_exptl_crystal_density_method    'not measured'
_exptl_crystal_description       plate
_exptl_crystal_F_000             512
_exptl_crystal_size_max          0.207
_exptl_crystal_size_mid          0.180
_exptl_crystal_size_min          0.026
_refine_diff_density_max         0.174
_refine_diff_density_min         -0.346
_refine_ls_extinction_method     none
_refine_ls_goodness_of_fit_ref   1.044
_refine_ls_hydrogen_treatment    constr
_refine_ls_matrix_type           full
_refine_ls_number_parameters     307
_refine_ls_number_reflns         4084
_refine_ls_number_restraints     0
_refine_ls_restrained_S_all      1.044
_refine_ls_R_factor_all          0.0377
_refine_ls_R_factor_gt           0.0343
_refine_ls_shift/su_max          0.001
_refine_ls_shift/su_mean         0.000
_refine_ls_structure_factor_coef Fsqd
_refine_ls_weighting_details
'w=1/[\s^2^(Fo^2^)+(0.0480P)^2^+0.4011P] where P=(Fo^2^+2Fc^2^)/3'
_refine_ls_weighting_scheme      calc
_refine_ls_wR_factor_gt          0.0862
_refine_ls_wR_factor_ref         0.0889
_reflns_number_gt                3709
_reflns_number_total             4084
_reflns_threshold_expression     'I > 2\s(I)'
_cod_data_source_file            is4005sup1.cif
_cod_data_source_block           I
_cod_database_code               1542899
_shelx_space_group_comment
;
The symmetry employed for this shelxl refinement is uniquely defined
by the following loop, which should always be used as a source of
symmetry information in preference to the above space-group names.
They are only intended as comments.
;
_shelx_estimated_absorpt_t_min   0.596
_shelx_estimated_absorpt_t_max   0.931
_shelx_hkl_file
;
  -1   0   0    0.22    0.01
   1   0   0    0.23    0.01
  -2   0   0    8.28    0.26
  -3   0   0    0.83    0.04
  -3   0   0    0.83    0.04
   4   0   0   11.03    0.37
   5   0   0    4.45    0.20
   5   0   0    4.33    0.18
   6   0   0    9.59    0.35
   6   0   0    9.31    0.34
   6   0   0    9.46    0.35
   7   0   0   18.94    0.62
   7   0   0   18.31    0.62
   7   0   0   17.90    0.62
   8   0   0    6.09    0.24
   8   0   0    5.78    0.24
   9   0   0    0.07    0.04
   9   0   0    0.08    0.04
  10  -1   0    0.01    0.04
  10  -1   0    0.07    0.04
   9  -1   0    5.28    0.20
   9  -1   0    5.41    0.20
   8  -1   0   -0.05    0.05
   8  -1   0   -0.04    0.05
   7  -1   0   36.09    1.16
   7  -1   0   36.20    1.17
   7  -1   0   37.10    1.17
   6  -1   0    0.17    0.07
   6  -1   0    0.16    0.07
   6  -1   0    0.14    0.07
   5  -1   0   40.82    1.28
   5  -1   0   40.98    1.27
   5  -1   0   39.98    1.28
   4  -1   0   14.30    0.49
  -4   1   0   15.63    0.49
  -4   1   0   15.82    0.48
  -3   1   0   11.48    0.37
  -3   1   0   11.71    0.37
  -2   1   0   24.59    0.73
  -2   1   0   22.10    0.72
  -1   1   0    2.71    0.09
   0  -1   0    2.75    0.09
   0   1   0    2.58    0.09
  -1  -1   0   63.76    1.94
   1   1   0   62.20    1.94
  -2  -1   0  186.86    5.72
   4   1   0    4.93    0.19
   5   1   0    0.10    0.06
   5   1   0    0.11    0.07
   5   1   0    0.24    0.08
   6   1   0   16.94    0.58
   6   1   0   17.76    0.59
   6   1   0   17.53    0.58
   7   1   0    2.98    0.16
   7   1   0    3.06    0.16
   8   1   0   12.00    0.40
   8   1   0   10.74    0.41
   8   1   0   11.71    0.40
   9   1   0    0.58    0.07
   9   1   0    0.68    0.07
  10  -2   0    0.46    0.06
  10  -2   0    0.42    0.06
   9  -2   0    0.70    0.08
   9  -2   0    0.63    0.07
   8  -2   0    5.21    0.22
   8  -2   0    5.18    0.22
   7  -2   0    4.79    0.21
   7  -2   0    4.90    0.21
   6  -2   0    4.53    0.20
   6  -2   0    4.46    0.20
   6  -2   0    4.34    0.20
   5  -2   0    0.46    0.10
   5  -2   0    0.52    0.13
   5  -2   0    0.65    0.12
  -4   2   0   17.62    0.56
  -4   2   0   17.03    0.56
  -3   2   0   88.99    2.70
  -3   2   0   86.62    2.70
  -2   2   0   35.10    1.09
  -1   2   0    6.91    0.23
   0  -2   0   79.89    2.50
   0   2   0   83.24    2.52
  -1  -2   0  206.40    6.29
   1   2   0  202.99    6.29
  -2  -2   0   44.88    1.35
   2   2   0   42.89    1.35
   3   2   0   29.69    0.93
   4   2   0    3.13    0.14
   5   2   0    3.85    0.19
   5   2   0    3.80    0.19
   5   2   0    3.99    0.17
   6   2   0    0.37    0.09
   6   2   0    0.21    0.07
   6   2   0    0.20    0.06
   7   2   0    1.63    0.12
   7   2   0    1.67    0.14
   7   2   0    1.71    0.12
   8   2   0    2.49    0.17
   8   2   0    2.56    0.13
   8   2   0    2.52    0.15
   9   2   0    0.08    0.04
   9   2   0    0.15    0.04
  10  -3   0    6.79    0.23
  10  -3   0    6.77    0.23
   9  -3   0    1.56    0.10
   9  -3   0    1.55    0.10
   8  -3   0    1.92    0.13
   8  -3   0    2.21    0.13
   7  -3   0   -0.10    0.06
   7  -3   0    0.06    0.07
   6  -3   0    7.50    0.29
   6  -3   0    7.14    0.30
   6  -3   0    7.77    0.29
   5  -3   0    5.90    0.25
   5  -3   0    5.27    0.24
  -4   3   0   21.78    0.70
  -4   3   0   21.45    0.71
  -3   3   0   45.53    1.42
  -3   3   0   44.84    1.41
  -2   3   0   19.95    0.64
  -1   3   0   60.32    1.86
   0  -3   0    7.49    0.25
   0   3   0    7.48    0.25
  -1  -3   0  100.93    2.99
   1   3   0   93.99    2.99
  -2  -3   0   52.73    1.58
   2   3   0   49.95    1.58
   2   3   0   50.27    1.58
   3   3   0   29.64    0.95
   3   3   0   30.29    0.93
   4   3   0   53.01    1.65
   5   3   0    0.28    0.09
   5   3   0    0.25    0.07
   5   3   0    0.37    0.09
   6   3   0    7.42    0.28
   6   3   0    7.37    0.29
   6   3   0    7.32    0.29
   7   3   0   10.77    0.37
   7   3   0    9.58    0.37
   7   3   0   10.56    0.37
   8   3   0    6.26    0.23
   8   3   0    6.17    0.23
   9   3   0    0.77    0.07
   9  -4   0    5.63    0.21
   9  -4   0    5.55    0.21
   8  -4   0    0.16    0.06
   8  -4   0    0.10    0.06
   7  -4   0    2.30    0.14
   7  -4   0    2.18    0.15
   6  -4   0    2.67    0.17
   6  -4   0    2.61    0.15
   6  -4   0    2.64    0.18
   5  -4   0    2.86    0.19
   5  -4   0    2.63    0.18
   5  -4   0    2.73    0.17
  -4   4   0   16.17    0.60
  -4   4   0   18.27    0.59
  -3   4   0   69.06    2.06
  -3   4   0   62.76    2.06
  -2   4   0   22.45    0.73
  -1   4   0   23.70    0.76
   0  -4   0    0.06    0.03
   0   4   0    0.06    0.03
  -1  -4   0   11.45    0.38
   1   4   0   11.37    0.38
   2   4   0    5.29    0.20
   2   4   0    5.41    0.20
   3   4   0    0.20    0.09
   3   4   0   -0.03    0.04
   4   4   0    1.90    0.11
   4   4   0    1.95    0.15
   5   4   0   -0.02    0.06
   5   4   0    0.11    0.06
   5   4   0    0.03    0.09
   6   4   0    9.63    0.36
   6   4   0    9.56    0.35
   7   4   0    0.03    0.06
   7   4   0   -0.09    0.07
   7   4   0   -0.03    0.05
   8   4   0    0.32    0.09
   8   4   0    0.28    0.06
   8   4   0    0.24    0.05
   9  -5   0    4.91    0.18
   9  -5   0    4.41    0.20
   8  -5   0    2.22    0.13
   8  -5   0    2.19    0.14
   7  -5   0    1.63    0.15
   7  -5   0    1.47    0.13
   7  -5   0    1.71    0.15
   6  -5   0    3.71    0.19
   6  -5   0    3.90    0.19
   5  -5   0    0.26    0.09
   5  -5   0    0.07    0.07
   5  -5   0    0.12    0.08
  -4   5   0   -0.01    0.10
  -3   5   0    9.76    0.37
  -2   5   0    1.65    0.11
  -1   5   0   83.24    2.59
   0   5   0    1.73    0.10
   0   5   0    1.94    0.11
   1   5   0  122.26    3.69
   1   5   0  117.69    3.70
   2   5   0   15.95    0.54
   2   5   0   15.83    0.52
   3   5   0    0.38    0.07
   4   5   0   10.29    0.37
   4   5   0   10.40    0.37
   5   5   0    7.87    0.30
   5   5   0    7.26    0.34
   5   5   0    7.84    0.30
   6   5   0   -0.10    0.09
   6   5   0   -0.02    0.07
   6   5   0    0.12    0.06
   7   5   0    7.56    0.28
   7   5   0    7.32    0.27
   7   5   0    6.99    0.28
   8   5   0    0.06    0.08
   8  -6   0   10.82    0.38
   7  -6   0    1.93    0.14
   7  -6   0    1.77    0.14
   6  -6   0   58.34    1.82
   6  -6   0   57.24    1.82
   6  -6   0   59.06    1.83
   5  -6   0   55.55    1.79
   5  -6   0   56.93    1.78
   5  -6   0   58.51    1.79
   4  -6   0    5.95    0.23
   4  -6   0    6.01    0.24
   3  -6   0    3.70    0.17
   3  -6   0    3.79    0.18
  -3   6   0    4.55    0.36
  -2   6   0    0.10    0.07
  -1   6   0   36.35    1.14
   0   6   0    6.01    0.22
   0   6   0    6.10    0.26
   1   6   0   11.15    0.38
   1   6   0   11.03    0.42
   2   6   0   13.70    0.46
  -3  -6   0    4.22    0.22
   3   6   0    4.79    0.19
   4   6   0   12.96    0.45
   5   6   0    0.02    0.06
   6   6   0    0.20    0.06
   7   6   0    0.34    0.11
   7  -7   0   12.47    0.43
   6  -7   0   13.60    0.47
   6  -7   0   13.73    0.48
   6  -7   0   13.73    0.47
   5  -7   0    4.50    0.19
   5  -7   0    4.62    0.20
   4  -7   0   10.20    0.36
   4  -7   0   10.22    0.36
   3  -7   0    4.56    0.20
   3  -7   0    4.72    0.19
   2  -7   0   20.64    0.65
   2  -7   0   19.62    0.65
  -2   7   0   19.93    0.65
   1  -7   0    0.07    0.06
   1  -7   0    0.07    0.07
  -1   7   0    0.13    0.06
   0  -7   0    0.06    0.07
   0   7   0    0.12    0.06
  -1  -7   0   10.69    0.38
   1   7   0   11.48    0.39
  -2  -7   0   45.69    1.47
   2   7   0   48.40    1.48
  -3  -7   0    0.94    0.14
   3   7   0    1.15    0.10
   4   7   0   -0.03    0.06
   5   7   0    1.34    0.12
   6   7   0    0.77    0.09
  -7  -7   0    4.45    0.18
   7   7   0    4.98    0.20
   7  -8   0    5.00    0.20
   7  -8   0    5.04    0.21
   6  -8   0    0.98    0.10
   6  -8   0    0.85    0.11
   5  -8   0    0.42    0.09
   5  -8   0    0.42    0.07
   4  -8   0    8.59    0.31
   4  -8   0    8.20    0.31
   3  -8   0   10.42    0.38
   3  -8   0   10.97    0.38
   2  -8   0    0.53    0.10
   2  -8   0    0.40    0.09
  -2   8   0    0.69    0.13
   1  -8   0    1.78    0.12
   1  -8   0    1.76    0.12
  -1   8   0    1.56    0.13
   0  -8   0    2.16    0.13
   0  -8   0    1.92    0.14
   0   8   0    2.16    0.13
  -1  -8   0    0.12    0.07
   1   8   0   -0.02    0.06
  -2  -8   0    1.55    0.13
   2   8   0    1.52    0.12
  -3  -8   0    0.09    0.13
  -3  -8   0    0.09    0.08
   3   8   0    0.01    0.05
  -4  -8   0    0.06    0.09
   4   8   0    0.07    0.06
  -5  -8   0    2.30    0.15
   5   8   0    2.40    0.14
   6   8   0    0.50    0.08
   7  -9   0    0.04    0.05
   7  -9   0    0.07    0.05
   5  -9   0    0.49    0.08
   5  -9   0    0.77    0.10
   4  -9   0    0.09    0.05
   4  -9   0    0.13    0.06
   3  -9   0   66.37    2.07
   3  -9   0   66.70    2.08
   2  -9   0   14.25    0.48
   2  -9   0   14.15    0.48
   1  -9   0   19.99    0.65
   1  -9   0   18.95    0.64
  -1   9   0   19.98    0.65
   0  -9   0    8.93    0.33
   0  -9   0    8.72    0.32
   0   9   0    9.18    0.34
  -1  -9   0    2.42    0.14
   1   9   0    2.52    0.15
  -2  -9   0   -0.06    0.07
   2   9   0    0.09    0.06
  -3  -9   0    4.56    0.21
   3   9   0    4.58    0.20
   4   9   0    3.77    0.18
   5   9   0    0.26    0.08
   6   9   0    1.88    0.13
   7 -10   0    6.84    0.24
   7 -10   0    6.99    0.24
   6 -10   0    1.18    0.09
   6 -10   0    1.03    0.08
   5 -10   0    1.30    0.11
   5 -10   0    1.45    0.10
   4 -10   0    1.66    0.11
   4 -10   0    1.51    0.11
   3 -10   0    6.88    0.27
   3 -10   0    7.16    0.27
   2 -10   0   14.75    0.51
   2 -10   0   15.01    0.50
   1 -10   0   16.18    0.54
   1 -10   0   16.74    0.54
  -1  10   0   15.42    0.57
   0 -10   0   17.48    0.57
   0 -10   0   16.82    0.56
   0  10   0   16.35    0.57
  -1 -10   0    2.50    0.14
   1  10   0    2.39    0.15
  -2 -10   0    0.09    0.07
   2  10   0    0.03    0.07
  -3 -10   0    0.06    0.08
   3  10   0   -0.03    0.06
   4  10   0    2.36    0.13
   5  10   0    0.08    0.06
   7 -11   0    7.73    0.26
   7 -11   0    7.51    0.25
   6 -11   0   16.35    0.52
   6 -11   0   16.14    0.53
   5 -11   0   13.18    0.44
   5 -11   0   13.12    0.44
   4 -11   0    2.10    0.11
   4 -11   0    2.03    0.11
   3 -11   0    0.61    0.08
   3 -11   0    0.43    0.08
   2 -11   0    0.05    0.05
   2 -11   0    0.11    0.05
   1 -11   0    9.39    0.33
   1 -11   0    9.21    0.33
   0 -11   0    0.76    0.09
   0 -11   0    0.54    0.13
   0  11   0    0.58    0.15
  -1 -11   0    1.36    0.10
   1  11   0    1.32    0.13
  -2 -11   0    0.04    0.06
   2  11   0    0.05    0.08
   3  11   0    0.47    0.09
   6 -12   0    0.19    0.04
   6 -12   0    0.26    0.06
   5 -12   0    0.89    0.07
   5 -12   0    0.80    0.06
   4 -12   0    0.02    0.03
   4 -12   0    0.06    0.04
   3 -12   0    2.57    0.12
   3 -12   0    2.49    0.12
   2 -12   0    1.21    0.09
   2 -12   0    1.25    0.09
   1 -12   0    0.49    0.08
   1 -12   0    0.46    0.07
   0 -12   0    0.44    0.07
  -1 -12   0    0.38    0.07
   4 -13   0    2.59    0.10
   4 -13   0    2.43    0.10
   3 -13   0    3.23    0.13
   2 -13   0   -0.01    0.03
   2 -13   0   -0.07    0.04
   1 -13   0    0.07    0.04
   0 -13   0    1.85    0.09
   2 -14   1    0.51    0.06
   0 -13   1    0.07    0.05
   1 -13   1    0.07    0.04
   2 -13   1    0.02    0.04
   2 -13   1    0.05    0.04
   3 -13   1    0.00    0.03
   3 -13   1    0.11    0.04
   4 -13   1    3.36    0.13
   4 -13   1    3.47    0.13
   5 -13   1   14.67    0.47
   5 -13   1   14.91    0.47
   2  12  -1   -0.17    0.19
  -1 -12   1    0.03    0.06
   0 -12   1    3.46    0.15
   1 -12   1    0.04    0.06
   1 -12   1    0.06    0.05
   2 -12   1    3.20    0.14
   2 -12   1    3.15    0.14
   3 -12   1    0.48    0.07
   3 -12   1    0.52    0.07
   4 -12   1    0.23    0.06
   4 -12   1    0.27    0.06
   5 -12   1    2.73    0.12
   5 -12   1    2.72    0.12
   4  11  -1    3.73    0.17
   3  11  -1    1.28    0.13
   2  11  -1    2.30    0.16
  -2 -11   1    2.13    0.14
   1  11  -1    1.78    0.15
  -1 -11   1    1.92    0.12
   0 -11   1    0.06    0.06
   0 -11   1    0.02    0.07
   1 -11   1    4.00    0.18
   1 -11   1    3.90    0.18
   2 -11   1    7.18    0.27
   2 -11   1    7.30    0.27
   3 -11   1    0.46    0.08
   3 -11   1    0.50    0.09
   4 -11   1    0.14    0.05
   4 -11   1    0.02    0.05
   5 -11   1    0.04    0.04
   5 -11   1    0.03    0.04
   6 -11   1    0.09    0.04
   6 -11   1    0.18    0.04
   7 -11   1    0.03    0.04
   7 -11   1    0.10    0.04
   5  10  -1   -0.02    0.06
   4  10  -1    0.24    0.07
   3  10  -1    0.54    0.11
   2  10  -1    0.46    0.11
  -2 -10   1    0.51    0.12
   1  10  -1   10.63    0.39
  -1 -10   1   10.99    0.38
   0  10  -1    0.03    0.09
   0 -10   1    0.00    0.07
   0 -10   1    0.11    0.06
   1 -10   1    1.71    0.12
   1 -10   1    1.73    0.12
   2 -10   1   10.02    0.35
   2 -10   1    9.54    0.35
   3 -10   1    0.32    0.07
   3 -10   1    0.26    0.06
   4 -10   1    0.52    0.09
   4 -10   1    0.61    0.09
   5 -10   1    0.15    0.05
   5 -10   1   -0.03    0.05
   6 -10   1    7.20    0.26
   6 -10   1    7.30    0.26
   7 -10   1    7.67    0.27
   7 -10   1    8.30    0.28
   6   9  -1    2.11    0.12
   5   9  -1    0.32    0.08
  -5  -9   1    0.32    0.07
   4   9  -1    0.64    0.10
   3   9  -1    6.28    0.25
  -3  -9   1    5.98    0.25
   2   9  -1    0.59    0.10
  -2  -9   1    0.41    0.08
  -2  -9   1    0.41    0.09
   1   9  -1    6.79    0.27
  -1  -9   1    6.89    0.27
   0   9  -1   10.74    0.37
   0  -9   1    9.29    0.42
   0  -9   1    9.95    0.36
  -1   9  -1    0.19    0.10
   1  -9   1    0.25    0.07
   1  -9   1    0.39    0.09
   2  -9   1    0.12    0.06
   2  -9   1    0.07    0.05
   3  -9   1    0.24    0.06
   3  -9   1    0.28    0.07
   4  -9   1    2.29    0.14
   4  -9   1    2.62    0.14
   5  -9   1    5.70    0.23
   5  -9   1    5.37    0.22
   6  -9   1    0.16    0.05
   6  -9   1    0.14    0.05
   7  -9   1    0.41    0.08
   7  -9   1    0.52    0.08
   8  -9   1    0.08    0.06
   7   8  -1    0.05    0.09
  -7  -8   1    0.00    0.06
   6   8  -1    0.12    0.06
  -6  -8   1    0.04    0.06
   5   8  -1    0.33    0.09
   4   8  -1   13.81    0.48
   3   8  -1   55.24    1.74
   2   8  -1    5.84    0.23
  -2  -8   1    5.25    0.23
  -2  -8   1    5.30    0.25
   1   8  -1   36.92    1.13
  -1  -8   1   34.50    1.13
  -1  -8   1   35.18    1.12
   0   8  -1    0.12    0.08
   0  -8   1   -0.11    0.07
   0  -8   1    0.08    0.08
   1  -8   1    4.63    0.20
   1  -8   1    4.68    0.20
   2  -8   1    6.31    0.24
   2  -8   1    6.23    0.24
   3  -8   1   80.59    2.52
   3  -8   1   82.22    2.52
   4  -8   1   34.26    1.08
   4  -8   1   34.10    1.08
   4  -8   1   33.19    1.09
   5  -8   1    2.17    0.13
   5  -8   1    1.93    0.13
   5  -8   1    1.75    0.17
   6  -8   1    0.25    0.06
   6  -8   1    0.12    0.06
   6  -8   1    0.48    0.09
   7  -8   1    1.17    0.13
   7  -8   1    1.29    0.10
   7  -8   1    1.09    0.11
   8  -8   1    2.88    0.14
   7   7  -1    1.48    0.11
   6   7  -1    2.20    0.13
   5   7  -1    0.38    0.10
   4   7  -1    1.08    0.11
   3   7  -1    6.22    0.24
   2   7  -1   30.28    0.92
  -2  -7   1   27.26    0.92
   1   7  -1    0.88    0.09
   1   7  -1    0.88    0.27
   0   7  -1    1.49    0.20
   0   7  -1    1.70    0.11
  -1   7  -1    0.45    0.09
   2  -7   1    3.50    0.16
   2  -7   1    3.23    0.17
   3  -7   1    8.18    0.29
   3  -7   1    7.81    0.29
   4  -7   1    0.57    0.09
   4  -7   1    0.62    0.10
   4  -7   1    0.53    0.14
   5  -7   1    8.77    0.33
   5  -7   1    9.15    0.36
   5  -7   1    9.26    0.33
   6  -7   1    0.67    0.11
   6  -7   1    0.59    0.13
   6  -7   1    0.55    0.10
   7  -7   1   27.49    0.87
   7  -7   1   26.56    0.87
   7  -7   1   26.45    0.86
   8  -7   1    2.84    0.15
   8  -7   1    3.10    0.15
   7   6  -1    0.44    0.09
   6   6  -1    1.99    0.17
   6   6  -1    1.84    0.12
   5   6  -1    1.49    0.13
   5   6  -1    1.39    0.12
   4   6  -1    5.76    0.23
   4   6  -1    5.88    0.25
   3   6  -1    8.30    0.30
   2   6  -1   73.35    2.49
   2   6  -1   86.31    2.50
   1   6  -1   25.68    0.81
   1   6  -1   25.28    0.84
   0   6  -1   17.54    0.58
   0   6  -1   18.51    0.61
  -1   6  -1    0.14    0.05
  -2   6  -1   37.24    1.20
  -3   6  -1    0.18    0.09
   4  -6   1    5.16    0.21
   4  -6   1    4.93    0.21
   4  -6   1    4.72    0.22
   5  -6   1    3.17    0.17
   5  -6   1    3.43    0.17
   5  -6   1    3.31    0.19
   6  -6   1    0.51    0.11
   6  -6   1    0.17    0.08
   6  -6   1    0.18    0.07
   6  -6   1    0.22    0.07
   7  -6   1   10.93    0.40
   7  -6   1   11.08    0.39
   7  -6   1   11.12    0.40
   8  -6   1    1.27    0.11
   8  -6   1    1.34    0.13
   8  -6   1    1.33    0.13
   9  -6   1    9.17    0.35
   8   5  -1    1.20    0.10
   8   5  -1    1.19    0.11
   7   5  -1    0.03    0.07
   7   5  -1    0.09    0.06
   7   5  -1    0.09    0.06
   6   5  -1    0.66    0.10
   6   5  -1    0.62    0.10
   6   5  -1    0.69    0.13
   5   5  -1    0.18    0.06
   5   5  -1    0.15    0.07
   5   5  -1    0.13    0.09
   4   5  -1    2.76    0.16
   4   5  -1    2.19    0.21
   4   5  -1    2.85    0.14
   3   5  -1    6.16    0.23
   2   5  -1   15.06    0.49
  -2  -5   1   14.88    0.51
   1   5  -1   21.43    0.69
  -1  -5   1   21.65    0.70
   0   5  -1   84.10    2.58
   0  -5   1   81.88    2.57
  -1   5  -1    2.40    0.12
   1  -5   1    2.26    0.12
  -2   5  -1    3.77    0.17
  -3   5  -1  134.94    4.17
  -4   5  -1   13.07    0.48
   5  -5   1    0.01    0.10
   5  -5   1    0.04    0.07
   5  -5   1    0.19    0.08
   5  -5   1    0.14    0.08
   6  -5   1    4.38    0.20
   6  -5   1    4.11    0.20
   7  -5   1   16.44    0.54
   7  -5   1   15.67    0.54
   7  -5   1   15.71    0.54
   8  -5   1   27.95    0.90
   9  -5   1    3.23    0.15
   9  -5   1    3.25    0.14
   9   4  -1    0.19    0.05
   8   4  -1    0.06    0.07
   8   4  -1   -0.01    0.04
   8   4  -1    0.00    0.05
   7   4  -1   11.50    0.40
   7   4  -1   11.56    0.40
   7   4  -1   10.65    0.40
   6   4  -1    0.79    0.10
   6   4  -1    0.78    0.10
   6   4  -1    0.59    0.12
   5   4  -1    2.00    0.13
   5   4  -1    2.01    0.14
   5   4  -1    2.22    0.16
   4   4  -1    0.69    0.11
   4   4  -1    0.52    0.08
   3   4  -1    2.25    0.11
   3   4  -1    2.26    0.12
  -3  -4   1    2.09    0.13
   2   4  -1   31.28    0.97
   2   4  -1   31.03    0.98
  -2  -4   1   30.55    0.98
   1   4  -1   68.83    2.13
  -1  -4   1   68.56    2.13
   0   4  -1   19.93    0.65
   0  -4   1   20.72    0.65
  -1   4  -1   31.56    1.01
   1  -4   1   32.66    1.01
  -2   4  -1   11.79    0.39
  -3   4  -1    2.27    0.12
  -4   4  -1    3.21    0.16
  -4   4  -1    2.73    0.18
   5  -4   1    0.18    0.07
   5  -4   1    0.22    0.07
   5  -4   1    0.22    0.09
   6  -4   1    1.26    0.13
   6  -4   1    1.19    0.13
   6  -4   1    1.06    0.11
   7  -4   1    0.08    0.07
   7  -4   1    0.09    0.06
   7  -4   1   -0.13    0.08
   8  -4   1    3.76    0.17
   8  -4   1    3.54    0.17
   9  -4   1    7.24    0.26
   9  -4   1    7.49    0.27
   9   3  -1    0.54    0.07
   8   3  -1    1.40    0.13
   8   3  -1    1.34    0.10
   8   3  -1    1.50    0.10
   7   3  -1    0.44    0.09
   7   3  -1    0.31    0.07
   7   3  -1    0.52    0.11
   6   3  -1    1.09    0.11
   6   3  -1    1.38    0.12
   6   3  -1    1.17    0.11
   5   3  -1    1.24    0.13
   5   3  -1    1.38    0.12
   5   3  -1    1.29    0.10
   4   3  -1   14.59    0.49
   3   3  -1    8.27    0.27
   3   3  -1    8.19    0.28
  -3  -3   1    8.00    0.28
   2   3  -1    1.45    0.07
  -2  -3   1    1.55    0.07
   1   3  -1  148.93    4.60
  -1  -3   1  149.04    4.58
   0   3  -1  143.27    4.56
   0  -3   1  153.57    4.58
  -1   3  -1   11.77    0.38
   1  -3   1   11.84    0.38
  -2   3  -1   11.60    0.38
   2  -3   1   11.34    0.37
  -3   3  -1  101.34    3.12
  -4   3  -1  140.68    4.38
  -4   3  -1  144.54    4.39
   5  -3   1   30.76    0.97
   5  -3   1   29.88    0.97
   6  -3   1   47.20    1.46
   6  -3   1   44.47    1.46
   6  -3   1   46.78    1.45
   7  -3   1    0.13    0.06
   7  -3   1    0.05    0.06
   7  -3   1    0.00    0.09
   8  -3   1   22.26    0.73
   8  -3   1   22.19    0.73
   9  -3   1    0.25    0.06
   9  -3   1    0.39    0.07
  10  -3   1    0.76    0.07
   9   2  -1    0.85    0.07
   9   2  -1    0.98    0.07
   8   2  -1   10.86    0.39
   8   2  -1   11.01    0.38
   8   2  -1   10.71    0.39
   7   2  -1    5.22    0.23
   7   2  -1    5.53    0.23
   7   2  -1    5.52    0.23
   6   2  -1    6.15    0.25
   6   2  -1    6.69    0.31
   5   2  -1    2.86    0.17
   5   2  -1    2.94    0.16
   5   2  -1    3.02    0.15
   4   2  -1   24.89    0.79
   3   2  -1    5.28    0.20
   3   2  -1    5.81    0.19
  -3  -2   1    5.61    0.19
   2   2  -1  330.97   10.32
  -2  -2   1  340.79   10.32
   1   2  -1  611.22   19.21
  -1  -2   1  641.79   19.20
   0   2  -1   18.08    0.58
   0  -2   1   18.73    0.58
  -1   2  -1    1.97    0.08
   1  -2   1    2.06    0.08
  -2   2  -1   16.76    0.53
  -3   2  -1    4.13    0.15
  -3   2  -1    4.04    0.15
  -4   2  -1   14.29    0.45
  -4   2  -1   13.99    0.45
   5  -2   1   12.34    0.43
   5  -2   1   12.86    0.44
   6  -2   1   10.30    0.36
   6  -2   1    9.82    0.36
   6  -2   1    9.76    0.36
   7  -2   1    8.93    0.33
   7  -2   1    8.96    0.33
   8  -2   1    8.88    0.32
   8  -2   1    8.72    0.32
   9  -2   1    0.02    0.04
   9  -2   1    0.03    0.04
  10  -2   1    0.15    0.04
  10  -2   1    0.19    0.04
   9   1  -1    3.34    0.14
   9   1  -1    3.38    0.14
   8   1  -1    0.24    0.09
   8   1  -1    0.06    0.05
   8   1  -1    0.06    0.05
   7   1  -1    0.42    0.09
   7   1  -1    0.47    0.09
   7   1  -1    0.36    0.08
   6   1  -1    3.79    0.18
   6   1  -1    3.76    0.18
   6   1  -1    3.78    0.18
   5   1  -1    0.01    0.07
   5   1  -1    0.07    0.05
   5   1  -1    0.09    0.07
   4   1  -1    2.77    0.13
  -4  -1   1    2.86    0.12
   3   1  -1    0.53    0.04
  -3  -1   1    0.57    0.04
   2   1  -1   44.32    1.35
  -2  -1   1   43.65    1.35
  -1  -1   1    0.46    0.03
   0   1  -1   56.56    1.96
   0  -1   1   70.88    1.98
  -1   1  -1   17.27    0.54
   1  -1   1   17.41    0.54
  -2   1  -1   78.21    2.40
  -3   1  -1    0.98    0.04
  -3   1  -1    0.90    0.04
   4  -1   1    0.10    0.06
   5  -1   1   37.17    1.17
   5  -1   1   36.56    1.17
   5  -1   1   36.77    1.16
   6  -1   1   13.22    0.46
   6  -1   1   13.54    0.47
   6  -1   1   13.85    0.47
   7  -1   1   46.59    1.49
   7  -1   1   47.54    1.49
   8  -1   1    9.72    0.34
   8  -1   1    9.25    0.34
   9  -1   1    0.38    0.07
   9  -1   1    0.49    0.06
  10   0  -1    1.38    0.08
  10   0  -1    1.45    0.08
   9   0  -1    2.68    0.13
   9   0  -1    2.78    0.12
   8   0  -1    2.19    0.13
   8   0  -1    2.32    0.13
   8   0  -1    1.73    0.16
   7   0  -1    0.02    0.08
   7   0  -1   -0.05    0.05
   7   0  -1    0.04    0.05
   6   0  -1    3.79    0.19
   6   0  -1    3.92    0.18
   6   0  -1    3.93    0.17
   5   0  -1    5.93    0.24
   5   0  -1    6.12    0.22
   5   0  -1    5.64    0.24
   4   0  -1   26.95    0.89
  -4   0   1   28.82    0.88
  -4   0   1   28.93    0.88
  -3   0   1   42.23    1.31
   2   0  -1   27.23    0.87
  -2   0   1   28.72    0.87
   1   0  -1    2.62    0.09
  -1   0   1    2.65    0.09
   0   0  -1    2.25    0.08
   0   0   1    2.50    0.08
  -1   0  -1   11.22    0.33
   1   0   1   10.52    0.33
   4   0   1    5.30    0.21
   5   0   1   12.40    0.44
   5   0   1   12.58    0.43
   5   0   1   12.83    0.44
   6   0   1   22.99    0.74
   6   0   1   23.58    0.75
   6   0   1   21.94    0.75
   7   0   1    0.14    0.06
   7   0   1    0.19    0.12
   7   0   1    0.16    0.06
   8   0   1    1.34    0.10
   8   0   1    1.45    0.11
   9   0   1    1.36    0.08
   9   0   1    1.29    0.09
  10  -1  -1    2.15    0.10
  10  -1  -1    2.11    0.10
   9  -1  -1    0.14    0.04
   9  -1  -1    0.06    0.04
   8  -1  -1    0.34    0.08
   8  -1  -1    0.44    0.09
   7  -1  -1    9.28    0.35
   7  -1  -1    9.78    0.35
   7  -1  -1    9.33    0.35
   6  -1  -1   38.23    1.21
   6  -1  -1   39.05    1.21
   6  -1  -1   37.28    1.21
   5  -1  -1    6.89    0.28
   5  -1  -1    6.87    0.25
   4  -1  -1   31.14    1.03
  -4   1   1   33.57    1.03
  -4   1   1   33.60    1.03
  -3   1   1    1.93    0.09
  -2   1   1   80.72    2.48
  -1   1   1   54.62    1.68
   0   1   1    6.92    0.22
   1   1   1   55.64    1.62
   1   1   1   49.98    1.62
   4   1   1    5.42    0.21
   5   1   1   35.41    1.14
   5   1   1   35.79    1.14
   5   1   1   36.45    1.14
   6   1   1    1.28    0.17
   6   1   1    1.34    0.12
   7   1   1    4.08    0.19
   7   1   1    3.93    0.18
   7   1   1    3.61    0.20
   9   1   1    0.70    0.07
   9   1   1    0.73    0.07
  10  -2  -1    0.52    0.07
  10  -2  -1    0.51    0.07
   9  -2  -1    0.19    0.05
   9  -2  -1    0.29    0.07
   8  -2  -1    0.38    0.09
   8  -2  -1    0.45    0.09
   7  -2  -1    2.39    0.16
   7  -2  -1    2.23    0.14
   7  -2  -1    2.26    0.14
   6  -2  -1   12.72    0.44
   6  -2  -1   12.50    0.44
   6  -2  -1   13.13    0.44
   5  -2  -1    3.36    0.15
   4  -2  -1   20.19    0.67
  -4   2   1   21.75    0.69
  -4   2   1   21.23    0.68
  -3   2   1    0.37    0.05
  -3   2   1    0.41    0.06
  -2   2   1    0.05    0.02
  -2   2   1    0.01    0.02
  -1   2   1   77.62    2.26
  -1   2   1   68.90    2.25
   0   2   1   38.95    1.21
   1   2   1    1.10    0.05
   2   2   1   18.83    0.57
   2   2   1   17.58    0.57
   3   2   1    5.88    0.22
   4   2   1   13.19    0.44
   5   2   1   19.94    0.66
   5   2   1   19.69    0.66
   5   2   1   20.70    0.67
   6   2   1    0.10    0.07
   6   2   1    0.22    0.08
   6   2   1    0.17    0.06
   7   2   1    1.63    0.14
   7   2   1    1.41    0.11
   7   2   1    1.58    0.12
   8   2   1    1.22    0.10
   8   2   1    1.32    0.09
   9   2   1    4.68    0.18
   9   2   1    4.92    0.18
  10  -3  -1    7.20    0.25
   9  -3  -1    3.91    0.16
   9  -3  -1    3.98    0.16
   8  -3  -1    4.09    0.19
   8  -3  -1    4.23    0.18
   7  -3  -1    0.77    0.11
   7  -3  -1    0.99    0.12
   6  -3  -1    7.02    0.27
   6  -3  -1    7.14    0.28
   6  -3  -1    7.24    0.28
   5  -3  -1   63.42    1.98
   5  -3  -1   63.87    1.99
   5  -3  -1   63.80    1.99
   4  -3  -1    7.70    0.28
  -4   3   1    8.39    0.31
  -4   3   1    7.76    0.32
  -3   3   1    0.99    0.10
  -3   3   1    1.04    0.08
  -2   3   1    3.37    0.14
  -2   3   1    3.24    0.14
  -1   3   1  103.27    3.18
   0   3   1   58.02    1.80
   1   3   1   66.92    2.06
   2   3   1    2.75    0.11
   2   3   1    2.52    0.12
   2   3   1    2.80    0.11
   3   3   1   61.00    1.89
   4   3   1    6.68    0.27
   4   3   1    6.76    0.25
   5   3   1    1.84    0.14
   5   3   1    1.98    0.13
   5   3   1    1.66    0.15
   6   3   1    8.79    0.33
   6   3   1    8.66    0.33
   6   3   1    8.70    0.33
   7   3   1    3.33    0.16
   7   3   1    3.37    0.17
   7   3   1    3.14    0.18
   8   3   1    1.45    0.10
   8   3   1    1.16    0.09
   8   3   1    1.31    0.15
   9   3   1    2.19    0.12
   9  -4  -1   11.72    0.39
   9  -4  -1   11.67    0.39
   7  -4  -1    4.09    0.20
   7  -4  -1    4.11    0.20
   6  -4  -1    0.21    0.09
   6  -4  -1    0.22    0.08
   5  -4  -1    1.03    0.16
   5  -4  -1    1.32    0.16
   5  -4  -1    0.99    0.16
   5  -4  -1    1.47    0.12
   4  -4  -1   15.08    0.52
  -4   4   1   16.91    0.57
   3  -4  -1   37.33    1.19
  -3   4   1   37.11    1.23
  -3   4   1   39.95    1.22
  -2   4   1   26.11    0.85
  -2   4   1   26.21    0.84
  -1   4   1   50.21    1.60
   0   4   1  106.97    3.30
   1   4   1    9.60    0.32
   1   4   1    9.49    0.33
   2   4   1   21.00    0.68
   2   4   1   21.02    0.68
   2   4   1   21.62    0.69
   3   4   1    3.80    0.16
  -4  -4  -1    0.73    0.15
   4   4   1    0.55    0.13
   4   4   1    0.49    0.09
   5   4   1    0.28    0.10
   5   4   1    0.26    0.07
   5   4   1    0.27    0.08
   6   4   1    4.29    0.20
   6   4   1    4.36    0.20
   6   4   1    4.17    0.21
   7   4   1    2.11    0.15
   7   4   1    2.36    0.14
   8   4   1    5.47    0.21
   8   4   1    4.84    0.23
   8  -5  -1    2.53    0.14
   8  -5  -1    2.11    0.15
   7  -5  -1    2.63    0.17
   7  -5  -1    3.00    0.19
   6  -5  -1    2.91    0.19
   6  -5  -1    3.08    0.18
   6  -5  -1    2.96    0.17
   5  -5  -1   27.02    0.86
   5  -5  -1   26.56    0.87
   4  -5  -1    0.53    0.10
   4  -5  -1    0.47    0.08
   4  -5  -1    0.26    0.07
   3  -5  -1   12.91    0.43
  -3   5   1   12.85    0.48
   2  -5  -1    1.25    0.10
  -2   5   1    1.41    0.12
  -1   5   1   43.84    1.39
   0   5   1    0.27    0.06
   0   5   1    0.21    0.06
   1   5   1   81.90    2.56
   1   5   1   84.06    2.58
   2   5   1    7.54    0.27
   2   5   1    7.38    0.30
  -3  -5  -1   -0.07    0.08
   3   5   1   -0.08    0.10
   3   5   1    0.04    0.05
  -4  -5  -1   -0.04    0.09
   4   5   1   -0.03    0.05
   4   5   1    0.12    0.09
   5   5   1    6.42    0.27
   5   5   1    6.71    0.26
   6   5   1    1.12    0.12
   6   5   1    1.05    0.12
   7   5   1    0.93    0.12
   7  -6  -1    5.03    0.23
   6  -6  -1   27.09    0.89
   6  -6  -1   28.19    0.89
   5  -6  -1   24.95    0.82
   5  -6  -1   25.19    0.81
   4  -6  -1    0.07    0.07
   4  -6  -1    0.01    0.05
   3  -6  -1    3.94    0.18
   3  -6  -1    3.55    0.16
   3  -6  -1    3.50    0.18
   2  -6  -1    1.81    0.16
   2  -6  -1    1.46    0.14
  -1   6   1    8.73    0.35
   0   6   1    2.05    0.18
   0   6   1    2.23    0.11
  -1  -6  -1   65.90    2.05
   1   6   1   63.59    2.09
   1   6   1   68.57    2.05
  -2  -6  -1    2.69    0.15
   2   6   1    2.84    0.14
  -3  -6  -1   16.40    0.56
   3   6   1   16.98    0.56
  -4  -6  -1    7.41    0.29
   4   6   1    7.79    0.29
   5   6   1    0.90    0.11
   6   6   1    1.68    0.12
   7   6   1    8.33    0.31
   7  -7  -1   23.14    0.74
   7  -7  -1   22.46    0.74
   6  -7  -1    4.21    0.19
   6  -7  -1    3.84    0.19
   5  -7  -1    8.81    0.33
   5  -7  -1    9.28    0.33
   4  -7  -1   52.33    1.69
   4  -7  -1   55.19    1.69
   3  -7  -1   11.09    0.38
   3  -7  -1   11.19    0.39
   2  -7  -1   59.51    1.86
   2  -7  -1   60.17    1.86
   1  -7  -1    2.78    0.14
   1  -7  -1    2.93    0.15
  -1   7   1    2.69    0.14
   0  -7  -1    0.81    0.10
   0  -7  -1    0.79    0.11
   0   7   1    0.84    0.09
  -1  -7  -1    0.25    0.07
   1   7   1    0.33    0.09
  -2  -7  -1    1.12    0.11
   2   7   1    1.37    0.11
  -3  -7  -1    5.70    0.24
   3   7   1    6.12    0.24
  -4  -7  -1    9.16    0.32
   4   7   1    8.51    0.33
   5   7   1    0.03    0.06
   6   7   1    2.89    0.15
   7  -8  -1    0.49    0.09
   7  -8  -1    0.45    0.10
   6  -8  -1    0.02    0.06
   6  -8  -1    0.11    0.05
   5  -8  -1   20.25    0.67
   5  -8  -1   20.68    0.68
   4  -8  -1    6.49    0.25
   4  -8  -1    6.48    0.26
   3  -8  -1   27.83    0.89
   3  -8  -1   27.38    0.89
  -3   8   1   28.14    0.90
   2  -8  -1    0.18    0.05
   2  -8  -1    0.08    0.06
  -2   8   1    0.22    0.08
   1  -8  -1   41.93    1.30
   1  -8  -1   40.08    1.29
  -1   8   1   41.30    1.30
   0  -8  -1    0.39    0.09
   0  -8  -1    0.43    0.07
   0   8   1    0.54    0.09
  -1  -8  -1    1.74    0.12
   1   8   1    1.69    0.13
  -2  -8  -1    1.90    0.13
   2   8   1    1.91    0.13
  -3  -8  -1    0.02    0.06
   3   8   1    0.03    0.06
  -4  -8  -1    9.33    0.32
   4   8   1    8.43    0.33
   5   8   1    0.44    0.08
   6   8   1    0.06    0.06
   7  -9  -1   20.05    0.63
   7  -9  -1   19.40    0.63
   6  -9  -1   15.87    0.53
   6  -9  -1   16.19    0.53
   5  -9  -1    0.12    0.05
   5  -9  -1    0.13    0.06
   4  -9  -1    3.40    0.17
   4  -9  -1    3.49    0.16
   3  -9  -1    5.33    0.22
   3  -9  -1    5.59    0.23
   2  -9  -1    7.37    0.27
   2  -9  -1    7.04    0.28
  -2   9   1    7.77    0.30
   1  -9  -1    1.19    0.11
   1  -9  -1    1.31    0.11
  -1   9   1    1.48    0.14
   0  -9  -1    1.39    0.12
   0  -9  -1    1.79    0.13
   0   9   1    1.71    0.14
  -1  -9  -1    0.15    0.06
   1   9   1    0.04    0.07
  -2  -9  -1    0.48    0.10
   2   9   1    0.43    0.10
  -3  -9  -1    0.34    0.07
   3   9   1    0.19    0.07
   4   9   1    5.48    0.22
   5   9   1    0.38    0.09
   7 -10  -1    7.12    0.25
   7 -10  -1    7.38    0.25
   6 -10  -1    0.72    0.07
   6 -10  -1    0.64    0.08
   5 -10  -1    7.04    0.26
   5 -10  -1    6.88    0.26
   4 -10  -1   21.12    0.68
   4 -10  -1   20.74    0.68
   3 -10  -1    0.36    0.08
   3 -10  -1    0.22    0.06
   2 -10  -1    6.58    0.24
   2 -10  -1    5.99    0.24
  -2  10   1    5.97    0.36
   1 -10  -1    3.97    0.17
   1 -10  -1    3.81    0.17
  -1  10   1    3.58    0.20
   0 -10  -1    1.94    0.14
   0 -10  -1    2.11    0.13
   0  10   1    1.96    0.15
  -1 -10  -1    1.89    0.12
   1  10   1    1.81    0.14
  -2 -10  -1    1.81    0.11
   2  10   1    1.65    0.12
  -3 -10  -1    0.26    0.07
   3  10   1    0.20    0.07
   4  10   1    0.04    0.06
   6 -11  -1    1.64    0.11
   6 -11  -1    2.22    0.09
   5 -11  -1    0.88    0.07
   5 -11  -1    0.86    0.07
   4 -11  -1    1.73    0.10
   4 -11  -1    2.00    0.11
   3 -11  -1    1.53    0.10
   3 -11  -1    1.66    0.10
   2 -11  -1    0.30    0.08
   2 -11  -1    0.30    0.07
   1 -11  -1    9.03    0.35
   1 -11  -1    8.60    0.31
   0 -11  -1    0.12    0.05
   0 -11  -1    0.08    0.07
   0  11   1    0.09    0.10
  -1 -11  -1    2.74    0.13
   1  11   1    2.56    0.16
  -2 -11  -1    2.45    0.12
   2  11   1    2.45    0.15
   3  11   1    0.16    0.08
   5 -12  -1    0.04    0.04
   5 -12  -1    0.04    0.04
   4 -12  -1   12.42    0.41
   4 -12  -1   12.35    0.41
   3 -12  -1   10.41    0.35
   3 -12  -1   10.25    0.35
   2 -12  -1    1.01    0.08
   2 -12  -1    1.17    0.08
   1 -12  -1    1.09    0.09
   1 -12  -1    1.10    0.08
   0 -12  -1    0.59    0.07
  -1 -12  -1    0.96    0.08
   3 -13  -1    0.52    0.05
   3 -13  -1    0.50    0.06
   2 -13  -1    0.11    0.05
   2 -13  -1    0.05    0.03
   1 -13  -1    2.04    0.09
   0 -13  -1    2.14    0.10
   1 -14   2    4.08    0.16
   2 -14   2    0.13    0.07
   2 -14   2    0.04    0.04
   3 -14   2    0.14    0.04
   3 -14   2    0.24    0.06
   0 -13   2    0.09    0.05
   1 -13   2    0.44    0.10
   1 -13   2    0.58    0.07
   2 -13   2    5.73    0.21
   2 -13   2    5.79    0.21
   3 -13   2    1.93    0.10
   3 -13   2    2.05    0.10
   4 -13   2    2.18    0.10
   4 -13   2    2.11    0.10
   5 -13   2    1.87    0.09
   5 -13   2    2.05    0.09
  -1 -12   2    2.88    0.15
   0 -12   2    1.97    0.12
   1 -12   2    6.18    0.24
   2 -12   2    0.74    0.09
   3 -12   2    2.83    0.14
   3 -12   2    3.02    0.14
   4 -12   2    1.66    0.09
   4 -12   2    1.57    0.10
   5 -12   2    0.49    0.06
   5 -12   2    0.44    0.06
   6 -12   2    0.06    0.03
   6 -12   2    0.06    0.03
   4  11  -2    1.42    0.11
   3  11  -2    0.51    0.11
   2  11  -2    3.12    0.18
   1  11  -2   11.05    0.42
  -1 -11   2   11.89    0.40
   0 -11   2    4.72    0.20
   0 -11   2    4.84    0.22
   1 -11   2   17.18    0.57
   1 -11   2   17.46    0.58
   2 -11   2    2.80    0.14
   2 -11   2    2.49    0.14
   3 -11   2    0.28    0.06
   3 -11   2    0.32    0.08
   4 -11   2    9.09    0.33
   4 -11   2    9.29    0.33
   5 -11   2    0.78    0.08
   5 -11   2    0.94    0.08
   6 -11   2    1.73    0.09
   6 -11   2    1.61    0.09
   7 -11   2    5.02    0.18
   7 -11   2    5.04    0.18
   5  10  -2    6.21    0.23
  -5 -10   2    5.84    0.22
   4  10  -2    4.62    0.20
  -4 -10   2    4.46    0.19
   3  10  -2    0.13    0.07
  -3 -10   2    0.09    0.06
   2  10  -2   11.61    0.41
  -2 -10   2   11.70    0.41
   1  10  -2    0.27    0.09
  -1 -10   2    0.40    0.09
  -1 -10   2    0.60    0.15
   0  10  -2    1.68    0.16
   0 -10   2    1.89    0.13
   0 -10   2    1.67    0.17
   0 -10   2    1.79    0.15
   1 -10   2   14.32    0.47
   1 -10   2   13.48    0.46
   1 -10   2   13.15    0.49
   2 -10   2   31.69    1.01
   2 -10   2   32.15    1.04
   2 -10   2   31.21    1.01
   3 -10   2    6.86    0.32
   3 -10   2    7.20    0.27
   3 -10   2    7.01    0.27
   4 -10   2    2.31    0.13
   4 -10   2    2.35    0.14
   4 -10   2    2.32    0.19
   5 -10   2    0.38    0.09
   5 -10   2    0.41    0.08
   5 -10   2    0.39    0.11
   6 -10   2   -0.02    0.04
   6 -10   2   -0.01    0.04
   7 -10   2    6.79    0.24
   7 -10   2    7.05    0.25
   8 -10   2    0.16    0.05
   6   9  -2    0.02    0.05
  -6  -9   2    0.05    0.05
   5   9  -2    0.19    0.06
  -5  -9   2    0.16    0.06
   4   9  -2    3.44    0.17
  -4  -9   2    3.48    0.17
   3   9  -2   18.43    0.62
  -3  -9   2   18.58    0.62
   2   9  -2    5.10    0.21
  -2  -9   2    4.55    0.21
   1   9  -2    0.15    0.07
  -1  -9   2    0.04    0.08
  -1  -9   2    0.25    0.08
   0   9  -2    4.29    0.20
   0  -9   2    4.38    0.21
   0  -9   2    4.17    0.23
   0  -9   2    4.56    0.20
   1  -9   2   20.25    0.66
   1  -9   2   19.64    0.67
   1  -9   2   20.62    0.66
   2  -9   2    0.83    0.10
   2  -9   2    0.80    0.18
   2  -9   2    1.22    0.10
   3  -9   2   43.75    1.39
   3  -9   2   44.50    1.39
   3  -9   2   43.64    1.40
   4  -9   2   13.65    0.48
   4  -9   2   13.78    0.47
   4  -9   2   13.37    0.47
   5  -9   2   34.60    1.12
   5  -9   2   35.88    1.12
   5  -9   2   34.79    1.13
   6  -9   2   10.97    0.38
   6  -9   2   10.62    0.38
   6  -9   2   10.85    0.39
   7  -9   2    0.22    0.07
   7  -9   2    0.28    0.06
   7  -9   2    0.23    0.06
   7   8  -2    0.46    0.08
  -7  -8   2    0.54    0.08
   6   8  -2    0.87    0.09
   5   8  -2    0.80    0.10
   4   8  -2   25.25    0.83
   3   8  -2    0.17    0.06
   2   8  -2    3.85    0.17
  -2  -8   2    3.63    0.19
   1   8  -2    4.01    0.18
  -1  -8   2    3.99    0.20
  -1  -8   2    3.83    0.20
   0   8  -2    4.97    0.23
   0  -8   2    4.97    0.22
   0  -8   2    4.77    0.22
   0  -8   2    4.95    0.23
   1  -8   2    0.26    0.08
   1  -8   2    0.45    0.11
   1  -8   2    0.36    0.07
   2  -8   2    0.67    0.10
   2  -8   2    0.84    0.17
   2  -8   2    0.83    0.10
   3  -8   2   12.77    0.43
   3  -8   2   11.81    0.44
   3  -8   2   12.53    0.42
   4  -8   2   58.71    1.84
   5  -8   2   30.95    0.99
   5  -8   2   30.84    0.98
   5  -8   2   29.96    0.98
   6  -8   2    0.27    0.08
   6  -8   2    0.30    0.06
   6  -8   2    0.20    0.06
   7  -8   2    0.11    0.06
   7  -8   2    0.14    0.06
   7  -8   2    0.27    0.07
   8  -8   2   10.13    0.35
   8  -8   2    9.96    0.34
  -8  -7   2    0.31    0.06
   7   7  -2    0.53    0.08
   6   7  -2    0.13    0.05
   5   7  -2    0.08    0.06
   4   7  -2    9.68    0.35
   3   7  -2   15.30    0.51
   2   7  -2    0.30    0.08
   1   7  -2  194.38    6.05
   1   7  -2  197.76    6.01
   0   7  -2    0.39    0.08
   0   7  -2    0.33    0.10
  -1   7  -2   13.30    0.49
   2  -7   2   64.59    2.03
   3  -7   2    4.10    0.20
   3  -7   2    4.20    0.19
   3  -7   2    4.20    0.18
   4  -7   2    1.39    0.12
   4  -7   2    1.46    0.11
   4  -7   2    1.22    0.14
   5  -7   2    9.75    0.36
   5  -7   2   10.21    0.39
   6  -7   2   41.04    1.30
   6  -7   2   40.39    1.29
   6  -7   2   41.22    1.30
   7  -7   2    4.98    0.22
   7  -7   2    5.16    0.24
   7  -7   2    4.94    0.21
   7  -7   2    5.09    0.22
   8  -7   2    4.34    0.18
   8  -7   2    3.89    0.18
   9  -7   2    0.03    0.05
   8   6  -2    3.46    0.16
   7   6  -2   -0.05    0.07
   7   6  -2    0.02    0.06
   6   6  -2    1.27    0.11
   6   6  -2    1.33    0.15
   5   6  -2    0.15    0.06
   5   6  -2    0.30    0.07
   5   6  -2    0.23    0.10
   4   6  -2    2.16    0.21
   4   6  -2    2.44    0.15
   4   6  -2    2.47    0.13
   3   6  -2   42.18    1.33
   2   6  -2    0.14    0.05
   2   6  -2    0.09    0.08
   1   6  -2    2.96    0.14
   1   6  -2    2.81    0.16
  -1  -6   2    2.80    0.24
   0   6  -2    1.33    0.11
   0  -6   2    1.31    0.13
  -1   6  -2    0.04    0.05
  -2   6  -2   16.68    0.57
  -3   6  -2    4.25    0.23
  -4   6  -2   -0.03    0.15
   4  -6   2    0.01    0.07
   4  -6   2   -0.01    0.06
   4  -6   2    0.19    0.06
   5  -6   2    3.82    0.19
   5  -6   2    3.86    0.18
   5  -6   2    4.16    0.19
   5  -6   2    3.27    0.23
   6  -6   2    0.10    0.08
   6  -6   2    0.30    0.08
   6  -6   2    0.15    0.07
   6  -6   2    0.21    0.10
   7  -6   2   16.76    0.57
   7  -6   2   16.06    0.56
   7  -6   2   16.91    0.56
   8  -6   2   28.65    0.93
   8  -6   2   30.08    0.94
   8  -6   2   28.70    0.93
   9  -6   2   15.27    0.50
   9  -6   2   15.18    0.50
   8   5  -2    0.08    0.05
   8   5  -2    0.14    0.07
   7   5  -2    1.30    0.11
   7   5  -2    1.45    0.11
   7   5  -2    1.49    0.12
   6   5  -2    7.50    0.29
   6   5  -2    7.03    0.28
   6   5  -2    7.50    0.29
   5   5  -2    2.12    0.16
   5   5  -2    2.31    0.13
   5   5  -2    1.95    0.14
   4   5  -2   19.91    0.65
   4   5  -2   19.21    0.66
   4   5  -2   20.38    0.66
   3   5  -2    0.00    0.07
   3   5  -2    0.03    0.08
  -3  -5   2    0.06    0.11
   2   5  -2    2.87    0.13
   2   5  -2    2.87    0.14
  -2  -5   2    2.69    0.16
   1   5  -2    3.74    0.21
   1   5  -2    3.90    0.17
  -1  -5   2    3.39    0.16
   0  -5   2  197.63    6.07
  -1   5  -2   36.39    1.15
   1  -5   2   35.75    1.14
  -2   5  -2   79.26    2.43
   2  -5   2   77.03    2.43
  -3   5  -2  153.03    4.72
  -4   5  -2    3.13    0.22
   5  -5   2    5.01    0.22
   5  -5   2    4.60    0.20
   5  -5   2    4.61    0.22
   5  -5   2    4.60    0.21
   6  -5   2    0.24    0.08
   6  -5   2    0.05    0.07
   6  -5   2    0.12    0.07
   7  -5   2   23.07    0.76
   7  -5   2   22.90    0.76
   7  -5   2   23.36    0.76
   8  -5   2    8.00    0.30
   8  -5   2    7.91    0.30
   9  -5   2    2.29    0.11
   9  -5   2    2.25    0.12
   9   4  -2    0.18    0.04
   8   4  -2    1.31    0.12
   8   4  -2    1.22    0.09
   8   4  -2    1.19    0.09
   7   4  -2    2.35    0.14
   7   4  -2    2.30    0.14
   7   4  -2    2.34    0.13
   6   4  -2    7.10    0.29
   6   4  -2    7.85    0.29
   6   4  -2    7.52    0.29
   5   4  -2    9.51    0.35
   5   4  -2    9.67    0.34
   5   4  -2    9.35    0.34
   4   4  -2   76.25    2.34
   4   4  -2   74.12    2.33
   3   4  -2    4.15    0.16
   3   4  -2    3.92    0.18
  -3  -4   2    3.81    0.18
   2   4  -2   30.29    0.97
   2   4  -2   31.39    0.98
  -2  -4   2   30.92    0.98
   1   4  -2   21.33    0.69
  -1  -4   2   21.65    0.69
   0   4  -2   21.42    0.69
   0  -4   2   21.78    0.69
  -1   4  -2   60.34    1.87
  -2   4  -2   30.86    1.02
   2  -4   2   33.95    1.02
  -3   4  -2    2.42    0.12
  -4   4  -2    0.15    0.07
  -4   4  -2    0.26    0.08
   5  -4   2    2.94    0.17
   5  -4   2    3.01    0.16
   6  -4   2   29.53    0.90
   6  -4   2   26.20    0.96
   7  -4   2    4.95    0.21
   7  -4   2    4.65    0.22
   7  -4   2    5.05    0.22
   8  -4   2    5.12    0.23
   8  -4   2    5.86    0.23
   8  -4   2    5.15    0.22
   9  -4   2    0.93    0.08
   9  -4   2    0.88    0.08
   9   3  -2    0.30    0.05
   8   3  -2    1.54    0.13
   8   3  -2    1.70    0.11
   8   3  -2    1.57    0.10
   7   3  -2    0.53    0.09
   7   3  -2    0.53    0.09
   7   3  -2    0.44    0.10
   6   3  -2    2.77    0.15
   6   3  -2    2.78    0.15
   6   3  -2    2.51    0.15
   5   3  -2    2.33    0.15
   5   3  -2    2.35    0.12
   5   3  -2    2.35    0.14
   4   3  -2   40.23    1.26
   3   3  -2   33.72    1.08
   3   3  -2   35.39    1.08
  -3  -3   2   34.36    1.09
   2   3  -2   57.44    1.85
  -2  -3   2   62.26    1.85
   1   3  -2    5.16    0.19
  -1  -3   2    5.43    0.19
   0  -3   2   70.41    2.17
  -1   3  -2   18.88    0.60
   1  -3   2   18.78    0.60
  -2   3  -2   27.31    0.87
   2  -3   2   28.30    0.87
  -3   3  -2    5.33    0.19
  -4   3  -2   79.34    2.49
  -4   3  -2   82.13    2.49
   5  -3   2    3.43    0.17
   5  -3   2    3.14    0.17
   5  -3   2    3.38    0.18
   6  -3   2   16.29    0.55
   6  -3   2   16.91    0.56
   6  -3   2   16.00    0.55
   7  -3   2    0.89    0.13
   7  -3   2    0.64    0.10
   7  -3   2    0.74    0.11
   8  -3   2    1.10    0.10
   8  -3   2    1.07    0.11
   9  -3   2    1.76    0.10
   9  -3   2    1.79    0.10
   9   2  -2    0.40    0.06
   9   2  -2    0.34    0.06
   8   2  -2    7.46    0.27
   8   2  -2    6.96    0.28
   8   2  -2    7.32    0.27
   7   2  -2    0.13    0.07
   7   2  -2    0.04    0.05
   7   2  -2    0.07    0.06
   6   2  -2    0.25    0.09
   6   2  -2    0.41    0.07
   5   2  -2    7.24    0.27
   5   2  -2    7.54    0.28
   5   2  -2    6.91    0.28
   4   2  -2    6.34    0.23
   4   2  -2    6.49    0.23
  -4  -2   2    5.61    0.27
   3   2  -2   -0.03    0.04
   3   2  -2    0.01    0.03
  -3  -2   2    0.05    0.04
   2   2  -2  986.56   30.42
  -2  -2   2 1000.00   30.43
   1   2  -2   34.85    1.08
  -1  -2   2   34.92    1.08
   0   2  -2   32.27    0.99
   0  -2   2   31.32    0.99
  -1   2  -2   73.92    2.31
   1  -2   2   76.76    2.31
  -2   2  -2    9.50    0.31
   2  -2   2    9.83    0.31
  -3   2  -2   65.61    2.02
   5  -2   2   46.28    1.44
   5  -2   2   46.11    1.45
   5  -2   2   45.56    1.45
   6  -2   2    2.91    0.16
   6  -2   2    2.83    0.17
   6  -2   2    2.71    0.15
   7  -2   2   13.54    0.47
   7  -2   2   13.54    0.47
   7  -2   2   13.48    0.47
   8  -2   2    0.49    0.09
   8  -2   2    0.36    0.07
   9  -2   2    0.57    0.07
   9  -2   2    0.58    0.07
   9   1  -2    2.83    0.13
   9   1  -2    3.02    0.13
   8   1  -2   14.80    0.49
   8   1  -2   14.73    0.49
   8   1  -2   13.71    0.50
   7   1  -2   15.12    0.51
   7   1  -2   14.94    0.51
   7   1  -2   14.77    0.52
   6   1  -2   11.18    0.39
   6   1  -2   11.25    0.39
   6   1  -2   10.70    0.39
   5   1  -2    6.06    0.23
   5   1  -2    5.89    0.24
   5   1  -2    6.18    0.25
   4   1  -2    2.43    0.11
  -4  -1   2    2.34    0.12
   3   1  -2   20.05    0.65
   3   1  -2   19.92    0.64
  -3  -1   2   20.64    0.64
   2   1  -2    9.26    0.31
  -2  -1   2    9.41    0.30
   1   1  -2   10.17    0.33
  -1  -1   2   10.64    0.33
   0   1  -2  161.10    4.98
   0  -1   2  161.48    4.97
  -1   1  -2   17.96    0.58
   1  -1   2   19.52    0.58
  -2   1  -2    8.93    0.29
   2  -1   2    9.33    0.29
   4  -1   2    1.35    0.12
   5  -1   2    0.11    0.08
   5  -1   2    0.04    0.08
   5  -1   2    0.12    0.07
   5  -1   2    0.08    0.06
   6  -1   2    7.51    0.29
   6  -1   2    7.53    0.29
   6  -1   2    7.50    0.29
   7  -1   2    6.66    0.26
   7  -1   2    6.68    0.27
   8  -1   2    0.38    0.09
   8  -1   2    0.31    0.06
   9  -1   2    7.85    0.27
   9  -1   2    7.66    0.27
  10   0  -2    0.53    0.06
   9   0  -2    2.00    0.11
   9   0  -2    2.00    0.11
   8   0  -2    4.23    0.21
   8   0  -2    4.76    0.20
   8   0  -2    4.83    0.20
   7   0  -2    8.38    0.33
   7   0  -2    8.82    0.33
   7   0  -2    9.32    0.33
   6   0  -2    0.36    0.07
   6   0  -2    0.36    0.07
   6   0  -2    0.50    0.11
   5   0  -2   22.79    0.72
   5   0  -2   22.33    0.73
   5   0  -2   21.91    0.73
   4   0  -2    1.33    0.09
  -4   0   2    1.17    0.11
   3   0  -2    5.34    0.19
   2   0  -2   85.87    2.70
  -2   0   2   90.01    2.70
   1   0  -2   17.11    0.52
  -1   0   2   15.89    0.52
   0   0  -2    0.94    0.05
   0   0   2    1.01    0.05
  -1   0  -2  314.37    9.88
   1   0   2  330.23    9.88
   4   0   2   10.80    0.37
   5   0   2    9.53    0.34
   5   0   2    9.20    0.35
   5   0   2    9.63    0.35
   6   0   2    2.86    0.20
   6   0   2    2.77    0.17
   6   0   2    3.14    0.17
   7   0   2    1.30    0.11
   7   0   2    1.27    0.11
   9   0   2    0.69    0.07
   9   0   2    0.78    0.07
  10  -1  -2    4.87    0.17
   9  -1  -2    1.08    0.09
   9  -1  -2    1.16    0.09
   8  -1  -2    1.07    0.10
   8  -1  -2    1.17    0.10
   8  -1  -2    0.98    0.13
   7  -1  -2   30.48    0.96
   7  -1  -2   29.67    0.97
   7  -1  -2   29.65    0.96
   6  -1  -2   26.92    0.88
   6  -1  -2   27.46    0.88
   6  -1  -2   27.14    0.87
   5  -1  -2    7.22    0.31
   5  -1  -2    7.93    0.29
   4  -1  -2   20.06    0.65
  -4   1   2   20.67    0.67
  -3   1   2   92.00    2.84
  -2   1   2    2.69    0.12
   1  -1  -2   14.12    0.48
  -1   1   2   15.76    0.48
   0   1   2    5.49    0.19
   1   1   2    0.43    0.03
   3   1   2    0.02    0.06
   4   1   2    9.94    0.35
   5   1   2    1.13    0.12
   5   1   2    1.31    0.13
   5   1   2    1.37    0.13
   6   1   2   15.56    0.54
   6   1   2   16.22    0.54
   6   1   2   15.78    0.54
   7   1   2    3.06    0.16
   7   1   2    2.87    0.16
   7   1   2    2.95    0.18
   8   1   2    0.33    0.08
   8   1   2    0.23    0.05
   9   1   2    1.18    0.08
   9   1   2    1.26    0.08
  10  -2  -2    0.29    0.07
   9  -2  -2    0.62    0.08
   9  -2  -2    0.74    0.08
   8  -2  -2    3.15    0.16
   8  -2  -2    3.09    0.16
   7  -2  -2    3.91    0.18
   7  -2  -2    3.85    0.18
   7  -2  -2    3.69    0.18
   6  -2  -2   26.93    0.86
   6  -2  -2   27.08    0.87
   6  -2  -2   26.70    0.87
   5  -2  -2   12.81    0.42
   5  -2  -2   12.24    0.44
  -5   2   2   12.36    0.47
   4  -2  -2   59.86    1.85
  -4   2   2   62.59    1.88
  -4   2   2   56.99    1.88
   3  -2  -2   61.93    1.96
  -3   2   2   65.32    1.99
  -2   2   2    4.19    0.16
  -1   2   2    4.60    0.17
   0   2   2   30.95    0.95
   0   2   2   29.44    0.94
   1   2   2    9.14    0.30
   1   2   2    9.31    0.30
   2   2   2    2.41    0.12
   2   2   2    2.65    0.10
   2   2   2    2.73    0.10
   3   2   2    3.45    0.15
   4   2   2    6.26    0.24
   5   2   2    3.31    0.18
   5   2   2    3.11    0.18
   5   2   2    3.12    0.16
  -6  -2  -2    0.69    0.14
   6   2   2    0.68    0.12
   6   2   2    0.66    0.11
   6   2   2    0.79    0.12
   7   2   2    0.61    0.13
   7   2   2    0.47    0.09
   7   2   2    0.52    0.10
   8   2   2    0.14    0.05
   8   2   2    0.17    0.05
   9   2   2    3.33    0.13
   9   2   2    3.05    0.13
   9  -3  -2    3.93    0.16
   9  -3  -2    3.79    0.16
   8  -3  -2    2.65    0.14
   7  -3  -2   11.75    0.41
   7  -3  -2   11.49    0.41
   6  -3  -2   18.08    0.61
   6  -3  -2   18.22    0.60
   6  -3  -2   17.63    0.60
   5  -3  -2   10.41    0.34
   5  -3  -2    9.17    0.37
  -5   3   2    9.88    0.44
   4  -3  -2    7.04    0.26
  -4   3   2    7.50    0.30
   3  -3  -2  171.03    5.49
  -3   3   2  184.54    5.53
  -3   3   2  182.27    5.52
  -2   3   2    0.15    0.05
  -2   3   2    0.15    0.04
  -1   3   2   27.53    0.87
  -1   3   2   27.30    0.88
   0   3   2    2.93    0.13
   0   3   2    2.83    0.12
   1   3   2    5.67    0.21
   1   3   2    5.41    0.21
   1   3   2    6.03    0.21
   2   3   2    2.65    0.12
   2   3   2    2.40    0.12
   2   3   2    2.53    0.11
   3   3   2   14.34    0.48
  -4  -3  -2    0.65    0.09
   4   3   2    0.56    0.13
   4   3   2    0.48    0.09
   4   3   2    0.68    0.10
  -5  -3  -2    3.83    0.20
   5   3   2    4.06    0.20
   5   3   2    4.18    0.19
   5   3   2    3.85    0.21
  -6  -3  -2    1.96    0.17
   6   3   2    1.99    0.15
   6   3   2    1.77    0.14
   6   3   2    1.85    0.13
   7   3   2   17.73    0.56
   7   3   2   16.01    0.57
   8   3   2    0.08    0.05
   8   3   2    0.07    0.06
   8  -4  -2   17.40    0.58
   8  -4  -2   17.84    0.58
   7  -4  -2   55.20    1.75
   7  -4  -2   56.76    1.75
   6  -4  -2   23.18    0.74
   6  -4  -2   22.09    0.76
   5  -4  -2    0.40    0.07
   5  -4  -2    0.42    0.13
   5  -4  -2    0.35    0.09
   4  -4  -2    4.07    0.17
  -4   4   2    4.00    0.27
   3  -4  -2  123.44    3.84
  -3   4   2  126.28    3.87
   2  -4  -2    0.08    0.05
  -2   4   2    0.16    0.07
  -2   4   2    0.07    0.04
   1  -4  -2   66.66    2.03
  -1   4   2   64.18    2.06
  -1   4   2   66.19    2.05
   0   4   2   59.04    1.87
   0   4   2   60.08    1.86
   1   4   2   68.89    2.13
   1   4   2   67.50    2.11
   2   4   2    1.47    0.09
   2   4   2    1.39    0.12
  -3  -4  -2   10.51    0.38
   3   4   2   11.23    0.38
  -4  -4  -2    1.54    0.14
   4   4   2    1.46    0.16
   4   4   2    1.59    0.12
  -5  -4  -2    6.26    0.26
   5   4   2    6.88    0.27
   5   4   2    6.75    0.27
   6   4   2    3.09    0.17
   6   4   2    2.97    0.19
   6   4   2    3.28    0.17
   7   4   2   12.95    0.44
   7   4   2   12.87    0.45
   7   4   2   13.30    0.44
   6  -5  -2    6.84    0.32
   6  -5  -2    6.78    0.27
   5  -5  -2    2.67    0.16
   5  -5  -2    2.81    0.16
   5  -5  -2    2.84    0.18
   4  -5  -2    1.82    0.12
   4  -5  -2    1.62    0.15
   4  -5  -2    2.07    0.13
   3  -5  -2    3.20    0.15
   3  -5  -2    2.97    0.15
   2  -5  -2    3.26    0.15
  -2   5   2    2.94    0.19
  -1   5   2    0.50    0.12
   0   5   2   17.84    0.61
   1   5   2    3.65    0.20
  -2  -5  -2    0.68    0.12
   2   5   2    0.73    0.08
  -3  -5  -2   23.17    0.77
   3   5   2   24.27    0.77
   4   5   2   10.25    0.36
   4   5   2    9.52    0.37
  -5  -5  -2    1.38    0.14
   5   5   2    1.68    0.15
   5   5   2    1.67    0.13
   6   5   2    4.60    0.21
   7   5   2    2.19    0.15
   6  -6  -2   20.87    0.68
   6  -6  -2   20.67    0.69
   5  -6  -2    9.13    0.36
   5  -6  -2    8.08    0.32
   5  -6  -2    8.44    0.31
   4  -6  -2   26.54    0.86
   4  -6  -2   26.44    0.86
   4  -6  -2   27.41    0.87
   3  -6  -2    6.82    0.26
   3  -6  -2    6.78    0.26
   3  -6  -2    6.70    0.25
   2  -6  -2   18.20    0.60
   2  -6  -2   18.54    0.60
   1  -6  -2    1.89    0.12
   1  -6  -2    1.79    0.12
   0  -6  -2    2.97    0.15
   0  -6  -2    2.98    0.16
   0   6   2    3.17    0.15
  -1  -6  -2    9.06    0.36
  -1  -6  -2   10.15    0.35
   1   6   2   10.51    0.35
  -2  -6  -2    0.06    0.06
   2   6   2    0.13    0.06
   3   6   2    6.67    0.26
  -4  -6  -2    4.31    0.19
  -5  -6  -2    0.23    0.08
   5   6   2    0.26    0.07
   6   6   2    0.16    0.07
   7   6   2    5.64    0.23
   7  -7  -2    3.07    0.16
   6  -7  -2    0.22    0.08
   6  -7  -2    0.22    0.06
   5  -7  -2   15.11    0.51
   5  -7  -2   15.04    0.51
   4  -7  -2    0.07    0.06
   4  -7  -2    0.09    0.06
   3  -7  -2   16.88    0.55
   3  -7  -2   16.58    0.56
   2  -7  -2   18.50    0.61
   2  -7  -2   18.74    0.61
   1  -7  -2    9.33    0.33
   1  -7  -2    9.41    0.33
  -1   7   2    9.52    0.34
   0  -7  -2    1.47    0.13
   0  -7  -2    1.57    0.11
   0   7   2    1.71    0.11
  -1  -7  -2    7.80    0.28
  -1  -7  -2    7.34    0.29
   1   7   2    7.85    0.29
  -2  -7  -2    0.09    0.06
   2   7   2    0.00    0.06
  -3  -7  -2    0.65    0.10
  -4  -7  -2   19.68    0.63
   4   7   2   18.72    0.64
  -5  -7  -2    0.25    0.09
   5   7   2    0.23    0.07
   6   7   2    0.11    0.07
   7  -8  -2    0.16    0.06
   6  -8  -2    4.72    0.21
   5  -8  -2    9.87    0.35
   5  -8  -2    9.53    0.34
   4  -8  -2    0.32    0.06
   4  -8  -2    0.45    0.08
   3  -8  -2   55.01    1.77
   3  -8  -2   55.20    1.78
  -3   8   2   59.99    1.78
   2  -8  -2    0.20    0.06
   2  -8  -2    0.16    0.05
  -2   8   2    0.23    0.08
   1  -8  -2    0.09    0.05
   1  -8  -2    0.13    0.06
  -1   8   2    0.15    0.07
   0  -8  -2    0.09    0.06
   0  -8  -2    0.05    0.06
   0   8   2    0.02    0.07
  -1  -8  -2    0.03    0.05
  -1  -8  -2   -0.01    0.08
   1   8   2    0.07    0.07
  -2  -8  -2    0.78    0.10
   2   8   2    0.50    0.10
  -3  -8  -2    0.07    0.06
   3   8   2    0.03    0.06
  -4  -8  -2    0.03    0.06
   4   8   2    0.13    0.06
   5   8   2    2.42    0.14
   7  -9  -2    0.23    0.07
   6  -9  -2    0.92    0.09
   6  -9  -2    0.69    0.08
   5  -9  -2   13.68    0.46
   4  -9  -2    0.63    0.08
   4  -9  -2    0.82    0.10
   3  -9  -2   14.08    0.48
   3  -9  -2   13.82    0.47
  -3   9   2   13.64    0.49
   2  -9  -2   15.22    0.52
   2  -9  -2   15.37    0.52
  -2   9   2   15.46    0.53
   1  -9  -2    0.58    0.09
   1  -9  -2    0.48    0.09
  -1   9   2    0.45    0.09
   0  -9  -2    4.24    0.18
   0  -9  -2    4.09    0.19
   0   9   2    4.10    0.20
  -1  -9  -2    3.39    0.16
   1   9   2    3.21    0.17
  -2  -9  -2   18.32    0.57
   2   9   2   16.36    0.58
  -3  -9  -2    0.90    0.10
   3   9   2    1.02    0.10
  -4  -9  -2    8.09    0.29
   4   9   2    8.19    0.30
   5   9   2    0.11    0.07
   7 -10  -2    2.28    0.11
   6 -10  -2    0.21    0.05
   6 -10  -2    0.09    0.04
   5 -10  -2    8.63    0.30
   5 -10  -2    8.71    0.30
   4 -10  -2    5.06    0.20
   4 -10  -2    5.20    0.20
   3 -10  -2    0.35    0.08
   3 -10  -2    0.25    0.06
   2 -10  -2    0.31    0.07
   2 -10  -2    0.20    0.05
  -2  10   2    0.27    0.11
   1 -10  -2    1.85    0.11
   1 -10  -2    1.94    0.12
  -1  10   2    1.96    0.16
   0 -10  -2    1.56    0.11
   0  10   2    1.51    0.13
  -1 -10  -2    0.15    0.05
   1  10   2    0.25    0.08
  -2 -10  -2    0.03    0.05
   2  10   2    0.00    0.06
  -3 -10  -2    0.15    0.06
   3  10   2    0.16    0.06
   4  10   2    0.26    0.08
   6 -11  -2    5.36    0.19
   6 -11  -2    5.47    0.19
   5 -11  -2    2.84    0.12
   5 -11  -2    2.88    0.12
   4 -11  -2    3.73    0.15
   4 -11  -2    3.51    0.15
   3 -11  -2    5.04    0.19
   3 -11  -2    5.16    0.20
   2 -11  -2   12.05    0.41
   2 -11  -2   12.29    0.41
   1 -11  -2    1.48    0.09
   1 -11  -2    1.64    0.10
  -1  11   2    1.73    0.17
   0 -11  -2    1.62    0.09
   0  11   2    1.52    0.15
  -1 -11  -2    0.20    0.05
   1  11   2    0.16    0.08
  -2 -11  -2    0.10    0.05
   2  11   2    0.07    0.08
   4 -12  -2    0.44    0.07
   4 -12  -2    0.59    0.06
   3 -12  -2    0.17    0.04
   3 -12  -2    0.26    0.05
   2 -12  -2    0.56    0.06
   2 -12  -2    0.50    0.06
   1 -12  -2    0.04    0.06
   1 -12  -2    0.13    0.04
   0 -12  -2    0.04    0.03
  -1 -12  -2    0.98    0.07
   1 -14   3    0.16    0.06
   2 -14   3    0.15    0.04
   2 -14   3    0.09    0.05
   3 -14   3    0.13    0.04
   3 -14   3    0.19    0.04
   4 -14   3    0.04    0.03
   4 -14   3    0.13    0.03
   0 -13   3    6.21    0.23
   1 -13   3    0.02    0.05
   1 -13   3    0.01    0.06
   2 -13   3    3.13    0.14
   2 -13   3    3.06    0.14
   3 -13   3    0.56    0.07
   3 -13   3    0.53    0.07
   4 -13   3    3.09    0.13
   4 -13   3    3.09    0.13
   5 -13   3    1.16    0.07
   5 -13   3    1.22    0.07
  -1 -12   3    0.51    0.11
   0 -12   3    2.31    0.15
   1 -12   3    0.67    0.10
   1 -12   3    0.81    0.10
   2 -12   3    1.34    0.10
   2 -12   3    1.33    0.11
   4 -12   3    4.67    0.18
   4 -12   3    4.35    0.18
   5 -12   3    5.09    0.20
   5 -12   3    5.35    0.20
   6 -12   3   11.82    0.39
   6 -12   3   11.88    0.39
  -5 -11   3    0.35    0.07
   4  11  -3    0.73    0.11
  -4 -11   3    0.64    0.09
   3  11  -3    0.21    0.08
  -3 -11   3    0.17    0.07
   2  11  -3    5.84    0.26
  -2 -11   3    5.68    0.23
  -1 -11   3    7.83    0.29
  -1 -11   3    7.40    0.29
   0 -11   3    9.62    0.35
   0 -11   3    9.38    0.34
   0 -11   3    9.45    0.35
   1 -11   3    5.53    0.25
   1 -11   3    5.85    0.23
   1 -11   3    5.64    0.23
   2 -11   3    8.76    0.31
   2 -11   3    8.25    0.33
   2 -11   3    8.12    0.31
   3 -11   3    1.46    0.11
   3 -11   3    1.68    0.11
   3 -11   3    1.43    0.16
   4 -11   3    2.03    0.12
   4 -11   3    1.98    0.17
   4 -11   3    2.18    0.12
   5 -11   3   16.20    0.55
   5 -11   3   17.20    0.55
   5 -11   3   16.39    0.56
   6 -11   3    1.33    0.09
   6 -11   3    1.34    0.08
   7 -11   3    0.35    0.06
   7 -11   3    0.44    0.07
  -6 -10   3    0.08    0.05
   5  10  -3    1.29    0.11
  -5 -10   3    1.26    0.09
   4  10  -3    2.94    0.15
  -4 -10   3    3.01    0.15
   3  10  -3    4.53    0.21
  -3 -10   3    4.62    0.19
   2  10  -3   24.41    0.80
  -2 -10   3   24.72    0.80
   1  10  -3    7.31    0.29
  -1 -10   3    7.04    0.28
  -1 -10   3    7.06    0.29
   0 -10   3    0.08    0.07
   0 -10   3   -0.05    0.08
   0 -10   3    0.10    0.08
   1 -10   3   19.85    0.65
   1 -10   3   19.80    0.65
   1 -10   3   20.03    0.66
   2 -10   3   59.59    1.88
   2 -10   3   59.98    1.87
   2 -10   3   60.16    1.87
   3 -10   3   17.78    0.60
   3 -10   3   18.53    0.61
   3 -10   3   17.83    0.60
   4 -10   3    5.50    0.24
   4 -10   3    5.62    0.23
   4 -10   3    5.61    0.23
   5 -10   3    2.99    0.18
   5 -10   3    3.20    0.15
   5 -10   3    3.34    0.15
   6 -10   3   26.21    0.84
   6 -10   3   26.56    0.84
   6 -10   3   25.08    0.83
   7 -10   3    7.75    0.29
   7 -10   3    8.02    0.27
   7 -10   3    7.97    0.28
   8 -10   3    2.38    0.11
  -7  -9   3    0.26    0.06
   6   9  -3    0.06    0.06
  -6  -9   3    0.08    0.05
   5   9  -3    0.65    0.09
  -5  -9   3    0.67    0.09
   4   9  -3    6.48    0.26
  -4  -9   3    6.90    0.26
   3   9  -3    4.00    0.19
  -3  -9   3    3.76    0.19
   2   9  -3   34.93    1.09
  -2  -9   3   33.53    1.09
   1   9  -3    6.98    0.27
  -1  -9   3    6.46    0.28
  -1  -9   3    7.09    0.27
   0  -9   3    0.92    0.14
   0  -9   3    1.07    0.13
   0  -9   3    1.21    0.14
   1  -9   3   17.05    0.57
   1  -9   3   17.06    0.57
   1  -9   3   17.10    0.57
   2  -9   3    5.40    0.22
   2  -9   3    5.43    0.22
   2  -9   3    5.61    0.25
   3  -9   3    1.66    0.12
   3  -9   3    1.61    0.12
   3  -9   3    1.53    0.17
   4  -9   3    9.66    0.36
   4  -9   3    9.55    0.35
   4  -9   3   10.07    0.35
   5  -9   3    7.08    0.28
   5  -9   3    6.68    0.26
   5  -9   3    6.62    0.26
   6  -9   3    2.80    0.15
   6  -9   3    3.15    0.15
   6  -9   3    2.95    0.17
   7  -9   3    0.17    0.06
   7  -9   3    0.32    0.07
   7  -9   3    0.40    0.08
   8  -9   3    0.32    0.07
   7   8  -3    0.22    0.06
  -7  -8   3    0.10    0.04
   6   8  -3    0.22    0.06
   5   8  -3    2.25    0.13
   4   8  -3    0.07    0.07
   3   8  -3    0.09    0.07
   2   8  -3    0.05    0.06
  -2  -8   3    0.13    0.08
   1   8  -3    3.35    0.15
  -1  -8   3    2.63    0.16
   0   8  -3   15.73    0.54
   0  -8   3   15.91    0.53
   0  -8   3   15.35    0.53
   0  -8   3   15.80    0.53
   1  -8   3    4.87    0.21
   1  -8   3    4.92    0.23
   1  -8   3    4.76    0.21
   2  -8   3    7.10    0.27
   2  -8   3    7.34    0.29
   2  -8   3    7.17    0.27
   3  -8   3   27.18    0.91
   3  -8   3   28.67    0.91
   3  -8   3   28.95    0.91
   4  -8   3   15.98    0.55
   5  -8   3   10.09    0.38
   5  -8   3   10.33    0.37
   5  -8   3   10.05    0.36
   6  -8   3   11.21    0.40
   6  -8   3   11.47    0.41
   6  -8   3   11.37    0.40
   7  -8   3   57.12    1.75
   7  -8   3   55.14    1.78
   8  -8   3   11.31    0.37
   8  -8   3   10.77    0.38
   9  -8   3    5.06    0.22
  -8  -7   3    0.05    0.04
   7   7  -3    1.30    0.14
   7   7  -3    1.49    0.11
   6   7  -3    0.16    0.11
   6   7  -3    0.21    0.07
   5   7  -3    3.86    0.21
   5   7  -3    3.29    0.17
   4   7  -3   17.98    0.58
   4   7  -3   16.37    0.60
   3   7  -3    1.30    0.11
   2   7  -3    1.18    0.10
   1   7  -3   40.50    1.37
   1   7  -3   44.28    1.33
   0   7  -3   56.77    1.75
   0   7  -3   52.60    1.70
  -1   7  -3    1.63    0.16
  -2   7  -3   11.07    0.44
   3  -7   3    1.69    0.12
   3  -7   3    1.71    0.12
   3  -7   3    1.69    0.15
   4  -7   3    0.36    0.08
   4  -7   3    0.26    0.06
   4  -7   3    0.32    0.06
   5  -7   3    6.09    0.25
   5  -7   3    6.02    0.24
   5  -7   3    5.85    0.28
   5  -7   3    6.13    0.24
   6  -7   3    5.31    0.23
   6  -7   3    5.31    0.23
   6  -7   3    5.43    0.22
   6  -7   3    5.42    0.25
   7  -7   3    2.79    0.22
   7  -7   3    2.80    0.15
   7  -7   3    2.82    0.18
   7  -7   3    2.71    0.15
   8  -7   3    0.56    0.10
   8  -7   3    0.56    0.08
   8  -7   3    0.37    0.09
   9  -7   3    0.76    0.07
   8   6  -3    0.72    0.09
   7   6  -3    0.40    0.08
   7   6  -3    0.34    0.07
   6   6  -3    0.15    0.06
   6   6  -3    0.13    0.08
   5   6  -3    2.40    0.13
   5   6  -3    2.24    0.17
   4   6  -3    1.38    0.10
   4   6  -3    1.24    0.17
   3   6  -3    0.78    0.09
   2   6  -3    0.29    0.06
   2   6  -3    0.12    0.08
   1   6  -3   10.04    0.37
   1   6  -3    9.91    0.34
   0   6  -3   48.84    1.55
  -1   6  -3    0.35    0.09
  -2   6  -3   18.65    0.63
  -3   6  -3    0.16    0.10
  -4   6  -3   32.96    1.18
   4  -6   3   36.16    1.14
   4  -6   3   36.48    1.13
   4  -6   3   35.76    1.12
   4  -6   3   35.51    1.12
   5  -6   3    6.85    0.29
   5  -6   3    7.27    0.28
   5  -6   3    7.17    0.28
   5  -6   3    7.41    0.28
   6  -6   3    0.35    0.07
   6  -6   3    0.46    0.09
   6  -6   3    0.62    0.11
   6  -6   3    0.60    0.09
   7  -6   3    1.56    0.14
   7  -6   3    1.45    0.12
   8  -6   3    2.59    0.13
   8  -6   3    2.52    0.14
   8  -6   3    2.41    0.14
   9  -6   3    2.50    0.12
   9  -6   3    2.39    0.12
   9   5  -3    2.66    0.13
   8   5  -3    5.25    0.21
   8   5  -3    4.94    0.20
   7   5  -3    0.11    0.06
   7   5  -3    0.02    0.05
   7   5  -3    0.09    0.06
   6   5  -3    9.69    0.35
   6   5  -3    9.13    0.35
   6   5  -3    9.46    0.35
   5   5  -3    0.62    0.13
   5   5  -3    0.50    0.08
   5   5  -3    0.53    0.12
   4   5  -3    3.64    0.18
   4   5  -3    3.58    0.19
   4   5  -3    3.70    0.16
   3   5  -3    5.08    0.19
   3   5  -3    5.29    0.24
  -3  -5   3    4.10    0.26
   2   5  -3    2.40    0.14
   2   5  -3    2.38    0.11
  -2  -5   3    2.20    0.15
   1   5  -3   40.47    1.23
  -1  -5   3   37.06    1.23
   0   5  -3   42.66    1.33
   0  -5   3   41.77    1.33
  -1   5  -3   20.31    0.66
   1  -5   3   19.99    0.66
  -2   5  -3    3.21    0.15
   2  -5   3    3.03    0.16
  -3   5  -3   12.27    0.42
   3  -5   3   11.32    0.43
  -4   5  -3   49.77    1.59
   4  -5   3   50.41    1.57
   4  -5   3   49.68    1.57
   5  -5   3    0.29    0.08
   5  -5   3    0.41    0.08
   5  -5   3    0.29    0.07
   5  -5   3    0.33    0.08
   6  -5   3   11.88    0.42
   6  -5   3   11.32    0.41
   6  -5   3   11.69    0.42
   7  -5   3   -0.01    0.07
   7  -5   3    0.13    0.07
   7  -5   3    0.07    0.06
   8  -5   3    3.17    0.16
   8  -5   3    3.41    0.16
   8  -5   3    3.01    0.16
   9  -5   3    0.59    0.07
   9  -5   3    0.53    0.07
   8   4  -3    0.47    0.10
   8   4  -3    0.31    0.07
   8   4  -3    0.39    0.08
   7   4  -3    0.69    0.10
   7   4  -3    0.86    0.10
   7   4  -3    0.73    0.10
   6   4  -3   20.15    0.67
   6   4  -3   19.53    0.67
   6   4  -3   20.63    0.67
   5   4  -3    3.95    0.19
   5   4  -3    3.76    0.18
   5   4  -3    4.00    0.17
   4   4  -3  154.76    4.75
   4   4  -3  153.40    4.75
   4   4  -3  155.46    4.75
   3   4  -3  112.70    3.48
   3   4  -3  115.45    3.50
  -3  -4   3  111.32    3.50
   2   4  -3    1.26    0.08
   2   4  -3    1.19    0.09
   1   4  -3   14.20    0.47
  -1  -4   3   14.45    0.48
   0   4  -3    7.87    0.27
   0  -4   3    7.21    0.27
  -1   4  -3   14.93    0.51
   1  -4   3   16.05    0.51
  -2   4  -3    1.26    0.08
   2  -4   3    1.48    0.09
  -3   4  -3   21.93    0.71
   3  -4   3   21.69    0.71
  -4   4  -3    0.33    0.07
   5  -4   3   32.47    1.01
   5  -4   3   30.27    1.01
   5  -4   3   31.55    1.01
   5  -4   3   31.37    1.01
   6  -4   3    6.58    0.26
   6  -4   3    6.78    0.27
   7  -4   3    2.12    0.14
   7  -4   3    1.90    0.14
   7  -4   3    1.89    0.13
   9  -4   3    5.03    0.19
   9  -4   3    4.64    0.19
   9   3  -3    4.04    0.16
   8   3  -3    0.53    0.08
   8   3  -3    0.46    0.08
   8   3  -3    0.53    0.10
   7   3  -3    0.02    0.05
   7   3  -3    0.02    0.06
   7   3  -3    0.02    0.06
   6   3  -3    0.50    0.10
   6   3  -3    0.57    0.09
   6   3  -3    0.54    0.10
   5   3  -3    4.47    0.19
   5   3  -3    4.38    0.20
   5   3  -3    4.27    0.19
   4   3  -3   36.97    1.40
   4   3  -3   44.83    1.35
  -4  -3   3   44.98    1.35
   3   3  -3    3.65    0.15
   3   3  -3    3.92    0.16
  -3  -3   3    3.71    0.17
   2   3  -3   44.25    1.38
  -2  -3   3   44.30    1.39
   1   3  -3    4.73    0.17
  -1  -3   3    4.75    0.18
   0   3  -3    1.42    0.07
   0  -3   3    1.41    0.08
  -1   3  -3    0.28    0.04
   1  -3   3    0.32    0.04
  -2   3  -3    1.15    0.07
   2  -3   3    1.27    0.07
  -3   3  -3    0.88    0.06
   3  -3   3    0.88    0.07
  -4   3  -3   70.74    2.18
   5  -3   3   33.58    1.09
   5  -3   3   34.51    1.09
   5  -3   3   34.35    1.09
   6  -3   3   47.10    1.48
   6  -3   3   45.98    1.47
   7  -3   3    5.15    0.22
   7  -3   3    5.22    0.23
   7  -3   3    5.11    0.22
   8  -3   3    7.17    0.28
   8  -3   3    6.86    0.28
   9  -3   3    1.75    0.10
   9  -3   3    2.02    0.10
   9   2  -3    0.67    0.07
   9   2  -3    0.64    0.14
   9   2  -3    0.64    0.07
   8   2  -3    0.41    0.09
   8   2  -3    0.28    0.08
   8   2  -3    0.13    0.05
   7   2  -3    8.44    0.32
   7   2  -3    8.59    0.32
   7   2  -3    8.73    0.32
   6   2  -3   18.19    0.60
   6   2  -3   17.35    0.66
   5   2  -3    5.38    0.21
   5   2  -3    5.23    0.22
   5   2  -3    5.65    0.23
   4   2  -3    0.40    0.07
   4   2  -3    0.36    0.07
  -4  -2   3    0.40    0.09
   3   2  -3   90.07    2.80
   3   2  -3   91.64    2.81
  -3  -2   3   91.08    2.81
   2   2  -3   55.39    1.69
  -2  -2   3   53.56    1.69
   1   2  -3  145.06    4.56
  -1  -2   3  151.54    4.59
   0   2  -3  195.45    6.33
   0  -2   3  216.23    6.39
  -1   2  -3    2.28    0.10
   1  -2   3    2.62    0.10
  -2   2  -3    6.38    0.22
   2  -2   3    6.51    0.22
  -3   2  -3    5.08    0.17
   5  -2   3    3.58    0.17
   5  -2   3    3.75    0.18
   5  -2   3    3.80    0.18
   6  -2   3   15.35    0.53
   6  -2   3   14.91    0.52
   6  -2   3   15.73    0.53
   7  -2   3    0.41    0.10
   7  -2   3    0.50    0.10
   8  -2   3    0.10    0.07
   9  -2   3    0.06    0.04
   9  -2   3    0.12    0.04
   9   1  -3    0.06    0.04
   9   1  -3    0.03    0.04
   9   1  -3    0.12    0.11
   8   1  -3    5.91    0.25
   8   1  -3    6.39    0.24
   8   1  -3    6.28    0.24
   7   1  -3    0.71    0.10
   7   1  -3    0.81    0.10
   6   1  -3    6.31    0.24
   6   1  -3    5.91    0.24
   6   1  -3    6.02    0.25
   5   1  -3    8.91    0.32
   5   1  -3    8.56    0.32
   5   1  -3    8.74    0.31
   4   1  -3   26.32    0.92
   4   1  -3   29.61    0.89
  -4  -1   3   28.71    0.91
   3   1  -3    6.45    0.23
   3   1  -3    6.70    0.24
  -3  -1   3    6.98    0.24
   2   1  -3   73.88    2.35
  -2  -1   3   78.74    2.36
   1   1  -3   23.22    0.76
  -1  -1   3   24.88    0.76
   0   1  -3  529.11   17.33
   0  -1   3  600.95   17.34
  -1   1  -3   56.51    1.78
   1  -1   3   59.39    1.78
  -2   1  -3   15.49    0.50
   2  -1   3   16.63    0.50
   5  -1   3   42.49    1.34
   5  -1   3   41.71    1.34
   5  -1   3   43.11    1.34
   6  -1   3    2.03    0.13
   6  -1   3    1.87    0.13
   7  -1   3    3.49    0.18
   7  -1   3    3.72    0.18
  -8   1  -3   10.99    0.42
   8  -1   3   10.30    0.37
   8  -1   3   10.66    0.38
   9  -1   3    4.09    0.16
   9  -1   3    4.17    0.16
   9   0  -3    0.25    0.05
   9   0  -3    0.36    0.06
   8   0  -3    6.98    0.26
   8   0  -3    6.54    0.27
   8   0  -3    6.75    0.26
   7   0  -3   27.27    0.91
   7   0  -3   28.05    0.91
   7   0  -3   29.31    0.93
   6   0  -3   50.53    1.60
   6   0  -3   51.06    1.60
   6   0  -3   51.03    1.60
   5   0  -3   34.68    1.13
   5   0  -3   36.74    1.13
   5   0  -3   35.70    1.13
   4   0  -3    7.96    0.27
  -4   0   3    7.57    0.30
   3   0  -3   56.58    1.78
   3   0  -3   57.28    1.80
  -3   0   3   59.01    1.80
   2   0  -3   51.17    1.65
  -2   0   3   54.88    1.65
   1   0  -3    1.33    0.07
  -1   0   3    1.31    0.07
   0   0  -3    2.78    0.11
   0   0   3    3.00    0.11
  -1   0  -3   81.33    2.55
   1   0   3   84.61    2.55
   2   0   3    2.88    0.10
   4   0   3    5.84    0.23
   5   0   3   25.65    0.82
   5   0   3   24.94    0.82
   5   0   3   25.31    0.82
   6   0   3    0.07    0.06
   6   0   3    0.21    0.07
   7   0   3    2.95    0.15
   7   0   3    2.78    0.16
   8   0   3    1.84    0.11
   8   0   3    1.96    0.11
   9   0   3    0.71    0.07
   9   0   3    0.64    0.07
  10  -1  -3    0.66    0.07
   9  -1  -3    1.55    0.10
   9  -1  -3    1.51    0.10
   8  -1  -3    1.94    0.13
   8  -1  -3    1.95    0.12
   8  -1  -3    1.87    0.14
   7  -1  -3    0.82    0.13
   7  -1  -3    0.84    0.11
   7  -1  -3    1.00    0.12
   6  -1  -3    0.87    0.13
   6  -1  -3    1.00    0.10
   6  -1  -3    0.98    0.12
   5  -1  -3    3.80    0.16
   5  -1  -3    3.62    0.19
  -5   1   3    3.95    0.28
   4  -1  -3   25.62    0.79
  -4   1   3   23.64    0.81
   3  -1  -3   49.36    1.52
  -3   1   3   48.29    1.53
   2  -1  -3   93.69    2.96
  -2   1   3   98.28    2.96
   1  -1  -3    6.59    0.23
  -1   1   3    6.77    0.23
   0  -1  -3    0.05    0.02
   0   1   3    0.06    0.02
   1   1   3  188.23    5.77
   2   1   3    5.93    0.20
   2   1   3    6.47    0.21
   3   1   3    0.10    0.06
   4   1   3    3.84    0.18
   5   1   3    8.59    0.32
   5   1   3    8.34    0.32
   5   1   3    8.16    0.31
   6   1   3   16.37    0.56
   6   1   3   17.08    0.57
   6   1   3   16.57    0.57
  -7  -1  -3    0.76    0.13
   7   1   3    0.92    0.11
   7   1   3    0.67    0.10
   8   1   3    1.21    0.09
   8   1   3    1.19    0.10
   9   1   3    0.00    0.04
   9   1   3    0.01    0.04
   9  -2  -3    9.52    0.32
   9  -2  -3    9.23    0.32
   8  -2  -3   20.06    0.73
   8  -2  -3   22.64    0.69
   8  -2  -3   20.21    0.69
   7  -2  -3    7.93    0.29
   7  -2  -3    7.59    0.28
   7  -2  -3    6.56    0.33
   6  -2  -3   16.50    0.54
   6  -2  -3   16.45    0.55
   6  -2  -3   15.85    0.55
   5  -2  -3   61.50    1.83
   5  -2  -3   57.25    1.83
  -5   2   3   57.20    1.88
   4  -2  -3   27.07    0.88
  -4   2   3   28.28    0.92
   3  -2  -3   34.60    1.07
  -3   2   3   33.44    1.09
   2  -2  -3    0.79    0.06
  -2   2   3    0.91    0.08
  -1   2   3   42.85    1.35
   0   2   3   11.41    0.38
   1   2   3    0.11    0.04
   1   2   3    0.11    0.03
   2   2   3    2.95    0.12
   2   2   3    3.02    0.13
   2   2   3    3.07    0.13
   3   2   3    3.84    0.17
   4   2   3   16.11    0.56
   4   2   3   16.55    0.54
   4   2   3   16.03    0.55
  -5  -2  -3    0.04    0.07
   5   2   3    0.05    0.08
   5   2   3    0.08    0.08
   5   2   3    0.08    0.08
  -6  -2  -3    7.19    0.28
   6   2   3    6.63    0.30
   6   2   3    7.02    0.28
   6   2   3    7.42    0.28
  -7  -2  -3   10.04    0.39
   7   2   3   11.76    0.39
   7   2   3   11.46    0.39
   8   2   3    1.19    0.09
   8   2   3    1.72    0.10
   9  -3  -3    2.84    0.14
   8  -3  -3    1.52    0.12
   7  -3  -3    0.14    0.08
   7  -3  -3    0.16    0.07
   6  -3  -3    0.13    0.07
   6  -3  -3    0.21    0.11
   5  -3  -3   21.46    0.70
   4  -3  -3    0.14    0.06
  -4   3   3    0.13    0.10
   3  -3  -3   15.64    0.51
  -3   3   3   15.64    0.55
   2  -3  -3   31.92    1.03
  -2   3   3   32.25    1.06
  -2   3   3   33.90    1.05
   1  -3  -3   61.24    1.94
  -1   3   3   61.58    1.96
  -1   3   3   65.25    1.96
   0   3   3    0.78    0.08
   0   3   3    0.87    0.10
   1   3   3   13.16    0.46
   1   3   3   14.16    0.47
   2   3   3   14.79    0.49
   2   3   3   14.96    0.49
  -3  -3  -3    0.27    0.07
   3   3   3    0.29    0.07
  -4  -3  -3    5.35    0.22
   4   3   3    5.43    0.22
   4   3   3    5.04    0.25
  -5  -3  -3    3.09    0.16
   5   3   3    2.87    0.20
   5   3   3    3.12    0.17
   5   3   3    2.97    0.18
  -6  -3  -3    6.41    0.25
   6   3   3    6.35    0.26
   6   3   3    6.43    0.25
   6   3   3    5.99    0.26
   7   3   3   -0.07    0.06
   7   3   3   -0.03    0.07
   7   3   3   -0.02    0.11
   7  -4  -3    4.18    0.21
   6  -4  -3    2.65    0.16
   5  -4  -3   18.15    0.60
   5  -4  -3   18.24    0.60
   4  -4  -3   16.29    0.53
   4  -4  -3   15.74    0.53
   3  -4  -3    5.74    0.22
  -3   4   3    5.68    0.28
   2  -4  -3    7.34    0.27
  -2   4   3    7.57    0.31
   1  -4  -3   10.59    0.36
  -1   4   3   10.65    0.39
   0   4   3    0.07    0.07
   0   4   3   -0.03    0.09
   1   4   3   17.88    0.60
   1   4   3   18.12    0.58
   1   4   3   17.56    0.62
  -2  -4  -3    0.28    0.07
   2   4   3    0.24    0.06
  -3  -4  -3    4.20    0.19
   3   4   3    4.38    0.19
   4   4   3    3.77    0.18
  -5  -4  -3   11.87    0.41
   5   4   3   11.64    0.42
   5   4   3   11.80    0.45
  -6  -4  -3    2.13    0.15
   6   4   3    2.40    0.15
   6   4   3    2.10    0.22
   7   4   3    1.58    0.16
   6  -5  -3   12.88    0.51
   6  -5  -3   11.69    0.43
   5  -5  -3   61.76    2.03
   5  -5  -3   68.53    2.04
   4  -5  -3   91.36    2.87
   4  -5  -3   91.32    2.86
   4  -5  -3   95.39    2.87
   3  -5  -3    0.42    0.08
   3  -5  -3    0.39    0.09
   3  -5  -3    0.40    0.08
   2  -5  -3    4.97    0.21
   2  -5  -3    4.96    0.20
   2  -5  -3    4.78    0.20
   1  -5  -3   21.80    0.70
   1  -5  -3   21.46    0.70
   0  -5  -3   10.67    0.36
   0   5   3   10.35    0.43
  -1  -5  -3    1.21    0.11
   1   5   3    1.22    0.09
   1   5   3    0.95    0.21
  -2  -5  -3    2.86    0.15
   2   5   3    3.02    0.15
  -3  -5  -3   25.67    0.84
   3   5   3   26.43    0.85
  -4  -5  -3    4.07    0.19
   4   5   3    4.56    0.20
  -5  -5  -3    3.43    0.16
   5   5   3    3.32    0.18
  -6  -5  -3    3.63    0.17
   6   5   3    3.62    0.18
   7   5   3    0.17    0.11
   6  -6  -3    5.29    0.23
   6  -6  -3    5.70    0.30
   5  -6  -3    3.42    0.18
   5  -6  -3    2.80    0.18
   5  -6  -3    3.19    0.16
   4  -6  -3    6.62    0.25
   4  -6  -3    6.26    0.28
   4  -6  -3    7.02    0.27
   3  -6  -3    5.46    0.22
   3  -6  -3    5.14    0.21
   3  -6  -3    5.39    0.22
   2  -6  -3   11.59    0.40
   2  -6  -3   11.63    0.40
   1  -6  -3    7.03    0.26
   1  -6  -3    6.67    0.25
   0  -6  -3    7.45    0.28
   0  -6  -3    7.51    0.28
   0   6   3    7.53    0.28
  -1  -6  -3    0.46    0.08
  -1  -6  -3    0.51    0.09
   1   6   3    0.71    0.09
  -2  -6  -3   21.04    0.73
   2   6   3   22.36    0.72
  -3  -6  -3    3.69    0.18
   3   6   3    3.83    0.18
  -4  -6  -3    0.06    0.06
   4   6   3    0.07    0.07
  -5  -6  -3    3.33    0.15
   5   6   3    3.32    0.17
   6   6   3    2.80    0.16
   7  -7  -3   13.75    0.46
   6  -7  -3    8.26    0.36
   6  -7  -3    8.34    0.30
   5  -7  -3    6.26    0.25
   5  -7  -3    6.02    0.24
   4  -7  -3   35.25    1.13
   4  -7  -3   35.81    1.13
   3  -7  -3   20.40    0.67
   3  -7  -3   20.19    0.66
   2  -7  -3    0.29    0.07
   2  -7  -3    0.34    0.06
   1  -7  -3    4.90    0.23
   1  -7  -3    5.08    0.22
  -1   7   3    4.93    0.21
   0  -7  -3   15.94    0.52
   0  -7  -3   15.20    0.52
   0   7   3   15.47    0.53
  -1  -7  -3    0.49    0.09
  -1  -7  -3    0.39    0.08
   1   7   3    0.38    0.08
  -2  -7  -3    4.70    0.21
   2   7   3    5.31    0.22
  -3  -7  -3    6.73    0.25
   3   7   3    6.27    0.26
  -4  -7  -3   12.47    0.40
   4   7   3   10.91    0.41
  -5  -7  -3    3.63    0.16
   5   7   3    3.63    0.17
   6   7   3    0.04    0.08
   7  -8  -3    0.04    0.06
   6  -8  -3    0.32    0.06
   6  -8  -3    0.35    0.07
   5  -8  -3   12.26    0.42
   5  -8  -3   12.27    0.42
   4  -8  -3   25.58    0.84
   4  -8  -3   26.57    0.85
   3  -8  -3    2.67    0.14
   3  -8  -3    3.00    0.15
   2  -8  -3    1.84    0.12
   2  -8  -3    1.64    0.11
  -2   8   3    1.96    0.15
   1  -8  -3    9.60    0.35
   1  -8  -3    9.90    0.35
  -1   8   3    9.98    0.36
   0  -8  -3   -0.02    0.06
   0  -8  -3    0.10    0.06
  -1  -8  -3    0.18    0.06
  -1  -8  -3    0.22    0.08
   1   8   3    0.08    0.07
  -2  -8  -3    1.97    0.12
   2   8   3    2.05    0.13
  -3  -8  -3   20.35    0.62
   3   8   3   17.42    0.63
  -4  -8  -3    6.10    0.23
   4   8   3    6.23    0.24
   5   8   3    0.45    0.09
   7  -9  -3    7.21    0.25
   6  -9  -3    6.12    0.22
   6  -9  -3    5.80    0.22
   5  -9  -3    0.25    0.06
   5  -9  -3    0.16    0.05
   4  -9  -3   10.77    0.37
   4  -9  -3   10.87    0.38
   3  -9  -3    3.58    0.16
   3  -9  -3    3.77    0.17
  -3   9   3    3.60    0.20
   2  -9  -3   25.13    0.80
   2  -9  -3   24.90    0.80
  -2   9   3   24.30    0.81
   1  -9  -3    1.40    0.11
   1  -9  -3    1.70    0.11
  -1   9   3    1.36    0.13
   0  -9  -3    0.25    0.06
   0  -9  -3    0.22    0.06
   0   9   3    0.24    0.08
  -1  -9  -3    1.23    0.10
   1   9   3    1.16    0.12
  -2  -9  -3    9.91    0.34
   2   9   3    9.37    0.35
  -3  -9  -3    1.97    0.11
   3   9   3    1.82    0.12
  -4  -9  -3    2.05    0.12
   4   9   3    2.27    0.13
   6 -10  -3    6.76    0.25
   6 -10  -3    6.35    0.23
   5 -10  -3    4.44    0.17
   5 -10  -3    4.70    0.18
   4 -10  -3    3.27    0.14
   4 -10  -3    3.21    0.15
   3 -10  -3    6.48    0.24
   3 -10  -3    6.60    0.24
   2 -10  -3    0.35    0.07
   2 -10  -3    0.33    0.07
  -2  10   3    0.32    0.11
   1 -10  -3    4.93    0.20
   1 -10  -3    5.12    0.20
  -1  10   3    4.92    0.23
   0 -10  -3    4.84    0.19
   0 -10  -3    4.59    0.19
   0  10   3    4.68    0.21
  -1 -10  -3    0.04    0.04
   1  10   3    0.05    0.07
  -2 -10  -3    0.01    0.04
   2  10   3    0.00    0.06
  -3 -10  -3    0.17    0.05
   3  10   3    0.06    0.07
   5 -11  -3    4.57    0.17
   5 -11  -3    4.61    0.17
   4 -11  -3    0.32    0.06
   4 -11  -3    0.23    0.05
   3 -11  -3    3.94    0.15
   3 -11  -3    3.66    0.15
   2 -11  -3    0.06    0.04
   2 -11  -3    0.10    0.04
   1 -11  -3    0.29    0.07
   1 -11  -3    0.34    0.06
  -1  11   3    0.32    0.12
   0 -11  -3    4.57    0.18
   0  11   3    4.84    0.22
  -1 -11  -3    0.86    0.07
   1  11   3    0.91    0.14
  -2 -11  -3    0.01    0.04
   3 -12  -3    0.10    0.03
   3 -12  -3    0.23    0.05
   2 -12  -3    0.06    0.03
   2 -12  -3   -0.03    0.04
   1 -12  -3    0.16    0.03
   2 -14   4    0.62    0.08
   3 -14   4    1.11    0.09
   4 -14   4    0.59    0.05
   4 -14   4    0.48    0.05
   0 -13   4    0.02    0.10
   1 -13   4    2.04    0.12
   1 -13   4    2.37    0.13
   2 -13   4   -0.02    0.04
   2 -13   4    0.03    0.05
   3 -13   4    0.04    0.04
   3 -13   4   -0.01    0.03
   4 -13   4    0.04    0.03
   4 -13   4   -0.01    0.03
   5 -13   4    0.28    0.05
   5 -13   4    0.37    0.05
   6 -13   4    0.77    0.06
   6 -13   4    0.81    0.06
  -4 -12   4    1.81    0.11
  -3 -12   4    1.20    0.10
  -2 -12   4    3.69    0.17
  -1 -12   4    7.22    0.27
   1 -12   4    2.52    0.15
   1 -12   4    2.70    0.15
   1 -12   4    3.39    0.17
   2 -12   4   11.73    0.40
   2 -12   4   11.50    0.40
   3 -12   4    0.03    0.04
   3 -12   4    0.10    0.08
   3 -12   4    0.07    0.05
   4 -12   4    2.49    0.12
   4 -12   4    2.33    0.15
   4 -12   4    2.62    0.13
   5 -12   4    1.33    0.08
   5 -12   4    1.37    0.08
   5 -12   4    1.41    0.14
   6 -12   4    7.13    0.25
   6 -12   4    7.35    0.25
   7 -12   4    0.92    0.06
   5  11  -4    6.64    0.30
  -5 -11   4    6.30    0.25
   4  11  -4    0.22    0.08
  -4 -11   4    0.05    0.04
   3  11  -4    4.03    0.20
  -3 -11   4    4.33    0.18
  -2 -11   4    0.08    0.06
  -1 -11   4    0.46    0.08
   0 -11   4    4.95    0.21
   0 -11   4    5.15    0.22
   0 -11   4    5.01    0.23
   1 -11   4   25.17    0.81
   1 -11   4   24.64    0.80
   1 -11   4   24.35    0.80
   2 -11   4    3.25    0.16
   2 -11   4    3.09    0.15
   2 -11   4    3.38    0.18
   3 -11   4    6.04    0.23
   3 -11   4    5.76    0.25
   3 -11   4    5.58    0.23
   4 -11   4    3.11    0.15
   4 -11   4    3.18    0.16
   4 -11   4    3.41    0.18
   5 -11   4    0.03    0.07
   5 -11   4    0.06    0.05
   5 -11   4   -0.01    0.06
   6 -11   4    0.34    0.06
   6 -11   4    0.38    0.10
   6 -11   4    0.39    0.06
   7 -11   4    3.89    0.17
   7 -11   4    4.08    0.15
   7 -11   4    3.85    0.15
   6  10  -4    2.11    0.13
  -6 -10   4    2.25    0.11
  -5 -10   4    0.82    0.08
   4  10  -4    0.60    0.10
   3  10  -4    0.29    0.08
  -3 -10   4    0.47    0.09
  -2 -10   4    3.11    0.16
  -1 -10   4    4.91    0.21
   0 -10   4    0.14    0.07
   0 -10   4    0.16    0.09
   0 -10   4    0.05    0.08
   1 -10   4    0.08    0.07
   1 -10   4    0.06    0.06
   1 -10   4   -0.05    0.06
   2 -10   4    3.98    0.18
   2 -10   4    3.89    0.20
   2 -10   4    4.24    0.19
   3 -10   4   89.37    2.77
   3 -10   4   87.72    2.76
   3 -10   4   89.80    2.76
   4 -10   4    6.95    0.26
   4 -10   4    6.93    0.28
   4 -10   4    6.61    0.26
   5 -10   4   -0.01    0.05
   5 -10   4    0.03    0.05
   5 -10   4    0.05    0.07
   6 -10   4    5.75    0.22
   6 -10   4    5.92    0.24
   6 -10   4    5.93    0.23
   7 -10   4    6.36    0.23
   7 -10   4    6.64    0.24
   7 -10   4    6.26    0.23
   8 -10   4    0.01    0.04
   8 -10   4   -0.01    0.07
  -7  -9   4    0.52    0.06
   6   9  -4    2.43    0.13
  -6  -9   4    2.24    0.12
   5   9  -4    0.02    0.06
   4   9  -4   -0.01    0.06
  -4  -9   4    0.07    0.06
   3   9  -4   26.15    0.82
  -3  -9   4   24.34    0.82
  -2  -9   4    0.73    0.11
   1   9  -4    0.91    0.14
  -1  -9   4    1.00    0.11
   0  -9   4    1.50    0.16
   0  -9   4    1.43    0.13
   0  -9   4    1.27    0.14
   1  -9   4    1.05    0.12
   1  -9   4    0.91    0.13
   1  -9   4    1.02    0.12
   2  -9   4    1.23    0.13
   2  -9   4    1.15    0.12
   2  -9   4    1.05    0.11
   3  -9   4   16.21    0.55
   3  -9   4   15.50    0.53
   3  -9   4   15.30    0.53
   4  -9   4   34.38    1.09
   4  -9   4   33.93    1.10
   5  -9   4    1.52    0.11
   5  -9   4    1.33    0.13
   5  -9   4    1.27    0.11
   6  -9   4    1.99    0.14
   6  -9   4    2.03    0.12
   7  -9   4    0.40    0.07
   7  -9   4    0.39    0.08
   7  -9   4    0.44    0.09
   8  -9   4    9.10    0.31
   8  -9   4    8.90    0.31
   7   8  -4    0.20    0.06
  -7  -8   4    0.31    0.06
   6   8  -4    0.12    0.06
   5   8  -4    3.36    0.21
   5   8  -4    3.22    0.16
   4   8  -4    0.66    0.10
   3   8  -4    1.91    0.13
   2   8  -4    1.93    0.14
  -2  -8   4    1.67    0.13
  -1  -8   4    3.64    0.17
   0  -8   4    1.28    0.15
   0  -8   4    1.14    0.12
   1  -8   4    3.75    0.18
   1  -8   4    3.85    0.19
   1  -8   4    3.95    0.20
   2  -8   4   17.58    0.57
   2  -8   4   17.09    0.57
   2  -8   4   17.34    0.58
   3  -8   4    8.98    0.33
   3  -8   4    9.01    0.34
   3  -8   4    9.26    0.33
   4  -8   4    5.10    0.23
   5  -8   4    3.41    0.17
   5  -8   4    3.43    0.17
   5  -8   4    3.25    0.25
   5  -8   4    3.40    0.18
   6  -8   4   21.21    0.73
   6  -8   4   22.97    0.73
   6  -8   4   21.92    0.72
   6  -8   4   22.07    0.73
   7  -8   4    0.00    0.05
   7  -8   4    0.11    0.06
   7  -8   4    0.04    0.06
   7  -8   4   -0.20    0.08
   8  -8   4    0.41    0.07
   8  -8   4    0.54    0.07
   9  -8   4    1.31    0.08
  -8  -7   4    2.85    0.12
   7   7  -4    0.09    0.05
   7   7  -4    0.07    0.07
   6   7  -4    2.97    0.17
   6   7  -4    2.96    0.15
   5   7  -4    0.75    0.14
   5   7  -4    0.64    0.09
   4   7  -4    0.08    0.10
   4   7  -4    0.26    0.06
   3   7  -4    1.09    0.10
   3   7  -4    1.01    0.19
   2   7  -4    9.14    0.32
   1   7  -4   11.71    0.40
  -1  -7   4   11.97    0.41
   0   7  -4    0.12    0.07
  -1   7  -4   39.49    1.28
  -2   7  -4   14.71    0.57
   2  -7   4   12.50    0.45
   2  -7   4   12.33    0.44
   3  -7   4   24.47    0.80
   3  -7   4   24.59    0.79
   3  -7   4   24.07    0.79
   4  -7   4    0.23    0.11
   4  -7   4    0.20    0.06
   4  -7   4    0.19    0.07
   4  -7   4    0.18    0.06
   5  -7   4   69.51    2.15
   5  -7   4   67.32    2.17
   5  -7   4   70.25    2.17
   5  -7   4   69.45    2.16
   6  -7   4    1.67    0.12
   6  -7   4    1.51    0.13
   6  -7   4    1.47    0.15
   6  -7   4    1.63    0.13
   7  -7   4   12.71    0.45
   7  -7   4   12.93    0.44
   7  -7   4   12.68    0.45
   8  -7   4    1.95    0.11
   8  -7   4    1.75    0.12
   8  -7   4    1.86    0.11
   9  -7   4    2.83    0.12
   8   6  -4   13.06    0.43
   8   6  -4   12.60    0.42
   7   6  -4    4.16    0.18
   7   6  -4    4.05    0.18
   6   6  -4   48.98    1.49
   6   6  -4   45.18    1.49
   5   6  -4    1.44    0.14
   5   6  -4    1.19    0.10
   4   6  -4   16.32    0.56
   4   6  -4   16.28    0.54
   3   6  -4    9.07    0.45
   3   6  -4    9.91    0.33
   3   6  -4    9.38    0.36
   2   6  -4    4.67    0.19
   2   6  -4    4.65    0.24
   1   6  -4    0.40    0.10
   0   6  -4   16.49    0.56
  -1   6  -4    3.50    0.17
  -2   6  -4    0.05    0.06
  -3   6  -4    2.85    0.20
   3  -6   4    3.28    0.17
   4  -6   4    4.28    0.18
   4  -6   4    4.12    0.19
   4  -6   4    3.81    0.19
   4  -6   4    4.04    0.22
   5  -6   4   10.45    0.37
   5  -6   4   10.22    0.38
   5  -6   4   10.34    0.37
   5  -6   4   10.63    0.39
   6  -6   4   12.71    0.45
   6  -6   4   12.54    0.44
   6  -6   4   12.51    0.44
   6  -6   4   12.74    0.45
   7  -6   4    3.29    0.17
   7  -6   4    3.40    0.17
   7  -6   4    3.26    0.18
   8  -6   4    5.62    0.22
   8  -6   4    5.75    0.22
   8  -6   4    5.57    0.23
   9  -6   4    1.85    0.10
   9  -6   4    1.85    0.10
   9   5  -4    0.11    0.04
   8   5  -4    0.36    0.09
   8   5  -4    0.40    0.07
   7   5  -4    2.02    0.14
   7   5  -4    2.20    0.13
   6   5  -4    3.10    0.17
   6   5  -4    3.29    0.17
   6   5  -4    3.29    0.16
   5   5  -4    4.13    0.27
   5   5  -4    4.76    0.20
   5   5  -4    4.41    0.20
   4   5  -4   17.56    0.60
   4   5  -4   17.72    0.59
   4   5  -4   18.36    0.59
   3   5  -4    7.33    0.26
   3   5  -4    7.00    0.32
   2   5  -4    6.10    0.22
   2   5  -4    6.38    0.26
  -2  -5   4    5.97    0.27
   1   5  -4    0.21    0.05
  -1  -5   4    0.22    0.06
   0   5  -4   25.50    0.83
   0  -5   4   25.80    0.84
   1  -5   4    1.13    0.10
  -2   5  -4  122.60    3.74
   2  -5   4  119.50    3.75
  -3   5  -4   48.99    1.50
   3  -5   4   45.58    1.50
   4  -5   4   17.07    0.57
   4  -5   4   17.17    0.57
   4  -5   4   17.65    0.57
   4  -5   4   16.50    0.58
   5  -5   4    6.57    0.27
   5  -5   4    6.48    0.25
   5  -5   4    5.99    0.26
   5  -5   4    6.71    0.26
   6  -5   4    0.09    0.06
   6  -5   4    0.35    0.16
   6  -5   4   -0.02    0.06
   6  -5   4    0.16    0.07
   7  -5   4    3.42    0.18
   7  -5   4    3.28    0.17
   7  -5   4    3.40    0.17
   8  -5   4    2.43    0.13
   8  -5   4    2.37    0.13
   8  -5   4    2.51    0.13
   9  -5   4    0.74    0.07
   9  -5   4    0.83    0.07
   9   4  -4    0.09    0.04
   8   4  -4   10.17    0.36
   8   4  -4   10.17    0.35
   7   4  -4   18.94    0.61
   7   4  -4   17.67    0.62
   7   4  -4   18.54    0.61
   6   4  -4    0.40    0.10
   6   4  -4    0.56    0.10
   6   4  -4    0.41    0.09
   5   4  -4    5.17    0.22
   5   4  -4    5.22    0.22
   5   4  -4    5.48    0.21
   4   4  -4   40.08    1.30
   4   4  -4   41.18    1.30
   4   4  -4   42.36    1.30
   3   4  -4    9.61    0.35
   3   4  -4    9.19    0.31
  -3  -4   4    8.66    0.36
   2   4  -4    6.28    0.24
   2   4  -4    6.25    0.22
  -2  -4   4    6.14    0.25
   1   4  -4    9.18    0.33
  -1  -4   4    9.37    0.33
   0   4  -4    0.18    0.04
   0  -4   4    0.23    0.06
  -1   4  -4    3.76    0.15
   1  -4   4    3.75    0.16
  -2   4  -4    4.46    0.18
   2  -4   4    4.64    0.19
  -3   4  -4   30.91    0.98
   3  -4   4   30.47    0.98
   4  -4   4    0.18    0.08
   4  -4   4    0.02    0.07
   4  -4   4    0.11    0.06
   5  -4   4    3.92    0.19
   5  -4   4    3.45    0.21
   5  -4   4    3.76    0.18
   5  -4   4    3.56    0.18
   6  -4   4   17.45    0.60
   6  -4   4   18.02    0.60
   6  -4   4   17.71    0.60
   7  -4   4    0.47    0.10
   7  -4   4    0.66    0.10
   7  -4   4    0.39    0.08
   8  -4   4    8.13    0.30
   8  -4   4    8.24    0.30
   9  -4   4    7.05    0.25
   9  -4   4    7.20    0.25
   9   3  -4    0.02    0.04
   9   3  -4    0.09    0.08
   8   3  -4   13.32    0.47
   8   3  -4   13.90    0.47
   8   3  -4   14.00    0.46
   7   3  -4    6.17    0.26
   7   3  -4    6.83    0.26
   7   3  -4    6.80    0.26
   6   3  -4    4.33    0.20
   6   3  -4    4.54    0.20
   6   3  -4    4.78    0.20
   5   3  -4   25.86    0.81
   5   3  -4   24.57    0.81
   5   3  -4   24.92    0.81
   4   3  -4    7.11    0.28
   4   3  -4    7.21    0.31
   4   3  -4    7.67    0.26
  -4  -3   4    6.50    0.34
   3   3  -4   19.98    0.63
   3   3  -4   20.34    0.65
  -3  -3   4   18.39    0.65
   2   3  -4   86.30    2.61
   2   3  -4   86.70    2.63
  -2  -3   4   81.75    2.63
   1   3  -4  192.75    6.10
  -1  -3   4  204.85    6.10
   0   3  -4   54.21    1.69
   0  -3   4   54.29    1.69
  -1   3  -4    7.16    0.26
   1  -3   4    7.86    0.27
  -2   3  -4   45.65    1.47
   2  -3   4   48.82    1.47
  -3   3  -4    3.11    0.14
   3  -3   4    3.20    0.14
   4  -3   4   10.28    0.39
   4  -3   4   12.00    0.41
   5  -3   4    1.31    0.13
   5  -3   4    1.23    0.12
   5  -3   4    1.47    0.12
   6  -3   4   -0.02    0.06
   6  -3   4   -0.01    0.06
   6  -3   4    0.03    0.07
   7  -3   4   29.56    0.96
   7  -3   4   29.60    0.96
   7  -3   4   29.54    0.95
   8  -3   4    1.43    0.11
   8  -3   4    1.48    0.11
   9  -3   4    2.78    0.12
   9  -3   4    2.74    0.12
   9   2  -4    4.00    0.19
   9   2  -4    4.09    0.16
   8   2  -4    7.96    0.30
   8   2  -4    7.91    0.29
   7   2  -4    7.92    0.31
   7   2  -4    8.10    0.30
   7   2  -4    7.82    0.30
   6   2  -4    9.29    0.34
   6   2  -4    9.56    0.35
   6   2  -4    9.82    0.35
   5   2  -4    5.43    0.23
   5   2  -4    5.55    0.22
   5   2  -4    5.66    0.23
   4   2  -4    7.85    0.31
   4   2  -4    7.70    0.27
  -4  -2   4    6.92    0.32
   3   2  -4   23.46    0.75
   3   2  -4   23.73    0.77
  -3  -2   4   23.53    0.77
   2   2  -4   19.29    0.62
  -2  -2   4   18.81    0.62
   1   2  -4    0.11    0.03
  -1  -2   4    0.13    0.04
   0   2  -4   76.72    2.46
   0  -2   4   83.08    2.47
  -1   2  -4    5.25    0.19
   1  -2   4    5.48    0.19
  -2   2  -4   38.60    1.24
   2  -2   4   41.11    1.24
  -3   2  -4   13.99    0.45
   3  -2   4   14.11    0.45
   4  -2   4    2.21    0.17
   4  -2   4    3.04    0.22
   5  -2   4   13.01    0.44
   5  -2   4   12.80    0.44
   5  -2   4   12.45    0.44
   6  -2   4   12.19    0.43
   6  -2   4   11.90    0.42
   6  -2   4   12.09    0.43
   7  -2   4    4.38    0.20
   7  -2   4    4.51    0.20
   8  -2   4    0.55    0.08
   8  -2   4    0.47    0.08
   9  -2   4    7.70    0.26
   9  -2   4    7.38    0.26
   9   1  -4    1.83    0.16
   9   1  -4    1.81    0.10
   8   1  -4    0.50    0.09
   8   1  -4    0.57    0.10
   7   1  -4    7.21    0.27
   7   1  -4    7.04    0.27
   7   1  -4    7.11    0.28
   6   1  -4    4.01    0.20
   6   1  -4    4.57    0.20
   6   1  -4    4.35    0.19
   5   1  -4   72.70    2.27
   5   1  -4   75.41    2.27
   5   1  -4   70.58    2.26
   4   1  -4   14.48    0.49
   4   1  -4   14.12    0.46
  -4  -1   4   13.11    0.50
   3   1  -4   86.20    2.71
   3   1  -4   91.48    2.73
  -3  -1   4   86.35    2.73
   2   1  -4    7.68    0.27
  -2  -1   4    7.58    0.27
   1   1  -4   56.85    1.84
  -1  -1   4   61.59    1.84
   0   1  -4  414.90   13.38
   0  -1   4  454.81   13.38
  -1   1  -4    0.57    0.05
   1  -1   4    0.55    0.05
  -2   1  -4    2.59    0.11
   2  -1   4    2.66    0.11
   4  -1   4    2.28    0.14
   4  -1   4    2.14    0.15
   5  -1   4    0.02    0.06
   5  -1   4    0.00    0.06
   5  -1   4    0.11    0.07
   6  -1   4    1.81    0.13
   6  -1   4    1.33    0.12
   7  -1   4    3.82    0.18
   7  -1   4    4.03    0.19
  -8   1  -4    4.27    0.18
   8  -1   4    4.12    0.18
   8  -1   4    4.26    0.18
   9  -1   4    1.00    0.10
   9  -1   4    1.15    0.08
   9   0  -4    5.83    0.30
   9   0  -4    5.68    0.21
   8   0  -4    0.29    0.07
   8   0  -4    0.30    0.08
   8   0  -4    0.33    0.07
   7   0  -4   29.61    0.94
   7   0  -4   29.03    0.94
   7   0  -4   28.85    0.95
   6   0  -4    2.10    0.13
   6   0  -4    1.88    0.15
   5   0  -4    5.57    0.23
   5   0  -4    5.66    0.22
   5   0  -4    5.38    0.25
   4   0  -4    6.26    0.23
   3   0  -4   12.47    0.43
   3   0  -4   12.13    0.41
  -3   0   4   12.70    0.44
   2   0  -4   21.07    0.68
   2   0  -4   19.92    0.66
  -2   0   4   21.61    0.68
   1   0  -4    0.33    0.05
  -1   0   4    0.42    0.05
   0   0  -4    1.94    0.09
   0   0   4    2.04    0.10
  -1   0  -4    2.72    0.12
   1   0   4    2.92    0.12
   2   0   4    0.64    0.06
   3   0   4  106.81    3.29
   4   0   4    0.11    0.12
   4   0   4    0.14    0.08
   4   0   4    0.29    0.09
   5   0   4    1.79    0.15
   5   0   4    1.79    0.14
   6   0   4   11.82    0.42
   6   0   4   12.04    0.42
  -7   0  -4   24.36    0.80
   7   0   4   25.02    0.81
   7   0   4   25.09    0.81
  -8   0  -4    0.51    0.12
   8   0   4    0.36    0.07
   8   0   4    0.38    0.07
   9   0   4    0.05    0.04
   9   0   4    0.07    0.04
   9  -1  -4    0.17    0.05
   8  -1  -4    1.74    0.13
   8  -1  -4    1.86    0.14
   7  -1  -4    4.70    0.21
   7  -1  -4    4.86    0.22
   7  -1  -4    4.97    0.21
   6  -1  -4   45.10    1.47
   6  -1  -4   48.17    1.47
   5  -1  -4   17.69    0.58
   5  -1  -4   17.53    0.59
   4  -1  -4   61.77    1.97
   3  -1  -4   12.87    0.42
  -3   1   4   12.68    0.46
   2  -1  -4    4.01    0.17
   2  -1  -4    3.71    0.15
  -2   1   4    3.87    0.17
   1  -1  -4   34.00    1.08
   1  -1  -4   33.00    1.06
  -1   1   4   35.20    1.08
   0   1   4    3.18    0.14
   1   1   4    3.14    0.14
   2   1   4   19.78    0.64
   2   1   4   20.57    0.63
   2   1   4   19.44    0.63
   3   1   4    9.02    0.32
   4   1   4    4.35    0.22
   4   1   4    4.28    0.23
   4   1   4    4.55    0.20
   5   1   4    2.85    0.17
   5   1   4    2.70    0.17
   5   1   4    2.70    0.17
  -6  -1  -4    3.41    0.17
   6   1   4    3.19    0.17
   6   1   4    3.39    0.17
   7   1   4    0.46    0.10
   7   1   4    0.53    0.10
   8   1   4    0.08    0.05
   8   1   4    0.05    0.05
   9  -2  -4    1.66    0.11
   8  -2  -4    0.45    0.09
   8  -2  -4    0.49    0.10
   7  -2  -4    1.03    0.11
   7  -2  -4    1.19    0.13
   6  -2  -4   31.29    0.98
   6  -2  -4   29.39    0.97
   5  -2  -4   27.06    0.83
   5  -2  -4   24.19    0.83
   4  -2  -4    8.66    0.31
   3  -2  -4    4.81    0.19
   2  -2  -4    4.24    0.17
  -2   2   4    4.20    0.21
   1  -2  -4  128.74    3.92
  -1   2   4  126.17    3.94
   0  -2  -4   11.01    0.38
   0   2   4   11.44    0.39
   1   2   4   82.64    2.50
   1   2   4   78.58    2.49
   2   2   4    3.64    0.16
   2   2   4    3.41    0.15
  -3  -2  -4   50.85    1.64
   3   2   4   54.21    1.65
  -4  -2  -4   26.16    0.83
   4   2   4   24.37    0.84
   4   2   4   26.27    0.84
   4   2   4   25.94    0.84
  -5  -2  -4    2.46    0.14
   5   2   4    2.27    0.16
   5   2   4    2.14    0.17
   5   2   4    2.29    0.17
  -6  -2  -4    1.71    0.13
   6   2   4    1.71    0.14
   6   2   4    1.50    0.16
   6   2   4    1.64    0.15
  -7  -2  -4    4.35    0.19
   7   2   4    4.36    0.19
   7   2   4    4.43    0.19
   8   2   4    0.23    0.07
   8   2   4    0.30    0.07
   8  -3  -4    0.77    0.12
   7  -3  -4    9.56    0.35
   7  -3  -4    9.73    0.36
   6  -3  -4   55.77    1.75
   5  -3  -4    9.47    0.36
   5  -3  -4   10.27    0.35
   4  -3  -4    0.96    0.08
   4  -3  -4    0.68    0.12
  -3   3   4   42.79    1.39
   2  -3  -4    0.38    0.07
  -2   3   4    0.55    0.12
   1  -3  -4   44.60    1.40
  -1   3   4   44.68    1.42
   0   3   4    1.33    0.16
   0   3   4    1.50    0.13
   1   3   4    0.68    0.12
   1   3   4    0.58    0.16
  -2  -3  -4    1.20    0.11
   2   3   4    1.56    0.10
  -3  -3  -4    0.75    0.10
   3   3   4    0.78    0.10
   4   3   4   39.11    1.25
  -5  -3  -4    0.42    0.10
   5   3   4    0.50    0.10
  -6  -3  -4    1.70    0.12
   6   3   4    1.72    0.14
   6   3   4    1.58    0.15
  -7  -3  -4    0.02    0.07
   7   3   4    0.06    0.08
   7  -4  -4    0.62    0.13
   6  -4  -4    0.80    0.11
   5  -4  -4    0.25    0.07
   5  -4  -4    0.11    0.06
   4  -4  -4    8.93    0.32
   4  -4  -4    8.79    0.32
   3  -4  -4   25.64    0.86
   3  -4  -4   27.86    0.86
   3  -4  -4   26.76    0.85
   2  -4  -4   11.05    0.37
   2  -4  -4   10.15    0.37
   1  -4  -4   24.40    0.78
  -1   4   4   24.01    0.83
   0  -4  -4    5.30    0.21
   0   4   4    5.11    0.27
  -1  -4  -4   25.45    0.78
   1   4   4   21.29    0.88
   1   4   4   25.85    0.79
  -2  -4  -4    6.84    0.31
  -2  -4  -4    7.79    0.28
   2   4   4    7.79    0.28
  -3  -4  -4    0.06    0.06
   3   4   4    0.05    0.07
  -4  -4  -4   18.82    0.63
   4   4   4   19.47    0.65
  -5  -4  -4    4.39    0.19
   5   4   4    3.97    0.20
  -6  -4  -4    1.21    0.10
   6   4   4    1.17    0.14
   6  -5  -4    9.02    0.32
   6  -5  -4    8.50    0.33
   5  -5  -4   20.02    0.65
   5  -5  -4   19.24    0.64
   4  -5  -4    0.49    0.10
   4  -5  -4    0.66    0.10
   4  -5  -4    0.76    0.15
   3  -5  -4    0.47    0.08
   3  -5  -4    0.54    0.12
   3  -5  -4    0.42    0.09
   2  -5  -4   12.61    0.44
   2  -5  -4   13.03    0.44
   2  -5  -4   12.59    0.43
   1  -5  -4    1.32    0.11
   1  -5  -4    1.43    0.11
   0  -5  -4    9.84    0.35
   0  -5  -4    9.80    0.35
  -1  -5  -4    0.43    0.09
  -1  -5  -4    0.53    0.12
   1   5   4    0.49    0.08
  -2  -5  -4    3.20    0.16
   2   5   4    3.50    0.17
  -3  -5  -4    0.03    0.06
   3   5   4   -0.01    0.06
  -4  -5  -4   12.26    0.40
   4   5   4   10.90    0.42
  -5  -5  -4    0.20    0.06
   5   5   4    0.15    0.08
  -6  -5  -4    0.11    0.05
   6   5   4    0.04    0.09
   6  -6  -4    1.44    0.12
   6  -6  -4    1.23    0.15
   5  -6  -4    0.80    0.10
   5  -6  -4    0.60    0.15
   5  -6  -4    1.07    0.13
   4  -6  -4   17.96    0.61
   4  -6  -4   18.69    0.61
   4  -6  -4   17.95    0.60
   3  -6  -4    8.08    0.30
   3  -6  -4    7.96    0.29
   2  -6  -4   22.74    0.74
   2  -6  -4   22.99    0.74
   1  -6  -4    2.42    0.13
   1  -6  -4    2.33    0.14
   0  -6  -4    0.07    0.09
   0  -6  -4   -0.03    0.06
   0   6   4    0.13    0.07
  -1  -6  -4    7.84    0.33
  -1  -6  -4    8.57    0.31
   1   6   4    9.02    0.32
  -2  -6  -4    9.97    0.36
   2   6   4   10.27    0.37
  -3  -6  -4    0.63    0.09
   3   6   4    0.66    0.10
  -4  -6  -4    4.38    0.18
   4   6   4    4.20    0.20
  -5  -6  -4    0.03    0.05
   5   6   4   -0.03    0.07
   6   6   4    0.06    0.09
   6  -7  -4    1.22    0.10
   5  -7  -4    2.57    0.15
   5  -7  -4    2.17    0.13
   4  -7  -4    2.87    0.16
   4  -7  -4    3.03    0.15
   3  -7  -4   37.14    1.18
   3  -7  -4   37.23    1.18
   2  -7  -4    0.94    0.10
   2  -7  -4    0.83    0.09
   1  -7  -4    6.16    0.24
   1  -7  -4    6.43    0.25
  -1   7   4    6.15    0.25
   0  -7  -4   42.44    1.37
   0  -7  -4   42.49    1.36
   0   7   4   45.20    1.38
  -1  -7  -4    0.07    0.05
  -1  -7  -4   -0.05    0.07
  -2  -7  -4   15.85    0.52
   2   7   4   14.96    0.53
  -3  -7  -4    8.00    0.28
   3   7   4    7.29    0.29
  -4  -7  -4    0.02    0.05
   4   7   4    0.10    0.06
  -5  -7  -4    2.65    0.13
   5   7   4    2.75    0.15
   6  -8  -4   13.93    0.46
   5  -8  -4    3.35    0.15
   5  -8  -4    3.39    0.16
   4  -8  -4   11.88    0.41
   4  -8  -4   11.79    0.41
   3  -8  -4   17.81    0.58
   3  -8  -4   17.99    0.58
  -3   8   4   16.58    0.59
   2  -8  -4   25.50    0.82
   2  -8  -4   26.35    0.82
  -2   8   4   24.44    0.83
   1  -8  -4    2.96    0.15
   1  -8  -4    2.86    0.14
  -1   8   4    2.60    0.16
   0  -8  -4    2.16    0.13
   0  -8  -4    2.19    0.13
   0   8   4    2.11    0.14
  -1  -8  -4    3.94    0.18
  -1  -8  -4    3.98    0.17
   1   8   4    3.83    0.19
  -2  -8  -4    2.33    0.13
   2   8   4    2.35    0.14
  -3  -8  -4    1.01    0.08
   3   8   4    0.99    0.11
  -4  -8  -4    9.56    0.32
   4   8   4    9.77    0.34
   6  -9  -4    0.10    0.04
   5  -9  -4    4.02    0.17
   5  -9  -4    3.95    0.16
   4  -9  -4    0.66    0.07
   4  -9  -4    0.70    0.09
   3  -9  -4    3.04    0.15
  -3   9   4    3.11    0.18
   2  -9  -4    2.46    0.13
   2  -9  -4    2.32    0.12
  -2   9   4    2.22    0.16
   1  -9  -4    6.40    0.23
   1  -9  -4    6.38    0.24
  -1   9   4    5.48    0.25
   0  -9  -4    3.54    0.16
   0   9   4    3.58    0.18
  -1  -9  -4    5.84    0.21
   1   9   4    5.41    0.23
  -2  -9  -4    2.31    0.11
   2   9   4    2.33    0.14
  -3  -9  -4    0.45    0.07
   3   9   4    0.46    0.09
   6 -10  -4    2.86    0.12
   5 -10  -4    0.32    0.05
   5 -10  -4    0.50    0.08
   4 -10  -4    2.38    0.11
   4 -10  -4    2.44    0.12
   3 -10  -4    0.22    0.05
   3 -10  -4    0.28    0.05
   2 -10  -4    0.06    0.04
   2 -10  -4    0.05    0.04
  -2  10   4    0.13    0.10
   1 -10  -4    2.37    0.11
   1 -10  -4    2.22    0.11
  -1  10   4    2.22    0.15
   0 -10  -4    0.01    0.06
   0 -10  -4   -0.05    0.04
   0  10   4    0.10    0.08
  -1 -10  -4   -0.03    0.04
   1  10   4   -0.10    0.06
  -2 -10  -4    0.55    0.06
   2  10   4    0.67    0.10
   4 -11  -4    0.28    0.05
   4 -11  -4    0.44    0.05
   3 -11  -4    1.06    0.08
   2 -11  -4    4.54    0.17
   1 -11  -4    0.55    0.05
   1 -11  -4    0.49    0.08
  -1 -11  -4    0.89    0.06
   2 -14   5    0.56    0.08
   3 -14   5    0.47    0.06
   4 -14   5    0.59    0.06
   4 -14   5    0.65    0.06
  -3 -13   5    0.51    0.09
  -2 -13   5    0.20    0.06
  -1 -13   5    5.62    0.21
   0 -13   5   10.90    0.37
   1 -13   5    0.71    0.11
   1 -13   5    0.58    0.10
   1 -13   5    0.83    0.10
   2 -13   5    0.78    0.09
   2 -13   5    0.92    0.08
   2 -13   5    0.91    0.11
   3 -13   5   15.98    0.52
   3 -13   5   16.03    0.52
   3 -13   5   15.48    0.52
   4 -13   5    0.51    0.06
   4 -13   5    0.49    0.10
   4 -13   5    0.50    0.06
   5 -13   5    0.88    0.06
   5 -13   5    1.02    0.07
   6 -13   5    6.80    0.23
  -4 -12   5    6.66    0.24
  -3 -12   5    0.24    0.06
  -2 -12   5    0.37    0.09
   0 -12   5    8.44    0.31
   1 -12   5    9.14    0.32
   1 -12   5    8.85    0.32
   1 -12   5    8.90    0.33
   2 -12   5    5.94    0.25
   2 -12   5    6.33    0.24
   2 -12   5    6.24    0.24
   3 -12   5   19.44    0.63
   3 -12   5   17.85    0.63
   3 -12   5   19.02    0.62
   4 -12   5    9.08    0.32
   4 -12   5    9.61    0.34
   4 -12   5    9.19    0.33
   5 -12   5   -0.05    0.03
   5 -12   5    0.02    0.03
   5 -12   5   -0.01    0.06
   6 -12   5    0.42    0.09
   6 -12   5    0.45    0.06
   6 -12   5    0.33    0.05
   5  11  -5    2.31    0.21
  -5 -11   5    2.05    0.10
   4  11  -5    7.05    0.28
  -4 -11   5    7.17    0.26
   3  11  -5    1.56    0.15
  -2 -11   5    0.17    0.06
  -1 -11   5    1.95    0.13
   0 -11   5    7.94    0.30
   0 -11   5    7.70    0.30
   1 -11   5    3.68    0.18
   1 -11   5    3.70    0.19
   1 -11   5    3.82    0.18
   2 -11   5   23.95    0.78
   2 -11   5   24.05    0.78
   2 -11   5   23.78    0.78
   3 -11   5    3.42    0.17
   3 -11   5    3.64    0.18
   3 -11   5    3.36    0.16
   4 -11   5    0.03    0.06
   4 -11   5    0.07    0.05
   4 -11   5    0.12    0.05
   5 -11   5    0.07    0.04
   5 -11   5    0.05    0.04
   5 -11   5   -0.01    0.06
   6 -11   5    1.84    0.12
   6 -11   5    1.97    0.10
   6 -11   5    1.93    0.10
   7 -11   5    1.52    0.08
   7 -11   5    1.60    0.10
   6  10  -5    0.27    0.08
  -6 -10   5    0.20    0.05
  -5 -10   5    0.03    0.04
   4  10  -5    0.16    0.07
  -4 -10   5    0.38    0.09
   3  10  -5    0.96    0.13
  -3 -10   5    1.27    0.11
   2  10  -5    0.20    0.10
  -2 -10   5    0.02    0.05
  -1 -10   5    0.57    0.10
   0 -10   5    0.18    0.07
   0 -10   5    0.16    0.07
   1 -10   5    2.10    0.14
   1 -10   5    2.58    0.14
   1 -10   5    1.98    0.15
   2 -10   5    1.74    0.14
   2 -10   5    1.74    0.12
   2 -10   5    1.80    0.13
   3 -10   5   14.67    0.50
   3 -10   5   14.58    0.51
   3 -10   5   14.60    0.50
   4 -10   5   12.67    0.44
   4 -10   5   12.51    0.44
   4 -10   5   12.76    0.45
   5 -10   5   51.01    1.61
   5 -10   5   52.20    1.62
   5 -10   5   50.90    1.61
   6 -10   5    2.60    0.13
   6 -10   5    2.75    0.15
   6 -10   5    2.79    0.13
   7 -10   5    6.91    0.25
   7 -10   5    6.67    0.24
   8 -10   5    0.00    0.04
   8 -10   5    0.03    0.05
  -7  -9   5    2.40    0.13
   6   9  -5    3.44    0.16
  -6  -9   5    3.50    0.15
   5   9  -5    0.07    0.06
  -5  -9   5    0.12    0.06
   4   9  -5   21.29    0.72
  -4  -9   5   22.43    0.72
   3   9  -5    6.84    0.26
  -3  -9   5    6.50    0.26
   2   9  -5    4.98    0.23
  -2  -9   5    5.50    0.22
  -1  -9   5    5.41    0.23
   0  -9   5   14.94    0.51
   0  -9   5   15.10    0.51
   1  -9   5    8.07    0.31
   1  -9   5    8.17    0.30
   1  -9   5    8.37    0.31
   2  -9   5    1.70    0.14
   2  -9   5    1.56    0.13
   2  -9   5    1.58    0.11
   3  -9   5    4.61    0.19
   3  -9   5    4.29    0.21
   3  -9   5    4.65    0.20
   4  -9   5    0.27    0.07
   4  -9   5    0.41    0.08
   4  -9   5    0.45    0.09
   5  -9   5    0.15    0.05
   5  -9   5    0.21    0.06
   5  -9   5    0.13    0.07
   6  -9   5   -0.04    0.06
   6  -9   5   -0.07    0.05
   6  -9   5   -0.04    0.05
   7  -9   5    0.25    0.06
   7  -9   5    0.35    0.08
   8  -9   5    0.03    0.04
   8  -9   5    0.06    0.04
   7   8  -5    4.49    0.18
  -7  -8   5    4.64    0.18
   6   8  -5    0.41    0.09
   6   8  -5    0.27    0.08
   5   8  -5    0.00    0.06
   5   8  -5    0.25    0.09
   4   8  -5    0.18    0.07
   4   8  -5    0.34    0.10
   3   8  -5   11.34    0.39
   3   8  -5   10.90    0.42
  -3  -8   5   11.42    0.40
   2   8  -5    2.73    0.15
  -2  -8   5    2.87    0.16
  -1  -8   5   11.18    0.39
   0  -8   5    5.35    0.22
   0  -8   5    5.23    0.24
   1  -8   5    3.07    0.16
   1  -8   5    2.55    0.18
   1  -8   5    2.95    0.15
   2  -8   5   23.97    0.80
   2  -8   5   24.84    0.81
   2  -8   5   25.47    0.80
   3  -8   5    3.95    0.18
   3  -8   5    3.55    0.26
   3  -8   5    3.82    0.19
   3  -8   5    3.83    0.17
   4  -8   5    7.92    0.29
   4  -8   5    8.08    0.31
   4  -8   5    7.97    0.29
   4  -8   5    7.65    0.33
   5  -8   5    0.32    0.06
   5  -8   5    0.63    0.10
   5  -8   5    0.38    0.09
   5  -8   5    0.63    0.11
   6  -8   5   10.09    0.36
   6  -8   5    9.81    0.37
   6  -8   5    9.64    0.35
   6  -8   5    9.98    0.37
   7  -8   5    3.36    0.15
   7  -8   5    3.18    0.17
   7  -8   5    3.30    0.16
   8  -8   5    1.43    0.16
   8  -8   5    1.91    0.11
   8  -8   5    2.14    0.10
  -8  -7   5    0.90    0.08
   7   7  -5    3.56    0.16
   7   7  -5    3.44    0.16
   6   7  -5    6.89    0.26
   6   7  -5    6.12    0.25
   5   7  -5    1.86    0.15
   5   7  -5    1.54    0.12
   4   7  -5    1.45    0.16
   4   7  -5    1.40    0.11
   3   7  -5   31.86    1.03
   3   7  -5   32.11    1.02
   2   7  -5   10.32    0.40
   2   7  -5   10.98    0.37
  -2  -7   5   10.77    0.38
   1   7  -5   14.28    0.47
  -1  -7   5   14.25    0.48
   0  -7   5    5.65    0.23
   1  -7   5   12.76    0.44
   2  -7   5    0.58    0.13
   2  -7   5    0.60    0.13
   2  -7   5    0.96    0.10
   3  -7   5    3.69    0.19
   3  -7   5    3.88    0.17
   3  -7   5    3.93    0.18
   3  -7   5    3.69    0.22
   4  -7   5    1.05    0.13
   4  -7   5    1.20    0.11
   4  -7   5    1.29    0.16
   4  -7   5    1.32    0.11
   5  -7   5    0.14    0.06
   5  -7   5    0.23    0.07
   5  -7   5    0.18    0.09
   5  -7   5    0.20    0.06
   6  -7   5    1.05    0.11
   6  -7   5    1.05    0.12
   6  -7   5    1.00    0.13
   6  -7   5    1.12    0.10
   7  -7   5    0.27    0.10
   7  -7   5    0.13    0.06
   7  -7   5    0.34    0.08
   8  -7   5    1.31    0.09
   8  -7   5    1.22    0.09
   8  -7   5    1.29    0.10
   9  -7   5    1.11    0.07
   8   6  -5    0.10    0.06
   8   6  -5    0.10    0.05
   7   6  -5    0.33    0.09
   7   6  -5    0.21    0.06
   6   6  -5   16.04    0.57
   6   6  -5   17.81    0.57
   5   6  -5    4.47    0.21
   5   6  -5    4.40    0.19
   4   6  -5    3.06    0.15
   4   6  -5    3.08    0.18
   3   6  -5   10.36    0.36
   3   6  -5   10.24    0.38
   2   6  -5   12.75    0.49
   2   6  -5   13.59    0.44
   1   6  -5    1.00    0.11
   1   6  -5    1.07    0.13
   0   6  -5   14.65    0.51
  -1   6  -5    1.90    0.13
  -2   6  -5    2.23    0.16
  -3   6  -5   88.10    2.75
   3  -6   5   90.14    2.71
   3  -6   5   87.34    2.72
   3  -6   5   88.13    2.71
   3  -6   5   84.82    2.72
   4  -6   5    1.57    0.12
   4  -6   5    2.11    0.12
   4  -6   5    1.62    0.14
   4  -6   5    1.45    0.14
   5  -6   5   15.39    0.54
   5  -6   5   16.19    0.53
   5  -6   5   15.63    0.54
   5  -6   5   15.09    0.56
   6  -6   5   14.34    0.49
   6  -6   5   13.80    0.49
   6  -6   5   13.94    0.49
   7  -6   5   29.25    0.94
   7  -6   5   28.55    0.94
   7  -6   5   29.30    0.94
   8  -6   5    0.17    0.05
   8  -6   5    0.18    0.05
   8  -6   5    0.24    0.06
   9  -6   5    0.10    0.04
   9  -6   5    0.07    0.04
   9   5  -5    1.99    0.10
  -9  -5   5    2.34    0.10
   8   5  -5    0.69    0.08
   8   5  -5    0.83    0.09
   7   5  -5    8.12    0.29
   7   5  -5    7.29    0.29
   6   5  -5   23.86    0.75
   6   5  -5   21.83    0.75
   5   5  -5    1.40    0.13
   5   5  -5    1.37    0.11
   4   5  -5   60.37    1.86
   4   5  -5   58.39    1.85
   3   5  -5   12.44    0.39
   3   5  -5   11.27    0.41
   3   5  -5   10.62    0.46
   2   5  -5   18.17    0.58
   2   5  -5   18.06    0.62
   1   5  -5   14.19    0.49
   0   5  -5    2.11    0.12
   0  -5   5    1.81    0.14
  -1   5  -5    8.58    0.31
   1  -5   5    8.02    0.32
  -2   5  -5   24.24    0.78
   2  -5   5   23.16    0.79
  -3   5  -5    1.09    0.16
   4  -5   5   32.28    1.05
   4  -5   5   33.72    1.06
   4  -5   5   33.42    1.07
   5  -5   5    2.54    0.16
   5  -5   5    2.38    0.15
   5  -5   5    2.53    0.16
   5  -5   5    2.26    0.15
   6  -5   5   45.80    1.47
   6  -5   5   45.99    1.47
   6  -5   5   47.00    1.47
   7  -5   5    6.76    0.28
   7  -5   5    7.31    0.28
   7  -5   5    7.28    0.28
   8  -5   5    2.58    0.13
   8  -5   5    2.42    0.13
  -9   5  -5    0.61    0.10
   9  -5   5    0.70    0.10
   9  -5   5    0.85    0.07
   8   4  -5    1.68    0.10
   8   4  -5    1.78    0.12
   7   4  -5    0.22    0.07
   7   4  -5    0.30    0.08
   6   4  -5    3.82    0.18
   6   4  -5    3.79    0.18
   6   4  -5    3.96    0.18
   5   4  -5    6.24    0.23
   5   4  -5    5.66    0.24
   5   4  -5    5.74    0.24
   4   4  -5    6.04    0.22
   4   4  -5    5.76    0.24
   4   4  -5    5.74    0.24
   4   4  -5    5.81    0.43
   3   4  -5   78.50    2.47
   3   4  -5   79.14    2.44
   2   4  -5    9.43    0.31
   2   4  -5    9.28    0.34
  -2  -4   5    8.59    0.35
   1   4  -5    0.51    0.08
  -1  -4   5    0.70    0.10
   0   4  -5   32.48    1.04
   0  -4   5   32.87    1.05
  -1   4  -5   51.09    1.61
   1  -4   5   51.80    1.62
  -2   4  -5   12.74    0.45
   2  -4   5   12.69    0.45
  -3   4  -5   14.18    0.49
   4  -4   5   70.74    2.14
   4  -4   5   67.62    2.14
   4  -4   5   68.95    2.15
   4  -4   5   67.64    2.14
   5  -4   5   12.54    0.43
   5  -4   5   12.30    0.44
   6  -4   5    7.44    0.29
   6  -4   5    7.79    0.30
   6  -4   5    7.66    0.30
   7  -4   5    5.82    0.24
   7  -4   5    5.90    0.24
   7  -4   5    5.91    0.25
   8  -4   5    2.93    0.14
   8  -4   5    3.01    0.14
   9  -4   5    0.10    0.04
   9  -4   5    0.16    0.04
   9   3  -5    1.03    0.07
   8   3  -5    3.34    0.16
   8   3  -5    3.19    0.15
   7   3  -5    7.85    0.30
   7   3  -5    7.41    0.30
   7   3  -5    8.40    0.30
   6   3  -5   10.13    0.36
   6   3  -5    9.23    0.35
   6   3  -5    9.68    0.35
   5   3  -5   16.31    0.55
   5   3  -5   16.84    0.56
   5   3  -5   16.71    0.56
   4   3  -5   28.07    0.90
   4   3  -5   28.22    0.90
   4   3  -5   27.46    0.95
   4   3  -5   27.88    0.89
   3   3  -5   71.33    2.23
   3   3  -5   70.87    2.20
   2   3  -5   11.14    0.37
   2   3  -5   11.24    0.39
  -2  -3   5   10.75    0.39
   1   3  -5   23.89    0.77
   0   3  -5   24.84    0.81
   0  -3   5   25.59    0.81
  -1   3  -5    6.66    0.25
   1  -3   5    7.13    0.26
  -2   3  -5   31.29    1.03
   2  -3   5   33.51    1.03
  -3   3  -5   30.29    0.96
   4  -3   5    7.23    0.27
   4  -3   5    6.89    0.27
   4  -3   5    6.61    0.27
   5  -3   5    2.23    0.15
   5  -3   5    2.27    0.15
   5  -3   5    2.13    0.14
   6  -3   5    0.54    0.11
   6  -3   5    0.33    0.07
   6  -3   5    0.38    0.08
   7  -3   5   40.31    1.29
   7  -3   5   40.31    1.29
   8  -3   5    0.38    0.08
   8  -3   5    0.40    0.08
   9  -3   5    0.14    0.05
   9  -3   5    0.20    0.05
   9   2  -5    0.60    0.12
   9   2  -5    0.60    0.07
   8   2  -5    1.59    0.12
   8   2  -5    1.68    0.11
   7   2  -5    6.25    0.25
   7   2  -5    6.26    0.25
   7   2  -5    5.83    0.25
   6   2  -5    2.21    0.13
   6   2  -5    2.33    0.15
   6   2  -5    2.31    0.14
   5   2  -5   30.16    0.98
   5   2  -5   30.28    0.98
   5   2  -5   31.53    0.98
   4   2  -5    0.71    0.08
   4   2  -5    0.64    0.13
   4   2  -5    0.66    0.12
   3   2  -5   32.38    1.04
   3   2  -5   31.79    1.01
   2   2  -5    7.03    0.26
   2   2  -5    6.79    0.24
  -2  -2   5    6.54    0.26
   1   2  -5    7.04    0.26
   0   2  -5    0.62    0.06
   0  -2   5    0.61    0.06
  -1   2  -5    6.96    0.25
   1  -2   5    7.07    0.26
  -2   2  -5  115.66    3.71
   2  -2   5  125.43    3.71
  -3   2  -5   35.53    1.11
   4  -2   5    4.25    0.21
   4  -2   5    4.50    0.20
   4  -2   5    4.58    0.21
   5  -2   5   26.09    0.86
   5  -2   5   26.87    0.86
   5  -2   5   26.47    0.86
   6  -2   5   11.23    0.41
   6  -2   5   11.61    0.41
   7  -2   5    4.36    0.20
   7  -2   5    4.64    0.20
  -8   2  -5    0.21    0.06
   8  -2   5    0.07    0.05
   8  -2   5    0.10    0.05
   9  -2   5    0.91    0.07
   9  -2   5    0.94    0.07
   9   1  -5    0.36    0.06
   9   1  -5    0.64    0.13
   8   1  -5    0.43    0.10
   8   1  -5    0.43    0.10
   8   1  -5    0.39    0.09
   7   1  -5   34.01    1.16
   7   1  -5   37.22    1.16
   7   1  -5   37.28    1.15
   6   1  -5    0.07    0.06
   6   1  -5   -0.02    0.07
   6   1  -5    0.00    0.05
   5   1  -5    3.29    0.17
   5   1  -5    3.71    0.16
   5   1  -5    3.35    0.20
   4   1  -5    0.92    0.08
   4   1  -5    1.17    0.19
   3   1  -5   18.51    0.61
   3   1  -5   19.43    0.64
   2   1  -5    8.69    0.29
   2   1  -5    8.62    0.31
  -2  -1   5    8.10    0.31
   1   1  -5   22.32    0.73
  -1  -1   5   22.74    0.73
   0   1  -5   70.41    2.24
   0  -1   5   74.13    2.24
  -1   1  -5    5.63    0.21
   1  -1   5    5.83    0.22
  -2   1  -5    3.27    0.14
   2  -1   5    3.17    0.17
   4  -1   5   23.80    0.80
   4  -1   5   23.74    0.80
   4  -1   5   26.35    0.80
   5  -1   5    1.68    0.14
   5  -1   5    1.75    0.13
   6  -1   5   -0.02    0.07
   6  -1   5    0.02    0.06
   7  -1   5    0.88    0.10
   7  -1   5    0.76    0.10
  -8   1  -5    2.54    0.13
   8  -1   5    2.61    0.13
   8  -1   5    2.74    0.13
   9  -1   5    0.07    0.04
   9  -1   5   -0.05    0.05
   9   0  -5    1.64    0.10
   9   0  -5    1.56    0.16
   8   0  -5    0.74    0.12
   8   0  -5    0.58    0.10
   8   0  -5    0.70    0.09
   7   0  -5    4.05    0.19
   7   0  -5    4.21    0.19
   7   0  -5    4.11    0.20
   6   0  -5   29.22    0.96
   6   0  -5   30.82    0.97
   5   0  -5    0.14    0.05
   5   0  -5    0.16    0.08
   4   0  -5   12.00    0.41
   3   0  -5   48.01    1.53
   3   0  -5   50.11    1.56
   2   0  -5   77.92    2.39
   2   0  -5   78.10    2.42
  -2   0   5   76.40    2.42
   1   0  -5   34.95    1.11
   1   0  -5   34.30    1.09
  -1   0   5   34.84    1.11
   0   0  -5   10.87    0.38
   0   0  -5   10.36    0.36
   0   0   5   11.31    0.38
  -1   0  -5   19.55    0.65
   1   0   5   20.27    0.65
   2   0   5   13.10    0.43
   2   0   5   12.36    0.43
   3   0   5   29.45    0.94
   4   0   5   16.04    0.55
   4   0   5   15.97    0.55
   4   0   5   16.27    0.55
   5   0   5    5.30    0.23
   6   0   5    2.39    0.16
   6   0   5    2.74    0.16
  -7   0  -5   25.99    0.83
   7   0   5   25.63    0.83
  -8   0  -5    3.48    0.17
   8   0   5    3.44    0.15
   8   0   5    3.31    0.15
   9  -1  -5   -0.06    0.05
   8  -1  -5    2.03    0.13
   8  -1  -5    2.07    0.12
   7  -1  -5    0.60    0.11
   7  -1  -5    0.53    0.10
   6  -1  -5   10.76    0.39
   6  -1  -5   11.07    0.39
   5  -1  -5    3.03    0.19
   5  -1  -5    3.24    0.15
   4  -1  -5    0.88    0.09
   3  -1  -5   31.65    1.00
   2  -1  -5   37.91    1.19
   1  -1  -5    6.95    0.25
  -1   1   5    6.67    0.27
   0  -1  -5   16.52    0.53
   0   1   5   15.98    0.55
   1   1   5    8.00    0.30
   2   1   5   44.34    1.39
   3   1   5    8.32    0.31
   4   1   5   14.98    0.51
   4   1   5   15.02    0.52
  -5  -1  -5    1.67    0.13
   5   1   5    1.57    0.16
   5   1   5    1.54    0.15
   5   1   5    1.67    0.16
  -6  -1  -5    2.35    0.14
   6   1   5    2.12    0.15
   6   1   5    2.27    0.15
  -7  -1  -5    2.24    0.12
   7   1   5    1.97    0.13
   7   1   5    2.06    0.13
   8   1   5    0.69    0.11
   8   1   5    0.85    0.09
   8  -2  -5    2.28    0.14
   8  -2  -5    2.15    0.15
   7  -2  -5    0.07    0.06
   7  -2  -5   -0.07    0.08
   6  -2  -5    4.63    0.23
   6  -2  -5    4.82    0.21
   5  -2  -5   32.39    1.04
   4  -2  -5   16.75    0.58
   4  -2  -5   18.33    0.58
   3  -2  -5   32.74    1.04
   2  -2  -5   12.00    0.41
   1  -2  -5    2.04    0.11
   0  -2  -5   37.41    1.18
   1   2   5   -0.06    0.11
   1   2   5   -0.07    0.08
  -2  -2  -5    0.81    0.10
   2   2   5    0.80    0.09
  -3  -2  -5    0.51    0.09
   3   2   5    0.59    0.11
  -4  -2  -5    0.12    0.06
   4   2   5    0.11    0.08
  -5  -2  -5    1.33    0.11
   5   2   5    1.19    0.16
   5   2   5    1.06    0.16
  -6  -2  -5   10.89    0.38
   6   2   5   10.87    0.40
   6   2   5   10.83    0.44
  -7  -2  -5    0.63    0.09
   7   2   5    0.72    0.13
   8  -3  -5    0.33    0.11
   7  -3  -5    6.12    0.25
   5  -3  -5    0.89    0.13
   5  -3  -5    0.73    0.09
   4  -3  -5    4.95    0.21
   4  -3  -5    5.33    0.21
   3  -3  -5    4.28    0.18
   3  -3  -5    4.48    0.19
   2  -3  -5    3.01    0.14
   2  -3  -5    3.00    0.16
   1  -3  -5   28.92    0.95
   1  -3  -5   30.69    0.95
  -1   3   5   29.75    1.00
   0  -3  -5    7.38    0.28
   0  -3  -5    7.60    0.28
   0   3   5    7.73    0.34
  -1  -3  -5   23.02    0.76
  -1  -3  -5   24.50    0.77
  -2  -3  -5    0.03    0.06
  -2  -3  -5    0.21    0.08
   2   3   5    0.09    0.06
  -3  -3  -5    5.73    0.24
   3   3   5    6.21    0.25
  -4  -3  -5    1.71    0.12
   4   3   5    1.84    0.15
  -5  -3  -5    2.04    0.13
   5   3   5    1.63    0.16
  -6  -3  -5   24.93    0.78
   6   3   5   23.73    0.80
   7  -4  -5    2.44    0.15
   6  -4  -5    0.06    0.07
   5  -4  -5    7.14    0.28
   5  -4  -5    6.92    0.27
   4  -4  -5    1.45    0.11
   4  -4  -5    1.32    0.11
   3  -4  -5    7.13    0.26
   3  -4  -5    6.67    0.29
   3  -4  -5    6.76    0.26
   2  -4  -5   20.79    0.67
   2  -4  -5   20.00    0.67
   2  -4  -5   20.26    0.66
   1  -4  -5   11.00    0.38
   1  -4  -5   10.99    0.38
   0  -4  -5    0.30    0.07
   0  -4  -5    0.34    0.07
  -1  -4  -5   14.00    0.48
  -1  -4  -5   14.13    0.48
   1   4   5   14.57    0.49
  -2  -4  -5    0.81    0.09
  -2  -4  -5    0.42    0.09
   2   4   5    0.51    0.10
  -3  -4  -5   10.76    0.38
   3   4   5   11.29    0.40
  -4  -4  -5    4.18    0.18
   4   4   5    4.18    0.20
  -5  -4  -5    0.51    0.09
   5   4   5    0.50    0.13
  -6  -4  -5    5.38    0.20
   6   4   5    5.37    0.25
   6  -5  -5   14.72    0.48
   6  -5  -5   13.75    0.49
   5  -5  -5    4.16    0.18
   5  -5  -5    3.88    0.19
   4  -5  -5    0.06    0.06
   4  -5  -5    0.16    0.10
   4  -5  -5    0.08    0.06
   3  -5  -5    5.37    0.22
   3  -5  -5    5.68    0.23
   3  -5  -5    5.43    0.24
   2  -5  -5   36.45    1.16
   2  -5  -5   36.61    1.16
   1  -5  -5    5.11    0.21
   1  -5  -5    5.22    0.21
   0  -5  -5    0.06    0.06
   0  -5  -5    0.01    0.05
   0   5   5    0.01    0.06
  -1  -5  -5   15.29    0.52
  -1  -5  -5   15.14    0.52
   1   5   5   16.21    0.53
  -2  -5  -5    1.13    0.10
  -2  -5  -5    0.76    0.13
   2   5   5    0.97    0.11
  -3  -5  -5    1.13    0.10
   3   5   5    0.91    0.12
  -4  -5  -5    7.26    0.27
   4   5   5    6.88    0.29
  -5  -5  -5    0.15    0.05
   5   5   5    0.24    0.09
   6  -6  -5    4.41    0.19
   5  -6  -5    6.58    0.25
   4  -6  -5   28.20    0.93
   4  -6  -5   29.55    0.93
   3  -6  -5    1.14    0.13
   3  -6  -5    1.26    0.10
   2  -6  -5    9.72    0.34
   2  -6  -5    9.68    0.35
   1  -6  -5    2.84    0.15
   1  -6  -5    3.15    0.15
   0  -6  -5   14.26    0.48
   0  -6  -5   13.90    0.48
  -1  -6  -5   41.74    1.31
  -1  -6  -5   40.67    1.31
   1   6   5   42.51    1.34
  -2  -6  -5    6.96    0.26
   2   6   5    6.82    0.28
  -3  -6  -5    4.78    0.19
   3   6   5    4.21    0.21
  -4  -6  -5    3.39    0.15
   4   6   5    3.36    0.18
  -5  -6  -5    0.30    0.07
   5   6   5    0.24    0.09
   6  -7  -5   13.19    0.44
   5  -7  -5    0.70    0.12
   4  -7  -5   25.01    0.79
   4  -7  -5   23.75    0.79
   3  -7  -5    9.40    0.34
   3  -7  -5    8.93    0.33
   2  -7  -5    0.31    0.07
   2  -7  -5    0.20    0.05
   1  -7  -5    4.58    0.20
   1  -7  -5    5.10    0.20
  -1   7   5    4.44    0.21
   0  -7  -5    2.90    0.15
   0  -7  -5    2.97    0.15
   0   7   5    2.77    0.16
  -1  -7  -5    3.32    0.15
  -1  -7  -5    3.27    0.16
   1   7   5    2.87    0.17
  -2  -7  -5    1.53    0.10
   2   7   5    1.36    0.12
  -3  -7  -5    7.30    0.26
   3   7   5    7.07    0.28
  -4  -7  -5    2.36    0.12
   4   7   5    2.54    0.14
  -5  -7  -5    2.69    0.12
   6  -8  -5    0.06    0.04
   5  -8  -5    0.00    0.04
   5  -8  -5    0.16    0.07
  -5   8   5   -0.08    0.11
   4  -8  -5    2.57    0.13
   4  -8  -5    2.77    0.14
  -4   8   5    2.70    0.16
   3  -8  -5    2.74    0.13
   3  -8  -5    2.39    0.15
  -3   8   5    2.41    0.16
   2  -8  -5    1.56    0.11
   2  -8  -5    1.66    0.11
  -2   8   5    1.66    0.13
   1  -8  -5    0.35    0.08
   1  -8  -5    0.41    0.07
  -1   8   5    0.45    0.10
   0  -8  -5    1.46    0.10
   0  -8  -5    1.45    0.11
   0   8   5    1.28    0.12
  -1  -8  -5    0.47    0.10
  -1  -8  -5    0.28    0.08
   1   8   5    0.20    0.07
  -2  -8  -5   14.91    0.49
   2   8   5   14.82    0.51
  -3  -8  -5    2.51    0.12
   3   8   5    2.66    0.14
  -4  -8  -5    0.99    0.07
   6  -9  -5    1.13    0.08
   5  -9  -5    4.09    0.18
   5  -9  -5    4.28    0.16
   4  -9  -5    7.78    0.27
   4  -9  -5    7.88    0.27
  -4   9   5    7.13    0.32
   3  -9  -5    3.29    0.14
   3  -9  -5    3.36    0.14
  -3   9   5    3.15    0.18
   2  -9  -5    4.83    0.19
   2  -9  -5    4.99    0.19
  -2   9   5    4.67    0.21
   1  -9  -5    0.84    0.08
   1  -9  -5    0.92    0.08
  -1   9   5    1.05    0.11
   0  -9  -5    9.13    0.32
   0  -9  -5    9.54    0.32
   0   9   5    9.51    0.34
  -1  -9  -5    1.19    0.08
   1   9   5    1.16    0.11
  -2  -9  -5    0.79    0.06
   2   9   5    0.80    0.10
  -3  -9  -5   -0.03    0.04
   5 -10  -5    1.40    0.07
   4 -10  -5    0.04    0.03
   4 -10  -5    0.04    0.05
   3 -10  -5    0.23    0.05
   3 -10  -5    0.27    0.05
   2 -10  -5    4.08    0.16
   2 -10  -5    4.22    0.16
  -2  10   5    3.76    0.21
   1 -10  -5    2.41    0.11
   1 -10  -5    2.32    0.11
  -1  10   5    2.28    0.15
   0 -10  -5    0.00    0.03
   0  10   5    0.08    0.08
  -1 -10  -5    0.82    0.08
  -1 -14   6   -0.04    0.06
   0 -14   6    1.28    0.11
   1 -14   6   -0.01    0.07
   2 -14   6    0.63    0.11
   3 -14   6    1.29    0.08
   3 -14   6    1.32    0.08
   3 -14   6    1.33    0.11
   4 -14   6    4.88    0.17
   4 -14   6    4.70    0.17
  -3 -13   6   -0.06    0.07
  -2 -13   6    3.40    0.14
  -1 -13   6    2.60    0.13
   0 -13   6    3.06    0.15
   1 -13   6    0.33    0.06
   1 -13   6    0.43    0.10
   2 -13   6    0.28    0.06
   2 -13   6    0.46    0.07
   2 -13   6    0.31    0.06
   3 -13   6    0.05    0.04
   3 -13   6    0.06    0.05
   3 -13   6   -0.01    0.06
   4 -13   6    2.01    0.10
   4 -13   6    2.12    0.12
   4 -13   6    2.20    0.10
   5 -13   6    2.77    0.13
   5 -13   6    2.50    0.11
   5 -13   6    2.46    0.11
  -5 -12   6    2.01    0.10
  -4 -12   6    2.15    0.11
  -3 -12   6    0.03    0.05
  -2 -12   6    0.16    0.05
  -1 -12   6    0.21    0.08
   0 -12   6    3.56    0.17
   1 -12   6   38.22    1.19
   1 -12   6   38.30    1.19
   1 -12   6   36.13    1.18
   2 -12   6    2.52    0.14
   2 -12   6    2.71    0.15
   2 -12   6    2.83    0.14
   3 -12   6    0.01    0.05
   3 -12   6   -0.03    0.06
   3 -12   6    0.01    0.08
   4 -12   6   13.06    0.43
   4 -12   6   12.98    0.44
   4 -12   6   12.55    0.43
   5 -12   6   16.50    0.54
   5 -12   6   15.76    0.53
   5 -12   6   16.35    0.53
   6 -12   6    0.54    0.06
  -5 -11   6    0.35    0.06
  -4 -11   6    0.49    0.07
  -2 -11   6    3.91    0.18
  -1 -11   6    2.51    0.15
   0 -11   6    0.54    0.13
   0 -11   6    0.69    0.10
   1 -11   6   -0.15    0.08
   1 -11   6   -0.05    0.06
   1 -11   6    0.01    0.06
   2 -11   6    7.45    0.28
   2 -11   6    7.26    0.28
   2 -11   6    7.54    0.29
   3 -11   6    0.56    0.09
   3 -11   6    0.63    0.09
   3 -11   6    0.66    0.10
   4 -11   6    1.80    0.12
   4 -11   6    1.90    0.13
   4 -11   6    2.13    0.12
   5 -11   6    0.47    0.07
   5 -11   6    0.45    0.07
   5 -11   6    0.52    0.10
   6 -11   6    9.45    0.32
   6 -11   6    9.85    0.34
   6 -11   6    9.36    0.33
   7 -11   6    0.52    0.07
   7 -11   6    0.67    0.06
   6  10  -6    0.89    0.16
  -6 -10   6    0.85    0.07
   5  10  -6    0.02    0.07
  -5 -10   6    0.04    0.04
   4  10  -6    6.85    0.28
  -4 -10   6    7.85    0.28
   3  10  -6    0.38    0.10
  -3 -10   6    0.55    0.09
  -2 -10   6    7.87    0.30
  -1 -10   6    1.46    0.12
   0 -10   6    4.43    0.21
   0 -10   6    4.88    0.22
   1 -10   6   20.22    0.68
   1 -10   6   20.36    0.68
   1 -10   6   21.24    0.68
   2 -10   6    7.36    0.28
   2 -10   6    7.62    0.29
   2 -10   6    7.55    0.29
   3 -10   6   16.21    0.54
   3 -10   6   15.97    0.54
   3 -10   6   15.99    0.55
   4 -10   6    0.67    0.11
   4 -10   6    0.73    0.09
   4 -10   6    0.68    0.09
   5 -10   6   10.97    0.39
   5 -10   6   10.61    0.38
   5 -10   6   10.73    0.38
   6 -10   6    0.60    0.07
   6 -10   6    0.69    0.09
   6 -10   6    0.61    0.07
   7 -10   6   -0.01    0.04
   7 -10   6    0.03    0.03
  -7  -9   6    0.02    0.05
   6   9  -6    0.77    0.10
  -6  -9   6    0.71    0.08
   5   9  -6    3.37    0.17
  -5  -9   6    3.77    0.21
   4   9  -6   14.65    0.52
  -4  -9   6   15.91    0.52
   3   9  -6    0.23    0.08
  -3  -9   6    0.12    0.06
   2   9  -6   -0.02    0.09
  -2  -9   6    0.02    0.05
  -1  -9   6    0.38    0.09
   0  -9   6    0.24    0.08
   0  -9   6    0.27    0.07
   1  -9   6    7.77    0.28
   1  -9   6    7.44    0.29
   1  -9   6    7.25    0.29
   2  -9   6    0.63    0.13
   2  -9   6    0.81    0.11
   2  -9   6    0.70    0.11
   3  -9   6   20.37    0.66
   3  -9   6   20.59    0.68
   3  -9   6   20.21    0.67
   3  -9   6   19.62    0.69
   4  -9   6    3.70    0.19
   4  -9   6    3.83    0.18
   4  -9   6    3.92    0.22
   4  -9   6    4.08    0.18
   5  -9   6    3.83    0.19
   5  -9   6    3.56    0.17
   5  -9   6    3.57    0.16
   5  -9   6    3.58    0.20
   6  -9   6   -0.09    0.08
   6  -9   6   -0.02    0.07
   6  -9   6    0.05    0.05
   6  -9   6    0.11    0.05
   7  -9   6    3.28    0.14
   7  -9   6    3.23    0.17
   7  -9   6    3.62    0.16
   8  -9   6   13.19    0.43
   7   8  -6    0.22    0.06
  -7  -8   6    0.38    0.06
   6   8  -6    3.41    0.17
   6   8  -6    3.82    0.17
  -6  -8   6    3.78    0.16
   5   8  -6   14.69    0.49
   5   8  -6   13.61    0.48
   4   8  -6    6.91    0.29
  -4  -8   6    6.92    0.27
   3   8  -6   18.93    0.62
  -3  -8   6   18.25    0.62
   2   8  -6    6.42    0.26
  -2  -8   6    6.78    0.26
   0  -8   6    0.03    0.11
   0  -8   6    0.18    0.08
   0  -8   6    0.05    0.06
   1  -8   6   28.06    0.89
   1  -8   6   26.80    0.90
   1  -8   6   28.85    0.89
   1  -8   6   27.03    0.89
   2  -8   6   26.48    0.84
   2  -8   6   25.73    0.83
   2  -8   6   24.27    0.84
   2  -8   6   26.50    0.83
   3  -8   6    0.85    0.10
   3  -8   6    0.70    0.12
   3  -8   6    0.73    0.12
   3  -8   6    0.75    0.10
   4  -8   6    6.27    0.28
   4  -8   6    6.35    0.25
   4  -8   6    6.19    0.27
   4  -8   6    6.57    0.25
   5  -8   6   22.32    0.73
   5  -8   6   21.83    0.72
   5  -8   6   21.09    0.71
   5  -8   6   21.84    0.73
   6  -8   6    0.11    0.06
   6  -8   6    0.05    0.05
   6  -8   6    0.14    0.07
   7  -8   6    6.07    0.24
   7  -8   6    6.01    0.23
   7  -8   6    6.18    0.24
   8  -8   6    0.05    0.04
   8  -8   6    0.10    0.04
   8  -8   6    0.04    0.06
  -8  -7   6   11.47    0.38
   7   7  -6    0.00    0.05
   6   7  -6    4.42    0.20
   6   7  -6    4.91    0.21
   5   7  -6    6.79    0.27
   5   7  -6    6.48    0.26
   4   7  -6    4.74    0.23
   4   7  -6    4.81    0.20
   3   7  -6    5.42    0.24
   3   7  -6    5.47    0.22
   2   7  -6    2.75    0.14
  -2  -7   6    2.71    0.15
  -1  -7   6    0.71    0.11
   0  -7   6   62.09    1.93
   1  -7   6    7.95    0.29
   1  -7   6    7.94    0.30
   1  -7   6    8.13    0.32
   2  -7   6    7.58    0.29
   2  -7   6    7.79    0.30
   2  -7   6    7.55    0.31
   2  -7   6    8.06    0.29
   3  -7   6    4.51    0.23
   3  -7   6    4.62    0.21
   3  -7   6    4.76    0.20
   3  -7   6    4.57    0.20
   4  -7   6    0.20    0.08
   4  -7   6    0.35    0.11
   4  -7   6    0.11    0.06
   4  -7   6    0.05    0.08
   5  -7   6   51.07    1.58
   5  -7   6   48.66    1.59
   5  -7   6   51.34    1.58
   5  -7   6   49.34    1.59
   6  -7   6   16.36    0.57
   6  -7   6   16.33    0.57
   6  -7   6   16.89    0.56
   7  -7   6   -0.08    0.05
   7  -7   6   -0.02    0.06
   7  -7   6    0.02    0.05
   8  -7   6    6.53    0.24
   8  -7   6    6.33    0.24
   8   6  -6    0.22    0.06
   8   6  -6    0.22    0.05
  -8  -6   6    0.13    0.04
   7   6  -6    2.00    0.12
   7   6  -6    1.70    0.11
   6   6  -6    3.61    0.17
   6   6  -6    3.74    0.18
   5   6  -6   16.61    0.59
   5   6  -6   18.20    0.59
   4   6  -6   21.06    0.68
   4   6  -6   20.14    0.68
   3   6  -6    0.07    0.06
   3   6  -6    0.23    0.09
   2   6  -6    9.51    0.32
   2   6  -6    8.92    0.34
  -2  -6   6    8.86    0.33
   1   6  -6   24.46    0.88
   0   6  -6   67.66    2.14
  -1   6  -6    7.01    0.30
  -2   6  -6   51.88    1.69
   2  -6   6   52.41    1.66
   2  -6   6   54.06    1.65
   2  -6   6   53.04    1.66
  -3   6  -6   17.16    0.80
   3  -6   6   17.73    0.60
   3  -6   6   17.76    0.59
   3  -6   6   17.92    0.59
   4  -6   6    0.65    0.10
   4  -6   6    0.57    0.09
   4  -6   6    0.65    0.10
   4  -6   6    0.46    0.11
   5  -6   6   12.12    0.45
   5  -6   6   12.48    0.45
   5  -6   6   12.89    0.44
   6  -6   6    1.10    0.11
   6  -6   6    0.95    0.12
   6  -6   6    0.91    0.12
   7  -6   6    1.07    0.15
   8  -6   6    0.01    0.05
   8  -6   6    0.00    0.04
   8   5  -6    0.37    0.08
   8   5  -6    0.29    0.07
   7   5  -6    5.84    0.23
   6   5  -6    0.79    0.10
   6   5  -6    0.81    0.10
   5   5  -6    0.58    0.11
   5   5  -6    0.59    0.09
   4   5  -6    0.00    0.05
   4   5  -6    0.07    0.07
   3   5  -6   30.89    1.01
   3   5  -6   32.21    1.00
   2   5  -6   29.65    0.90
   2   5  -6   27.08    0.95
   1   5  -6    1.78    0.12
   1   5  -6    1.72    0.15
   0   5  -6    2.77    0.16
  -1   5  -6    1.84    0.15
  -2   5  -6   26.20    0.87
   3  -5   6   11.66    0.40
   3  -5   6   11.39    0.42
   3  -5   6   11.52    0.41
   3  -5   6   11.56    0.40
   4  -5   6    3.88    0.19
   4  -5   6    3.92    0.18
   4  -5   6    3.61    0.20
   4  -5   6    3.99    0.18
   5  -5   6    9.86    0.36
   5  -5   6   10.04    0.37
   5  -5   6    9.97    0.37
   6  -5   6    5.13    0.23
   6  -5   6    5.15    0.22
   6  -5   6    5.19    0.23
   7  -5   6    0.15    0.06
   7  -5   6    0.11    0.06
   7  -5   6    0.19    0.06
   8  -5   6   10.68    0.37
   8  -5   6   10.92    0.37
   9  -5   6    6.93    0.24
   9  -5   6    6.99    0.24
   9   4  -6    0.91    0.06
  -9  -4   6    0.85    0.08
   8   4  -6    1.71    0.10
   8   4  -6    1.57    0.15
   7   4  -6    1.92    0.13
   7   4  -6    2.06    0.13
   6   4  -6    3.97    0.18
   6   4  -6    3.89    0.18
   5   4  -6    0.21    0.06
   5   4  -6    0.17    0.07
   4   4  -6   11.34    0.39
   4   4  -6   11.34    0.40
   3   4  -6   10.14    0.37
   3   4  -6   10.57    0.36
   2   4  -6    0.13    0.08
   2   4  -6    0.27    0.07
   1   4  -6    0.06    0.06
   1   4  -6   -0.02    0.06
   0   4  -6    0.09    0.05
  -1   4  -6    1.19    0.12
   1  -4   6    1.03    0.15
  -2   4  -6    5.71    0.25
   2  -4   6    5.44    0.27
   3  -4   6   12.19    0.43
   3  -4   6   12.04    0.42
   3  -4   6   12.32    0.43
   4  -4   6    3.18    0.18
   4  -4   6    3.06    0.18
   4  -4   6    3.46    0.17
   5  -4   6    0.04    0.07
   5  -4   6   -0.09    0.07
   5  -4   6   -0.02    0.06
   6  -4   6    3.04    0.17
   6  -4   6    2.75    0.16
   6  -4   6    3.03    0.17
   7  -4   6    1.51    0.12
   7  -4   6    1.25    0.12
   8  -4   6    4.29    0.18
   8  -4   6    4.36    0.18
   9  -4   6    2.90    0.12
   9  -4   6    2.78    0.12
   9   3  -6    0.07    0.04
   8   3  -6    0.01    0.04
   8   3  -6   -0.10    0.05
   7   3  -6    2.38    0.14
   7   3  -6    2.69    0.14
   6   3  -6    1.53    0.13
   6   3  -6    1.80    0.12
   5   3  -6   22.87    0.72
   5   3  -6   21.15    0.72
   5   3  -6   21.33    0.72
   4   3  -6   10.14    0.37
   4   3  -6   10.28    0.36
   3   3  -6   18.37    0.58
   3   3  -6   16.98    0.63
   2   3  -6   75.39    2.28
   2   3  -6   71.89    2.31
   1   3  -6    0.75    0.10
   1   3  -6    0.79    0.10
   0   3  -6   18.30    0.60
   0  -3   6   17.74    0.61
  -1   3  -6    2.47    0.15
   1  -3   6    2.57    0.17
  -2   3  -6   35.56    1.14
   2  -3   6   35.74    1.15
   3  -3   6   19.61    0.66
   3  -3   6   20.05    0.65
   4  -3   6    2.70    0.16
   4  -3   6    2.51    0.15
   4  -3   6    2.84    0.17
  -5   3  -6    0.63    0.16
   5  -3   6    0.81    0.13
   5  -3   6    0.85    0.12
   5  -3   6    0.69    0.11
   6  -3   6   19.49    0.66
   6  -3   6   19.57    0.66
   7  -3   6    0.75    0.10
   7  -3   6    0.95    0.11
   8  -3   6    0.42    0.08
   8  -3   6    0.46    0.08
   9   2  -6    5.04    0.19
   8   2  -6    0.67    0.09
   8   2  -6    0.77    0.08
   7   2  -6    2.32    0.14
   7   2  -6    2.29    0.13
   6   2  -6   13.78    0.49
   6   2  -6   14.06    0.49
   6   2  -6   14.61    0.49
   5   2  -6   13.56    0.45
   5   2  -6   12.31    0.46
   5   2  -6   13.23    0.46
   4   2  -6    0.78    0.08
   4   2  -6    0.72    0.12
   3   2  -6   40.12    1.34
   3   2  -6   42.53    1.30
   2   2  -6    1.46    0.13
   2   2  -6    1.26    0.09
   1   2  -6   39.71    1.26
   1   2  -6   40.71    1.28
   0   2  -6    4.31    0.19
   0  -2   6    4.46    0.20
  -1   2  -6   16.24    0.54
   1  -2   6   15.58    0.54
  -2   2  -6    0.89    0.12
   2  -2   6    0.89    0.15
  -3   2  -6    5.84    0.25
   3  -2   6    5.36    0.24
   3  -2   6    5.42    0.23
  -4   2  -6    1.85    0.18
   4  -2   6    2.11    0.15
   4  -2   6    2.10    0.13
   4  -2   6    1.84    0.17
   5  -2   6   28.18    0.90
   5  -2   6   26.90    0.89
   6  -2   6   23.81    0.78
   6  -2   6   23.18    0.77
   7  -2   6    0.62    0.10
  -8   2  -6    0.06    0.05
   8  -2   6    0.02    0.04
   8  -2   6   -0.01    0.05
   9   1  -6    1.43    0.09
   8   1  -6    3.48    0.16
   8   1  -6    3.54    0.17
   7   1  -6    1.55    0.12
   7   1  -6    1.49    0.12
   6   1  -6    5.43    0.22
   6   1  -6    4.34    0.21
   5   1  -6   33.26    1.08
   5   1  -6   34.25    1.08
   4   1  -6    1.39    0.14
   4   1  -6    1.44    0.10
   3   1  -6    4.25    0.24
   2   1  -6    1.83    0.11
   2   1  -6    1.89    0.14
   1   1  -6    2.20    0.12
   1   1  -6    2.40    0.14
   0   1  -6   54.49    1.66
   0   1  -6   51.01    1.64
   0  -1   6   52.55    1.66
  -1   1  -6   78.07    2.39
   1  -1   6   75.60    2.40
  -2   1  -6    0.00    0.07
   2  -1   6    0.03    0.10
  -3   1  -6    1.67    0.16
   3  -1   6    1.76    0.17
  -4   1  -6    3.23    0.21
   4  -1   6    3.77    0.19
   4  -1   6    3.39    0.20
   5  -1   6   11.01    0.40
   5  -1   6   10.80    0.40
   6  -1   6    1.96    0.14
   6  -1   6    2.09    0.15
  -7   1  -6   19.41    0.65
   7  -1   6   19.74    0.65
   7  -1   6   20.52    0.66
  -8   1  -6    2.80    0.13
   8  -1   6    2.92    0.13
   9   0  -6    0.04    0.05
   8   0  -6    2.41    0.13
   8   0  -6    2.15    0.12
   7   0  -6    2.57    0.15
   7   0  -6    2.68    0.15
   6   0  -6   43.94    1.42
   6   0  -6   45.92    1.43
   5   0  -6    6.72    0.27
   5   0  -6    6.88    0.26
   4   0  -6   12.59    0.42
   4   0  -6   12.12    0.44
   3   0  -6    2.96    0.14
   2   0  -6    1.26    0.14
   1   0  -6   48.25    1.49
   1   0  -6   46.97    1.51
   0   0  -6    0.15    0.06
   0   0  -6    0.03    0.05
   0   0   6    0.14    0.12
  -1   0  -6   47.37    1.48
   1   0   6   46.06    1.49
   2   0   6    1.03    0.11
  -3   0  -6    0.08    0.09
   3   0   6    0.21    0.10
   3   0   6    0.07    0.10
   4   0   6    7.16    0.29
   5   0   6    0.11    0.08
   5   0   6    0.25    0.10
  -6   0  -6    7.54    0.28
   6   0   6    7.81    0.29
   6   0   6    7.37    0.29
  -7   0  -6    0.20    0.06
   7   0   6    0.25    0.07
   7   0   6    0.34    0.09
  -8   0  -6    0.02    0.06
   8   0   6    0.07    0.06
   9  -1  -6    4.08    0.18
   8  -1  -6   30.17    0.97
   8  -1  -6   29.94    0.95
   7  -1  -6    1.47    0.11
   7  -1  -6    1.53    0.13
   6  -1  -6    0.86    0.13
   5  -1  -6    2.76    0.18
   5  -1  -6    3.08    0.15
   4  -1  -6   20.86    0.71
   4  -1  -6   23.06    0.72
   3  -1  -6    2.67    0.17
   3  -1  -6    2.76    0.13
   2  -1  -6    8.14    0.29
   1  -1  -6   16.38    0.54
   0  -1  -6    8.30    0.30
  -2  -1  -6    7.66    0.30
  -2  -1  -6    7.77    0.29
   2   1   6    8.21    0.30
  -3  -1  -6    4.37    0.22
  -3  -1  -6    4.61    0.19
   3   1   6    4.26    0.21
   3   1   6    3.68    0.33
  -4  -1  -6    0.05    0.06
   4   1   6   -0.14    0.10
  -5  -1  -6    9.20    0.33
   5   1   6    9.14    0.35
  -6  -1  -6   -0.07    0.05
  -7  -1  -6    0.33    0.07
   7   1   6    0.23    0.07
   8  -2  -6    0.48    0.11
   7  -2  -6    0.12    0.07
   6  -2  -6    0.91    0.10
   5  -2  -6    0.07    0.05
   4  -2  -6    0.33    0.08
   4  -2  -6    0.34    0.06
   3  -2  -6   69.33    2.14
   3  -2  -6   68.37    2.15
   2  -2  -6    0.01    0.05
   2  -2  -6   -0.02    0.06
   1  -2  -6    4.80    0.19
   1  -2  -6    4.24    0.19
   0  -2  -6    4.49    0.20
   0  -2  -6    4.40    0.19
  -1  -2  -6    3.05    0.16
  -1  -2  -6    3.20    0.16
  -2  -2  -6   32.30    1.00
  -2  -2  -6   30.82    0.99
   2   2   6   30.49    1.00
  -3  -2  -6    0.28    0.09
  -3  -2  -6    0.18    0.06
   3   2   6    0.26    0.09
  -4  -2  -6    3.27    0.16
   4   2   6    3.12    0.19
  -5  -2  -6    3.84    0.17
   5   2   6    3.13    0.21
  -6  -2  -6    0.12    0.05
  -7  -2  -6    4.05    0.16
   8  -3  -6   12.40    0.44
   7  -3  -6   12.52    0.44
   6  -3  -6    3.55    0.18
   5  -3  -6    0.53    0.12
   5  -3  -6    0.60    0.09
   4  -3  -6   41.53    1.40
   4  -3  -6   45.62    1.39
   3  -3  -6    4.27    0.19
   3  -3  -6    4.80    0.20
   2  -3  -6   10.06    0.35
   2  -3  -6    9.74    0.34
   2  -3  -6    9.08    0.36
   1  -3  -6    2.18    0.13
   1  -3  -6    2.32    0.13
   1  -3  -6    2.25    0.15
   0  -3  -6   47.07    1.49
   0  -3  -6   47.97    1.49
  -1  -3  -6    0.10    0.06
  -1  -3  -6   -0.09    0.06
   1   3   6    0.00    0.06
  -2  -3  -6    0.41    0.08
   2   3   6    0.46    0.10
  -3  -3  -6   10.81    0.38
   3   3   6   10.78    0.40
  -4  -3  -6    0.17    0.06
   4   3   6    0.13    0.09
  -5  -3  -6    0.04    0.05
   5   3   6    0.03    0.10
  -6  -3  -6    0.64    0.08
  -7  -3  -6    1.99    0.11
   7  -4  -6    1.78    0.14
   6  -4  -6    8.24    0.31
   6  -4  -6    7.80    0.31
   5  -4  -6    0.12    0.07
   5  -4  -6    0.03    0.06
   4  -4  -6    5.56    0.23
   4  -4  -6    5.21    0.22
   3  -4  -6    2.64    0.19
   3  -4  -6    2.45    0.13
   3  -4  -6    2.49    0.14
   2  -4  -6    6.13    0.24
   2  -4  -6    5.95    0.25
   1  -4  -6   34.72    1.11
   1  -4  -6   35.42    1.11
   0  -4  -6   24.45    0.80
   0  -4  -6   25.13    0.80
  -1  -4  -6    5.15    0.22
   1   4   6    5.76    0.23
  -2  -4  -6    1.04    0.12
  -2  -4  -6    1.10    0.11
   2   4   6    1.28    0.13
  -3  -4  -6    2.97    0.15
   3   4   6    2.76    0.17
  -4  -4  -6    2.20    0.13
   4   4   6    2.43    0.16
  -5  -4  -6    2.08    0.11
   5   4   6    1.62    0.22
  -6  -4  -6    0.78    0.07
   7  -5  -6    0.48    0.11
   6  -5  -6    0.55    0.11
   6  -5  -6    0.46    0.10
   5  -5  -6   25.89    0.80
   5  -5  -6   23.82    0.81
   4  -5  -6    7.16    0.37
   4  -5  -6    6.43    0.27
   4  -5  -6    6.87    0.26
   3  -5  -6    0.03    0.04
   3  -5  -6    0.15    0.08
   2  -5  -6   29.69    0.93
   2  -5  -6   28.11    0.92
   1  -5  -6    3.81    0.18
   1  -5  -6    3.88    0.17
   0  -5  -6    9.97    0.35
   0  -5  -6    9.71    0.35
   0   5   6    9.93    0.36
  -1  -5  -6   30.51    0.99
  -1  -5  -6   30.75    1.00
   1   5   6   32.17    1.01
  -2  -5  -6    1.54    0.13
  -2  -5  -6    1.47    0.11
   2   5   6    1.31    0.13
  -3  -5  -6    6.60    0.24
   3   5   6    5.87    0.26
  -4  -5  -6    6.39    0.24
   4   5   6    6.24    0.26
  -5  -5  -6    1.22    0.08
   5   5   6    0.92    0.15
  -6  -5  -6    0.07    0.05
   6  -6  -6    1.37    0.10
   4  -6  -6    2.83    0.17
   4  -6  -6    3.18    0.15
   3  -6  -6   12.05    0.42
   3  -6  -6   12.59    0.43
   2  -6  -6    2.59    0.14
   2  -6  -6    2.78    0.15
   1  -6  -6    4.19    0.17
   1  -6  -6    3.81    0.18
  -1   6   6    3.81    0.19
   0  -6  -6   24.52    0.78
   0  -6  -6   24.79    0.78
   0   6   6   22.60    0.79
  -1  -6  -6    0.23    0.06
  -1  -6  -6    0.22    0.06
   1   6   6    0.26    0.07
  -2  -6  -6   12.18    0.42
  -2  -6  -6   12.58    0.46
   2   6   6   12.22    0.44
  -3  -6  -6    0.12    0.05
   3   6   6    0.13    0.07
  -4  -6  -6    6.12    0.22
   4   6   6    6.23    0.25
  -5  -6  -6    0.40    0.06
   6  -7  -6    0.81    0.08
   5  -7  -6    3.52    0.15
   4  -7  -6    0.82    0.11
   4  -7  -6    0.92    0.11
   3  -7  -6   12.03    0.42
   3  -7  -6   12.60    0.43
   2  -7  -6    0.59    0.08
   2  -7  -6    0.50    0.09
  -2   7   6    0.66    0.10
   1  -7  -6    0.61    0.09
   1  -7  -6    0.69    0.08
  -1   7   6    0.64    0.10
   0  -7  -6    0.73    0.09
   0  -7  -6    0.72    0.09
   0   7   6    0.84    0.11
  -1  -7  -6    5.25    0.20
  -1  -7  -6    4.83    0.20
   1   7   6    4.73    0.22
  -2  -7  -6    0.09    0.04
   2   7   6    0.01    0.06
  -3  -7  -6   10.27    0.35
   3   7   6   10.88    0.38
  -4  -7  -6    1.35    0.08
   6  -8  -6    8.42    0.28
   5  -8  -6    0.00    0.03
   4  -8  -6    0.39    0.06
   4  -8  -6    0.32    0.07
  -4   8   6    0.22    0.08
   3  -8  -6    3.64    0.15
   3  -8  -6    3.57    0.16
  -3   8   6    3.34    0.17
   2  -8  -6    7.51    0.27
   2  -8  -6    7.50    0.27
  -2   8   6    7.31    0.29
   1  -8  -6    0.63    0.08
   1  -8  -6    0.75    0.08
  -1   8   6    0.82    0.11
   0  -8  -6    0.02    0.04
   0  -8  -6   -0.02    0.05
   0   8   6    0.05    0.06
  -1  -8  -6    3.87    0.21
  -1  -8  -6    3.53    0.15
  -2  -8  -6    0.06    0.04
   2   8   6    0.07    0.07
   5  -9  -6    0.16    0.03
   4  -9  -6    0.21    0.05
   4  -9  -6    0.48    0.09
   3  -9  -6    1.42    0.09
   3  -9  -6    1.41    0.08
  -3   9   6    1.58    0.14
   2  -9  -6    0.33    0.06
   2  -9  -6    0.31    0.06
  -2   9   6    0.47    0.11
   1  -9  -6    0.04    0.04
   1  -9  -6    0.09    0.04
  -1   9   6   -0.01    0.07
   0  -9  -6    0.96    0.09
   0  -9  -6    1.03    0.07
   0   9   6    1.03    0.10
  -1  -9  -6    4.52    0.17
   1   9   6    4.79    0.19
  -2  -9  -6    1.46    0.08
   3 -10  -6    0.60    0.05
   2 -10  -6    7.86    0.27
   2 -10  -6    8.20    0.27
   1 -10  -6    0.48    0.05
  -2 -14   7    0.01    0.05
  -1 -14   7   12.41    0.42
   0 -14   7    8.72    0.30
   1 -14   7    4.66    0.18
   2 -14   7    0.09    0.05
   3 -14   7    5.28    0.20
   3 -14   7    5.60    0.20
   4 -14   7    2.38    0.12
   4 -14   7    2.23    0.11
  -3 -13   7    0.02    0.04
  -2 -13   7    0.70    0.07
  -1 -13   7    3.46    0.15
   0 -13   7    1.44    0.10
   1 -13   7    0.10    0.05
   2 -13   7    2.57    0.14
   2 -13   7    2.73    0.13
   2 -13   7    2.80    0.14
   3 -13   7    0.84    0.09
   3 -13   7    0.94    0.08
   3 -13   7    0.92    0.07
   4 -13   7    1.79    0.10
   4 -13   7    1.66    0.09
   4 -13   7    1.64    0.09
   5 -13   7   10.70    0.36
  -5 -12   7    1.32    0.08
  -4 -12   7    2.31    0.11
  -3 -12   7    1.60    0.10
  -2 -12   7    0.07    0.05
   0 -12   7   18.05    0.60
   1 -12   7    0.64    0.10
   1 -12   7    0.43    0.10
   2 -12   7    1.68    0.13
   2 -12   7    2.13    0.12
   2 -12   7    2.00    0.13
   3 -12   7    1.15    0.09
   3 -12   7    1.00    0.10
   3 -12   7    1.05    0.10
   4 -12   7    0.96    0.08
   4 -12   7    0.92    0.08
   4 -12   7    1.09    0.10
   5 -12   7    6.02    0.23
   5 -12   7    5.99    0.22
   6 -12   7   -0.04    0.03
  -5 -11   7    0.04    0.04
  -4 -11   7    1.68    0.10
  -3 -11   7    1.43    0.15
  -2 -11   7    0.07    0.05
  -1 -11   7    6.02    0.24
   0 -11   7    2.50    0.14
   0 -11   7    2.43    0.16
   1 -11   7    2.45    0.14
   1 -11   7    2.18    0.14
   2 -11   7   10.82    0.37
   2 -11   7   10.53    0.37
   2 -11   7   10.24    0.38
   3 -11   7   35.79    1.18
   3 -11   7   37.74    1.17
   3 -11   7   36.93    1.17
   4 -11   7    0.27    0.06
   4 -11   7    0.38    0.09
   4 -11   7    0.33    0.08
   5 -11   7    0.32    0.08
   5 -11   7    0.31    0.06
   5 -11   7    0.40    0.06
   6 -11   7   12.63    0.42
   6 -11   7   12.11    0.41
   7 -11   7   12.75    0.41
   7 -11   7   12.90    0.42
  -6 -10   7    1.02    0.07
   5  10  -7    0.33    0.09
  -5 -10   7    0.37    0.06
   4  10  -7    2.21    0.16
  -4 -10   7    1.73    0.14
  -3 -10   7    3.23    0.16
  -2 -10   7    1.22    0.11
  -1 -10   7    8.56    0.32
   0 -10   7    0.06    0.06
   0 -10   7   -0.05    0.07
   1 -10   7   14.75    0.50
   1 -10   7   13.73    0.49
   1 -10   7   13.97    0.48
   2 -10   7    0.91    0.12
   2 -10   7    0.79    0.10
   2 -10   7    0.74    0.11
   3 -10   7    1.17    0.10
   3 -10   7    1.11    0.12
   3 -10   7    1.08    0.11
   4 -10   7    0.02    0.05
   4 -10   7    0.10    0.05
   4 -10   7    0.03    0.06
   4 -10   7    0.10    0.09
   5 -10   7    3.02    0.15
   5 -10   7    3.41    0.16
   5 -10   7    2.54    0.18
   5 -10   7    2.93    0.14
   6 -10   7   16.55    0.55
   6 -10   7   16.44    0.54
   7 -10   7    0.80    0.07
   7 -10   7    0.97    0.07
  -7  -9   7    0.10    0.03
   6   9  -7    2.48    0.14
  -6  -9   7    2.39    0.12
   5   9  -7    0.08    0.07
  -5  -9   7    0.10    0.05
   4   9  -7    1.16    0.12
  -4  -9   7    1.12    0.11
  -3  -9   7   15.15    0.52
  -2  -9   7   11.04    0.39
  -1  -9   7    8.65    0.36
  -1  -9   7    8.58    0.32
   0  -9   7    1.14    0.11
   0  -9   7    1.11    0.16
   0  -9   7    1.01    0.14
   1  -9   7   13.41    0.47
   1  -9   7   13.23    0.45
   1  -9   7   12.63    0.46
   2  -9   7    6.95    0.28
   2  -9   7    7.37    0.27
   2  -9   7    7.17    0.31
   2  -9   7    7.27    0.28
   3  -9   7    8.82    0.33
   3  -9   7    8.65    0.32
   3  -9   7    8.90    0.32
   3  -9   7    8.66    0.34
   4  -9   7   78.48    2.41
   4  -9   7   75.01    2.39
   4  -9   7   78.76    2.41
   4  -9   7   75.69    2.40
   5  -9   7    0.14    0.08
   5  -9   7    0.10    0.05
   5  -9   7    0.02    0.06
   5  -9   7    0.09    0.05
   6  -9   7    0.08    0.05
   6  -9   7   -0.04    0.07
   6  -9   7    0.02    0.05
   7  -9   7    4.37    0.18
   7  -9   7    4.39    0.18
   7  -9   7    4.40    0.17
   8  -9   7    1.84    0.09
   7   8  -7    1.45    0.11
  -7  -8   7    1.65    0.09
   6   8  -7    0.87    0.10
  -6  -8   7    0.96    0.09
   5   8  -7    0.13    0.07
  -5  -8   7    0.11    0.06
   4   8  -7    0.31    0.07
  -4  -8   7    0.48    0.10
   3   8  -7    8.90    0.33
  -3  -8   7    8.87    0.33
   2   8  -7    0.04    0.09
  -2  -8   7    0.12    0.06
  -1  -8   7   22.39    0.73
   0  -8   7   10.25    0.38
   0  -8   7   10.25    0.37
   0  -8   7   10.65    0.37
   1  -8   7    1.06    0.11
   1  -8   7    1.08    0.14
   1  -8   7    1.07    0.17
   1  -8   7    0.89    0.10
   2  -8   7    2.07    0.14
   2  -8   7    2.02    0.16
   2  -8   7    1.82    0.14
   2  -8   7    1.86    0.12
   3  -8   7    9.96    0.37
   3  -8   7   10.07    0.36
   3  -8   7    9.89    0.37
   3  -8   7   10.01    0.36
   4  -8   7    2.30    0.16
   4  -8   7    2.44    0.14
   4  -8   7    2.54    0.16
   4  -8   7    2.29    0.14
   5  -8   7   26.12    0.87
   5  -8   7   26.58    0.87
   5  -8   7   26.67    0.86
   6  -8   7    1.94    0.13
   6  -8   7    1.90    0.12
  -7   8  -7   13.52    0.45
   7  -8   7   13.06    0.46
   7  -8   7   13.73    0.45
   7  -8   7   13.55    0.45
   8  -8   7    0.13    0.05
   8  -8   7    0.12    0.04
  -8  -7   7    0.08    0.04
   7   7  -7    0.90    0.09
   7   7  -7    0.92    0.08
  -7  -7   7    1.00    0.08
   6   7  -7    8.98    0.33
   5   7  -7    0.17    0.07
   5   7  -7    0.26    0.07
   4   7  -7   10.80    0.39
   4   7  -7   11.10    0.39
   3   7  -7   20.70    0.64
   3   7  -7   18.06    0.72
   2   7  -7    1.46    0.13
  -2  -7   7    1.28    0.12
  -1  -7   7    9.22    0.33
   0  -7   7    0.21    0.07
   0  -7   7    0.08    0.07
   0  -7   7    0.36    0.09
   1  -7   7    0.77    0.11
   1  -7   7    0.78    0.11
   1  -7   7    0.70    0.13
   2  -7   7   42.64    1.39
   2  -7   7   44.71    1.40
   2  -7   7   44.78    1.40
   2  -7   7   44.18    1.39
   3  -7   7    3.22    0.19
   3  -7   7    3.39    0.17
   3  -7   7    3.28    0.16
   3  -7   7    3.18    0.16
   4  -7   7    0.11    0.08
   4  -7   7   -0.03    0.08
   4  -7   7    0.07    0.05
   4  -7   7    0.11    0.06
   5  -7   7    0.49    0.11
   5  -7   7    0.30    0.08
   5  -7   7    0.23    0.07
   6  -7   7    4.80    0.22
   6  -7   7    5.00    0.21
   6  -7   7    5.31    0.23
   7  -7   7    5.03    0.21
   7  -7   7    5.41    0.22
   7  -7   7    5.20    0.21
   8  -7   7    0.01    0.04
   8  -7   7    0.07    0.05
   8   6  -7    0.05    0.06
   7   6  -7    4.18    0.18
   7   6  -7    4.17    0.18
   6   6  -7    0.69    0.11
   6   6  -7    0.71    0.10
   5   6  -7    0.36    0.08
   5   6  -7    0.32    0.07
   4   6  -7    0.32    0.08
   4   6  -7    0.16    0.06
   3   6  -7    6.06    0.23
   3   6  -7    5.82    0.24
  -3  -6   7    5.90    0.24
   2   6  -7    1.53    0.11
  -2  -6   7    0.97    0.13
  -1  -6   7    3.48    0.18
   0  -6   7    0.85    0.13
   0  -6   7    0.69    0.14
   1  -6   7    0.76    0.13
   1  -6   7    0.61    0.12
   1  -6   7    0.95    0.10
   2  -6   7    0.49    0.10
   2  -6   7    0.36    0.08
   2  -6   7    0.35    0.09
   2  -6   7    0.40    0.07
   3  -6   7   12.53    0.45
   3  -6   7   12.80    0.44
   3  -6   7   13.11    0.46
   3  -6   7   13.11    0.44
   4  -6   7   17.78    0.60
   4  -6   7   17.27    0.58
   4  -6   7   16.63    0.59
   5  -6   7    1.24    0.13
   5  -6   7    0.91    0.13
   5  -6   7    1.01    0.11
   6  -6   7    5.15    0.23
   6  -6   7    5.10    0.23
   6  -6   7    5.34    0.22
   7  -6   7    6.64    0.26
   7  -6   7    6.81    0.26
   7  -6   7    6.50    0.25
   8  -6   7   13.44    0.44
   8  -6   7   13.34    0.44
   8   5  -7    0.54    0.08
   8   5  -7    0.56    0.07
  -8  -5   7    0.42    0.08
   7   5  -7    2.04    0.12
   7   5  -7    1.93    0.12
   6   5  -7   30.84    1.02
   6   5  -7   32.47    1.02
   5   5  -7    9.84    0.37
   5   5  -7   10.38    0.36
   4   5  -7    3.48    0.16
   4   5  -7    3.57    0.23
   3   5  -7   43.24    1.33
   3   5  -7   41.47    1.34
   2   5  -7    1.26    0.13
  -2  -5   7    0.93    0.15
   1   5  -7    2.48    0.15
   0   5  -7    8.76    0.37
  -1   5  -7    2.51    0.21
   1  -5   7    2.17    0.15
  -2   5  -7    2.11    0.26
   2  -5   7    2.10    0.18
   2  -5   7    1.96    0.15
   2  -5   7    2.29    0.16
   3  -5   7    0.14    0.09
   3  -5   7    0.23    0.09
   3  -5   7    0.24    0.07
   4  -5   7    0.17    0.08
   5  -5   7    2.65    0.17
   5  -5   7    2.86    0.17
   5  -5   7    2.80    0.15
  -6   5  -7   -0.09    0.08
   6  -5   7   -0.05    0.05
   6  -5   7    0.08    0.07
   6  -5   7    0.11    0.06
   7  -5   7   10.72    0.39
   7  -5   7   11.14    0.39
   8  -5   7    0.81    0.08
   8  -5   7    0.72    0.07
   8   4  -7    0.12    0.06
   8   4  -7    0.09    0.05
   7   4  -7    0.01    0.05
   7   4  -7    0.08    0.06
   6   4  -7    3.14    0.17
   6   4  -7    3.07    0.16
   5   4  -7    6.01    0.25
   5   4  -7    6.02    0.24
   4   4  -7    7.49    0.29
   4   4  -7    7.66    0.28
   3   4  -7    0.37    0.07
   3   4  -7    0.19    0.08
   2   4  -7    9.85    0.32
   2   4  -7    8.49    0.33
   1   4  -7   14.20    0.54
   1   4  -7   15.47    0.49
   0   4  -7   54.56    1.74
  -1   4  -7    1.33    0.18
  -2   4  -7    0.48    0.14
   2  -4   7    0.85    0.14
   2  -4   7    0.54    0.09
   3  -4   7   15.30    0.52
   3  -4   7   15.52    0.53
   3  -4   7   15.15    0.53
   4  -4   7   30.73    0.98
   4  -4   7   27.61    1.01
   4  -4   7   32.38    0.98
  -5   4  -7   32.14    1.06
   5  -4   7   32.72    1.07
   5  -4   7   33.34    1.07
   5  -4   7   34.39    1.07
   6  -4   7    0.17    0.07
   6  -4   7    0.07    0.06
   7  -4   7    0.95    0.10
   7  -4   7    0.84    0.10
   8  -4   7    1.91    0.10
   8  -4   7    1.80    0.10
   9   3  -7    4.93    0.18
   8   3  -7    1.53    0.11
   8   3  -7    1.51    0.10
   7   3  -7    1.51    0.11
   7   3  -7    1.44    0.11
   6   3  -7   20.85    0.67
   6   3  -7   19.67    0.67
   5   3  -7    3.57    0.18
   5   3  -7    3.91    0.17
   4   3  -7    5.74    0.24
   4   3  -7    6.04    0.23
   3   3  -7    0.73    0.13
   3   3  -7    0.62    0.08
   2   3  -7   57.92    1.80
   1   3  -7   21.26    0.75
   1   3  -7   22.61    0.71
   0   3  -7   41.61    1.28
   0   3  -7   37.34    1.24
  -1   3  -7   30.12    0.99
  -2   3  -7    4.34    0.26
   2  -3   7    4.17    0.20
   2  -3   7    4.01    0.21
   3  -3   7   12.39    0.43
   3  -3   7   11.69    0.45
   3  -3   7   12.87    0.44
  -4   3  -7    0.35    0.09
   4  -3   7    0.50    0.12
   4  -3   7    0.42    0.10
  -5   3  -7    8.38    0.34
   5  -3   7    9.16    0.34
   5  -3   7    9.25    0.34
   6  -3   7    7.35    0.29
   6  -3   7    7.37    0.29
   7  -3   7    0.99    0.10
   7  -3   7    0.95    0.10
  -8   3  -7    6.52    0.23
   8  -3   7    5.34    0.27
   8  -3   7    6.88    0.23
   9   2  -7    0.38    0.06
   8   2  -7    0.53    0.08
   7   2  -7    2.83    0.16
   7   2  -7    3.31    0.16
   6   2  -7    1.00    0.10
   6   2  -7    0.90    0.11
   5   2  -7   11.36    0.40
   5   2  -7   11.22    0.40
   4   2  -7   10.01    0.37
   4   2  -7   10.38    0.36
   3   2  -7   30.23    0.99
   3   2  -7   31.86    0.99
   2   2  -7    0.32    0.07
   1   2  -7    5.40    0.26
   1   2  -7    5.57    0.21
   0   2  -7  128.81    3.93
   0   2  -7  124.30    3.89
  -1   2  -7    8.10    0.34
  -2   2  -7    1.32    0.13
   2  -2   7    1.47    0.16
  -3   2  -7    2.77    0.17
   3  -2   7    3.08    0.18
  -4   2  -7    4.86    0.22
   4  -2   7    4.71    0.24
  -5   2  -7   10.46    0.43
   5  -2   7   11.25    0.40
   5  -2   7   11.16    0.40
   6  -2   7    7.88    0.30
   6  -2   7    7.41    0.30
  -7   2  -7    0.03    0.04
   7  -2   7    0.10    0.06
   7  -2   7    0.08    0.06
  -8   2  -7    0.53    0.07
   8  -2   7    0.72    0.10
   8   1  -7    0.36    0.08
   7   1  -7   15.16    0.55
   7   1  -7   17.03    0.54
   6   1  -7    0.15    0.06
   6   1  -7    0.24    0.07
   5   1  -7    5.80    0.24
   5   1  -7    5.84    0.24
   4   1  -7    7.68    0.28
   4   1  -7    7.23    0.30
   3   1  -7    5.99    0.23
   3   1  -7    5.45    0.25
   2   1  -7    1.98    0.11
   1   1  -7   21.02    0.73
   1   1  -7   21.36    0.69
   0   1  -7   20.09    0.71
   0   1  -7   21.29    0.67
  -1   1  -7    2.45    0.15
  -1   1  -7    2.23    0.20
  -2   1  -7    0.54    0.12
   2  -1   7    0.73    0.17
  -3   1  -7   12.72    0.44
   3  -1   7   12.90    0.46
   4  -1   7    0.65    0.10
   5  -1   7    3.19    0.20
   5  -1   7    3.05    0.18
  -6   1  -7    0.00    0.06
   6  -1   7    0.02    0.07
  -7   1  -7   28.88    0.92
   7  -1   7   29.69    0.93
   7  -1   7   28.58    0.92
  -8   1  -7    1.06    0.08
   8  -1   7    1.08    0.09
   8   0  -7    2.42    0.13
   8   0  -7    2.42    0.14
   7   0  -7    0.11    0.05
   6   0  -7    1.19    0.11
   6   0  -7    1.35    0.14
   5   0  -7    8.83    0.34
   5   0  -7    9.09    0.33
   4   0  -7   43.74    1.42
   4   0  -7   46.07    1.42
   3   0  -7    0.93    0.09
   3   0  -7    1.19    0.19
   3   0  -7    0.96    0.14
   2   0  -7   50.95    1.58
   2   0  -7   49.72    1.57
   1   0  -7    0.25    0.06
   1   0  -7    0.10    0.06
   0   0  -7   12.78    0.51
   0   0  -7   13.43    0.52
   0   0  -7   14.14    0.46
  -1   0  -7   17.15    0.57
  -1   0  -7   17.52    0.57
  -2   0  -7    0.53    0.12
   2   0   7    0.69    0.12
   2   0   7    0.80    0.13
  -3   0  -7   10.55    0.38
   3   0   7   10.54    0.39
   3   0   7   10.41    0.39
  -4   0  -7    0.16    0.09
   4   0   7   -0.10    0.11
  -5   0  -7    0.13    0.06
   5   0   7   -0.08    0.08
   6   0   7    2.36    0.14
  -7   0  -7    5.12    0.20
   7   0   7    5.13    0.20
   8  -1  -7    0.73    0.12
   8  -1  -7    0.60    0.10
   7  -1  -7    0.03    0.06
   7  -1  -7    0.12    0.08
   6  -1  -7   21.21    0.71
   6  -1  -7   21.38    0.70
   5  -1  -7    2.52    0.14
   5  -1  -7    2.44    0.23
   4  -1  -7    9.13    0.34
   4  -1  -7    9.33    0.34
   3  -1  -7    1.56    0.13
   3  -1  -7    1.57    0.11
   2  -1  -7    3.67    0.17
   2  -1  -7    3.55    0.17
   1  -1  -7    0.16    0.06
   1  -1  -7    0.30    0.06
   0  -1  -7    0.39    0.09
   0  -1  -7    0.54    0.09
  -1  -1  -7   16.46    0.55
  -1  -1  -7   16.84    0.56
  -2  -1  -7   10.61    0.38
  -2  -1  -7   10.87    0.38
   2   1   7   11.14    0.39
  -3  -1  -7    0.02    0.06
   3   1   7    0.12    0.10
  -4  -1  -7   52.64    1.64
   4   1   7   51.77    1.72
  -5  -1  -7    0.29    0.06
   5   1   7    0.20    0.10
  -6  -1  -7    0.93    0.09
  -7  -1  -7    0.08    0.05
   8  -2  -7    0.17    0.09
   7  -2  -7    8.37    0.31
   6  -2  -7    3.09    0.16
   5  -2  -7   14.37    0.49
   4  -2  -7   19.32    0.64
   4  -2  -7   18.91    0.63
   3  -2  -7   53.67    1.66
   3  -2  -7   51.81    1.65
   2  -2  -7   12.19    0.41
   2  -2  -7   11.49    0.42
   1  -2  -7   27.80    0.88
   1  -2  -7   26.38    0.86
   1  -2  -7   26.66    0.87
   0  -2  -7    1.82    0.13
   0  -2  -7    2.15    0.14
  -1  -2  -7   -0.06    0.06
  -1  -2  -7    0.10    0.06
   1   2   7    0.07    0.07
  -2  -2  -7    4.21    0.19
   2   2   7    4.22    0.20
  -3  -2  -7    1.06    0.11
  -3  -2  -7    0.93    0.13
   3   2   7    1.13    0.14
  -4  -2  -7   22.51    0.71
   4   2   7   20.39    0.71
  -5  -2  -7    0.10    0.06
  -6  -2  -7    1.32    0.09
  -7  -2  -7    2.51    0.11
   7  -3  -7    0.23    0.07
   6  -3  -7    0.10    0.06
   5  -3  -7    0.87    0.10
   5  -3  -7    0.73    0.12
   4  -3  -7    6.45    0.26
   4  -3  -7    6.42    0.25
   3  -3  -7    0.42    0.09
   3  -3  -7    0.38    0.09
   2  -3  -7    0.41    0.09
   2  -3  -7    0.40    0.10
   2  -3  -7    0.56    0.10
   1  -3  -7    0.74    0.14
   1  -3  -7    0.47    0.08
   0  -3  -7    0.21    0.09
  -1  -3  -7    8.60    0.32
  -1  -3  -7    8.73    0.32
   1   3   7    8.65    0.33
  -2  -3  -7    0.91    0.10
  -2  -3  -7    0.85    0.12
   2   3   7    1.00    0.13
  -3  -3  -7    0.10    0.06
  -3  -3  -7    0.09    0.08
   3   3   7    0.00    0.08
  -4  -3  -7    5.79    0.22
   4   3   7    5.14    0.25
  -5  -3  -7    0.81    0.08
  -6  -3  -7    0.07    0.04
   7  -4  -7    0.10    0.08
   6  -4  -7   17.65    0.58
   6  -4  -7   16.39    0.57
   5  -4  -7   13.87    0.46
   5  -4  -7   12.93    0.47
   4  -4  -7   45.41    1.40
   4  -4  -7   43.61    1.42
   3  -4  -7    3.90    0.19
   3  -4  -7    3.86    0.17
   3  -4  -7    3.60    0.21
   2  -4  -7   44.23    1.39
   2  -4  -7   44.06    1.39
   1  -4  -7    6.68    0.26
   1  -4  -7    7.00    0.27
   0  -4  -7    4.06    0.18
   0  -4  -7    4.04    0.18
   0   4   7    4.38    0.20
  -1  -4  -7    3.66    0.17
  -1  -4  -7    3.74    0.17
  -2  -4  -7    3.58    0.16
  -2  -4  -7    3.53    0.17
   2   4   7    3.50    0.19
  -3  -4  -7    4.68    0.19
   3   4   7    4.38    0.21
  -4  -4  -7   13.38    0.44
   4   4   7   12.77    0.46
  -5  -4  -7    1.41    0.09
  -6  -4  -7    4.25    0.16
   6  -5  -7    3.88    0.17
   5  -5  -7    1.05    0.10
   5  -5  -7    1.01    0.11
   4  -5  -7    0.75    0.09
   3  -5  -7    6.10    0.26
   3  -5  -7    6.24    0.24
   2  -5  -7    1.44    0.13
   2  -5  -7    1.49    0.10
   1  -5  -7    9.58    0.33
   1  -5  -7    8.70    0.32
   0  -5  -7    6.44    0.25
   0  -5  -7    6.67    0.25
   0   5   7    6.57    0.27
  -1  -5  -7   29.22    0.92
  -1  -5  -7   28.90    0.91
   1   5   7   27.59    0.93
  -2  -5  -7   24.38    0.76
  -2  -5  -7   22.90    0.75
   2   5   7   22.70    0.77
  -3  -5  -7    0.24    0.05
   3   5   7    0.18    0.08
  -4  -5  -7    0.47    0.06
   4   5   7    0.92    0.13
   6  -6  -7    6.61    0.24
   5  -6  -7    4.67    0.18
   4  -6  -7   -0.01    0.05
   3  -6  -7   27.56    0.88
   2  -6  -7    0.41    0.07
   2  -6  -7    0.38    0.07
   1  -6  -7    0.51    0.08
   1  -6  -7    0.51    0.09
  -1   6   7    0.56    0.09
   0  -6  -7    1.05    0.10
   0  -6  -7    1.14    0.09
   0   6   7    1.14    0.12
  -1  -6  -7    0.09    0.05
  -1  -6  -7    0.17    0.05
   1   6   7    0.09    0.07
  -2  -6  -7    0.23    0.05
   2   6   7    0.34    0.08
  -3  -6  -7    1.15    0.08
   3   6   7    1.39    0.13
  -4  -6  -7    1.75    0.09
   6  -7  -7   19.61    0.62
   5  -7  -7    1.62    0.09
  -5   7   7    1.63    0.14
   4  -7  -7    2.85    0.13
  -4   7   7    2.67    0.16
   3  -7  -7    2.54    0.12
   3  -7  -7    2.42    0.14
  -3   7   7    2.60    0.15
   2  -7  -7   21.02    0.69
   2  -7  -7   21.64    0.69
  -2   7   7   21.01    0.70
   1  -7  -7    8.82    0.31
   1  -7  -7    8.77    0.31
  -1   7   7    8.58    0.33
   0  -7  -7    3.45    0.15
   0  -7  -7    3.54    0.15
   0   7   7    3.77    0.18
  -1  -7  -7    0.12    0.05
  -1  -7  -7    0.13    0.04
   1   7   7    0.18    0.07
  -2  -7  -7    1.14    0.08
   2   7   7    1.27    0.11
  -3  -7  -7    0.33    0.05
   5  -8  -7    0.30    0.05
  -4   8   7    0.26    0.11
   3  -8  -7    0.28    0.05
   3  -8  -7    0.31    0.08
  -3   8   7    0.30    0.08
   2  -8  -7    2.64    0.12
   2  -8  -7    2.59    0.11
  -2   8   7    2.68    0.15
   1  -8  -7    2.24    0.10
   1  -8  -7    2.21    0.11
  -1   8   7    2.14    0.13
   0  -8  -7    0.29    0.06
   0  -8  -7    0.35    0.07
   0   8   7    0.37    0.07
  -1  -8  -7    0.62    0.06
   1   8   7    0.63    0.10
  -2  -8  -7    1.48    0.08
   3  -9  -7    0.01    0.03
   2  -9  -7    4.31    0.15
   2  -9  -7    4.26    0.16
   1  -9  -7    3.26    0.13
   1  -9  -7    3.14    0.12
   0  -9  -7    0.28    0.05
  -2 -14   8    1.10    0.08
  -1 -14   8    3.07    0.17
   0 -14   8    0.64    0.07
   1 -14   8    0.00    0.04
   2 -14   8    0.16    0.05
   3 -14   8    6.13    0.22
   4 -14   8    4.28    0.16
  -3 -13   8    1.42    0.08
  -2 -13   8    0.48    0.06
  -1 -13   8    0.36    0.07
   0 -13   8    0.75    0.08
   1 -13   8    7.84    0.28
   2 -13   8    6.39    0.24
   3 -13   8    1.10    0.10
   3 -13   8    1.21    0.09
   4 -13   8    0.94    0.08
   4 -13   8    0.90    0.08
   5 -13   8    6.35    0.22
   5 -13   8    6.57    0.23
  -4 -12   8    1.95    0.10
  -3 -12   8    0.68    0.07
  -2 -12   8    0.28    0.07
  -1 -12   8    0.07    0.05
   0 -12   8    0.00    0.06
   1 -12   8   10.37    0.37
   2 -12   8    0.42    0.08
   3 -12   8    0.82    0.09
   3 -12   8    0.85    0.09
   4 -12   8    1.00    0.09
   4 -12   8    1.08    0.09
   5 -12   8    3.68    0.15
   5 -12   8    3.82    0.16
   6 -12   8    1.01    0.07
   6 -12   8    0.93    0.07
  -5 -11   8    1.77    0.09
  -4 -11   8    1.40    0.09
  -3 -11   8    1.35    0.10
  -2 -11   8    1.26    0.11
  -1 -11   8    1.04    0.10
   0 -11   8    0.11    0.05
   1 -11   8    0.01    0.06
   2 -11   8   16.32    0.55
   2 -11   8   15.69    0.54
   2 -11   8   16.70    0.54
   3 -11   8   15.56    0.53
   3 -11   8   15.46    0.51
   3 -11   8   15.17    0.52
   4 -11   8    4.49    0.18
   4 -11   8    4.49    0.19
   5 -11   8    0.83    0.07
   5 -11   8    0.68    0.08
   6 -11   8    0.14    0.04
   6 -11   8    0.02    0.04
  -6 -10   8    1.92    0.09
  -5 -10   8    0.03    0.08
  -5 -10   8    0.12    0.04
  -4 -10   8    1.97    0.14
  -4 -10   8    2.00    0.11
  -3 -10   8   13.44    0.46
  -3 -10   8   13.23    0.46
  -2 -10   8    0.24    0.09
  -2 -10   8    0.10    0.06
  -1 -10   8    1.78    0.13
  -1 -10   8    2.02    0.16
   0 -10   8    5.92    0.24
   0 -10   8    5.70    0.26
   1 -10   8    0.87    0.11
   1 -10   8    0.90    0.15
   1 -10   8    0.86    0.10
   2 -10   8    3.99    0.19
   2 -10   8    4.04    0.19
   2 -10   8    4.24    0.18
   2 -10   8    4.06    0.22
   3 -10   8    4.48    0.19
   3 -10   8    4.14    0.23
   3 -10   8    4.41    0.20
   3 -10   8    4.70    0.19
   4 -10   8    1.83    0.15
   4 -10   8    2.04    0.13
   4 -10   8    1.84    0.12
   5 -10   8    7.19    0.26
   5 -10   8    7.05    0.27
   5 -10   8    7.29    0.28
   6 -10   8    4.10    0.17
   6 -10   8    3.65    0.17
   6 -10   8    4.00    0.16
  -7  10  -8    0.47    0.09
   7 -10   8    0.59    0.06
   7 -10   8    0.76    0.09
  -7  -9   8    1.05    0.07
   6   9  -8    2.14    0.13
  -6  -9   8    2.15    0.10
   5   9  -8    2.34    0.15
  -5  -9   8    2.56    0.13
   4   9  -8    1.58    0.14
  -4  -9   8    1.50    0.11
  -3  -9   8    0.45    0.09
  -2  -9   8    3.71    0.17
  -1  -9   8    1.34    0.15
  -1  -9   8    1.41    0.12
   0  -9   8    0.03    0.06
   0  -9   8   -0.04    0.08
   1  -9   8    5.90    0.23
   1  -9   8    5.69    0.24
   1  -9   8    5.22    0.25
   2  -9   8    4.88    0.21
   2  -9   8    4.77    0.21
   2  -9   8    5.12    0.23
   2  -9   8    4.69    0.20
   3  -9   8    1.31    0.11
   3  -9   8    1.59    0.15
   3  -9   8    1.36    0.12
   3  -9   8    1.32    0.12
   4  -9   8    4.86    0.21
   4  -9   8    5.11    0.23
   4  -9   8    5.19    0.23
   5  -9   8    3.91    0.19
   5  -9   8    3.96    0.17
   6  -9   8    1.24    0.10
   6  -9   8    1.37    0.09
   6  -9   8    1.12    0.10
  -7   9  -8    0.17    0.06
   7  -9   8    0.04    0.04
   7  -9   8    0.05    0.07
   7  -9   8    0.08    0.04
   7   8  -8    0.84    0.13
  -7  -8   8    0.86    0.07
   6   8  -8    3.84    0.23
  -6  -8   8    4.40    0.17
   5   8  -8    0.46    0.11
  -5  -8   8    0.56    0.10
   4   8  -8    1.36    0.13
  -4  -8   8    1.40    0.11
   3   8  -8   15.09    0.51
  -3  -8   8   14.43    0.50
  -2  -8   8   21.64    0.71
  -1  -8   8    0.18    0.07
   0  -8   8    1.44    0.14
   0  -8   8    1.31    0.12
   1  -8   8    5.72    0.25
   2  -8   8   24.90    0.81
   2  -8   8   24.91    0.80
   2  -8   8   25.05    0.81
   2  -8   8   23.53    0.82
   3  -8   8    0.12    0.07
   3  -8   8    0.19    0.07
   3  -8   8    0.26    0.07
   4  -8   8    3.81    0.17
   4  -8   8    3.62    0.19
   4  -8   8    3.51    0.19
   5  -8   8    9.53    0.34
   5  -8   8    9.39    0.35
   5  -8   8    9.47    0.35
   6  -8   8   23.71    0.78
   6  -8   8   24.38    0.79
   6  -8   8   24.23    0.79
  -7   8  -8    0.96    0.13
   7  -8   8    0.89    0.08
   7  -8   8    1.02    0.09
   7  -8   8    1.13    0.07
   7   7  -8    4.04    0.17
  -7  -7   8    4.21    0.16
   6   7  -8    2.15    0.13
  -6  -7   8    2.35    0.13
   5   7  -8    0.40    0.10
   5   7  -8    0.39    0.10
  -5  -7   8    0.41    0.10
  -4  -7   8    0.66    0.11
   3   7  -8    1.99    0.14
  -3  -7   8    2.05    0.14
   2   7  -8    0.78    0.17
  -2  -7   8    0.95    0.11
  -1  -7   8    0.05    0.07
   0  -7   8    7.59    0.29
   0  -7   8    7.14    0.28
   1  -7   8    5.73    0.24
   1  -7   8    5.47    0.24
   2  -7   8    1.87    0.15
   2  -7   8    1.84    0.14
   2  -7   8    1.89    0.15
   3  -7   8   16.17    0.55
   3  -7   8   16.04    0.54
   3  -7   8   15.77    0.55
   4  -7   8    3.70    0.19
   4  -7   8    3.59    0.17
   4  -7   8    3.42    0.20
   5  -7   8    7.29    0.30
   5  -7   8    7.90    0.31
   5  -7   8    7.97    0.29
  -6   7  -8    0.02    0.06
   6  -7   8    0.00    0.05
   6  -7   8    0.12    0.09
   7  -7   8    2.37    0.12
   7  -7   8    2.49    0.12
   8  -7   8    9.50    0.32
   8  -7   8    9.40    0.31
  -8  -6   8    0.03    0.05
   7   6  -8    0.02    0.06
   7   6  -8    0.06    0.04
  -7  -6   8    0.06    0.05
   6   6  -8    4.48    0.19
   6   6  -8    3.78    0.18
  -6  -6   8    3.81    0.22
   5   6  -8    1.23    0.12
   5   6  -8    1.27    0.11
  -5  -6   8    1.23    0.12
   4   6  -8    0.02    0.07
   4   6  -8    0.02    0.06
  -4  -6   8    0.10    0.07
   3   6  -8    0.56    0.10
  -3  -6   8    0.50    0.13
   2   6  -8   13.07    0.44
  -2  -6   8   12.32    0.44
  -1  -6   8    5.53    0.24
   0  -6   8    0.02    0.07
   0  -6   8    0.16    0.08
   1  -6   8    7.45    0.29
   1  -6   8    7.24    0.29
   2  -6   8   16.92    0.57
   2  -6   8   17.17    0.57
   2  -6   8   16.45    0.56
   3  -6   8   20.05    0.67
   3  -6   8   19.81    0.66
   3  -6   8   19.73    0.67
   4  -6   8   32.04    1.03
   4  -6   8   32.29    1.04
   4  -6   8   31.59    1.04
   5  -6   8    1.37    0.13
   5  -6   8    1.11    0.11
   5  -6   8    1.25    0.13
  -6   6  -8    0.78    0.12
   6  -6   8    1.15    0.11
   6  -6   8    1.32    0.12
   6  -6   8    1.23    0.10
   7  -6   8    0.15    0.05
   7  -6   8    0.06    0.05
   8  -6   8    5.50    0.20
   8  -6   8    5.36    0.20
   8   5  -8    2.31    0.12
  -8  -5   8    2.37    0.13
   7   5  -8    0.36    0.08
   7   5  -8    0.39    0.07
  -7  -5   8    0.35    0.07
   6   5  -8    0.00    0.06
   6   5  -8    0.02    0.06
   5   5  -8    1.81    0.12
   5   5  -8    1.94    0.13
   4   5  -8   -0.06    0.06
   4   5  -8    0.02    0.07
  -4  -5   8    0.06    0.08
   3   5  -8    2.68    0.14
   3   5  -8    2.54    0.15
  -3  -5   8    2.20    0.17
   2   5  -8    0.15    0.07
  -2  -5   8    0.20    0.08
   1   5  -8    0.10    0.09
  -1  -5   8    0.13    0.10
   0  -5   8   44.36    1.35
   0  -5   8   39.04    1.32
   1  -5   8    2.09    0.14
   1  -5   8    2.09    0.20
   2  -5   8    1.86    0.17
   2  -5   8    1.69    0.15
   2  -5   8    1.74    0.15
   3  -5   8    0.20    0.07
   3  -5   8    0.06    0.08
   3  -5   8   -0.01    0.08
   4  -5   8    4.11    0.19
   4  -5   8    3.97    0.21
   4  -5   8    4.20    0.21
  -5   5  -8    1.66    0.14
   5  -5   8    1.74    0.12
   5  -5   8    1.83    0.15
   5  -5   8    1.80    0.14
  -6   5  -8   19.40    0.70
   6  -5   8   22.65    0.71
   6  -5   8   22.15    0.72
   7  -5   8    2.19    0.12
   7  -5   8    2.20    0.12
  -8   5  -8    4.54    0.16
   8  -5   8    4.62    0.16
   8  -5   8    3.56    0.18
   8   4  -8    6.39    0.23
   8   4  -8    6.18    0.24
   7   4  -8    4.24    0.19
   7   4  -8    4.32    0.18
  -7  -4   8    4.58    0.20
   6   4  -8    2.80    0.15
   6   4  -8    2.91    0.16
   5   4  -8   37.94    1.23
   5   4  -8   39.15    1.24
   4   4  -8    0.89    0.10
   4   4  -8    0.90    0.12
  -4  -4   8    0.70    0.17
   3   4  -8    9.10    0.32
   3   4  -8    8.63    0.33
   2   4  -8    2.23    0.13
   2   4  -8    1.79    0.20
   1   4  -8   74.28    2.30
   1   4  -8   74.53    2.31
   0   4  -8    2.22    0.14
   0  -4   8    1.87    0.14
   1  -4   8    2.16    0.15
   2  -4   8   14.42    0.49
   2  -4   8   13.72    0.51
   2  -4   8   14.17    0.48
   3  -4   8   22.29    0.75
   3  -4   8   23.63    0.74
   3  -4   8   22.16    0.75
  -4   4  -8    1.37    0.13
   4  -4   8    1.51    0.15
   4  -4   8    1.44    0.12
   4  -4   8    1.52    0.14
  -5   4  -8    8.58    0.33
   5  -4   8    8.67    0.34
   5  -4   8    8.90    0.33
   6  -4   8    2.07    0.14
   7  -4   8    9.99    0.35
   7  -4   8   10.13    0.35
  -8   4  -8    0.41    0.06
   8  -4   8    0.50    0.07
   8  -4   8    0.29    0.07
   8   3  -8    0.79    0.07
   8   3  -8    0.89    0.09
   7   3  -8    8.19    0.29
   7   3  -8    7.89    0.30
   6   3  -8    1.91    0.13
   6   3  -8    1.61    0.12
   5   3  -8    4.41    0.21
   5   3  -8    4.79    0.20
   4   3  -8    0.01    0.05
   4   3  -8   -0.01    0.07
   3   3  -8    3.79    0.19
   3   3  -8    3.87    0.17
   2   3  -8   39.91    1.30
   2   3  -8   42.44    1.30
   1   3  -8   10.66    0.39
   1   3  -8   10.86    0.37
   0   3  -8   26.91    0.85
   0   3  -8   25.59    0.85
   0  -3   8   26.89    0.86
  -1   3  -8    2.02    0.14
   1  -3   8    1.87    0.15
  -2   3  -8   18.32    0.61
   2  -3   8   18.28    0.62
  -3   3  -8   12.28    0.43
   3  -3   8   12.40    0.45
  -4   3  -8    3.02    0.17
   4  -3   8    3.03    0.21
   4  -3   8    3.19    0.18
  -5   3  -8   30.74    1.00
   5  -3   8   30.93    1.01
   5  -3   8   31.86    1.02
   6  -3   8    6.68    0.28
   6  -3   8    7.59    0.30
  -7   3  -8    4.18    0.17
   7  -3   8    4.25    0.18
   7  -3   8    4.04    0.18
  -8   3  -8    0.11    0.04
   8  -3   8    0.13    0.05
   8   2  -8    8.17    0.28
   8   2  -8    8.13    0.29
   7   2  -8    3.51    0.16
   7   2  -8    3.68    0.17
   6   2  -8    6.35    0.26
   6   2  -8    7.01    0.27
   5   2  -8    6.25    0.25
   5   2  -8    6.02    0.25
   4   2  -8   23.73    0.78
   3   2  -8    1.44    0.18
   3   2  -8    0.79    0.09
   2   2  -8    3.03    0.15
   2   2  -8    3.09    0.18
   1   2  -8    0.62    0.12
   1   2  -8    0.59    0.10
   0   2  -8   89.47    2.75
   0   2  -8   90.88    2.75
   0  -2   8   86.01    2.76
  -1   2  -8    0.51    0.08
   1  -2   8    0.74    0.11
  -2   2  -8    0.46    0.08
   2  -2   8    0.72    0.15
  -3   2  -8    0.96    0.14
   3  -2   8    0.86    0.14
  -4   2  -8    4.95    0.22
   4  -2   8    5.10    0.23
  -5   2  -8   10.52    0.39
   5  -2   8   11.47    0.40
   6  -2   8   -0.03    0.10
   6  -2   8    0.16    0.06
  -7   2  -8    5.36    0.20
   7  -2   8    5.52    0.21
   8   1  -8    7.53    0.28
   7   1  -8    3.28    0.15
   7   1  -8    3.03    0.15
   6   1  -8    6.06    0.24
   6   1  -8    5.41    0.24
   5   1  -8    0.24    0.06
   5   1  -8    0.33    0.08
   4   1  -8   17.51    0.59
   3   1  -8    4.55    0.19
   3   1  -8    4.54    0.22
   2   1  -8    5.28    0.22
   2   1  -8    5.34    0.23
   1   1  -8   30.90    0.96
   1   1  -8   30.22    0.95
  -1  -1   8   28.12    0.97
   0   1  -8    0.00    0.06
   0   1  -8    0.08    0.07
   0   1  -8    0.05    0.11
   0  -1   8    0.07    0.10
  -1   1  -8   34.01    1.07
  -1   1  -8   34.32    1.07
   1  -1   8   32.07    1.08
  -2   1  -8    6.40    0.25
   2  -1   8    6.09    0.28
  -3   1  -8   65.19    2.06
   3  -1   8   67.22    2.08
  -4   1  -8    0.19    0.08
   4  -1   8    0.15    0.09
  -5   1  -8    0.95    0.10
   5  -1   8    1.06    0.13
  -6   1  -8    0.01    0.05
   6  -1   8    0.10    0.07
  -7   1  -8    5.01    0.19
   8   0  -8    6.46    0.25
   7   0  -8    0.90    0.10
   7   0  -8    0.84    0.11
   6   0  -8    7.47    0.30
   6   0  -8    8.53    0.30
   5   0  -8   15.22    0.52
   5   0  -8   14.99    0.58
   4   0  -8   24.32    0.80
   4   0  -8   24.89    0.81
   3   0  -8    2.05    0.13
   3   0  -8    1.92    0.15
   2   0  -8    0.22    0.06
   2   0  -8    0.41    0.10
   1   0  -8    0.91    0.10
   1   0  -8    0.88    0.10
   0   0  -8    4.75    0.20
   0   0  -8    4.60    0.23
  -1   0  -8    1.41    0.12
  -1   0  -8    1.49    0.13
  -2   0  -8    2.05    0.20
  -2   0  -8    2.64    0.17
   2   0   8    2.29    0.22
   2   0   8    2.69    0.17
  -3   0  -8    9.12    0.34
  -3   0  -8    9.13    0.34
   3   0   8    9.34    0.36
  -4   0  -8    0.83    0.10
  -4   0  -8    0.74    0.14
   4   0   8    1.11    0.16
  -5   0  -8    2.31    0.13
  -6   0  -8    0.94    0.08
   6   0   8    0.75    0.13
   8  -1  -8   10.34    0.36
   7  -1  -8    1.95    0.13
   6  -1  -8   14.08    0.49
   5  -1  -8    0.17    0.06
   4  -1  -8    6.21    0.25
   4  -1  -8    5.89    0.24
   3  -1  -8    4.66    0.21
   3  -1  -8    4.82    0.21
   2  -1  -8   13.03    0.46
   2  -1  -8   13.21    0.45
   1  -1  -8    5.02    0.25
   1  -1  -8    5.15    0.22
   1  -1  -8    4.90    0.21
   0  -1  -8   13.57    0.46
   0  -1  -8   13.14    0.46
   1   1   8   13.16    0.46
  -2  -1  -8    5.90    0.25
  -2  -1  -8    6.41    0.25
   2   1   8    6.20    0.27
  -3  -1  -8   15.32    0.52
  -3  -1  -8   15.40    0.52
  -4  -1  -8    0.00    0.05
  -5  -1  -8    1.84    0.11
  -6  -1  -8   -0.02    0.04
  -7  -1  -8    0.01    0.04
   6  -2  -8    6.39    0.26
   5  -2  -8    0.18    0.08
   5  -2  -8    0.09    0.06
   4  -2  -8   27.33    1.02
   4  -2  -8   31.59    0.95
   3  -2  -8    2.37    0.15
   2  -2  -8   16.91    0.57
   2  -2  -8   16.19    0.55
   1  -2  -8   11.10    0.47
   1  -2  -8   12.26    0.41
   0  -2  -8   11.39    0.41
   0  -2  -8   11.80    0.40
  -1  -2  -8    0.70    0.11
  -1  -2  -8    0.94    0.10
   1   2   8    0.70    0.13
  -2  -2  -8   23.32    0.76
  -2  -2  -8   23.40    0.76
  -3  -2  -8    0.96    0.13
  -3  -2  -8    0.86    0.10
   3   2   8    0.81    0.15
  -4  -2  -8    0.13    0.05
  -5  -2  -8    3.59    0.15
  -6  -2  -8    6.08    0.21
   7  -3  -8   17.30    0.58
   6  -3  -8    1.03    0.11
   5  -3  -8    0.36    0.07
   5  -3  -8    0.53    0.11
   4  -3  -8    4.67    0.22
   4  -3  -8    5.04    0.20
   3  -3  -8   29.67    1.00
   3  -3  -8   31.25    0.98
   2  -3  -8   17.99    0.60
   1  -3  -8   27.15    0.87
   1  -3  -8   27.08    0.87
   0  -3  -8   15.79    0.54
   0  -3  -8   16.10    0.53
  -1  -3  -8   42.38    1.34
  -1  -3  -8   43.46    1.34
   1   3   8   41.38    1.36
  -2  -3  -8    0.16    0.07
  -2  -3  -8    0.06    0.06
   2   3   8    0.00    0.08
  -3  -3  -8    2.19    0.13
   3   3   8    2.35    0.17
  -4  -3  -8    2.75    0.13
  -5  -3  -8    3.20    0.13
  -6  -3  -8    3.15    0.12
   6  -4  -8    0.02    0.08
   5  -4  -8   -0.01    0.07
   5  -4  -8    0.04    0.06
   4  -4  -8    1.74    0.13
   4  -4  -8    1.86    0.12
   3  -4  -8    0.75    0.09
   2  -4  -8    9.45    0.34
   2  -4  -8    9.15    0.33
   1  -4  -8    0.09    0.07
   1  -4  -8    0.02    0.05
   0  -4  -8    1.14    0.10
   0  -4  -8    1.42    0.11
   0   4   8    1.35    0.13
  -1  -4  -8    6.15    0.24
  -1  -4  -8    6.18    0.24
   1   4   8    5.89    0.26
  -2  -4  -8    2.20    0.12
  -2  -4  -8    2.07    0.13
   2   4   8    1.72    0.15
  -3  -4  -8    0.46    0.07
   3   4   8    0.54    0.13
  -4  -4  -8    3.17    0.13
   4   4   8    3.05    0.30
   6  -5  -8    0.14    0.07
   5  -5  -8    0.80    0.08
   4  -5  -8    6.50    0.24
   3  -5  -8    9.25    0.38
   3  -5  -8    9.32    0.33
   2  -5  -8   23.40    0.77
   2  -5  -8   24.47    0.78
   1  -5  -8    0.30    0.07
   1  -5  -8    0.40    0.10
  -1   5   8    0.37    0.10
   0  -5  -8    0.74    0.08
   0  -5  -8    0.91    0.10
   0   5   8    0.98    0.12
  -1  -5  -8    0.01    0.05
   1   5   8   -0.01    0.07
  -2  -5  -8    0.06    0.04
  -2  -5  -8    0.00    0.06
   2   5   8    0.00    0.08
  -3  -5  -8   11.08    0.38
   3   5   8   11.91    0.41
  -4  -5  -8    1.62    0.08
   5  -6  -8    3.08    0.13
   4  -6  -8    3.19    0.14
   3  -6  -8   11.69    0.39
   3  -6  -8   11.43    0.40
  -3   6   8   11.41    0.41
   2  -6  -8    6.48    0.24
   2  -6  -8    6.36    0.24
  -2   6   8    6.48    0.26
   1  -6  -8    8.72    0.31
   1  -6  -8    8.42    0.30
  -1   6   8    8.99    0.33
   0  -6  -8    0.21    0.05
   0  -6  -8    0.29    0.05
   0   6   8    0.38    0.08
  -1  -6  -8    3.51    0.15
  -1  -6  -8    3.72    0.15
  -2  -6  -8    0.02    0.04
   2   6   8   -0.07    0.07
  -3  -6  -8    3.07    0.12
   5  -7  -8    0.02    0.04
   4  -7  -8    2.26    0.10
  -4   7   8    2.32    0.13
   3  -7  -8    3.41    0.17
   3  -7  -8    3.46    0.14
  -3   7   8    3.61    0.17
   2  -7  -8    3.13    0.14
   2  -7  -8    3.09    0.13
  -2   7   8    3.07    0.16
   1  -7  -8    0.62    0.06
   1  -7  -8    0.56    0.07
  -1   7   8    0.72    0.10
   0  -7  -8    0.90    0.07
   0  -7  -8    0.89    0.07
   0   7   8    0.88    0.11
  -1  -7  -8    5.28    0.19
   1   7   8    5.45    0.22
  -2  -7  -8    1.32    0.07
   3  -8  -8    2.31    0.10
   2  -8  -8    3.86    0.15
   2  -8  -8    3.86    0.14
   1  -8  -8    0.67    0.07
   1  -8  -8    0.49    0.06
   0  -8  -8    7.39    0.25
  -1 -14   9    0.22    0.06
   0 -14   9    3.13    0.13
   1 -14   9    0.09    0.04
   2 -14   9    0.88    0.07
   3 -14   9    0.15    0.04
  -3 -13   9    0.20    0.06
  -2 -13   9    0.74    0.07
  -1 -13   9    1.58    0.09
   0 -13   9    0.07    0.05
   1 -13   9    0.59    0.08
   2 -13   9    1.27    0.11
   3 -13   9    3.60    0.15
   4 -13   9    0.20    0.06
   4 -13   9    0.09    0.04
   5 -13   9    9.99    0.33
  -4 -12   9    2.55    0.11
  -3 -12   9    1.08    0.08
  -2 -12   9    1.78    0.10
  -1 -12   9    5.33    0.21
   0 -12   9    0.67    0.08
   1 -12   9    0.00    0.05
   2 -12   9    0.13    0.05
   3 -12   9    1.46    0.10
   3 -12   9    1.29    0.11
   4 -12   9    0.43    0.08
   4 -12   9    0.40    0.07
   5 -12   9    0.15    0.08
   5 -12   9    0.07    0.04
  -5 -11   9    0.06    0.04
  -4 -11   9    6.51    0.24
  -3 -11   9    0.18    0.05
  -2 -11   9    1.72    0.15
  -1 -11   9    0.97    0.10
  -1 -11   9    0.91    0.15
   0 -11   9    0.78    0.10
   0 -11   9    0.88    0.18
   1 -11   9    1.35    0.11
   1 -11   9    1.32    0.20
   2 -11   9   14.23    0.54
   2 -11   9   17.41    0.54
   3 -11   9    3.69    0.16
   3 -11   9    3.33    0.19
   4 -11   9    8.72    0.30
   4 -11   9    8.42    0.30
   4 -11   9    7.71    0.30
   5 -11   9    4.81    0.18
   5 -11   9    4.88    0.19
  -6  11  -9    1.89    0.10
   6 -11   9    2.05    0.10
   6 -11   9    2.01    0.13
  -6 -10   9    0.00    0.04
  -5 -10   9    1.02    0.08
  -5 -10   9    0.87    0.11
  -4 -10   9   18.56    0.60
  -4 -10   9   18.36    0.60
  -3 -10   9   13.78    0.46
  -3 -10   9   12.96    0.46
  -2 -10   9    7.17    0.28
  -2 -10   9    6.75    0.27
  -1 -10   9    0.24    0.06
  -1 -10   9    0.28    0.08
   0 -10   9    5.04    0.22
   0 -10   9    5.26    0.23
   1 -10   9   -0.01    0.06
   1 -10   9    0.00    0.08
   2 -10   9    0.29    0.09
   2 -10   9    0.12    0.06
   2 -10   9    0.14    0.08
   3 -10   9    9.28    0.35
   3 -10   9    9.11    0.34
   3 -10   9    9.27    0.33
   4 -10   9    2.96    0.15
   4 -10   9    3.04    0.16
   5 -10   9   -0.05    0.04
   5 -10   9   -0.03    0.04
   5 -10   9    0.01    0.06
  -6  10  -9    0.69    0.07
   6 -10   9    0.68    0.07
   6 -10   9    0.65    0.06
  -6  -9   9    0.29    0.06
   5   9  -9    2.83    0.18
  -5  -9   9    3.10    0.14
  -4  -9   9    1.48    0.12
  -3  -9   9    4.95    0.21
  -2  -9   9    0.05    0.06
  -2  -9   9    0.01    0.07
  -1  -9   9   16.50    0.56
  -1  -9   9   16.42    0.56
   0  -9   9   12.42    0.44
   0  -9   9   12.64    0.44
   1  -9   9    1.30    0.12
   1  -9   9    1.15    0.14
   2  -9   9   10.41    0.39
   2  -9   9   10.41    0.38
   2  -9   9   10.54    0.38
   3  -9   9    0.14    0.07
   3  -9   9    0.16    0.07
   3  -9   9    0.10    0.06
   4  -9   9    0.11    0.06
   4  -9   9    0.10    0.07
   4  -9   9    0.16    0.06
   5  -9   9    0.08    0.05
   5  -9   9    0.03    0.05
   5  -9   9    0.02    0.06
  -6   9  -9    4.29    0.17
   6  -9   9    4.32    0.17
   6  -9   9    4.22    0.18
   6  -9   9    4.22    0.18
   7  -9   9    9.77    0.33
   7  -9   9    9.86    0.33
  -7  -8   9    0.04    0.04
   6   8  -9    2.69    0.15
  -6  -8   9    2.87    0.13
   5   8  -9    5.85    0.24
  -5  -8   9    5.69    0.22
   4   8  -9    0.76    0.12
  -4  -8   9    0.46    0.09
  -3  -8   9    8.82    0.32
  -2  -8   9    5.63    0.23
   1   8  -9    1.66    0.16
  -1  -8   9    1.79    0.14
  -1  -8   9    1.79    0.14
   0  -8   9    0.11    0.07
   0  -8   9    0.03    0.06
   1  -8   9    0.60    0.11
   1  -8   9    0.83    0.12
   2  -8   9    0.84    0.13
   2  -8   9    0.62    0.12
   2  -8   9    0.50    0.12
   3  -8   9   23.68    0.78
   3  -8   9   23.78    0.79
   3  -8   9   24.31    0.79
   4  -8   9    0.86    0.12
   4  -8   9    1.12    0.12
   4  -8   9    0.99    0.11
   5  -8   9    0.31    0.07
   5  -8   9    0.40    0.10
  -6   8  -9   10.93    0.38
   6  -8   9   11.66    0.39
   6  -8   9   11.05    0.38
   6  -8   9   11.44    0.39
   7  -8   9    4.19    0.16
   7  -8   9    4.23    0.16
   7   7  -9    2.62    0.14
  -7  -7   9    2.80    0.13
   6   7  -9    0.22    0.06
  -6  -7   9    0.42    0.08
   5   7  -9    9.45    0.36
  -5  -7   9   10.79    0.36
   4   7  -9    0.54    0.11
  -4  -7   9    0.65    0.11
   3   7  -9    4.70    0.21
  -3  -7   9    4.37    0.20
  -2  -7   9    3.51    0.18
   1   7  -9   21.96    0.71
  -1  -7   9   20.79    0.76
  -1  -7   9   21.58    0.71
   0  -7   9   19.92    0.68
   0  -7   9   21.25    0.69
   1  -7   9    0.28    0.07
   2  -7   9    2.80    0.16
   2  -7   9    2.68    0.17
   2  -7   9    2.62    0.16
   3  -7   9    8.32    0.31
   3  -7   9    7.69    0.31
   3  -7   9    7.70    0.30
   4  -7   9    2.66    0.16
   4  -7   9    2.77    0.15
   4  -7   9    2.86    0.17
  -5   7  -9   -0.03    0.05
   5  -7   9    0.09    0.06
   5  -7   9    0.02    0.06
   5  -7   9   -0.11    0.06
  -6   7  -9    0.21    0.06
   6  -7   9    0.15    0.05
   6  -7   9    0.22    0.06
   7  -7   9    2.55    0.12
   7  -7   9    2.44    0.12
   7   6  -9    2.80    0.14
  -7  -6   9    2.98    0.19
   6   6  -9    6.43    0.26
  -6  -6   9    7.14    0.26
   5   6  -9    0.50    0.10
  -5  -6   9    0.35    0.08
   4   6  -9    5.93    0.25
  -4  -6   9    5.94    0.25
   3   6  -9    1.27    0.13
  -3  -6   9    1.21    0.13
   2   6  -9    0.27    0.10
  -2  -6   9    0.01    0.08
   1   6  -9    5.30    0.24
  -1  -6   9    5.17    0.24
   0   6  -9    0.47    0.10
   0  -6   9    0.60    0.14
   0  -6   9    0.49    0.10
   1  -6   9   16.97    0.60
   1  -6   9   18.22    0.60
   2  -6   9   13.45    0.47
   2  -6   9   13.16    0.46
   2  -6   9   12.72    0.50
   3  -6   9   12.55    0.46
   3  -6   9   12.67    0.44
   3  -6   9   13.00    0.46
   4  -6   9    2.07    0.14
   4  -6   9    2.11    0.15
   4  -6   9    2.09    0.15
  -5   6  -9    1.20    0.12
   5  -6   9    1.36    0.14
   5  -6   9    0.91    0.10
   5  -6   9    1.18    0.12
  -6   6  -9    7.12    0.26
   6  -6   9    6.74    0.26
   6  -6   9    6.70    0.27
   7  -6   9    1.01    0.08
   7  -6   9    0.92    0.09
   7   5  -9    3.29    0.15
   6   5  -9    5.02    0.21
  -6  -5   9    5.12    0.22
   5   5  -9    2.38    0.14
   5   5  -9    1.97    0.13
  -5  -5   9    2.12    0.17
   4   5  -9   25.08    0.78
  -4  -5   9   22.25    0.77
   3   5  -9   36.48    1.10
  -3  -5   9   32.53    1.10
   2   5  -9    7.66    0.32
   2   5  -9    7.80    0.29
   1   5  -9    1.19    0.14
   0   5  -9    2.80    0.16
   0  -5   9    2.71    0.15
  -1   5  -9   31.21    0.98
   1  -5   9   28.79    0.99
   1  -5   9   32.04    0.99
  -2   5  -9    0.10    0.05
   2  -5   9    0.07    0.07
   2  -5   9    0.30    0.11
   2  -5   9    0.14    0.08
  -3   5  -9   54.23    1.66
   3  -5   9   53.33    1.66
   3  -5   9   51.82    1.67
   3  -5   9   51.69    1.67
  -4   5  -9   11.10    0.39
   4  -5   9   11.03    0.41
   4  -5   9   10.90    0.40
  -5   5  -9    1.87    0.14
   5  -5   9    1.88    0.15
   5  -5   9    1.97    0.14
  -6   5  -9    3.86    0.18
   6  -5   9    3.71    0.18
   6  -5   9    3.59    0.17
   7  -5   9    0.29    0.10
   7  -5   9    0.21    0.05
   8   4  -9    0.31    0.07
   7   4  -9    1.22    0.11
   6   4  -9    2.81    0.15
   6   4  -9    3.08    0.16
   5   4  -9    0.20    0.07
   5   4  -9    0.10    0.06
   4   4  -9    3.07    0.16
   3   4  -9    0.47    0.10
   2   4  -9    1.60    0.12
   2   4  -9    1.62    0.17
   1   4  -9    6.78    0.27
   1   4  -9    7.08    0.28
  -1  -4   9    6.79    0.28
   0   4  -9   34.65    1.11
   0  -4   9   35.36    1.12
  -1   4  -9    1.23    0.12
   1  -4   9    1.46    0.14
  -2   4  -9    5.39    0.26
  -3   4  -9    1.14    0.13
   3  -4   9    1.32    0.14
  -4   4  -9    7.24    0.28
   4  -4   9    6.97    0.29
   4  -4   9    7.36    0.31
  -5   4  -9    0.79    0.12
   5  -4   9    0.64    0.14
   5  -4   9    0.45    0.11
   6  -4   9    4.56    0.21
   6  -4   9    4.48    0.20
  -7   4  -9    5.84    0.21
   7  -4   9    5.68    0.22
   8   3  -9    0.10    0.06
   7   3  -9    5.63    0.22
   6   3  -9    1.64    0.12
   6   3  -9    1.30    0.11
   5   3  -9    6.35    0.26
   5   3  -9    6.69    0.26
   4   3  -9    6.08    0.25
   3   3  -9   37.21    1.19
   2   3  -9    1.36    0.14
   2   3  -9    1.54    0.12
   1   3  -9    0.55    0.09
   1   3  -9    0.68    0.09
  -1  -3   9    0.56    0.12
   0   3  -9   20.46    0.68
   0  -3   9   20.70    0.69
  -1   3  -9    0.12    0.06
   1  -3   9    0.03    0.09
  -2   3  -9    9.55    0.35
  -3   3  -9   11.26    0.40
   3  -3   9   11.07    0.41
  -4   3  -9    3.58    0.18
   4  -3   9    4.05    0.20
  -5   3  -9   27.66    0.89
   5  -3   9   27.53    0.90
  -6   3  -9    0.91    0.09
   6  -3   9    1.09    0.10
  -7   3  -9    1.77    0.09
   7  -3   9    1.61    0.10
   8   2  -9    0.16    0.06
   7   2  -9    1.54    0.11
   6   2  -9    8.12    0.30
   5   2  -9    1.32    0.11
   3   2  -9    3.16    0.20
   3   2  -9    3.62    0.17
   2   2  -9    0.04    0.06
   2   2  -9    0.04    0.08
   1   2  -9    0.05    0.07
   1   2  -9    0.04    0.06
  -1  -2   9    0.05    0.09
   0   2  -9    5.38    0.23
   0   2  -9    5.47    0.22
   0  -2   9    5.05    0.24
  -1   2  -9   45.48    1.40
  -1   2  -9   43.43    1.39
   1  -2   9   43.92    1.41
  -2   2  -9   -0.05    0.06
   2  -2   9   -0.09    0.09
  -3   2  -9    2.26    0.15
   3  -2   9    2.76    0.18
  -4   2  -9   10.02    0.36
   4  -2   9   10.10    0.38
  -5   2  -9    1.47    0.11
  -5   2  -9    1.17    0.15
  -6   2  -9    2.71    0.13
   6  -2   9    2.71    0.14
  -7   2  -9    2.22    0.10
   7  -2   9    1.86    0.12
   8   1  -9    0.75    0.10
   7   1  -9    6.73    0.26
   6   1  -9   18.60    0.62
   4   1  -9    1.71    0.13
   3   1  -9    3.69    0.18
   3   1  -9    3.39    0.19
   2   1  -9   13.47    0.44
   2   1  -9   12.03    0.46
  -2  -1   9   11.70    0.45
   1   1  -9    3.22    0.17
   1   1  -9    3.17    0.16
  -1  -1   9    3.18    0.20
   0   1  -9    0.14    0.11
   0   1  -9    0.11    0.06
   0  -1   9    0.06    0.12
  -1   1  -9   20.17    0.65
  -1   1  -9   19.43    0.67
   1  -1   9   19.59    0.67
  -2   1  -9   10.75    0.39
  -2   1  -9   11.42    0.40
   2  -1   9   11.37    0.42
  -3   1  -9    0.47    0.11
  -3   1  -9    0.44    0.09
   3  -1   9    0.64    0.14
  -4   1  -9   16.54    0.56
  -4   1  -9   16.87    0.56
   4  -1   9   17.05    0.58
  -5   1  -9    1.13    0.09
   5  -1   9    1.21    0.13
  -6   1  -9    1.42    0.09
   6  -1   9    1.51    0.13
  -7   1  -9    0.63    0.06
   7   0  -9    9.36    0.39
   6   0  -9    2.91    0.15
   5   0  -9    4.74    0.21
   4   0  -9    5.01    0.22
   3   0  -9   45.42    1.44
   3   0  -9   45.80    1.45
   2   0  -9   25.75    0.83
   2   0  -9   24.66    0.82
   1   0  -9    2.81    0.16
   1   0  -9    2.65    0.15
   0   0  -9    0.01    0.05
  -1   0  -9   29.74    0.98
  -1   0  -9   30.35    0.98
   1   0   9   31.56    0.99
  -2   0  -9    4.95    0.21
  -2   0  -9    4.82    0.21
   2   0   9    4.60    0.26
  -3   0  -9    0.99    0.11
  -3   0  -9    1.12    0.12
  -4   0  -9   21.92    0.72
  -4   0  -9   21.82    1.10
  -5   0  -9    5.53    0.21
  -6   0  -9    0.63    0.06
   7  -1  -9    0.72    0.09
   6  -1  -9    0.49    0.09
   5  -1  -9   11.63    0.42
   4  -1  -9    9.86    0.34
   4  -1  -9    8.51    0.34
   3  -1  -9    1.24    0.16
   3  -1  -9    1.35    0.12
   2  -1  -9    2.22    0.14
   2  -1  -9    2.27    0.15
   1  -1  -9   10.99    0.39
   0  -1  -9   33.70    1.06
   0  -1  -9   32.50    1.05
  -1  -1  -9   10.44    0.37
  -1  -1  -9   10.16    0.37
   1   1   9   10.51    0.38
  -2  -1  -9    1.69    0.12
  -2  -1  -9    1.64    0.12
   2   1   9    1.58    0.16
  -3  -1  -9    1.43    0.11
  -3  -1  -9    1.51    0.12
  -4  -1  -9    2.79    0.14
  -5  -1  -9    4.76    0.18
   7  -2  -9    2.74    0.15
   6  -2  -9   21.76    0.72
   5  -2  -9    0.89    0.11
   5  -2  -9    1.12    0.13
   4  -2  -9   18.85    0.67
   4  -2  -9   21.13    0.66
   3  -2  -9    3.42    0.16
   3  -2  -9    3.10    0.17
   2  -2  -9    6.22    0.24
   2  -2  -9    5.61    0.25
   1  -2  -9    9.30    0.34
   1  -2  -9    9.59    0.35
   0  -2  -9    1.24    0.12
   0  -2  -9    1.13    0.11
  -1  -2  -9   24.92    0.79
  -1  -2  -9   24.33    0.79
   1   2   9   23.37    0.80
  -2  -2  -9    0.81    0.10
  -2  -2  -9    0.98    0.11
   2   2   9    0.70    0.14
  -3  -2  -9    2.28    0.14
  -3  -2  -9    2.32    0.14
  -4  -2  -9    3.27    0.15
  -5  -2  -9    6.15    0.22
   6  -3  -9    1.41    0.11
   5  -3  -9    0.33    0.07
   5  -3  -9    0.31    0.07
   4  -3  -9    2.62    0.14
   4  -3  -9    2.17    0.14
   3  -3  -9    0.73    0.09
   2  -3  -9    5.33    0.21
   1  -3  -9   10.22    0.37
   0  -3  -9    1.40    0.11
   0  -3  -9    1.49    0.12
   0   3   9    1.58    0.14
  -1  -3  -9    1.75    0.12
  -1  -3  -9    1.77    0.12
   1   3   9    1.65    0.15
  -2  -3  -9    8.99    0.31
   2   3   9    8.62    0.34
  -3  -3  -9    5.62    0.23
  -3  -3  -9    5.33    0.21
   3   3   9    5.12    0.25
  -4  -3  -9    3.80    0.15
  -5  -3  -9    1.43    0.08
   5  -4  -9   12.46    0.42
   4  -4  -9    0.03    0.05
   2  -4  -9    0.67    0.08
   2  -4  -9    0.76    0.13
   1  -4  -9    0.47    0.08
  -1   4   9    0.71    0.11
   0  -4  -9    5.49    0.21
   0   4   9    4.86    0.23
  -1  -4  -9    2.95    0.14
  -1  -4  -9    2.82    0.13
   1   4   9    2.88    0.17
  -2  -4  -9    6.54    0.24
  -2  -4  -9    6.69    0.24
   2   4   9    6.67    0.28
  -3  -4  -9    0.38    0.06
   3   4   9    0.82    0.18
  -4  -4  -9    4.00    0.15
   5  -5  -9    1.84    0.10
   4  -5  -9    0.08    0.04
   3  -5  -9    0.63    0.07
   2  -5  -9    0.44    0.08
   2  -5  -9    0.61    0.07
  -2   5   9    0.48    0.09
   1  -5  -9    1.23    0.08
   1  -5  -9    1.00    0.10
  -1   5   9    1.12    0.11
   0  -5  -9    1.08    0.08
   0  -5  -9    1.22    0.09
   0   5   9    0.95    0.11
  -1  -5  -9    1.05    0.08
  -1  -5  -9    1.08    0.08
   1   5   9    0.99    0.12
  -2  -5  -9    2.50    0.11
   2   5   9    2.35    0.16
  -3  -5  -9    0.01    0.04
   5  -6  -9    3.96    0.15
   4  -6  -9    0.89    0.07
  -4   6   9    0.95    0.11
   3  -6  -9    8.44    0.29
  -3   6   9    8.30    0.30
   2  -6  -9   -0.02    0.03
  -2   6   9   -0.04    0.07
   1  -6  -9    1.20    0.08
   1  -6  -9    1.16    0.09
  -1   6   9    1.37    0.12
   0  -6  -9    1.69    0.09
   0  -6  -9    1.55    0.09
   0   6   9    1.81    0.13
  -1  -6  -9    5.92    0.21
  -1  -6  -9    5.92    0.21
   1   6   9    5.79    0.24
  -2  -6  -9    0.06    0.03
   3  -7  -9    0.64    0.05
   2  -7  -9    0.51    0.05
   1  -7  -9    0.12    0.05
   1  -7  -9    0.18    0.04
   0  -7  -9    1.75    0.09
   0  -7  -9    2.20    0.13
  -1 -14  10    0.21    0.05
   0 -14  10    0.01    0.03
   1 -14  10    1.15    0.08
   2 -14  10    0.78    0.06
  -3 -13  10    1.80    0.08
  -2 -13  10    0.53    0.06
  -1 -13  10    0.81    0.07
   0 -13  10   14.54    0.48
   1 -13  10    5.65    0.21
   2 -13  10    1.42    0.09
   3 -13  10    0.77    0.07
  -4  13 -10    1.89    0.09
   4 -13  10    1.64    0.09
  -4 -12  10    0.03    0.03
  -3 -12  10    0.16    0.04
  -2 -12  10    0.45    0.07
  -1 -12  10    1.50    0.10
   0 -12  10    0.16    0.05
   1 -12  10    0.22    0.05
   2 -12  10    1.74    0.11
   3 -12  10   14.57    0.48
   4 -12  10    0.03    0.04
   4 -12  10    0.05    0.06
  -5  12 -10    0.63    0.06
   5 -12  10    0.61    0.06
  -5 -11  10    0.61    0.06
  -4 -11  10    0.03    0.08
  -4 -11  10    0.07    0.04
  -3 -11  10    0.08    0.04
  -3 -11  10    0.12    0.07
  -2 -11  10    7.60    0.28
  -2 -11  10    7.75    0.29
  -1 -11  10   -0.05    0.05
  -1 -11  10    0.05    0.07
   0  11 -10    2.61    0.16
   0 -11  10    3.04    0.18
   0 -11  10    2.56    0.16
   1 -11  10    9.30    0.36
   1 -11  10   10.56    0.40
   2 -11  10    3.61    0.17
   2 -11  10    3.72    0.18
   3 -11  10    1.45    0.12
   3 -11  10    1.33    0.10
   3 -11  10    1.29    0.13
   4 -11  10    3.92    0.16
   4 -11  10    3.79    0.16
   4 -11  10    3.76    0.17
  -5  11 -10    7.07    0.24
   5 -11  10    7.00    0.24
   5 -11  10    6.45    0.25
   5 -11  10    6.90    0.24
  -5 -10  10    0.09    0.04
  -5 -10  10    0.06    0.05
  -4 -10  10    3.62    0.16
  -4 -10  10    3.79    0.16
  -3 -10  10    0.96    0.10
  -3 -10  10    0.83    0.10
  -2 -10  10    0.65    0.10
  -1 -10  10    2.06    0.13
  -1 -10  10    2.25    0.14
   0  10 -10    7.89    0.29
   0 -10  10    7.61    0.30
   0 -10  10    7.96    0.30
   1 -10  10    0.11    0.06
   1 -10  10   -0.05    0.07
   2 -10  10    0.86    0.10
   2 -10  10    1.14    0.13
   3 -10  10    7.11    0.27
   3 -10  10    7.34    0.28
   4 -10  10   29.00    0.90
   4 -10  10   28.13    0.91
   4 -10  10   28.19    0.91
  -5  10 -10    2.95    0.13
   5 -10  10    2.84    0.14
   5 -10  10    3.12    0.13
   5 -10  10    3.11    0.14
  -6  10 -10    1.36    0.08
   6 -10  10    1.08    0.09
   6 -10  10    1.29    0.09
  -6  -9  10    3.30    0.14
  -6  -9  10    3.06    0.13
  -5  -9  10    2.12    0.11
  -4  -9  10    0.58    0.09
  -3  -9  10    7.43    0.28
  -3  -9  10    7.29    0.28
  -2  -9  10    1.61    0.13
  -2  -9  10    1.95    0.14
  -1  -9  10    9.16    0.33
  -1  -9  10    8.76    0.33
   0   9 -10   10.09    0.37
   0  -9  10   10.41    0.38
   0  -9  10   10.50    0.37
   1  -9  10    0.08    0.07
   1  -9  10    0.18    0.07
   2  -9  10   18.93    0.63
   2  -9  10   18.32    0.62
   3  -9  10    4.30    0.20
   3  -9  10    4.56    0.20
   3  -9  10    4.31    0.20
   4  -9  10    0.02    0.05
   4  -9  10    0.15    0.06
   4  -9  10    0.07    0.06
  -5   9 -10    1.48    0.09
   5  -9  10    1.39    0.09
   5  -9  10    1.30    0.10
   5  -9  10    1.41    0.10
  -6   9 -10    0.20    0.05
   6  -9  10    0.32    0.06
   6  -9  10    0.18    0.05
  -6  -8  10   -0.01    0.07
   5   8 -10    2.56    0.17
  -5  -8  10    2.51    0.13
  -3  -8  10    1.45    0.13
  -2  -8  10    6.41    0.26
  -2  -8  10    6.21    0.25
   1   8 -10    3.94    0.20
  -1  -8  10    3.86    0.18
  -1  -8  10    3.64    0.18
   0   8 -10   50.68    1.58
   0  -8  10   50.43    1.58
   0  -8  10   49.65    1.59
   1  -8  10    5.88    0.25
   1  -8  10    6.01    0.25
   2  -8  10   34.92    1.09
   2  -8  10   32.58    1.08
   2  -8  10   34.43    1.09
   3  -8  10    2.00    0.14
   3  -8  10    1.89    0.14
   3  -8  10    1.86    0.14
   4  -8  10    0.67    0.11
   4  -8  10    0.55    0.11
   4  -8  10    0.62    0.09
  -5   8 -10    2.72    0.13
   5  -8  10    2.58    0.14
   5  -8  10    2.70    0.14
  -6   8 -10    0.40    0.08
   6  -8  10    0.38    0.07
   6  -8  10    0.39    0.07
   7  -8  10    0.17    0.07
   7  -8  10    0.08    0.04
   6   7 -10   -0.01    0.07
  -6  -7  10   -0.07    0.06
   5   7 -10   12.54    0.44
  -5  -7  10   12.54    0.42
   4   7 -10    7.24    0.29
  -4  -7  10    7.70    0.28
  -3  -7  10    2.13    0.15
  -2  -7  10   -0.11    0.08
   1   7 -10   20.97    0.67
  -1  -7  10   19.67    0.67
  -1  -7  10   20.72    0.68
   0   7 -10    0.12    0.07
   0  -7  10    0.18    0.09
   0  -7  10    0.03    0.06
  -1   7 -10    6.05    0.24
   1  -7  10    6.32    0.27
   1  -7  10    6.24    0.26
   2  -7  10   21.18    0.68
   2  -7  10   19.77    0.67
   2  -7  10   20.29    0.68
  -3   7 -10    2.67    0.15
   3  -7  10    3.11    0.17
   3  -7  10    2.93    0.16
   3  -7  10    3.01    0.17
  -4   7 -10   10.32    0.37
   4  -7  10   10.89    0.39
   4  -7  10   10.31    0.37
   4  -7  10   10.78    0.38
  -5   7 -10    0.04    0.05
   5  -7  10    0.15    0.06
   5  -7  10    0.02    0.05
  -6   7 -10    0.87    0.09
   6  -7  10    0.76    0.09
   6  -7  10    0.85    0.08
   7  -7  10    0.07    0.04
   7   6 -10    1.30    0.10
   6   6 -10    1.51    0.13
   5   6 -10    0.08    0.07
  -5  -6  10    0.14    0.08
   4   6 -10    0.48    0.10
  -4  -6  10    0.33    0.09
  -3  -6  10   22.20    0.73
  -2  -6  10    2.58    0.19
   1   6 -10    2.50    0.17
  -1  -6  10    2.74    0.19
  -1  -6  10    2.82    0.16
   0   6 -10    9.92    0.35
   0  -6  10    9.86    0.35
   0  -6  10    8.77    0.43
  -1   6 -10    1.17    0.11
   1  -6  10    0.83    0.12
   1  -6  10    0.96    0.16
  -2   6 -10   11.16    0.40
   2  -6  10   11.65    0.42
   2  -6  10   11.77    0.43
  -3   6 -10   10.22    0.38
   3  -6  10   10.77    0.39
   3  -6  10   10.66    0.39
  -4   6 -10    5.86    0.24
   4  -6  10    6.06    0.25
   4  -6  10    5.91    0.26
  -5   6 -10    0.09    0.06
   5  -6  10    0.13    0.06
   5  -6  10    0.28    0.08
  -6   6 -10    0.46    0.10
   6  -6  10    0.43    0.10
   6  -6  10    0.43    0.07
  -7   6 -10   -0.02    0.03
   7  -6  10    0.09    0.04
   7   5 -10    0.15    0.06
   6   5 -10    0.05    0.06
   5   5 -10    2.65    0.15
   4   5 -10    0.48    0.10
   3   5 -10    0.67    0.11
   2   5 -10    2.27    0.16
   2   5 -10    2.20    0.17
   1   5 -10   19.85    0.65
  -1  -5  10   19.09    0.65
   0   5 -10    3.40    0.17
   0  -5  10    3.27    0.17
  -1   5 -10   29.69    0.97
   1  -5  10   30.67    0.98
  -2   5 -10   -0.02    0.06
   2  -5  10   -0.07    0.08
  -3   5 -10    9.59    0.35
   3  -5  10    9.50    0.36
  -4   5 -10   14.35    0.49
   4  -5  10   14.95    0.50
   4  -5  10   13.50    0.50
  -5   5 -10    6.46    0.24
   5  -5  10    6.32    0.26
   5  -5  10    6.23    0.25
   6  -5  10    1.36    0.10
  -7   5 -10    0.47    0.05
   7  -5  10    0.44    0.06
   7   4 -10    1.21    0.10
   6   4 -10    7.89    0.29
   5   4 -10    0.24    0.07
   4   4 -10    4.10    0.18
   3   4 -10    0.19    0.07
   2   4 -10   21.27    0.71
   2   4 -10   21.92    0.71
   1   4 -10   30.62    1.00
  -1  -4  10   31.45    1.00
   0   4 -10   28.84    0.93
   0  -4  10   28.89    0.94
  -1   4 -10    0.18    0.06
   1  -4  10    0.12    0.08
  -2   4 -10    0.32    0.07
   2  -4  10    0.28    0.09
  -3   4 -10   51.73    1.64
   3  -4  10   52.39    1.65
  -4   4 -10    5.08    0.21
   4  -4  10    4.90    0.23
  -5   4 -10   11.67    0.41
   5  -4  10   12.08    0.42
  -6   4 -10    0.33    0.06
   6  -4  10    0.31    0.07
  -7   4 -10    0.33    0.05
   7  -4  10    0.40    0.07
   7   3 -10    3.20    0.15
   6   3 -10    0.31    0.08
   5   3 -10    1.31    0.11
   4   3 -10    1.47    0.12
   3   3 -10    0.25    0.10
   3   3 -10    0.24    0.07
   2   3 -10    0.26    0.08
   2   3 -10    0.35    0.08
  -2  -3  10    0.35    0.09
   1   3 -10    2.76    0.18
   1   3 -10    2.69    0.15
  -1  -3  10    2.70    0.17
   0   3 -10    5.11    0.22
   0  -3  10    4.98    0.23
  -1   3 -10   44.91    1.40
  -1   3 -10   43.63    1.40
   1  -3  10   44.68    1.41
  -2   3 -10    7.20    0.28
  -2   3 -10    6.75    0.28
   2  -3  10    7.18    0.30
  -3   3 -10   12.57    0.44
   3  -3  10   12.90    0.46
  -4   3 -10    0.94    0.11
   4  -3  10    0.89    0.13
  -5   3 -10    0.06    0.04
  -5   3 -10    0.06    0.07
   5  -3  10   -0.04    0.06
  -6   3 -10    3.39    0.14
   6  -3  10    3.21    0.15
   7   2 -10    0.33    0.08
   6   2 -10    6.25    0.25
   5   2 -10   12.40    0.44
   4   2 -10    6.38    0.26
   3   2 -10    6.68    0.28
   3   2 -10    6.98    0.27
   2   2 -10    1.38    0.13
   2   2 -10    1.54    0.14
  -2  -2  10    1.56    0.15
   1   2 -10    0.87    0.13
   1   2 -10    0.96    0.11
  -1  -2  10    0.94    0.14
   0   2 -10   17.58    0.59
   0  -2  10   17.70    0.61
  -1   2 -10    0.05    0.08
  -1   2 -10   -0.06    0.05
   1  -2  10    0.01    0.10
  -2   2 -10   16.24    0.55
  -2   2 -10   16.27    0.55
   2  -2  10   16.18    0.57
  -3   2 -10    0.17    0.06
  -3   2 -10    0.21    0.06
   3  -2  10    0.20    0.09
  -4   2 -10    4.76    0.20
  -5   2 -10    0.03    0.04
   5  -2  10    0.06    0.06
  -6   2 -10    0.68    0.07
   6  -2  10    0.89    0.11
   7   1 -10   14.42    0.48
   6   1 -10    3.56    0.17
   5   1 -10    1.26    0.11
   4   1 -10   17.14    0.56
   4   1 -10   16.03    0.57
   3   1 -10    0.94    0.11
   3   1 -10    1.02    0.13
  -3  -1  10    0.96    0.17
   2   1 -10    0.13    0.07
   2   1 -10    0.14    0.06
  -2  -1  10    0.13    0.10
   1   1 -10    1.26    0.13
   1   1 -10    1.56    0.12
  -1  -1  10    1.42    0.18
   0   1 -10    8.84    0.32
   0  -1  10    8.54    0.35
  -1   1 -10   21.97    0.71
  -1   1 -10   22.56    0.72
   1  -1  10   20.90    0.73
  -2   1 -10    3.17    0.16
  -2   1 -10    3.20    0.17
   2  -1  10    3.13    0.21
  -3   1 -10    2.91    0.15
  -3   1 -10    3.10    0.16
   3  -1  10    3.16    0.20
  -4   1 -10   12.48    0.43
  -4   1 -10   12.74    0.43
   4  -1  10   12.67    0.45
  -5   1 -10    1.80    0.10
  -6   1 -10    1.89    0.09
   7   0 -10    4.57    0.19
   6   0 -10   27.68    0.89
   5   0 -10    0.53    0.10
   4   0 -10    0.24    0.07
   4   0 -10    0.22    0.07
   3   0 -10    6.72    0.26
   3   0 -10    6.03    0.26
   2   0 -10    1.00    0.11
   2   0 -10    0.98    0.12
   1   0 -10    4.04    0.18
   0   0 -10    0.32    0.09
   0   0 -10    0.34    0.07
  -1   0 -10    0.15    0.06
  -1   0 -10    0.21    0.08
   1   0  10    0.22    0.10
  -2   0 -10    2.51    0.14
  -2   0 -10    2.27    0.14
  -3   0 -10    2.17    0.17
  -3   0 -10    2.20    0.13
  -4   0 -10    0.62    0.08
  -4   0 -10    0.45    0.08
  -5   0 -10    0.39    0.06
  -6   0 -10    4.18    0.15
   7  -1 -10    1.38    0.11
   6  -1 -10    1.45    0.11
   5  -1 -10    7.69    0.30
   4  -1 -10    5.88    0.23
   4  -1 -10    5.25    0.24
   3  -1 -10   32.19    1.09
   3  -1 -10   35.21    1.08
   2  -1 -10    8.50    0.31
   1  -1 -10   22.43    0.73
   0  -1 -10    3.58    0.18
   0  -1 -10    3.44    0.16
   0   1  10    3.29    0.19
  -1  -1 -10    8.59    0.30
  -1  -1 -10    7.88    0.30
   1   1  10    7.74    0.32
  -2  -1 -10    8.35    0.30
  -2  -1 -10    8.22    0.30
  -3  -1 -10    1.60    0.11
  -3  -1 -10    1.58    0.10
  -4  -1 -10    0.58    0.07
  -5  -1 -10    0.00    0.03
   6  -2 -10    4.62    0.20
   5  -2 -10    0.36    0.07
   5  -2 -10    0.30    0.07
   4  -2 -10    0.69    0.09
   4  -2 -10    0.48    0.10
   3  -2 -10    2.37    0.13
   2  -2 -10    1.29    0.10
   1  -2 -10    3.26    0.21
   1  -2 -10    3.31    0.15
   0  -2 -10    0.29    0.08
   0  -2 -10    0.37    0.08
   0   2  10    0.27    0.09
  -1  -2 -10    6.31    0.23
   1   2  10    5.71    0.26
  -2  -2 -10    0.39    0.08
  -2  -2 -10    0.50    0.08
  -3  -2 -10    1.11    0.08
  -3  -2 -10    0.99    0.10
  -4  -2 -10    2.56    0.11
   5  -3 -10    4.02    0.17
   4  -3 -10   17.01    0.55
   3  -3 -10    0.36    0.07
   1  -3 -10    1.70    0.13
  -1   3  10    1.87    0.14
   0  -3 -10    0.06    0.04
   0  -3 -10   -0.01    0.06
   0   3  10    0.01    0.07
  -1  -3 -10   -0.05    0.04
  -1  -3 -10    0.01    0.04
   1   3  10    0.07    0.09
  -2  -3 -10    1.23    0.08
  -2  -3 -10    1.27    0.09
   2   3  10    1.58    0.17
  -3  -3 -10   10.40    0.35
  -4  -3 -10    0.13    0.04
   5  -4 -10    1.05    0.09
   4  -4 -10   11.42    0.38
   3  -4 -10    7.14    0.25
   2  -4 -10    0.56    0.06
  -2   4  10    0.45    0.10
   1  -4 -10   -0.01    0.07
   1  -4 -10    0.03    0.03
  -1   4  10    0.08    0.07
   0  -4 -10    2.09    0.10
   0  -4 -10    1.98    0.11
   0   4  10    2.06    0.15
  -1  -4 -10    0.16    0.04
  -1  -4 -10    0.19    0.05
   1   4  10    0.13    0.10
  -2  -4 -10    0.17    0.06
  -2  -4 -10    0.14    0.04
  -3  -4 -10    0.94    0.07
  -4   5  10    1.35    0.11
   3  -5 -10    1.13    0.07
  -3   5  10    1.09    0.10
   2  -5 -10    1.14    0.07
  -2   5  10    1.01    0.11
   1  -5 -10    4.96    0.20
   1  -5 -10    5.18    0.19
  -1   5  10    5.14    0.22
   0  -5 -10    0.44    0.06
   0   5  10    0.57    0.12
  -1  -5 -10    2.11    0.11
  -1  -5 -10    2.04    0.10
  -2  -5 -10    0.70    0.06
   3  -6 -10    0.92    0.06
   2  -6 -10    8.85    0.29
   1  -6 -10    2.49    0.10
   0  -6 -10   10.19    0.34
  -2 -13  11    1.29    0.07
  -1 -13  11    0.97    0.07
   0 -13  11    0.11    0.04
   1 -13  11    1.98    0.10
  -2  13 -11    0.00    0.05
   2 -13  11    0.03    0.04
  -3  13 -11    2.58    0.11
   3 -13  11    2.45    0.11
  -3 -12  11    0.07    0.06
  -2 -12  11    2.75    0.12
  -1 -12  11    4.78    0.19
   0 -12  11    0.29    0.07
   0 -12  11    0.17    0.07
  -1  12 -11   -0.04    0.06
   1 -12  11    0.04    0.04
   1 -12  11    0.01    0.08
  -2  12 -11   25.19    0.80
   2 -12  11   25.60    0.81
  -3  12 -11    7.24    0.25
   3 -12  11    6.95    0.25
   4 -12  11    0.18    0.05
  -4 -11  11    1.27    0.08
  -4 -11  11    1.30    0.11
  -3 -11  11    1.39    0.11
  -3 -11  11    1.67    0.09
  -2 -11  11    0.34    0.08
  -2 -11  11    0.27    0.07
  -1 -11  11    8.99    0.32
  -1 -11  11    8.90    0.32
   0  11 -11    1.78    0.14
   0 -11  11    1.95    0.12
   0 -11  11    1.93    0.13
  -1  11 -11    1.18    0.11
   1 -11  11    1.13    0.09
   1 -11  11    1.24    0.12
  -2  11 -11    1.64    0.10
   2 -11  11    1.89    0.12
   2 -11  11    1.69    0.11
  -3  11 -11    0.89    0.08
   3 -11  11    0.66    0.10
   3 -11  11    1.04    0.08
  -4  11 -11    4.01    0.16
   4 -11  11    4.00    0.16
  -5  11 -11    7.80    0.26
   5 -11  11    7.65    0.26
  -5 -10  11    1.14    0.09
  -5 -10  11    1.21    0.08
  -4 -10  11    1.98    0.11
  -4 -10  11    1.80    0.10
  -3 -10  11    4.43    0.18
  -3 -10  11    4.36    0.18
  -2 -10  11    1.12    0.10
  -2 -10  11    1.23    0.10
  -1 -10  11   21.98    0.72
  -1 -10  11   22.25    0.72
   0  10 -11    0.08    0.07
  -1  10 -11   23.89    0.76
   1 -10  11   23.09    0.79
  -2  10 -11    4.82    0.20
   2 -10  11    4.64    0.20
   2 -10  11    5.17    0.20
  -3  10 -11    3.28    0.15
   3 -10  11    3.47    0.16
   3 -10  11    3.33    0.16
  -4  10 -11    0.77    0.08
   4 -10  11    0.85    0.08
   4 -10  11    0.80    0.09
  -5  10 -11    2.86    0.12
   5 -10  11    2.75    0.13
  -6  -9  11    1.08    0.07
  -5  -9  11   -0.04    0.06
  -5  -9  11    0.00    0.04
  -4  -9  11    0.04    0.06
  -4  -9  11    0.08    0.05
  -3  -9  11    0.58    0.10
  -3  -9  11    0.57    0.09
  -2  -9  11    1.42    0.12
  -1  -9  11    0.97    0.12
  -1  -9  11    1.32    0.12
   0   9 -11    7.52    0.29
   0  -9  11    7.85    0.30
   0  -9  11    7.69    0.29
  -1   9 -11    2.92    0.15
   1  -9  11    2.67    0.16
   1  -9  11    2.89    0.16
  -2   9 -11   10.90    0.39
   2  -9  11   11.13    0.40
   2  -9  11   11.35    0.40
  -3   9 -11    4.71    0.19
   3  -9  11    4.72    0.20
   3  -9  11    4.77    0.21
  -4   9 -11    0.08    0.05
   4  -9  11    0.04    0.06
   4  -9  11    0.04    0.05
  -5   9 -11    7.87    0.27
   5  -9  11    7.86    0.28
   5  -9  11    8.05    0.28
  -6   9 -11    2.87    0.12
   6  -9  11    2.88    0.12
   6  -9  11    2.73    0.13
  -5  -8  11    0.28    0.08
  -4  -8  11    4.95    0.20
  -4  -8  11    5.10    0.21
  -3  -8  11    0.07    0.08
  -3  -8  11    0.10    0.06
  -2  -8  11    0.64    0.11
  -2  -8  11    0.50    0.08
   1   8 -11    1.73    0.14
  -1  -8  11    1.74    0.12
  -1  -8  11    1.62    0.14
   0   8 -11    6.22    0.24
   0  -8  11    6.37    0.25
   0  -8  11    5.77    0.25
  -1   8 -11    0.64    0.10
   1  -8  11    0.60    0.12
   1  -8  11    0.52    0.10
  -2   8 -11    0.45    0.09
   2  -8  11    0.43    0.09
   2  -8  11    0.35    0.08
  -3   8 -11    0.16    0.06
   3  -8  11    0.23    0.07
   3  -8  11    0.29    0.11
  -4   8 -11    0.74    0.08
   4  -8  11    0.62    0.10
   4  -8  11    0.57    0.09
  -5   8 -11    0.88    0.08
   5  -8  11    0.87    0.08
   5  -8  11    1.05    0.10
  -6   8 -11    0.00    0.05
   6  -8  11   -0.02    0.07
   6  -8  11    0.09    0.04
   5   7 -11    0.21    0.09
  -3  -7  11    1.47    0.25
  -3  -7  11    1.74    0.13
  -2  -7  11    2.21    0.14
  -2  -7  11    2.11    0.17
   1   7 -11   23.92    0.75
  -1  -7  11   22.79    0.76
  -1  -7  11   22.10    0.75
   0   7 -11   10.10    0.35
   0  -7  11    9.15    0.37
   0  -7  11    9.25    0.35
  -1   7 -11   21.22    0.69
   1  -7  11   21.28    0.70
   1  -7  11   20.61    0.70
  -2   7 -11    2.93    0.15
   2  -7  11    2.53    0.18
   2  -7  11    2.93    0.17
  -3   7 -11   32.82    1.05
   3  -7  11   33.45    1.07
   3  -7  11   32.81    1.09
  -4   7 -11   12.97    0.44
   4  -7  11   12.28    0.44
   4  -7  11   13.21    0.45
  -5   7 -11    2.25    0.11
   5  -7  11    2.03    0.13
   5  -7  11    2.18    0.12
  -6   7 -11    0.98    0.10
   6  -7  11    1.12    0.08
  -7  -6  11    1.21    0.08
   6   6 -11    1.80    0.13
   5   6 -11    0.23    0.09
   4   6 -11    2.63    0.16
   2   6 -11    4.42    0.22
  -2  -6  11    4.76    0.21
   1   6 -11    9.91    0.36
  -1  -6  11    9.91    0.36
   0   6 -11    1.01    0.11
   0  -6  11    0.63    0.11
  -1   6 -11   21.22    0.68
   1  -6  11   20.12    0.69
  -2   6 -11    0.72    0.10
   2  -6  11    0.76    0.12
  -3   6 -11   13.80    0.48
   3  -6  11   14.54    0.50
  -4   6 -11    0.34    0.08
   4  -6  11    0.23    0.07
  -5   6 -11    0.03    0.05
   5  -6  11    0.03    0.05
  -6   6 -11    3.78    0.14
   6  -6  11    3.55    0.15
   6   5 -11    0.80    0.10
   5   5 -11   10.46    0.37
   4   5 -11    0.20    0.08
   3   5 -11    0.09    0.09
   2   5 -11    0.39    0.08
  -2  -5  11    0.34    0.07
   1   5 -11    9.76    0.35
  -1  -5  11    9.11    0.35
   0   5 -11   32.18    1.02
   0  -5  11   31.46    1.03
  -1   5 -11    3.06    0.16
   1  -5  11    3.18    0.18
  -2   5 -11    1.42    0.12
   2  -5  11    1.55    0.14
  -3   5 -11    5.16    0.22
   3  -5  11    5.43    0.24
  -4   5 -11    6.54    0.25
   4  -5  11    6.76    0.26
  -5   5 -11    2.78    0.13
  -5   5 -11    2.69    0.13
   5  -5  11    2.76    0.14
  -6   5 -11    1.89    0.09
   6  -5  11    2.34    0.14
   6   4 -11    0.73    0.10
   5   4 -11    0.13    0.07
   4   4 -11    4.48    0.20
   3   4 -11    3.90    0.20
  -3  -4  11    4.43    0.20
   2   4 -11   -0.04    0.07
   2   4 -11   -0.14    0.09
  -2  -4  11    0.09    0.07
   1   4 -11    1.29    0.12
  -1  -4  11    1.34    0.12
   0   4 -11    1.99    0.13
   0  -4  11    1.88    0.15
  -1   4 -11    6.05    0.25
   1  -4  11    6.60    0.27
  -2   4 -11    2.27    0.14
  -2   4 -11    2.31    0.15
   2  -4  11    2.23    0.16
  -3   4 -11    0.15    0.06
  -3   4 -11   -0.01    0.05
   3  -4  11   -0.03    0.07
  -4   4 -11    0.53    0.08
  -4   4 -11    0.55    0.09
   4  -4  11    0.63    0.10
  -5   4 -11    0.74    0.10
  -5   4 -11    0.79    0.07
   5  -4  11    0.76    0.09
  -6   4 -11    0.83    0.09
   6  -4  11    1.05    0.08
  -7  -3  11    1.14    0.09
   6   3 -11    0.19    0.06
   5   3 -11    2.33    0.14
   4   3 -11    2.82    0.15
   3   3 -11    7.26    0.30
   3   3 -11    7.74    0.30
  -3  -3  11    8.47    0.31
   2   3 -11    0.05    0.07
   2   3 -11   -0.10    0.08
  -2  -3  11   -0.01    0.07
   1   3 -11    0.22    0.07
  -1  -3  11    0.24    0.08
   0   3 -11    9.40    0.35
   0  -3  11    9.65    0.36
  -1   3 -11   21.87    0.73
   1  -3  11   22.80    0.75
  -2   3 -11   -0.06    0.05
  -2   3 -11    0.04    0.07
   2  -3  11    0.04    0.09
  -3   3 -11    0.04    0.06
  -3   3 -11    0.12    0.06
   3  -3  11   -0.08    0.08
  -4   3 -11    0.77    0.08
  -4   3 -11    0.81    0.10
   4  -3  11    0.82    0.11
  -5   3 -11    0.74    0.16
  -5   3 -11    1.06    0.08
   5  -3  11    1.00    0.10
  -6   3 -11   -0.02    0.03
   6   2 -11    1.12    0.10
  -6  -2  11    1.13    0.12
   5   2 -11    1.49    0.12
  -5  -2  11    1.52    0.13
   4   2 -11    9.19    0.35
  -4  -2  11    9.54    0.35
   3   2 -11    0.22    0.07
   3   2 -11    0.12    0.07
  -3  -2  11    0.28    0.08
   2   2 -11    0.01    0.08
   2   2 -11    0.08    0.06
  -2  -2  11    0.06    0.08
   1   2 -11    1.14    0.11
  -1  -2  11    0.96    0.16
   0   2 -11    6.26    0.25
   0  -2  11    6.11    0.27
  -1   2 -11    0.63    0.10
  -1   2 -11    0.62    0.10
   1  -2  11    0.41    0.11
  -2   2 -11    3.15    0.16
  -2   2 -11    3.28    0.16
   2  -2  11    2.98    0.19
  -3   2 -11   15.63    0.55
  -3   2 -11   16.18    0.52
   3  -2  11   15.41    0.54
  -4   2 -11    6.33    0.23
  -4   2 -11    6.13    0.24
   4  -2  11    6.30    0.25
  -5   2 -11    2.93    0.12
   6   1 -11    6.17    0.24
   5   1 -11    0.10    0.06
   4   1 -11   17.22    0.58
   4   1 -11   17.09    0.56
   3   1 -11    9.77    0.37
   3   1 -11    9.92    0.35
   2   1 -11   40.15    1.33
   2   1 -11   43.70    1.33
   1   1 -11    2.16    0.13
   0   1 -11    4.51    0.20
  -1   1 -11    0.67    0.12
  -1   1 -11    0.80    0.10
  -2   1 -11    1.11    0.10
  -3   1 -11    1.56    0.11
  -3   1 -11    1.53    0.11
  -4   1 -11    0.36    0.07
  -4   1 -11    0.30    0.07
  -5   1 -11    0.62    0.06
   6   0 -11    1.03    0.10
   5   0 -11    2.71    0.15
   4   0 -11    0.37    0.10
   4   0 -11    0.16    0.06
   3   0 -11    5.16    0.23
   3   0 -11    5.42    0.22
   2   0 -11    1.42    0.11
   1   0 -11   12.19    0.42
   0   0 -11   13.28    0.44
   0   0  11   12.31    0.45
  -1   0 -11    8.64    0.30
  -1   0 -11    7.85    0.31
  -2   0 -11   10.12    0.35
  -2   0 -11    9.73    0.35
  -3   0 -11    4.60    0.19
  -3   0 -11    4.89    0.19
  -4   0 -11    6.77    0.24
  -5   0 -11    0.36    0.06
   6  -1 -11   11.08    0.38
   5  -1 -11    4.49    0.19
   4  -1 -11    3.04    0.14
   4  -1 -11    2.94    0.16
   3  -1 -11    1.83    0.11
   1  -1 -11    5.86    0.23
   0  -1 -11    0.34    0.07
   0  -1 -11    0.51    0.11
   0   1  11    0.57    0.12
  -1  -1 -11    0.15    0.05
  -1  -1 -11    0.05    0.06
  -2  -1 -11    0.05    0.05
  -2  -1 -11    0.08    0.05
  -3  -1 -11    0.05    0.04
  -3  -1 -11    0.16    0.05
  -4  -1 -11    0.66    0.07
   4  -2 -11    2.17    0.12
   3  -2 -11    2.05    0.11
   2  -2 -11    0.95    0.08
   1  -2 -11    0.95    0.08
  -1   2  11    1.14    0.13
   0  -2 -11    2.22    0.13
   0  -2 -11    2.08    0.11
   0   2  11    2.44    0.22
  -1  -2 -11    2.85    0.13
  -1  -2 -11    2.86    0.13
   1   2  11    2.77    0.29
  -2  -2 -11    0.82    0.08
  -2  -2 -11    0.89    0.08
  -3  -2 -11    0.06    0.04
   4  -3 -11    0.64    0.08
   3  -3 -11    1.84    0.09
   2  -3 -11    3.46    0.14
  -2   3  11    3.58    0.17
   1  -3 -11    1.14    0.08
  -1   3  11    1.15    0.12
   0  -3 -11    5.72    0.21
   0  -3 -11    5.74    0.22
   0   3  11    6.19    0.25
  -1  -3 -11    1.92    0.10
  -1  -3 -11    1.97    0.10
  -2  -3 -11    0.09    0.05
  -2  -3 -11    0.10    0.04
   4  -4 -11    1.79    0.09
   3  -4 -11    9.20    0.30
  -3   4  11    8.44    0.31
   2  -4 -11   21.49    0.69
  -2   4  11   21.91    0.71
   1  -4 -11    6.42    0.22
  -1   4  11    6.33    0.26
   0  -4 -11    0.16    0.10
   0  -4 -11    0.12    0.03
  -1  -4 -11    0.12    0.05
  -1  -4 -11    0.05    0.04
  -1 -13  12    3.41    0.13
   0 -13  12    0.14    0.04
   1 -13  12    2.59    0.11
   2 -13  12    0.00    0.04
  -2 -12  12    1.67    0.09
  -1 -12  12    1.29    0.09
  -1 -12  12    0.99    0.12
   0 -12  12    0.08    0.04
   0 -12  12    0.07    0.07
  -1  12 -12    0.30    0.06
   1 -12  12    0.39    0.07
  -2  12 -12    0.69    0.08
   2 -12  12    0.76    0.07
   2 -12  12    0.78    0.10
  -3  12 -12    2.70    0.11
   3 -12  12    2.59    0.12
  -3 -11  12    6.68    0.24
  -3 -11  12    6.77    0.24
  -2 -11  12   -0.02    0.05
  -2 -11  12    0.04    0.05
  -1 -11  12    4.67    0.19
  -1 -11  12    4.77    0.19
   0 -11  12   10.32    0.35
   0 -11  12    9.86    0.35
  -1  11 -12    0.84    0.09
   1 -11  12    0.99    0.09
   1 -11  12    1.09    0.10
  -2  11 -12    2.04    0.11
   2 -11  12    2.03    0.12
   2 -11  12    2.01    0.11
  -3  11 -12    1.04    0.08
   3 -11  12    1.18    0.09
   3 -11  12    1.01    0.09
  -4  11 -12    2.97    0.12
   4 -11  12    2.85    0.13
  -4 -10  12   -0.04    0.07
  -3 -10  12    9.56    0.33
  -3 -10  12    9.50    0.33
  -2 -10  12    3.57    0.16
  -2 -10  12    3.47    0.16
  -1 -10  12    0.82    0.09
  -1 -10  12    0.74    0.10
   0  10 -12   15.07    0.50
   0 -10  12   15.35    0.50
   0 -10  12   15.05    0.51
  -1  10 -12   -0.04    0.05
   1 -10  12   -0.02    0.06
   1 -10  12    0.00    0.06
  -2  10 -12    0.16    0.05
   2 -10  12    0.05    0.06
   2 -10  12    0.14    0.05
  -3  10 -12    2.13    0.11
   3 -10  12    2.27    0.12
   3 -10  12    2.10    0.12
  -4  10 -12    0.72    0.07
   4 -10  12    0.73    0.09
   4 -10  12    0.68    0.07
  -5  10 -12    0.23    0.06
  -5  -9  12    1.44    0.08
  -4  -9  12    0.28    0.06
  -3  -9  12   10.79    0.37
  -3  -9  12   10.72    0.37
  -2  -9  12    2.99    0.16
  -2  -9  12    3.05    0.15
  -1  -9  12    1.01    0.12
  -1  -9  12    0.59    0.09
   0   9 -12    4.59    0.19
   0  -9  12    4.83    0.20
   0  -9  12    4.74    0.20
  -1   9 -12   13.15    0.44
   1  -9  12   13.21    0.45
   1  -9  12   12.89    0.45
  -2   9 -12    4.95    0.20
   2  -9  12    5.27    0.21
   2  -9  12    4.75    0.21
  -3   9 -12    2.55    0.12
   3  -9  12    2.43    0.14
   3  -9  12    2.42    0.13
  -4   9 -12    0.53    0.07
   4  -9  12    0.55    0.07
  -5   9 -12    1.59    0.08
  -5   9 -12    1.43    0.15
   5  -9  12    1.57    0.09
  -5  -8  12    2.71    0.12
  -4  -8  12    0.46    0.08
  -3  -8  12    2.09    0.12
  -2  -8  12    3.21    0.21
   1   8 -12   14.99    0.52
  -1  -8  12   16.19    0.53
   0  -8  12   10.55    0.38
   1  -8  12   20.84    0.67
   1  -8  12   19.23    0.66
  -2   8 -12    0.13    0.05
   2  -8  12    0.08    0.05
   2  -8  12    0.16    0.09
  -3   8 -12    0.08    0.05
   3  -8  12   -0.04    0.08
   3  -8  12    0.06    0.05
  -4   8 -12    3.33    0.14
   4  -8  12    3.25    0.15
  -5   8 -12   10.71    0.36
  -5   8 -12   10.24    0.34
   5  -8  12   10.09    0.35
  -6  -7  12    3.02    0.12
  -5  -7  12    0.00    0.04
  -4  -7  12    0.87    0.08
  -3  -7  12    6.84    0.26
  -2  -7  12    0.59    0.09
   1   7 -12    0.13    0.06
  -1  -7  12    0.20    0.07
   0   7 -12    4.13    0.19
   0  -7  12    4.32    0.19
  -1   7 -12    2.89    0.14
   1  -7  12    2.58    0.15
  -3   7 -12    1.74    0.11
  -3   7 -12    1.85    0.13
   3  -7  12    1.83    0.12
  -4   7 -12    0.43    0.07
  -4   7 -12    0.41    0.08
   4  -7  12    0.33    0.07
  -5   7 -12    0.02    0.05
   5  -7  12    0.02    0.04
  -6  -6  12    0.38    0.07
  -5  -6  12   -0.02    0.04
  -4  -6  12    0.17    0.05
  -2  -6  12    0.27    0.06
   1   6 -12    0.14    0.06
  -1  -6  12    0.09    0.06
   0   6 -12    2.35    0.14
   0  -6  12    2.39    0.15
  -1   6 -12   31.06    1.00
   1  -6  12   31.44    1.01
  -2   6 -12   -0.03    0.05
   2  -6  12   -0.03    0.06
  -3   6 -12    1.66    0.11
  -3   6 -12    1.65    0.12
   3  -6  12    1.96    0.13
  -4   6 -12    2.27    0.12
  -4   6 -12    2.31    0.12
   4  -6  12    2.35    0.13
  -5   6 -12    5.22    0.20
  -5   6 -12    5.39    0.20
   5  -6  12    5.67    0.20
  -6  -5  12    3.77    0.15
   5   5 -12    3.97    0.19
  -5  -5  12    4.31    0.17
  -4  -5  12    0.10    0.06
  -3  -5  12    3.79    0.18
   2   5 -12    2.94    0.17
  -2  -5  12    3.12    0.16
   1   5 -12    2.20    0.13
  -1  -5  12    2.11    0.14
   0   5 -12    0.71    0.09
   0  -5  12    0.63    0.11
  -1   5 -12    7.93    0.29
   1  -5  12    7.77    0.30
  -2   5 -12    0.17    0.06
   2  -5  12    0.08    0.07
  -3   5 -12    0.81    0.09
  -3   5 -12    0.68    0.10
   3  -5  12    0.76    0.10
  -4   5 -12    0.13    0.05
  -4   5 -12    0.13    0.05
   4  -5  12    0.04    0.05
  -5   5 -12    0.12    0.06
  -5   5 -12    0.13    0.05
   5  -5  12    0.15    0.06
   5   4 -12    7.68    0.30
  -5  -4  12    8.31    0.29
   4   4 -12    0.17    0.09
  -4  -4  12    0.19    0.06
   3   4 -12    0.64    0.15
  -3  -4  12    0.90    0.17
   2   4 -12    7.88    0.29
  -2  -4  12    7.38    0.29
   1   4 -12    3.62    0.17
  -1  -4  12    3.55    0.19
   0   4 -12   14.50    0.50
   0  -4  12   14.85    0.51
  -1   4 -12    0.14    0.05
   1  -4  12    0.15    0.08
  -2   4 -12   22.34    0.75
  -2   4 -12   24.91    0.78
   2  -4  12   22.84    0.81
  -3   4 -12    5.76    0.22
  -3   4 -12    5.34    0.21
   3  -4  12    5.40    0.23
  -4   4 -12    0.46    0.07
  -4   4 -12    0.31    0.07
   4  -4  12    0.30    0.06
  -5   4 -12    3.62    0.14
   5  -4  12    3.49    0.15
   6   3 -12    3.01    0.18
  -6  -3  12    2.70    0.14
   5   3 -12    8.76    0.31
  -5  -3  12    8.15    0.30
   4   3 -12    6.12    0.25
  -4  -3  12    5.97    0.24
   3   3 -12    0.20    0.09
   3   3 -12    0.23    0.07
  -3  -3  12    0.15    0.07
   2   3 -12    7.72    0.34
   2   3 -12    9.27    0.32
  -2  -3  12    8.78    0.32
   1   3 -12   14.66    0.49
  -1  -3  12   14.41    0.50
   0   3 -12    3.95    0.18
   0  -3  12    4.09    0.21
  -1   3 -12    1.78    0.12
  -2   3 -12    7.98    0.29
  -2   3 -12    8.00    0.29
   2  -3  12    8.14    0.31
  -3   3 -12    0.02    0.05
  -3   3 -12    0.02    0.05
   3  -3  12    0.02    0.07
  -4   3 -12    0.36    0.07
  -4   3 -12    0.35    0.08
  -5   3 -12    0.32    0.06
   5   2 -12    8.39    0.31
   4   2 -12    1.81    0.13
  -4  -2  12    1.61    0.15
   3   2 -12    1.89    0.13
   3   2 -12    1.74    0.14
  -3  -2  12    1.59    0.15
  -2  -2  12    2.81    0.19
   1   2 -12    0.00    0.05
  -1  -2  12    0.14    0.11
   0   2 -12    8.33    0.30
   0  -2  12    7.86    0.32
   1  -2  12    4.23    0.23
  -2   2 -12    0.82    0.09
  -2   2 -12    0.80    0.10
  -3   2 -12    9.50    0.34
  -3   2 -12   10.38    0.34
  -4   2 -12    2.98    0.14
  -4   2 -12    2.98    0.13
   5   1 -12    2.95    0.15
   4   1 -12    1.04    0.13
   3   1 -12   18.21    0.59
   2   1 -12   10.59    0.37
   0   1 -12    3.77    0.17
  -1   1 -12    0.80    0.08
  -2   1 -12    0.23    0.06
  -2   1 -12    0.29    0.07
  -3   1 -12    1.05    0.08
  -3   1 -12    1.03    0.09
  -4   1 -12    2.81    0.12
   4   0 -12    3.75    0.16
   3   0 -12    0.21    0.05
   2   0 -12    1.14    0.09
   1   0 -12   11.30    0.38
  -1   0  12   11.15    0.41
   0   0 -12    4.87    0.19
  -1   0 -12    0.07    0.04
  -1   0 -12   -0.05    0.07
  -2   0 -12    2.24    0.11
  -2   0 -12    1.85    0.11
  -3   0 -12    0.51    0.07
  -3   0 -12    0.31    0.06
   4  -1 -12    1.55    0.10
   3  -1 -12    0.38    0.06
   2  -1 -12    4.91    0.19
   1  -1 -12    5.59    0.21
  -1   1  12    5.81    0.25
   0  -1 -12    0.09    0.04
  -1  -1 -12    7.39    0.26
  -1  -1 -12    7.33    0.26
  -2  -1 -12    3.38    0.14
  -2  -1 -12    3.60    0.15
  -3  -1 -12    2.38    0.11
   4  -2 -12    5.81    0.21
   3  -2 -12   12.34    0.40
  -3   2  12   12.19    0.42
   2  -2 -12    0.61    0.06
  -2   2  12    0.59    0.12
   1  -2 -12    3.01    0.12
  -1   2  12    2.90    0.20
   0  -2 -12    0.59    0.06
  -1  -2 -12    0.07    0.04
   3  -3 -12    0.31    0.06
   2  -3 -12    0.62    0.06
   0  -3 -12    3.57    0.13
   0 -12  13    0.07    0.06
   0 -12  13    0.13    0.07
   1 -12  13    2.83    0.16
   1 -12  13    2.29    0.13
  -3 -11  13    0.15    0.05
  -2 -11  13   -0.01    0.04
  -1 -11  13    6.50    0.24
  -1 -11  13    6.22    0.24
   0 -11  13    0.60    0.10
   0 -11  13    0.59    0.08
  -1  11 -13    0.02    0.05
   1 -11  13    0.04    0.05
   1 -11  13    0.13    0.06
  -2  11 -13    0.47    0.06
   2 -11  13    0.42    0.07
   2 -11  13    0.45    0.10
  -3  11 -13    0.03    0.03
   3 -11  13    0.08    0.05
  -3 -10  13    0.04    0.06
  -2 -10  13    0.14    0.05
  -1 -10  13    9.36    0.32
   0  10 -13    1.91    0.12
   0 -10  13    1.99    0.11
  -1  10 -13    0.58    0.08
   1 -10  13    0.40    0.12
   1 -10  13    0.41    0.07
  -2  10 -13    0.87    0.07
   2 -10  13    0.83    0.08
  -3  10 -13    3.65    0.14
   3 -10  13    3.85    0.16
  -4  -9  13    1.04    0.10
  -3  -9  13    3.48    0.14
  -2  -9  13    0.05    0.05
  -1  -9  13   12.15    0.41
   0   9 -13    1.30    0.10
   0  -9  13    1.28    0.10
  -1   9 -13    1.02    0.09
   1  -9  13    0.96    0.09
  -2   9 -13    2.79    0.13
   2  -9  13    2.84    0.13
  -3   9 -13    1.30    0.08
   3  -9  13    1.28    0.09
  -4   9 -13   -0.04    0.03
   4  -9  13   -0.06    0.04
  -5  -8  13    5.20    0.18
  -4  -8  13    4.10    0.16
  -3  -8  13    3.88    0.16
  -2  -8  13    0.89    0.08
   1   8 -13   10.37    0.36
  -1  -8  13   10.70    0.37
   0   8 -13    3.74    0.16
   0  -8  13    3.68    0.17
  -1   8 -13    0.42    0.07
   1  -8  13    0.52    0.09
  -2   8 -13    1.15    0.08
   2  -8  13    1.04    0.09
  -3   8 -13    5.77    0.21
   3  -8  13    5.90    0.22
  -4   8 -13    0.60    0.08
   4  -8  13    0.59    0.06
  -5  -7  13    1.49    0.09
  -4  -7  13    0.39    0.07
  -3  -7  13    3.16    0.14
  -2  -7  13    6.72    0.25
   1   7 -13    0.52    0.10
  -1  -7  13    0.39    0.07
   0   7 -13    0.11    0.05
   0  -7  13    0.14    0.05
  -1   7 -13    1.78    0.11
   1  -7  13    1.86    0.12
  -2   7 -13    3.04    0.14
   2  -7  13    3.03    0.15
  -3   7 -13    1.74    0.09
   3  -7  13    1.77    0.11
  -4   7 -13    0.00    0.03
   4  -7  13    0.04    0.04
  -5  -6  13    1.41    0.09
  -4  -6  13    3.67    0.15
  -3  -6  13    2.85    0.14
   2   6 -13    0.76    0.12
  -2  -6  13    0.78    0.09
   1   6 -13    3.03    0.15
  -1  -6  13    3.10    0.15
   0   6 -13    0.48    0.08
   0  -6  13    0.42    0.09
  -1   6 -13    3.69    0.16
   1  -6  13    3.80    0.17
  -2   6 -13    0.30    0.07
   2  -6  13    0.49    0.09
  -3   6 -13    1.44    0.09
   3  -6  13    1.36    0.10
  -4   6 -13    0.52    0.07
   4  -6  13    0.56    0.08
  -4  -5  13    3.15    0.16
  -3  -5  13    0.06    0.05
   2   5 -13    3.73    0.17
  -2  -5  13    3.83    0.17
   1   5 -13    6.84    0.26
  -1  -5  13    7.11    0.27
   0   5 -13    7.07    0.26
   0  -5  13    7.17    0.27
  -1   5 -13    1.37    0.10
   1  -5  13    1.64    0.12
  -2   5 -13    0.84    0.08
   2  -5  13    1.14    0.11
  -3   5 -13    3.79    0.15
   3  -5  13    3.78    0.16
  -4   5 -13    1.24    0.08
  -4   5 -13    1.23    0.11
   4  -5  13    1.14    0.09
  -5  -4  13   -0.01    0.05
  -4  -4  13    1.15    0.10
  -3  -4  13    3.60    0.16
   2   4 -13    3.33    0.15
  -2  -4  13    3.18    0.16
   1   4 -13    3.27    0.15
  -1  -4  13    3.26    0.17
   0   4 -13    0.50    0.08
   0  -4  13    0.66    0.12
  -1   4 -13    2.97    0.14
   1  -4  13    3.06    0.16
  -2   4 -13    0.37    0.07
   2  -4  13    0.27    0.07
  -3   4 -13    8.77    0.29
   3  -4  13    8.07    0.30
  -4   4 -13    1.20    0.08
  -4   4 -13    1.14    0.12
   4   3 -13   32.94    1.02
  -4  -3  13   30.65    1.03
   3   3 -13    3.84    0.17
  -3  -3  13    3.72    0.18
   2   3 -13    0.12    0.05
  -2  -3  13   -0.02    0.08
   1   3 -13    1.04    0.09
  -1  -3  13    0.74    0.14
   0   3 -13    0.41    0.07
   0  -3  13    0.39    0.09
  -1   3 -13    2.42    0.12
   1  -3  13    2.46    0.17
  -2   3 -13    0.73    0.07
  -3   3 -13    2.31    0.16
  -3   3 -13    2.35    0.11
   3   2 -13    0.19    0.05
   2   2 -13   17.70    0.57
   1   2 -13    1.31    0.09
   0   2 -13   12.06    0.41
  -1   2 -13    0.62    0.07
  -2   2 -13    4.01    0.16
  -3   2 -13    0.07    0.04
   3   1 -13    4.95    0.18
   2   1 -13   12.99    0.43
   1   1 -13    2.19    0.11
   0   1 -13    5.69    0.21
  -1   1 -13    1.57    0.09
  -2   1 -13    0.03    0.04
   3   0 -13    0.45    0.06
   2   0 -13    1.04    0.07
   1   0 -13    2.30    0.11
   0   0 -13    0.38    0.05
  -1   0 -13    1.19    0.07
  -2   0 -13    0.39    0.06
   3  -1 -13    0.39    0.06
   1  -1 -13    1.45    0.08
   0  -1 -13    2.12    0.12
  -1  -1 -13    0.22    0.05
   0 -11  14    0.52    0.07
  -2 -10  14    4.02    0.15
   0 -10  14    0.04    0.04
  -1  10 -14    5.74    0.19
   1 -10  14    5.06    0.23
  -2  10 -14    0.10    0.04
   2 -10  14    0.15    0.04
  -3  -9  14    1.03    0.07
  -2  -9  14    0.34    0.06
  -1  -9  14    1.26    0.08
   0   9 -14    4.33    0.17
   0  -9  14    4.48    0.17
  -1   9 -14    1.04    0.10
   1  -9  14    0.88    0.08
  -2   9 -14    2.15    0.10
   2  -9  14    2.23    0.11
  -3  -8  14    0.73    0.07
  -2  -8  14    3.62    0.15
  -1  -8  14    2.46    0.12
   0   8 -14    0.12    0.05
   0  -8  14    0.10    0.05
  -1   8 -14    0.09    0.04
   1  -8  14    0.05    0.04
  -2   8 -14    1.10    0.07
   2  -8  14    1.01    0.08
  -3   8 -14    4.56    0.16
   3  -8  14    4.44    0.17
  -4  -7  14    0.18    0.04
  -3  -7  14   10.69    0.36
  -2  -7  14    8.28    0.29
   1   7 -14    0.28    0.06
  -1  -7  14    0.41    0.07
   0   7 -14    0.46    0.07
   0  -7  14    0.37    0.08
  -1   7 -14    2.25    0.11
   1  -7  14    2.23    0.12
  -2   7 -14    3.42    0.14
   2  -7  14    3.34    0.14
  -3   7 -14   -0.01    0.03
   3  -7  14   -0.02    0.04
  -4  -6  14    0.79    0.08
  -3  -6  14    0.07    0.05
  -2  -6  14    0.00    0.05
   1   6 -14    2.23    0.11
  -1  -6  14    2.16    0.12
   0   6 -14   13.74    0.46
   0  -6  14   14.14    0.46
  -1   6 -14   12.31    0.41
   1  -6  14   12.47    0.42
  -2   6 -14    0.00    0.03
   2  -6  14    0.05    0.05
  -3   6 -14    1.20    0.07
   3  -6  14    1.23    0.09
  -4  -5  14    0.74    0.09
  -3  -5  14    0.12    0.07
   2   5 -14    3.99    0.18
  -2  -5  14    4.64    0.18
   1   5 -14    0.44    0.07
  -1  -5  14    0.62    0.09
   0   5 -14    1.06    0.08
   0  -5  14    1.16    0.10
  -1   5 -14    3.02    0.13
   1  -5  14    3.09    0.15
  -2   5 -14    3.49    0.14
   2  -5  14    3.55    0.15
  -3   5 -14    0.78    0.06
  -3  -4  14    0.09    0.08
   2   4 -14   10.52    0.38
  -2  -4  14    9.80    0.37
  -1  -4  14    0.30    0.08
   0   4 -14    7.10    0.25
  -1   4 -14   19.18    0.61
   1  -4  14   18.99    0.62
  -2   4 -14    0.08    0.03
   1   3 -14    1.40    0.08
   0   3 -14    1.22    0.08
  -1   3 -14    0.02    0.03
  -2   3 -14    0.55    0.06
   2   2 -14   14.13    0.45
   1   2 -14    0.46    0.05
   0   2 -14    0.09    0.04
  -1   2 -14    0.99    0.10
   2   1 -14    4.53    0.16
   1   1 -14    0.47    0.05
   0   1 -14    0.05    0.03
  -1  -8  15    8.30    0.28
   0  -8  15    3.84    0.15
  -2  -7  15    0.40    0.07
  -1  -7  15    0.26    0.07
   0   7 -15    7.24    0.25
   0  -7  15    7.87    0.26
  -1   7 -15    0.00    0.03
   1  -7  15    0.03    0.05
  -2  -6  15    0.09    0.06
  -1  -6  15    6.41    0.23
   0   6 -15    4.16    0.16
   0  -6  15    4.47    0.17
  -1   6 -15    0.08    0.03
   1   5 -15    0.41    0.08
   0   5 -15    0.88    0.07
   0   4 -15    2.05    0.09
   0   0   0    0.00    0.00
;
_shelx_hkl_checksum              6719
_shelx_res_file
;
    SKM195_0m.res created by SHELXL-2014/7
TITL SKM195_0m_a.res in P-1
REM Old TITL SKM195_0m in P-1
REM SHELXT solution in P-1
REM R1 0.138,  Rweak 0.007,  Alpha 0.040,  Orientation as input
REM Formula found by SHELXT:  C24 N4 O4 S Cl
CELL  1.54178   8.1828  12.1541  12.3654  114.474   93.681   96.949
ZERR    2.000   0.0002   0.0003   0.0003    0.001    0.001    0.001
LATT  1
SFAC C H N O S CL
UNIT 46 36 10 8 2 2
TEMP -123
SIZE 0.026 0.18 0.207
L.S. 5
BOND $H
LIST 4
FMAP 2
PLAN 5
CONF
EQIV $1 -x+2, -y+1, -z+2
HTAB N4 N1_$1
EQIV $2 -x+2, -y, -z+1
HTAB C15 O4_$2
ACTA 134
MPLA C1 > C6
MPLA C8 N1 N2 C9 N3
MPLA C10 > C15
MPLA C18 > C23
MPLA C8 N1 N2 C9 N3
WGHT    0.048000    0.401100
FVAR       0.17856
CL1   6   -0.094519    1.089368    1.174260    11.00000    0.04665    0.05248 =
         0.05303    0.03045    0.02474    0.03685
S1    5    0.854987    0.523674    0.735798    11.00000    0.02794    0.04152 =
         0.02153    0.01553    0.00882    0.02142
O1    4    0.451773    0.803893    1.066692    11.00000    0.01911    0.01818 =
         0.02879    0.00556    0.00433    0.00775
O2    4    0.969328    0.312683    0.564928    11.00000    0.02582    0.03082 =
         0.01869    0.00672   -0.00040    0.01120
O3    4    1.308118   -0.222779    0.306290    11.00000    0.04447    0.02861 =
         0.02233    0.00454    0.00959    0.01050
O4    4    1.433860   -0.214780    0.469718    11.00000    0.03611    0.02789 =
         0.03649    0.01111    0.00506    0.01516
N1    3    0.706443    0.617031    1.049947    11.00000    0.02201    0.02341 =
         0.01704    0.00533    0.00212    0.00889
N2    3    0.826170    0.576217    0.972729    11.00000    0.02058    0.02533 =
         0.01857    0.00634    0.00303    0.00978
N3    3    0.608565    0.598288    0.871983    11.00000    0.01770    0.02052 =
         0.01686    0.00607    0.00233    0.00916
N4    3    1.141416    0.273107    0.693771    11.00000    0.02255    0.02348 =
         0.01599    0.00493    0.00106    0.00892
AFIX   3
H4    2    1.186456    0.303088    0.771682    11.00000   -1.20000
AFIX   0
N5    3    1.347976   -0.172580    0.415976    11.00000    0.02599    0.02275 =
         0.02561    0.00758    0.00828    0.00576
C1    1    0.315626    0.862994    1.089914    11.00000    0.02196    0.02426 =
         0.02026    0.00851    0.00468    0.01074
C2    1    0.351572    0.989214    1.130201    11.00000    0.02746    0.02369 =
         0.03493    0.01081    0.00604    0.00738
AFIX  43
H2    2    0.463049    1.027823    1.139879    11.00000   -1.20000
AFIX   0
C3    1    0.225567    1.058918    1.156288    11.00000    0.03965    0.02463 =
         0.03979    0.01383    0.01079    0.01439
AFIX  43
H3    2    0.249983    1.145411    1.184751    11.00000   -1.20000
AFIX   0
C4    1    0.063322    1.001248    1.140466    11.00000    0.03202    0.03569 =
         0.03117    0.01751    0.01222    0.02136
C5    1    0.026575    0.875965    1.099831    11.00000    0.02310    0.03538 =
         0.02905    0.01508    0.00666    0.01023
AFIX  43
H5    2   -0.085359    0.837605    1.088680    11.00000   -1.20000
AFIX   0
C6    1    0.153173    0.805358    1.075043    11.00000    0.02378    0.02541 =
         0.02355    0.00913    0.00546    0.00863
AFIX  43
H6    2    0.128714    0.719087    1.048370    11.00000   -1.20000
AFIX   0
C7    1    0.426514    0.675176    1.036446    11.00000    0.02058    0.01902 =
         0.02077    0.00546    0.00381    0.00641
AFIX  23
H7A   2    0.328509    0.632419    0.975342    11.00000   -1.20000
H7B   2    0.408632    0.660745    1.108254    11.00000   -1.20000
AFIX   0
C8    1    0.579610    0.630166    0.988520    11.00000    0.02047    0.01709 =
         0.01731    0.00479    0.00247    0.00575
C9    1    0.764193    0.565692    0.867461    11.00000    0.01766    0.02013 =
         0.02018    0.00638    0.00228    0.00771
C10   1    0.495708    0.589462    0.773359    11.00000    0.01636    0.02442 =
         0.01741    0.00949    0.00208    0.00744
C11   1    0.433786    0.692545    0.778686    11.00000    0.02963    0.02618 =
         0.02502    0.01249    0.00645    0.01289
AFIX  43
H11   2    0.464849    0.768917    0.846729    11.00000   -1.20000
AFIX   0
C12   1    0.325107    0.681807    0.682223    11.00000    0.03896    0.04740 =
         0.03132    0.02461    0.01154    0.02732
AFIX  43
H12   2    0.281110    0.751425    0.684385    11.00000   -1.20000
AFIX   0
C13   1    0.280875    0.570793    0.583540    11.00000    0.02829    0.06337 =
         0.02158    0.02110    0.00496    0.02056
AFIX  43
H13   2    0.206646    0.564330    0.518103    11.00000   -1.20000
AFIX   0
C14   1    0.344180    0.468718    0.579419    11.00000    0.02367    0.04179 =
         0.01865    0.00733    0.00199    0.00615
AFIX  43
H14   2    0.313845    0.392647    0.510919    11.00000   -1.20000
AFIX   0
C15   1    0.451849    0.477057    0.675004    11.00000    0.02195    0.02524 =
         0.02050    0.00736    0.00367    0.00767
AFIX  43
H15   2    0.494638    0.407085    0.673044    11.00000   -1.20000
AFIX   0
C16   1    1.025312    0.458387    0.772442    11.00000    0.02062    0.02869 =
         0.02013    0.00489    0.00143    0.01130
AFIX  23
H16A  2    1.129916    0.517128    0.793304    11.00000   -1.20000
H16B  2    1.005702    0.440969    0.842394    11.00000   -1.20000
AFIX   0
C17   1    1.039368    0.340137    0.664700    11.00000    0.01643    0.02372 =
         0.01978    0.00765    0.00366    0.00553
C18   1    1.188682    0.162292    0.617990    11.00000    0.01745    0.02189 =
         0.01989    0.00656    0.00371    0.00586
C19   1    1.277234    0.104937    0.674388    11.00000    0.02279    0.02599 =
         0.01762    0.00720    0.00202    0.00628
AFIX  43
H19   2    1.301853    0.142096    0.759185    11.00000   -1.20000
AFIX   0
C20   1    1.329143   -0.004309    0.609022    11.00000    0.02345    0.02580 =
         0.02370    0.01126    0.00294    0.00819
AFIX  43
H20   2    1.389296   -0.042901    0.647697    11.00000   -1.20000
AFIX   0
C21   1    1.291760   -0.057042    0.485240    11.00000    0.02131    0.02102 =
         0.02222    0.00614    0.00680    0.00581
C22   1    1.205241   -0.001994    0.427064    11.00000    0.02425    0.02541 =
         0.01720    0.00622    0.00277    0.00478
AFIX  43
H22   2    1.181640   -0.039650    0.342206    11.00000   -1.20000
AFIX   0
C23   1    1.153201    0.108140    0.492956    11.00000    0.02412    0.02614 =
         0.01888    0.00836    0.00195    0.00806
AFIX  43
H23   2    1.093949    0.146647    0.453710    11.00000   -1.20000
AFIX   0
HKLF 4
REM  SKM195_0m_a.res in P-1
REM R1 =  0.0343 for    3709 Fo > 4sig(Fo)  and  0.0377 for all    4084 data
REM    307 parameters refined using      0 restraints
END
WGHT      0.0480      0.4011
REM Highest difference peak  0.174,  deepest hole -0.346,  1-sigma level  0.061
Q1    1   1.2761 -0.0829  0.6660  11.00000  0.05    0.17
Q2    1   0.0914  0.5157  0.6059  11.00000  0.05    0.17
Q3    1   0.3574  0.8029  0.7003  11.00000  0.05    0.16
Q4    1   0.0000  0.5000  0.5000  10.50000  0.05    0.16
Q5    1   0.3956  0.7821  0.6550  11.00000  0.05    0.16
;
_shelx_res_checksum              98625
loop_
_space_group_symop_operation_xyz
'x, y, z'
'-x, -y, -z'
loop_
_atom_site_type_symbol
_atom_site_label
_atom_site_fract_x
_atom_site_fract_y
_atom_site_fract_z
_atom_site_U_iso_or_equiv
_atom_site_adp_type
_atom_site_calc_flag
_atom_site_occupancy
Cl Cl1 -0.09452(6) 1.08937(5) 1.17426(5) 0.04449(14) Uani d 1
S S1 0.85499(5) 0.52367(4) 0.73580(3) 0.02790(12) Uani d 1
O O1 0.45177(13) 0.80389(9) 1.06669(9) 0.0230(2) Uani d 1
O O2 0.96933(13) 0.31268(10) 0.56493(9) 0.0260(2) Uani d 1
O O3 1.30812(16) -0.22278(10) 0.30629(10) 0.0333(3) Uani d 1
O O4 1.43386(15) -0.21478(10) 0.46972(11) 0.0335(3) Uani d 1
N N1 0.70644(15) 0.61703(11) 1.04995(11) 0.0215(3) Uani d 1
N N2 0.82617(15) 0.57622(11) 0.97273(11) 0.0219(3) Uani d 1
N N3 0.60856(14) 0.59829(11) 0.87198(10) 0.0184(2) Uani d 1
N N4 1.14142(15) 0.27311(11) 0.69377(11) 0.0215(3) Uani d 1
H H4 1.1865 0.3031 0.7717 0.026 Uiso d 1
N N5 1.34798(16) -0.17258(12) 0.41598(12) 0.0253(3) Uani d 1
C C1 0.31563(19) 0.86299(14) 1.08991(13) 0.0218(3) Uani d 1
C C2 0.3516(2) 0.98921(15) 1.13020(15) 0.0289(3) Uani d 1
H H2 0.4630 1.0278 1.1399 0.035 Uiso calc 1
C C3 0.2256(2) 1.05892(16) 1.15629(16) 0.0335(4) Uani d 1
H H3 0.2500 1.1454 1.1848 0.040 Uiso calc 1
C C4 0.0633(2) 1.00125(16) 1.14047(15) 0.0300(4) Uani d 1
C C5 0.0266(2) 0.87596(16) 1.09983(14) 0.0281(3) Uani d 1
H H5 -0.0854 0.8376 1.0887 0.034 Uiso calc 1
C C6 0.15317(19) 0.80536(14) 1.07504(13) 0.0241(3) Uani d 1
H H6 0.1287 0.7191 1.0484 0.029 Uiso calc 1
C C7 0.42651(18) 0.67518(13) 1.03645(13) 0.0208(3) Uani d 1
H H7A 0.3285 0.6324 0.9753 0.025 Uiso calc 1
H H7B 0.4086 0.6607 1.1083 0.025 Uiso calc 1
C C8 0.57961(18) 0.63017(12) 0.98852(12) 0.0189(3) Uani d 1
C C9 0.76419(17) 0.56569(13) 0.86746(13) 0.0197(3) Uani d 1
C C10 0.49571(17) 0.58946(13) 0.77336(12) 0.0188(3) Uani d 1
C C11 0.4338(2) 0.69254(14) 0.77869(14) 0.0255(3) Uani d 1
H H11 0.4648 0.7689 0.8467 0.031 Uiso calc 1
C C12 0.3251(2) 0.68181(18) 0.68222(15) 0.0344(4) Uani d 1
H H12 0.2811 0.7514 0.6844 0.041 Uiso calc 1
C C13 0.2809(2) 0.57079(19) 0.58354(15) 0.0354(4) Uani d 1
H H13 0.2066 0.5643 0.5181 0.043 Uiso calc 1
C C14 0.3442(2) 0.46872(17) 0.57942(14) 0.0299(4) Uani d 1
H H14 0.3138 0.3926 0.5109 0.036 Uiso calc 1
C C15 0.45185(19) 0.47706(14) 0.67500(13) 0.0230(3) Uani d 1
H H15 0.4946 0.4071 0.6730 0.028 Uiso calc 1
C C16 1.02531(19) 0.45839(14) 0.77244(13) 0.0244(3) Uani d 1
H H16A 1.1299 0.5171 0.7933 0.029 Uiso calc 1
H H16B 1.0057 0.4410 0.8424 0.029 Uiso calc 1
C C17 1.03937(17) 0.34014(13) 0.66470(13) 0.0203(3) Uani d 1
C C18 1.18868(18) 0.16229(13) 0.61799(13) 0.0202(3) Uani d 1
C C19 1.27723(18) 0.10494(14) 0.67439(13) 0.0227(3) Uani d 1
H H19 1.3019 0.1421 0.7592 0.027 Uiso calc 1
C C20 1.32914(19) -0.00431(14) 0.60902(13) 0.0237(3) Uani d 1
H H20 1.3893 -0.0429 0.6477 0.028 Uiso calc 1
C C21 1.29176(18) -0.05704(13) 0.48524(13) 0.0222(3) Uani d 1
C C22 1.20524(19) -0.00199(14) 0.42706(13) 0.0232(3) Uani d 1
H H22 1.1816 -0.0396 0.3422 0.028 Uiso calc 1
C C23 1.15320(19) 0.10814(14) 0.49296(13) 0.0231(3) Uani d 1
H H23 1.0939 0.1466 0.4537 0.028 Uiso calc 1
loop_
_atom_site_aniso_label
_atom_site_aniso_U_11
_atom_site_aniso_U_22
_atom_site_aniso_U_33
_atom_site_aniso_U_12
_atom_site_aniso_U_13
_atom_site_aniso_U_23
Cl1 0.0467(3) 0.0525(3) 0.0530(3) 0.0368(2) 0.0247(2) 0.0304(2)
S1 0.0279(2) 0.0415(2) 0.02153(19) 0.02142(17) 0.00882(15) 0.01553(16)
O1 0.0191(5) 0.0182(5) 0.0288(5) 0.0078(4) 0.0043(4) 0.0056(4)
O2 0.0258(5) 0.0308(6) 0.0187(5) 0.0112(5) -0.0004(4) 0.0067(4)
O3 0.0445(7) 0.0286(6) 0.0223(6) 0.0105(5) 0.0096(5) 0.0045(5)
O4 0.0361(6) 0.0279(6) 0.0365(6) 0.0152(5) 0.0051(5) 0.0111(5)
N1 0.0220(6) 0.0234(6) 0.0170(6) 0.0089(5) 0.0021(5) 0.0053(5)
N2 0.0206(6) 0.0253(6) 0.0186(6) 0.0098(5) 0.0030(5) 0.0063(5)
N3 0.0177(6) 0.0205(6) 0.0169(6) 0.0092(5) 0.0023(5) 0.0061(4)
N4 0.0226(6) 0.0235(6) 0.0160(6) 0.0089(5) 0.0011(5) 0.0049(5)
N5 0.0260(7) 0.0227(6) 0.0256(7) 0.0058(5) 0.0083(5) 0.0076(5)
C1 0.0220(7) 0.0243(7) 0.0203(7) 0.0107(6) 0.0047(6) 0.0085(6)
C2 0.0275(8) 0.0237(8) 0.0349(8) 0.0074(7) 0.0060(7) 0.0108(6)
C3 0.0397(9) 0.0246(8) 0.0398(9) 0.0144(7) 0.0108(8) 0.0138(7)
C4 0.0320(9) 0.0357(9) 0.0312(8) 0.0214(7) 0.0122(7) 0.0175(7)
C5 0.0231(7) 0.0354(9) 0.0291(8) 0.0102(7) 0.0067(6) 0.0151(7)
C6 0.0238(7) 0.0254(7) 0.0235(7) 0.0086(6) 0.0055(6) 0.0091(6)
C7 0.0206(7) 0.0190(7) 0.0208(7) 0.0064(6) 0.0038(6) 0.0055(5)
C8 0.0205(7) 0.0171(6) 0.0173(6) 0.0058(6) 0.0025(5) 0.0048(5)
C9 0.0177(7) 0.0201(7) 0.0202(7) 0.0077(6) 0.0023(5) 0.0064(5)
C10 0.0164(6) 0.0244(7) 0.0174(7) 0.0074(6) 0.0021(5) 0.0095(5)
C11 0.0296(8) 0.0262(8) 0.0250(7) 0.0129(6) 0.0065(6) 0.0125(6)
C12 0.0390(9) 0.0474(10) 0.0313(9) 0.0273(8) 0.0115(8) 0.0246(8)
C13 0.0283(8) 0.0634(12) 0.0216(8) 0.0206(8) 0.0050(7) 0.0211(8)
C14 0.0237(7) 0.0418(9) 0.0187(7) 0.0062(7) 0.0020(6) 0.0073(6)
C15 0.0220(7) 0.0252(7) 0.0205(7) 0.0077(6) 0.0037(6) 0.0074(6)
C16 0.0206(7) 0.0287(8) 0.0201(7) 0.0113(6) 0.0014(6) 0.0049(6)
C17 0.0164(6) 0.0237(7) 0.0198(7) 0.0055(6) 0.0037(5) 0.0076(6)
C18 0.0174(6) 0.0219(7) 0.0199(7) 0.0059(6) 0.0037(5) 0.0066(6)
C19 0.0228(7) 0.0260(7) 0.0176(7) 0.0063(6) 0.0020(6) 0.0072(6)
C20 0.0234(7) 0.0258(7) 0.0237(7) 0.0082(6) 0.0029(6) 0.0113(6)
C21 0.0213(7) 0.0210(7) 0.0222(7) 0.0058(6) 0.0068(6) 0.0061(6)
C22 0.0243(7) 0.0254(7) 0.0172(7) 0.0048(6) 0.0028(6) 0.0062(6)
C23 0.0241(7) 0.0261(8) 0.0189(7) 0.0081(6) 0.0019(6) 0.0084(6)
loop_
_atom_type_symbol
_atom_type_description
_atom_type_scat_dispersion_real
_atom_type_scat_dispersion_imag
_atom_type_scat_source
C C 0.0181 0.0091 'International Tables Vol C Tables 4.2.6.8 and 6.1.1.4'
H H 0.0000 0.0000 'International Tables Vol C Tables 4.2.6.8 and 6.1.1.4'
N N 0.0311 0.0180 'International Tables Vol C Tables 4.2.6.8 and 6.1.1.4'
O O 0.0492 0.0322 'International Tables Vol C Tables 4.2.6.8 and 6.1.1.4'
S S 0.3331 0.5567 'International Tables Vol C Tables 4.2.6.8 and 6.1.1.4'
Cl Cl 0.3639 0.7018 'International Tables Vol C Tables 4.2.6.8 and 6.1.1.4'
loop_
_geom_angle_atom_site_label_1
_geom_angle_atom_site_label_2
_geom_angle_atom_site_label_3
_geom_angle
C9 S1 C16 100.00(7)
C1 O1 C7 117.68(12)
C8 N1 N2 107.77(12)
C9 N2 N1 106.62(11)
C8 N3 C9 104.71(11)
C8 N3 C10 127.83(12)
C9 N3 C10 127.22(12)
C17 N4 C18 128.21(12)
C17 N4 H4 117.2
C18 N4 H4 114.6
O4 N5 O3 123.20(13)
O4 N5 C21 118.18(13)
O3 N5 C21 118.62(13)
O1 C1 C2 114.63(14)
O1 C1 C6 124.88(14)
C2 C1 C6 120.50(14)
C3 C2 C1 120.19(16)
C3 C2 H2 119.9
C1 C2 H2 119.9
C2 C3 C4 119.29(16)
C2 C3 H3 120.4
C4 C3 H3 120.4
C5 C4 C3 120.85(15)
C5 C4 Cl1 120.03(14)
C3 C4 Cl1 119.12(13)
C4 C5 C6 120.16(15)
C4 C5 H5 119.9
C6 C5 H5 119.9
C1 C6 C5 119.00(15)
C1 C6 H6 120.5
C5 C6 H6 120.5
O1 C7 C8 106.20(12)
O1 C7 H7A 110.5
C8 C7 H7A 110.5
O1 C7 H7B 110.5
C8 C7 H7B 110.5
H7A C7 H7B 108.7
N1 C8 N3 110.23(13)
N1 C8 C7 125.83(13)
N3 C8 C7 123.93(12)
N2 C9 N3 110.67(13)
N2 C9 S1 128.89(11)
N3 C9 S1 120.39(10)
C11 C10 C15 121.66(13)
C11 C10 N3 119.63(13)
C15 C10 N3 118.71(13)
C10 C11 C12 118.59(15)
C10 C11 H11 120.7
C12 C11 H11 120.7
C13 C12 C11 120.44(15)
C13 C12 H12 119.8
C11 C12 H12 119.8
C12 C13 C14 120.28(15)
C12 C13 H13 119.9
C14 C13 H13 119.9
C13 C14 C15 120.28(15)
C13 C14 H14 119.9
C15 C14 H14 119.9
C10 C15 C14 118.74(15)
C10 C15 H15 120.6
C14 C15 H15 120.6
C17 C16 S1 109.03(10)
C17 C16 H16A 109.9
S1 C16 H16A 109.9
C17 C16 H16B 109.9
S1 C16 H16B 109.9
H16A C16 H16B 108.3
O2 C17 N4 125.33(13)
O2 C17 C16 122.69(13)
N4 C17 C16 111.96(12)
C19 C18 C23 119.61(13)
C19 C18 N4 116.02(13)
C23 C18 N4 124.37(13)
C20 C19 C18 121.02(13)
C20 C19 H19 119.5
C18 C19 H19 119.5
C19 C20 C21 118.54(14)
C19 C20 H20 120.7
C21 C20 H20 120.7
C22 C21 C20 121.67(14)
C22 C21 N5 119.88(13)
C20 C21 N5 118.45(13)
C21 C22 C23 119.76(14)
C21 C22 H22 120.1
C23 C22 H22 120.1
C22 C23 C18 119.40(13)
C22 C23 H23 120.3
C18 C23 H23 120.3
loop_
_geom_bond_atom_site_label_1
_geom_bond_atom_site_label_2
_geom_bond_distance
Cl1 C4 1.7387(16)
S1 C9 1.7383(15)
S1 C16 1.8061(15)
O1 C1 1.3796(18)
O1 C7 1.4343(18)
O2 C17 1.2181(18)
O3 N5 1.2360(17)
O4 N5 1.2281(18)
N1 C8 1.3111(19)
N1 N2 1.4010(18)
N2 C9 1.3151(18)
N3 C8 1.3734(19)
N3 C9 1.3765(18)
N3 C10 1.4403(17)
N4 C17 1.3634(19)
N4 C18 1.4031(18)
N4 H4 0.9098
N5 C21 1.4586(19)
C1 C2 1.388(2)
C1 C6 1.389(2)
C2 C3 1.383(2)
C2 H2 0.9500
C3 C4 1.386(3)
C3 H3 0.9500
C4 C5 1.377(2)
C5 C6 1.393(2)
C5 H5 0.9500
C6 H6 0.9500
C7 C8 1.487(2)
C7 H7A 0.9900
C7 H7B 0.9900
C10 C11 1.386(2)
C10 C15 1.387(2)
C11 C12 1.392(2)
C11 H11 0.9500
C12 C13 1.379(3)
C12 H12 0.9500
C13 C14 1.384(3)
C13 H13 0.9500
C14 C15 1.389(2)
C14 H14 0.9500
C15 H15 0.9500
C16 C17 1.525(2)
C16 H16A 0.9900
C16 H16B 0.9900
C18 C19 1.399(2)
C18 C23 1.400(2)
C19 C20 1.374(2)
C19 H19 0.9500
C20 C21 1.388(2)
C20 H20 0.9500
C21 C22 1.384(2)
C22 C23 1.384(2)
C22 H22 0.9500
C23 H23 0.9500
loop_
_geom_hbond_atom_site_label_D
_geom_hbond_atom_site_label_H
_geom_hbond_atom_site_label_A
_geom_hbond_site_symmetry_A
_geom_hbond_distance_DH
_geom_hbond_distance_HA
_geom_hbond_distance_DA
_geom_hbond_angle_DHA
N4 H4 N1 2_767 0.91 2.08 2.9934(17) 176
C15 H15 O4 2_756 0.95 2.44 3.2324(19) 140
C5 H5 Cg1 1_455 0.95 2.97 3.757(2) 141
C16 H16A Cg3 1_655 0.99 2.82 3.6284(18) 139
C22 H22 Cg2 1_644 0.95 2.69 3.5883(16) 158
loop_
_geom_torsion_atom_site_label_1
_geom_torsion_atom_site_label_2
_geom_torsion_atom_site_label_3
_geom_torsion_atom_site_label_4
_geom_torsion
C8 N1 N2 C9 -0.55(16)
C7 O1 C1 C2 173.83(13)
C7 O1 C1 C6 -6.6(2)
O1 C1 C2 C3 179.81(15)
C6 C1 C2 C3 0.2(2)
C1 C2 C3 C4 -0.7(3)
C2 C3 C4 C5 0.3(3)
C2 C3 C4 Cl1 179.61(13)
C3 C4 C5 C6 0.6(3)
Cl1 C4 C5 C6 -178.67(12)
O1 C1 C6 C5 -178.85(14)
C2 C1 C6 C5 0.7(2)
C4 C5 C6 C1 -1.1(2)
C1 O1 C7 C8 166.87(12)
N2 N1 C8 N3 0.69(16)
N2 N1 C8 C7 -178.20(13)
C9 N3 C8 N1 -0.55(16)
C10 N3 C8 N1 174.12(13)
C9 N3 C8 C7 178.37(13)
C10 N3 C8 C7 -7.0(2)
O1 C7 C8 N1 95.45(17)
O1 C7 C8 N3 -83.30(16)
N1 N2 C9 N3 0.21(16)
N1 N2 C9 S1 177.76(11)
C8 N3 C9 N2 0.19(16)
C10 N3 C9 N2 -174.52(13)
C8 N3 C9 S1 -177.60(10)
C10 N3 C9 S1 7.7(2)
C16 S1 C9 N2 15.55(16)
C16 S1 C9 N3 -167.10(12)
C8 N3 C10 C11 61.4(2)
C9 N3 C10 C11 -125.12(16)
C8 N3 C10 C15 -118.65(16)
C9 N3 C10 C15 54.9(2)
C15 C10 C11 C12 -0.1(2)
N3 C10 C11 C12 179.91(14)
C10 C11 C12 C13 -0.2(3)
C11 C12 C13 C14 0.0(3)
C12 C13 C14 C15 0.5(3)
C11 C10 C15 C14 0.6(2)
N3 C10 C15 C14 -179.44(13)
C13 C14 C15 C10 -0.7(2)
C9 S1 C16 C17 136.78(11)
C18 N4 C17 O2 0.8(3)
C18 N4 C17 C16 -177.53(14)
S1 C16 C17 O2 14.43(19)
S1 C16 C17 N4 -167.17(11)
C17 N4 C18 C19 -171.74(14)
C17 N4 C18 C23 8.4(2)
C23 C18 C19 C20 -0.4(2)
N4 C18 C19 C20 179.69(14)
C18 C19 C20 C21 0.0(2)
C19 C20 C21 C22 0.4(2)
C19 C20 C21 N5 179.58(14)
O4 N5 C21 C22 175.23(14)
O3 N5 C21 C22 -4.3(2)
O4 N5 C21 C20 -3.9(2)
O3 N5 C21 C20 176.57(14)
C20 C21 C22 C23 -0.3(2)
N5 C21 C22 C23 -179.48(14)
C21 C22 C23 C18 -0.1(2)
C19 C18 C23 C22 0.5(2)
N4 C18 C23 C22 -179.62(14)

_cod_database_fobs_code 1542899
