#------------------------------------------------------------------------------
#$Date: 2016-03-15 17:16:40 +0200 (Tue, 15 Mar 2016) $
#$Revision: 178204 $
#$URL: svn://www.crystallography.net/cod/cif/1/54/28/1542877.cif $
#------------------------------------------------------------------------------
#
# This file is available in the Crystallography Open Database (COD),
# http://www.crystallography.net/
#
# All data on this site have been placed in the public domain by the
# contributors.
#
data_1542877
loop_
_publ_author_name
'Bourque, Jeremy L.'
'Baines, Kim M.'
_publ_section_title
;
 Tetramethylammonium trifluoromethanesulfonate
;
_journal_coeditor_code           ZQ4003
_journal_issue                   3
_journal_name_full               IUCrData
_journal_page_first              x160370
_journal_paper_doi               10.1107/S2414314616003709
_journal_volume                  1
_journal_year                    2016
_chemical_formula_iupac          'C4 H12 N +, C F3 O3 S -'
_chemical_formula_moiety         'C4 H12 N +, C F3 O3 S -'
_chemical_formula_sum            'C5 H12 F3 N O3 S'
_chemical_formula_weight         223.22
_chemical_name_systematic
;
Tetramethylammonium trifluoromethanesulfonate
;
_space_group_crystal_system      monoclinic
_space_group_IT_number           11
_space_group_name_Hall           '-P 2yb'
_space_group_name_H-M_alt        'P 1 21/m 1'
_symmetry_space_group_name_Hall  '-P 2yb'
_symmetry_space_group_name_H-M   'P 1 21/m 1'
_atom_sites_solution_hydrogens   geom
_atom_sites_solution_primary     dual
_atom_sites_solution_secondary   difmap
_audit_creation_method           SHELXL-2014/7
_cell_angle_alpha                90
_cell_angle_beta                 101.807(17)
_cell_angle_gamma                90
_cell_formula_units_Z            4
_cell_length_a                   10.216(3)
_cell_length_b                   8.507(2)
_cell_length_c                   11.445(4)
_cell_measurement_reflns_used    7184
_cell_measurement_temperature    110
_cell_measurement_theta_max      35.79
_cell_measurement_theta_min      3.14
_cell_volume                     973.6(5)
_computing_cell_refinement
;
CELL_NOW (Bruker, 2008)
;
_computing_data_collection
;
APEX2 (Bruker, 2013)
;
_computing_data_reduction
;
SAINT (Bruker, 2013)
;
_computing_molecular_graphics
;
XP in SHELXTL (Sheldrick, 2008)
;
_computing_publication_material
;
<i>cif2tables.py</i> (Boyle, 2008)
;
_computing_structure_refinement
;
SHELXL2014 (Sheldrick, 2015b)
;
_computing_structure_solution
;
SHELXT (Sheldrick, 2015a)
;
_diffrn_ambient_temperature      110
_diffrn_measured_fraction_theta_full 0.995
_diffrn_measured_fraction_theta_max 0.996
_diffrn_measurement_device       '\k-geometry diffractometer'
_diffrn_measurement_device_type  'Bruker Kappa-axis APEXII'
_diffrn_measurement_method       'phi and omega scans'
_diffrn_radiation_type           MoK\a
_diffrn_radiation_wavelength     0.71073
_diffrn_reflns_limit_h_max       16
_diffrn_reflns_limit_h_min       -17
_diffrn_reflns_limit_k_max       14
_diffrn_reflns_limit_k_min       0
_diffrn_reflns_limit_l_max       19
_diffrn_reflns_limit_l_min       0
_diffrn_reflns_number            4962
_diffrn_reflns_theta_full        25.242
_diffrn_reflns_theta_max         36.386
_diffrn_reflns_theta_min         2.437
_exptl_absorpt_coefficient_mu    0.357
_exptl_absorpt_correction_T_max  0.438
_exptl_absorpt_correction_T_min  0.225
_exptl_absorpt_correction_type   multi-scan
_exptl_absorpt_process_details
;
(<i>TWINABS</i>; Bruker, 2012)
;
_exptl_crystal_colour            colourless
_exptl_crystal_density_diffrn    1.523
_exptl_crystal_description       plate
_exptl_crystal_F_000             464
_exptl_crystal_size_max          0.215
_exptl_crystal_size_mid          0.155
_exptl_crystal_size_min          0.065
_refine_diff_density_max         0.424
_refine_diff_density_min         -0.539
_refine_ls_extinction_method     none
_refine_ls_goodness_of_fit_ref   1.059
_refine_ls_hydrogen_treatment    constr
_refine_ls_matrix_type           full
_refine_ls_number_parameters     145
_refine_ls_number_reflns         4962
_refine_ls_number_restraints     0
_refine_ls_restrained_S_all      1.059
_refine_ls_R_factor_all          0.0581
_refine_ls_R_factor_gt           0.0395
_refine_ls_shift/su_max          0.001
_refine_ls_shift/su_mean         0.000
_refine_ls_structure_factor_coef Fsqd
_refine_ls_weighting_details
'w=1/[\s^2^(Fo^2^)+(0.0519P)^2^+0.1452P] where P=(Fo^2^+2Fc^2^)/3'
_refine_ls_weighting_scheme      calc
_refine_ls_wR_factor_gt          0.0988
_refine_ls_wR_factor_ref         0.1057
_reflns_number_gt                3766
_reflns_number_total             4962
_reflns_threshold_expression     'I > 2\s(I)'
_iucr_refine_instructions_details
;
    b16076.res created by SHELXL-2014/7
TITL b16076_hklf4_a.res in P2(1)/m
CELL  0.71073   10.21571    8.50667   11.44535   90.0000  101.8074   90.0000
ZERR    4.000    0.00263    0.00209    0.00351    0.0000    0.0167    0.0000
LATT  1
SYMM -X, 1/2+Y, -Z
SFAC   C  H  N   O   F  S
UNIT  20 48  4  12  12  4
TEMP -163.140
SIZE 0.065 0.155 0.215
OMIT      0   0   1
OMIT      1   0   0
OMIT      1   0   1
OMIT      0   1   1
OMIT      1   1   0
OMIT      0   0   2
OMIT     -2   0   1
OMIT      0   1   2
L.S. 12 4
BOND $H
FMAP 2
CONF
ACTA
PLAN 20
REM Instructions for potential hydrogen bonds
EQIV $1 -x+1, y-1/2, -z+1
HTAB C1 O4_$1
EQIV $2 x-1, y, z
HTAB C1 O3_$2
HTAB C3 O4_$1
EQIV $3 -x+1, -y+2, -z+1
HTAB C3 O4_$3
HTAB C5 O2_$1
HTAB C5 O2_$3
EQIV $4 x-1, -y+3/2, z
HTAB C6 O4_$4
HTAB C6 O2_$1
WGHT    0.051900    0.145200
FVAR       0.19740
MOLE 1
N1    3   -0.160401    0.750000    0.592843    10.50000    0.01330    0.01326 =
         0.01594    0.00000    0.00218    0.00000
C1    1   -0.223042    0.605930    0.530074    11.00000    0.02342    0.01614 =
         0.02100   -0.00284    0.00226   -0.00355
AFIX 137
H1A   2   -0.318953    0.605315    0.530152    11.00000   -1.50000
H1B   2   -0.181136    0.512153    0.571389    11.00000   -1.50000
H1C   2   -0.210059    0.605975    0.447576    11.00000   -1.50000
AFIX   0
C2    1   -0.013699    0.750000    0.593375    10.50000    0.01324    0.02747 =
         0.02732    0.00000    0.00542    0.00000
AFIX 137
H2A   2    0.029340    0.662703    0.642561    10.50000   -1.50000
H2B   2    0.025696    0.849616    0.626360    10.50000   -1.50000
H2C   2   -0.000123    0.737681    0.511551    10.50000   -1.50000
AFIX   0
C3    1   -0.179837    0.750000    0.719061    10.50000    0.02369    0.02121 =
         0.01687    0.00000    0.00447    0.00000
AFIX 137
H3A   2   -0.131155    0.661337    0.762303    10.50000   -1.50000
H3B   2   -0.275305    0.739998    0.719495    10.50000   -1.50000
H3C   2   -0.145768    0.848665    0.757964    10.50000   -1.50000
AFIX   0
MOLE 2
C4    1    0.355493    0.750000    0.790471    10.50000    0.02879    0.02555 =
         0.01673    0.00000    0.00750    0.00000
F1    5    0.466631    0.750000    0.876535    10.50000    0.04349    0.05917 =
         0.01385    0.00000   -0.00172    0.00000
F2    5    0.284774    0.623877    0.807076    11.00000    0.05026    0.03661 =
         0.03302    0.00639    0.02189   -0.01122
S1    6    0.397424    0.750000    0.642680    10.50000    0.01419    0.01330 =
         0.01369    0.00000    0.00323    0.00000
O1    4    0.269212    0.750000    0.562756    10.50000    0.01563    0.02729 =
         0.01829    0.00000    0.00003    0.00000
O2    4    0.474422    0.892721    0.643450    11.00000    0.02493    0.02075 =
         0.02633   -0.00092    0.00633   -0.00818
MOLE 3
N2    3    0.400955    0.750000    0.202710    10.50000    0.01378    0.01432 =
         0.01469    0.00000    0.00231    0.00000
C5    1    0.379189    0.750000    0.328303    10.50000    0.02203    0.01908 =
         0.01425    0.00000    0.00468    0.00000
AFIX 137
H5A   2    0.410366    0.650121    0.366842    10.50000   -1.50000
H5B   2    0.283680    0.762980    0.327460    10.50000   -1.50000
H5C   2    0.429289    0.836900    0.372724    10.50000   -1.50000
AFIX   0
C6    1    0.338026    0.606476    0.139563    11.00000    0.02245    0.01599 =
         0.01888   -0.00316    0.00246   -0.00235
AFIX 137
H6A   2    0.241918    0.606750    0.138771    11.00000   -1.50000
H6B   2    0.378945    0.512410    0.181177    11.00000   -1.50000
H6C   2    0.351975    0.606207    0.057359    11.00000   -1.50000
AFIX   0
C7    1    0.547848    0.750000    0.204741    10.50000    0.01369    0.02420 =
         0.02584    0.00000    0.00543    0.00000
AFIX 137
H7A   2    0.588532    0.655387    0.245684    10.50000   -1.50000
H7B   2    0.588843    0.843504    0.247143    10.50000   -1.50000
H7C   2    0.562395    0.751109    0.122726    10.50000   -1.50000
AFIX   0
MOLE 4
S2    6    0.963584    0.750000    0.222875    10.50000    0.01404    0.01859 =
         0.01491    0.00000    0.00181    0.00000
O3    4    0.845414    0.750000    0.271650    10.50000    0.02157    0.06400 =
         0.02761    0.00000    0.01071    0.00000
O4    4    1.041838    0.891193    0.241637    11.00000    0.03820    0.03243 =
         0.03685   -0.00900    0.00189   -0.01627
C8    1    0.898950    0.750000    0.062440    10.50000    0.02675    0.03494 =
         0.01795    0.00000   -0.00273    0.00000
F3    5    0.997377    0.750000    0.002785    10.50000    0.05153    0.10442 =
         0.02049    0.00000    0.01385    0.00000
F4    5    0.823650    0.625404    0.028237    11.00000    0.07552    0.06813 =
         0.04118   -0.02024   -0.01156   -0.03308
MOLE 0
HKLF 4
REM  b16076_hklf4_a.res in P2(1)/m
REM R1 =  0.0395 for    3766 Fo > 4sig(Fo)  and  0.0581 for all    4962 data
REM    145 parameters refined using      0 restraints
END
WGHT      0.0519      0.1452
REM Highest difference peak  0.424,  deepest hole -0.539,  1-sigma level  0.071
Q1    1   0.9106  0.7500  0.1382  10.50000  0.05    0.42
Q2    1   0.3412  0.7500  0.5891  10.50000  0.05    0.42
Q3    1   0.3610  0.7500  0.7217  10.50000  0.05    0.36
Q4    1   1.0166  0.7500 -0.0174  10.50000  0.05    0.36
Q5    1   0.9771  0.8280  0.0184  11.00000  0.05    0.36
Q6    1   0.3820  0.7500  0.2524  10.50000  0.05    0.32
Q7    1  -0.1848  0.8204  0.5682  11.00000  0.05    0.31
Q8    1   1.0202  0.8223  0.2586  11.00000  0.05    0.30
Q9    1   0.9796  0.9176  0.2345  11.00000  0.05    0.30
Q10   1   0.9840  0.8934  0.2579  11.00000  0.05    0.29
Q11   1   0.3610  0.8047  0.1789  11.00000  0.05    0.28
Q12   1   0.4292  0.8295  0.6434  11.00000  0.05    0.27
Q13   1   0.4638  0.7500  0.2158  10.50000  0.05    0.27
Q14   1   0.2358  0.7500  0.5020  10.50000  0.05    0.27
Q15   1   0.8762  0.5746  0.0548  11.00000  0.05    0.27
Q16   1   0.2446  0.5860  0.7655  11.00000  0.05    0.26
Q17   1   0.1220  0.7500  0.1458  10.50000  0.05    0.24
Q18   1   0.5156  0.7500  0.8780  10.50000  0.05    0.24
Q19   1   0.5084  0.8880  0.6933  11.00000  0.05    0.24
Q20   1  -0.0944  0.7500  0.5954  10.50000  0.05    0.24
;
_cod_data_source_file            zq4003sup1.cif
_cod_data_source_block           I
_cod_database_code               1542877
_shelx_space_group_comment
;
The symmetry employed for this shelxl refinement is uniquely defined
by the following loop, which should always be used as a source of
symmetry information in preference to the above space-group names.
They are only intended as comments.
;
_shelx_estimated_absorpt_t_min   0.927
_shelx_estimated_absorpt_t_max   0.977
_shelx_hkl_file
;
   1   0   0    0.00    0.01
   2   0   0   29.35    0.54
   3   0   0   12.25    0.18
   4   0   0   36.26    0.45
   5   0   0   73.38    0.82
   6   0   0   27.94    0.34
   7   0   0    9.99    0.19
   8   0   0    0.60    0.08
   9   0   0   22.91    0.41
  10   0   0    0.30    0.14
  11   0   0    0.84    0.20
  12   0   0    1.31    0.26
  13   0   0    0.03    0.12
  14   0   0    9.66    0.43
  15   0   0    0.56    0.22
  16   0   0    9.49    0.59
   0   1   0    0.01    0.02
   1   1   0    0.15    0.08
   2   1   0  862.63    7.72
   3   1   0   14.34    0.14
   4   1   0   33.30    0.28
   5   1   0   16.27    0.16
   6   1   0    7.67    0.11
   7   1   0   52.13    0.43
   8   1   0    0.57    0.06
   9   1   0    0.89    0.09
  10   1   0   14.12    0.23
  11   1   0    2.39    0.14
  12   1   0    7.86    0.25
  13   1   0    0.75    0.16
  14   1   0    9.26    0.34
  15   1   0    0.06    0.12
  16   1   0    1.44    0.22
   0   2   0 1000.00   14.85
   1   2   0    2.58    0.06
   2   2   0   75.39    0.67
   3   2   0   11.08    0.13
   4   2   0    2.06    0.07
   5   2   0   63.03    0.54
   6   2   0    0.03    0.03
   7   2   0   18.31    0.20
   8   2   0    4.48    0.12
   9   2   0   19.64    0.29
  10   2   0    0.12    0.10
  11   2   0    0.15    0.11
  12   2   0    0.21    0.14
  13   2   0    0.17    0.12
  14   2   0    8.33    0.33
  15   2   0    0.13    0.12
  16   2   0    3.13    0.27
   0   3   0    0.27    0.05
   1   3   0    0.13    0.04
   2   3   0   86.93    0.80
   3   3   0   10.07    0.13
   4   3   0   90.51    0.76
   5   3   0   19.82    0.22
   6   3   0    5.96    0.11
   7   3   0  126.24    1.01
   8   3   0    1.03    0.08
   9   3   0   18.79    0.28
  10   3   0    2.85    0.15
  11   3   0    0.59    0.12
  12   3   0    8.51    0.32
  13   3   0    0.12    0.10
  14   3   0    0.37    0.14
  15   3   0    0.20    0.14
  16   3   0    1.85    0.24
   0   4   0   19.72    0.30
   1   4   0    0.74    0.04
   2   4   0   77.21    0.74
   3   4   0    9.49    0.12
   4   4   0   34.43    0.33
   5   4   0   57.25    0.52
   6   4   0    3.94    0.11
   7   4   0   13.78    0.19
   8   4   0    8.10    0.17
   9   4   0   10.79    0.23
  10   4   0    0.81    0.14
  11   4   0    0.14    0.12
  12   4   0    0.04    0.15
  13   4   0    0.14    0.13
  14   4   0    6.36    0.31
  15   4   0    0.14    0.13
  16   4   0    0.69    0.34
   0   5   0    0.08    0.06
   1   5   0    0.61    0.04
   2   5   0   82.73    0.76
   3   5   0    0.48    0.03
   4   5   0   30.92    0.34
   5   5   0    8.37    0.15
   6   5   0    3.27    0.11
   7   5   0   48.44    0.58
   8   5   0    1.00    0.08
   9   5   0    7.03    0.21
  10   5   0    3.10    0.16
  11   5   0    0.83    0.14
  12   5   0    4.33    0.25
  13   5   0    0.35    0.15
  14   5   0    1.45    0.19
  15   5   0    0.14    0.14
   0   6   0  342.88    4.43
   1   6   0    0.43    0.05
   2   6   0   22.90    0.26
   3   6   0    7.92    0.13
   4   6   0    0.01    0.03
   5   6   0   19.03    0.25
   6   6   0    1.10    0.08
   7   6   0    1.22    0.10
   8   6   0    1.52    0.10
   9   6   0    6.19    0.20
  10   6   0    0.07    0.13
  11   6   0    1.19    0.15
  12   6   0    0.98    0.19
  13   6   0    0.07    0.12
  14   6   0    6.19    0.35
  15   6   0    0.15    0.14
   0   7   0    0.08    0.09
   1   7   0    4.62    0.11
   2   7   0   96.83    0.87
   3   7   0    6.20    0.13
   4   7   0    1.23    0.07
   5   7   0    0.05    0.05
   6   7   0    1.03    0.10
   7   7   0   11.02    0.28
   8   7   0    0.14    0.10
   9   7   0    0.57    0.11
  10   7   0    6.17    0.24
  11   7   0    1.15    0.17
  12   7   0    3.93    0.30
  13   7   0    0.88    0.19
  14   7   0    5.48    0.41
   0   8   0  217.11    3.52
   1   8   0    0.55    0.07
   2   8   0    2.98    0.11
   3   8   0    4.21    0.12
   4   8   0    0.01    0.04
   5   8   0    9.11    0.20
   6   8   0    0.05    0.07
   7   8   0    0.21    0.10
   8   8   0    0.25    0.12
   9   8   0   10.39    0.29
  10   8   0    0.15    0.16
  11   8   0    0.84    0.19
  12   8   0    0.35    0.25
  13   8   0    0.20    0.18
   0   9   0    0.00    0.12
   1   9   0    1.43    0.10
   2   9   0   27.81    0.42
   3   9   0    0.12    0.05
   4   9   0    1.04    0.08
   5   9   0    0.93    0.08
   6   9   0    0.05    0.08
   7   9   0   28.89    0.65
   8   9   0    0.18    0.12
   9   9   0    3.73    0.18
  10   9   0    2.27    0.20
  11   9   0    0.71    0.18
  12   9   0    3.60    0.37
   0  10   0   14.84    0.35
   1  10   0    0.10    0.10
   2  10   0    3.46    0.18
   3  10   0    1.89    0.13
   4  10   0    4.62    0.14
   5  10   0   10.34    0.38
   6  10   0    1.96    0.12
   7  10   0    2.93    0.18
   8  10   0    0.55    0.13
   9  10   0    7.95    0.36
  10  10   0    0.47    0.15
  11  10   0    0.13    0.21
   0  11   0    0.00    0.16
   1  11   0    0.29    0.13
   2  11   0    7.93    0.25
   3  11   0    0.06    0.08
   4  11   0    6.14    0.34
   5  11   0    1.47    0.23
   6  11   0    0.87    0.23
   7  11   0   23.44    0.77
   8  11   0    0.00    0.19
   9  11   0    1.64    0.35
  10  11   0    0.72    0.34
   0  12   0   15.46    0.46
   1  12   0    0.00    0.12
   2  12   0    3.13    0.22
   3  12   0    1.01    0.12
   4  12   0    1.96    0.22
   5  12   0    7.94    0.51
   6  12   0    0.23    0.20
   7  12   0    0.75    0.23
   8  12   0    0.24    0.22
   0  13   0    0.12    0.24
   1  13   0    0.18    0.15
   2  13   0    9.54    0.26
   3  13   0    1.52    0.25
   4  13   0    0.25    0.24
   5  13   0    0.56    0.21
   6  13   0    0.13    0.20
   0  14   0   25.14    0.95
   1  14   0    0.40    0.22
   2  14   0    0.55    0.31
 -16   0   1    0.23    0.21
 -15   0   1    0.43    0.22
 -14   0   1    0.18    0.14
 -13   0   1    4.01    0.29
 -12   0   1    0.14    0.13
 -11   0   1    2.16    0.25
 -10   0   1    0.09    0.12
  -9   0   1    0.22    0.13
  -8   0   1   22.48    0.36
  -7   0   1    2.05    0.10
  -6   0   1  114.82    1.23
  -5   0   1   78.19    0.82
  -4   0   1    0.02    0.03
  -3   0   1    2.14    0.08
  -2   0   1   21.11    0.82
  -1   0   1    0.01    0.01
   0   0   1    0.00    0.01
   1   0   1    0.03    0.03
   2   0   1    4.77    0.15
   3   0   1   19.35    0.26
   4   0   1   22.03    0.29
   5   0   1   19.82    0.26
   6   0   1    4.41    0.14
   7   0   1    4.05    0.15
   8   0   1    0.07    0.06
   9   0   1   18.94    0.34
  10   0   1    5.45    0.26
  11   0   1   14.54    0.41
  12   0   1    0.13    0.17
  13   0   1    1.29    0.22
  14   0   1    0.05    0.15
  15   0   1    0.13    0.19
  16   0   1    0.18    0.24
 -16   1   1    0.09    0.14
 -15   1   1    7.48    0.33
 -14   1   1    3.79    0.23
 -13   1   1    0.83    0.13
 -12   1   1    4.26    0.19
 -11   1   1    0.20    0.12
 -10   1   1   27.28    0.38
  -9   1   1    0.09    0.08
  -8   1   1    0.05    0.04
  -7   1   1   13.11    0.15
  -6   1   1    0.79    0.04
  -5   1   1   27.64    0.24
  -4   1   1   21.29    0.19
  -3   1   1   91.91    0.70
  -2   1   1   72.65    0.61
   0   1   1    0.04    0.02
   1   1   1  117.01    4.12
   2   1   1   55.40    0.53
   3   1   1    0.29    0.03
   4   1   1    0.83    0.05
   5   1   1    4.19    0.08
   6   1   1    0.18    0.03
   7   1   1    1.40    0.07
   8   1   1   18.81    0.24
   9   1   1    2.55    0.12
  10   1   1    4.18    0.16
  11   1   1   13.67    0.28
  12   1   1    2.90    0.16
  13   1   1    5.10    0.25
  14   1   1    0.33    0.16
  15   1   1    0.42    0.14
  16   1   1    0.40    0.21
 -16   2   1    0.09    0.12
 -15   2   1    0.18    0.13
 -14   2   1    0.39    0.12
 -13   2   1    0.29    0.11
 -12   2   1    1.76    0.15
 -11   2   1    0.39    0.13
 -10   2   1    4.94    0.17
  -9   2   1    0.25    0.08
  -8   2   1   13.32    0.18
  -7   2   1   16.31    0.18
  -6   2   1    1.38    0.05
  -5   2   1   35.16    0.32
  -4   2   1    3.54    0.07
  -3   2   1   77.77    0.67
  -2   2   1   58.93    0.54
  -1   2   1   10.79    0.15
   0   2   1    0.79    0.05
   1   2   1   36.94    0.41
   2   2   1   21.43    0.24
   3   2   1   16.16    0.19
   4   2   1   40.78    0.36
   5   2   1    6.41    0.10
   6   2   1   10.55    0.13
   7   2   1    0.04    0.04
   8   2   1    1.39    0.08
   9   2   1   35.61    0.42
  10   2   1    1.36    0.12
  11   2   1    1.97    0.15
  12   2   1    0.74    0.14
  13   2   1    0.27    0.16
  14   2   1    0.10    0.12
  15   2   1    1.60    0.20
  16   2   1    0.08    0.15
 -16   3   1    0.06    0.13
 -15   3   1    4.03    0.26
 -14   3   1    1.10    0.17
 -13   3   1    0.14    0.12
 -12   3   1    8.59    0.30
 -11   3   1    0.00    0.12
 -10   3   1    0.12    0.10
  -9   3   1    2.72    0.13
  -8   3   1    0.05    0.05
  -7   3   1   11.73    0.16
  -6   3   1    5.45    0.10
  -5   3   1    3.23    0.08
  -4   3   1   96.68    0.78
  -3   3   1   29.00    0.26
  -2   3   1   15.85    0.19
  -1   3   1   22.11    0.27
   0   3   1    0.74    0.04
   1   3   1   44.69    0.45
   2   3   1   62.91    0.62
   3   3   1    0.03    0.03
   4   3   1    3.18    0.08
   5   3   1   33.92    0.32
   6   3   1   12.60    0.17
   7   3   1   38.40    0.39
   8   3   1    0.77    0.08
   9   3   1    1.42    0.11
  10   3   1    7.26    0.23
  11   3   1    1.64    0.16
  12   3   1    5.65    0.23
  13   3   1    0.14    0.20
  14   3   1    0.13    0.12
  15   3   1    1.03    0.19
  16   3   1    0.99    0.21
 -16   4   1    0.11    0.14
 -15   4   1    0.11    0.12
 -14   4   1    0.64    0.16
 -13   4   1    0.08    0.11
 -12   4   1    1.81    0.17
 -11   4   1    0.25    0.13
 -10   4   1   12.85    0.28
  -9   4   1    1.15    0.12
  -8   4   1    1.90    0.10
  -7   4   1   23.06    0.26
  -6   4   1   42.57    0.40
  -5   4   1   23.98    0.25
  -4   4   1    1.91    0.06
  -3   4   1   93.45    0.88
  -2   4   1   46.05    0.52
  -1   4   1    3.67    0.07
   0   4   1   15.11    0.18
   1   4   1    0.44    0.04
   2   4   1   85.71    0.80
   3   4   1   36.08    0.37
   4   4   1   75.01    0.71
   5   4   1    0.14    0.04
   6   4   1   18.94    0.22
   7   4   1    0.46    0.06
   8   4   1    4.36    0.15
   9   4   1   35.04    0.48
  10   4   1    6.53    0.25
  11   4   1    0.39    0.17
  12   4   1    1.74    0.21
  13   4   1    0.36    0.22
  14   4   1    0.15    0.18
  15   4   1    2.74    0.25
 -15   5   1    4.44    0.29
 -14   5   1    1.02    0.18
 -13   5   1    0.95    0.15
 -12   5   1    6.28    0.27
 -11   5   1    0.00    0.15
 -10   5   1    2.19    0.13
  -9   5   1    0.19    0.10
  -8   5   1    0.58    0.07
  -7   5   1    7.56    0.17
  -6   5   1    0.18    0.05
  -5   5   1    0.06    0.04
  -4   5   1   40.38    0.38
  -3   5   1    4.22    0.13
  -2   5   1    4.66    0.12
  -1   5   1   18.24    0.21
   0   5   1    3.10    0.08
   1   5   1    2.42    0.07
   2   5   1   29.50    0.32
   3   5   1    1.13    0.06
   4   5   1    0.09    0.04
   5   5   1   12.74    0.20
   6   5   1    0.05    0.05
   7   5   1   21.02    0.30
   8   5   1    1.88    0.11
   9   5   1    0.20    0.08
  10   5   1    3.07    0.19
  11   5   1    2.53    0.21
  12   5   1    2.12    0.19
  13   5   1    1.13    0.23
  14   5   1    0.05    0.15
  15   5   1    0.63    0.15
 -15   6   1    0.04    0.14
 -14   6   1    0.13    0.13
 -13   6   1    1.29    0.17
 -12   6   1    0.32    0.12
 -11   6   1    1.45    0.18
 -10   6   1    1.27    0.12
  -9   6   1    0.13    0.10
  -8   6   1    4.83    0.19
  -7   6   1    1.77    0.11
  -6   6   1    2.62    0.10
  -5   6   1   27.61    0.33
  -4   6   1    0.03    0.03
  -3   6   1    7.23    0.16
  -2   6   1   13.96    0.17
  -1   6   1    0.11    0.03
   0   6   1    6.54    0.12
   1   6   1    7.51    0.13
   2   6   1    2.09    0.07
   3   6   1   23.66    0.27
   4   6   1    0.32    0.05
   5   6   1    0.06    0.04
   6   6   1    1.45    0.10
   7   6   1    0.64    0.09
   8   6   1    0.06    0.06
   9   6   1   10.22    0.25
  10   6   1    1.13    0.15
  11   6   1    2.61    0.21
  12   6   1    0.35    0.15
  13   6   1    0.62    0.22
  14   6   1    0.24    0.16
 -14   7   1    2.72    0.31
 -13   7   1    0.63    0.17
 -12   7   1    2.23    0.24
 -11   7   1    0.00    0.18
 -10   7   1   20.64    0.46
  -9   7   1    0.25    0.12
  -8   7   1    0.00    0.12
  -7   7   1    5.69    0.22
  -6   7   1    0.08    0.05
  -5   7   1    2.12    0.09
  -4   7   1    0.36    0.03
  -3   7   1   35.37    0.40
  -2   7   1    4.84    0.10
  -1   7   1   28.25    0.35
   0   7   1    0.08    0.06
   1   7   1   35.10    0.38
   2   7   1   13.74    0.20
   3   7   1    0.10    0.04
   4   7   1    1.47    0.08
   5   7   1    0.03    0.05
   6   7   1    1.36    0.10
   7   7   1    0.50    0.09
   8   7   1    9.56    0.22
   9   7   1    0.59    0.10
  10   7   1    0.78    0.16
  11   7   1    7.12    0.31
  12   7   1    1.19    0.22
  13   7   1    3.99    0.37
  14   7   1    0.20    0.21
 -13   8   1    1.32    0.22
 -12   8   1    0.17    0.14
 -11   8   1    1.39    0.20
 -10   8   1    0.48    0.14
  -9   8   1    0.00    0.14
  -8   8   1    9.61    0.36
  -7   8   1    0.30    0.11
  -6   8   1    1.77    0.11
  -5   8   1   17.72    0.28
  -4   8   1    0.25    0.08
  -3   8   1    1.59    0.07
  -2   8   1    2.88    0.10
  -1   8   1    0.38    0.06
   0   8   1    0.93    0.11
   1   8   1    8.48    0.16
   2   8   1    1.33    0.09
   3   8   1    3.65    0.13
   4   8   1    0.49    0.07
   5   8   1    0.83    0.10
   6   8   1    0.62    0.10
   7   8   1    0.06    0.09
   8   8   1    0.00    0.10
   9   8   1    5.99    0.24
  10   8   1    0.60    0.14
  11   8   1    5.39    0.31
  12   8   1    0.04    0.22
  13   8   1    0.41    0.33
 -13   9   1    0.00    0.18
 -12   9   1    2.88    0.33
 -11   9   1    0.08    0.18
 -10   9   1    1.81    0.16
  -9   9   1    0.11    0.19
  -8   9   1    0.50    0.18
  -7   9   1    4.44    0.23
  -6   9   1    1.59    0.09
  -5   9   1    0.18    0.10
  -4   9   1    1.36    0.13
  -3   9   1    0.80    0.07
  -2   9   1    1.57    0.11
  -1   9   1   10.37    0.22
   0   9   1    0.30    0.10
   1   9   1    0.34    0.07
   2   9   1   11.10    0.24
   3   9   1    0.27    0.09
   4   9   1    1.64    0.12
   5   9   1    0.78    0.10
   6   9   1    2.34    0.18
   7   9   1    0.87    0.15
   8   9   1    1.79    0.20
   9   9   1    1.18    0.14
  10   9   1    1.83    0.18
  11   9   1    2.16    0.25
  12   9   1    1.63    0.31
 -12  10   1    1.72    0.73
 -11  10   1    0.24    0.21
 -10  10   1    2.28    0.17
  -9  10   1    0.00    0.17
  -8  10   1    3.01    0.21
  -7  10   1    3.20    0.34
  -6  10   1    6.44    0.43
  -5  10   1    5.45    0.32
  -4  10   1    0.11    0.10
  -3  10   1   11.50    0.27
  -2  10   1    1.44    0.11
  -1  10   1    0.78    0.11
   0  10   1    0.53    0.10
   1  10   1    3.33    0.15
   2  10   1    0.02    0.10
   3  10   1    0.12    0.09
   4  10   1   16.18    0.35
   5  10   1    0.53    0.10
   6  10   1    3.53    0.20
   7  10   1    0.39    0.13
   8  10   1    0.74    0.15
   9  10   1    5.51    0.22
  10  10   1    1.46    0.18
  11  10   1    0.22    0.25
 -10  11   1    0.70    0.28
  -9  11   1    0.42    0.31
  -8  11   1    0.38    0.25
  -7  11   1    1.75    0.30
  -6  11   1    0.74    0.23
  -5  11   1    0.03    0.15
  -4  11   1    7.01    0.34
  -3  11   1    0.07    0.08
  -2  11   1    0.01    0.08
  -1  11   1    4.68    0.20
   0  11   1    0.08    0.11
   1  11   1    0.64    0.10
   2  11   1    6.80    0.22
   3  11   1    0.20    0.10
   4  11   1    1.67    0.14
   5  11   1    1.93    0.15
   6  11   1    1.35    0.12
   7  11   1    2.81    0.18
   8  11   1    0.03    0.10
   9  11   1    0.23    0.12
  10  11   1    0.44    0.23
  -9  12   1    0.36    0.81
  -8  12   1    0.53    0.32
  -7  12   1    0.46    0.25
  -6  12   1    1.12    0.25
  -5  12   1    4.71    0.41
  -4  12   1    0.10    0.14
  -3  12   1    4.28    0.18
  -2  12   1    0.77    0.13
  -1  12   1    0.09    0.09
   0  12   1    1.37    0.15
   1  12   1    0.45    0.13
   2  12   1    0.09    0.13
   3  12   1    1.92    0.19
   4  12   1    2.01    0.13
   5  12   1    0.23    0.17
   6  12   1    1.17    0.25
   7  12   1    0.18    0.19
   8  12   1    0.40    0.22
  -6  13   1    0.18    0.19
  -5  13   1    0.04    0.17
  -4  13   1    0.36    0.24
  -3  13   1    5.13    0.42
  -2  13   1    0.04    0.08
  -1  13   1    1.08    0.15
   0  13   1    0.06    0.16
   1  13   1    1.62    0.17
   2  13   1    2.88    0.20
   3  13   1    0.09    0.11
   4  13   1    0.46    0.26
   5  13   1    0.65    0.22
   6  13   1    0.20    0.21
  -2  14   1    0.42    0.28
  -1  14   1    0.36    0.17
   0  14   1    1.30    0.25
   1  14   1    0.13    0.20
   2  14   1    0.24    0.17
 -16   0   2    4.60    0.43
 -15   0   2    0.75    0.23
 -14   0   2    0.24    0.15
 -13   0   2   13.86    0.44
 -12   0   2    0.08    0.10
 -11   0   2    6.56    0.29
 -10   0   2    6.04    0.30
  -9   0   2   19.96    0.38
  -8   0   2    1.43    0.12
  -7   0   2   25.91    0.33
  -6   0   2   10.61    0.18
  -5   0   2    0.92    0.06
  -4   0   2    3.71    0.08
  -3   0   2   27.44    0.32
  -2   0   2  470.50    6.18
   0   0   2   22.74    0.89
   1   0   2   54.57    0.85
   2   0   2    0.05    0.06
   3   0   2  162.39    2.37
   4   0   2    3.74    0.12
   5   0   2    5.81    0.14
   6   0   2    0.02    0.05
   7   0   2    8.60    0.20
   8   0   2    3.06    0.17
   9   0   2   24.03    0.48
  10   0   2    9.18    0.28
  11   0   2    3.09    0.23
  12   0   2   24.70    0.59
  13   0   2    0.09    0.18
  14   0   2   22.92    0.69
  15   0   2    0.36    0.28
  16   0   2    0.14    0.25
 -16   1   2    2.00    0.22
 -15   1   2    3.67    0.24
 -14   1   2    5.45    0.27
 -13   1   2    0.05    0.09
 -12   1   2    0.13    0.08
 -11   1   2    0.55    0.09
 -10   1   2    0.35    0.11
  -9   1   2   15.83    0.25
  -8   1   2    0.75    0.08
  -7   1   2    6.53    0.10
  -6   1   2    4.58    0.08
  -5   1   2   18.06    0.17
  -4   1   2    2.14    0.06
  -3   1   2    0.05    0.02
  -2   1   2    0.12    0.02
  -1   1   2   92.26    1.26
   0   1   2  149.89    2.70
   1   1   2   43.32    0.54
   2   1   2   45.11    0.49
   3   1   2    0.00    0.10
   4   1   2    0.48    0.04
   5   1   2   47.41    0.41
   6   1   2    4.39    0.10
   7   1   2   11.71    0.17
   8   1   2    6.80    0.15
   9   1   2    0.36    0.07
  10   1   2    5.70    0.18
  11   1   2    4.33    0.19
  12   1   2    6.01    0.21
  13   1   2    0.29    0.14
  14   1   2    3.89    0.26
  15   1   2    0.15    0.18
  16   1   2    2.90    0.34
 -16   2   2    3.91    0.27
 -15   2   2    0.41    0.14
 -14   2   2    0.13    0.11
 -13   2   2    1.81    0.17
 -12   2   2    0.21    0.10
 -11   2   2    7.81    0.22
 -10   2   2    3.35    0.16
  -9   2   2    0.54    0.07
  -8   2   2   24.97    0.27
  -7   2   2   29.51    0.27
  -6   2   2    4.24    0.08
  -5   2   2   24.70    0.24
  -4   2   2   23.62    0.22
  -3   2   2    0.17    0.03
  -2   2   2   11.91    0.14
  -1   2   2    6.60    0.11
   0   2   2   59.34    0.62
   1   2   2   16.81    0.23
   2   2   2    7.57    0.12
   3   2   2   18.23    0.26
   4   2   2   25.73    0.25
   5   2   2    3.69    0.09
   6   2   2    2.74    0.09
   7   2   2   48.07    0.50
   8   2   2    3.39    0.13
   9   2   2   28.41    0.37
  10   2   2    3.57    0.16
  11   2   2    3.12    0.19
  12   2   2   14.25    0.34
  13   2   2    0.18    0.17
  14   2   2    9.20    0.35
  15   2   2    0.79    0.25
  16   2   2    0.20    0.16
 -16   3   2    0.11    0.14
 -15   3   2    0.35    0.14
 -14   3   2    1.72    0.20
 -13   3   2    0.76    0.15
 -12   3   2    0.36    0.09
 -11   3   2    1.30    0.12
 -10   3   2    3.50    0.16
  -9   3   2   42.75    0.51
  -8   3   2    7.32    0.15
  -7   3   2    3.84    0.10
  -6   3   2   36.25    0.33
  -5   3   2    4.08    0.09
  -4   3   2   17.53    0.17
  -3   3   2   74.64    0.61
  -2   3   2  113.15    0.94
  -1   3   2   21.61    0.25
   0   3   2    2.08    0.08
   1   3   2  252.04    2.40
   2   3   2   35.30    0.39
   3   3   2    2.94    0.09
   4   3   2    0.18    0.04
   5   3   2   97.98    0.88
   6   3   2   13.50    0.19
   7   3   2  124.30    1.32
   8   3   2   11.45    0.22
   9   3   2    0.55    0.09
  10   3   2   14.51    0.30
  11   3   2    0.37    0.13
  12   3   2    1.14    0.17
  13   3   2    0.15    0.16
  14   3   2    1.65    0.27
  15   3   2    0.15    0.20
 -16   4   2    2.96    0.25
 -15   4   2    0.44    0.16
 -14   4   2    0.51    0.15
 -13   4   2    0.09    0.11
 -12   4   2    0.22    0.10
 -11   4   2    7.24    0.26
 -10   4   2    0.36    0.12
  -9   4   2   11.82    0.23
  -8   4   2   35.42    0.41
  -7   4   2   23.38    0.26
  -6   4   2    0.08    0.04
  -5   4   2   55.38    0.46
  -4   4   2   23.09    0.22
  -3   4   2    1.55    0.05
  -2   4   2    0.44    0.03
  -1   4   2   11.25    0.14
   0   4   2   16.83    0.21
   1   4   2    0.18    0.04
   2   4   2   19.29    0.22
   3   4   2   73.73    0.79
   4   4   2   25.36    0.30
   5   4   2   31.00    0.31
   6   4   2    6.28    0.13
   7   4   2   72.20    0.81
   8   4   2   10.69    0.23
   9   4   2   20.32    0.35
  10   4   2    1.20    0.14
  11   4   2    0.82    0.17
  12   4   2    7.72    0.32
  13   4   2    0.05    0.19
  14   4   2    4.31    0.31
  15   4   2    1.23    0.26
 -15   5   2    1.33    0.20
 -14   5   2    1.49    0.20
 -13   5   2    0.53    0.12
 -12   5   2    0.82    0.13
 -11   5   2    0.23    0.10
 -10   5   2    2.18    0.15
  -9   5   2   16.94    0.29
  -8   5   2    2.43    0.11
  -7   5   2    2.20    0.11
  -6   5   2   11.89    0.17
  -5   5   2    1.66    0.07
  -4   5   2    8.38    0.13
  -3   5   2   30.44    0.29
  -2   5   2   29.32    0.30
  -1   5   2    7.72    0.11
   0   5   2   39.55    0.41
   1   5   2   26.16    0.29
   2   5   2   18.65    0.22
   3   5   2    0.07    0.05
   4   5   2    0.04    0.04
   5   5   2   48.21    0.51
   6   5   2    4.67    0.13
   7   5   2   57.94    0.66
   8   5   2    6.92    0.20
   9   5   2    0.75    0.10
  10   5   2    3.10    0.19
  11   5   2    0.48    0.16
  12   5   2    1.55    0.21
  13   5   2    0.14    0.20
  14   5   2    2.36    0.28
  15   5   2    0.24    0.18
 -15   6   2    0.21    0.16
 -14   6   2    0.03    0.13
 -13   6   2    5.07    0.26
 -12   6   2    0.06    0.09
 -11   6   2    3.42    0.18
 -10   6   2    0.34    0.12
  -9   6   2    0.44    0.10
  -8   6   2    5.04    0.18
  -7   6   2    6.71    0.18
  -6   6   2    0.81    0.06
  -5   6   2    6.67    0.12
  -4   6   2    0.07    0.03
  -3   6   2    2.00    0.06
  -2   6   2   73.36    0.69
  -1   6   2    1.41    0.06
   0   6   2   23.60    0.28
   1   6   2    1.38    0.07
   2   6   2    1.30    0.06
   3   6   2    8.60    0.16
   4   6   2    2.78    0.11
   5   6   2    6.13    0.17
   6   6   2    1.75    0.11
   7   6   2   10.75    0.21
   8   6   2    0.29    0.08
   9   6   2   10.56    0.26
  10   6   2    2.16    0.17
  11   6   2    0.31    0.16
  12   6   2    9.22    0.33
  13   6   2    0.08    0.19
  14   6   2   12.67    0.45
 -14   7   2    2.60    0.32
 -13   7   2    0.07    0.14
 -12   7   2    0.55    0.16
 -11   7   2    0.49    0.13
 -10   7   2    0.14    0.14
  -9   7   2    3.97    0.16
  -8   7   2    0.10    0.15
  -7   7   2    4.32    0.21
  -6   7   2    0.14    0.05
  -5   7   2    1.70    0.08
  -4   7   2    2.17    0.07
  -3   7   2    0.08    0.03
  -2   7   2    0.14    0.04
  -1   7   2    2.67    0.08
   0   7   2   60.21    0.64
   1   7   2   18.41    0.24
   2   7   2   12.00    0.19
   3   7   2    0.38    0.11
   4   7   2    0.07    0.05
   5   7   2   12.20    0.24
   6   7   2    0.16    0.07
   7   7   2    5.12    0.15
   8   7   2    2.45    0.14
   9   7   2    0.09    0.08
  10   7   2    0.72    0.12
  11   7   2    1.87    0.22
  12   7   2    5.54    0.34
  13   7   2    0.08    0.21
  14   7   2    1.86    0.47
 -13   8   2    4.33    0.34
 -12   8   2    0.07    0.14
 -11   8   2    2.34    0.20
 -10   8   2    0.36    0.16
  -9   8   2    1.50    0.20
  -8   8   2    1.49    0.20
  -7   8   2    6.49    0.28
  -6   8   2    0.56    0.07
  -5   8   2    1.55    0.07
  -4   8   2    0.63    0.09
  -3   8   2    1.73    0.08
  -2   8   2   38.82    0.47
  -1   8   2    0.06    0.04
   0   8   2   16.06    0.26
   1   8   2    0.02    0.08
   2   8   2    0.39    0.07
   3   8   2   16.26    0.28
   4   8   2    1.34    0.12
   5   8   2    0.08    0.08
   6   8   2    0.29    0.10
   7   8   2    6.46    0.29
   8   8   2    0.16    0.09
   9   8   2    8.83    0.31
  10   8   2    0.97    0.17
  11   8   2    0.42    0.20
  12   8   2    8.65    0.43
  13   8   2    0.33    0.28
 -13   9   2    0.32    0.23
 -12   9   2    0.14    0.16
 -11   9   2    1.66    0.17
 -10   9   2    0.05    0.12
  -9   9   2   10.21    0.38
  -8   9   2    0.03    0.16
  -7   9   2    2.13    0.18
  -6   9   2    2.75    0.29
  -5   9   2    0.14    0.11
  -4   9   2    5.38    0.24
  -3   9   2    0.23    0.05
  -2   9   2    0.79    0.09
  -1   9   2    0.43    0.07
   0   9   2    8.07    0.19
   1   9   2    0.12    0.10
   2   9   2    7.71    0.19
   3   9   2    0.18    0.09
   4   9   2    0.17    0.09
   5   9   2   19.91    0.41
   6   9   2    0.34    0.12
   7   9   2   12.84    0.40
   8   9   2    0.78    0.12
   9   9   2    0.14    0.11
  10   9   2    5.58    0.31
  11   9   2    0.79    0.23
  12   9   2    1.79    0.34
 -12  10   2    0.12    0.17
 -11  10   2    2.03    0.21
 -10  10   2    0.05    0.12
  -9  10   2    2.36    0.20
  -8  10   2    2.93    0.35
  -7  10   2    8.16    0.50
  -6  10   2    1.94    0.27
  -5  10   2    4.56    0.33
  -4  10   2    0.45    0.13
  -3  10   2    0.16    0.07
  -2  10   2    2.77    0.15
  -1  10   2    0.03    0.07
   0  10   2    5.80    0.15
   1  10   2    0.16    0.12
   2  10   2    0.87    0.11
   3  10   2    0.06    0.14
   4  10   2    2.01    0.18
   5  10   2    3.85    0.22
   6  10   2    0.22    0.12
   7  10   2   13.93    0.46
   8  10   2    2.64    0.17
   9  10   2    5.31    0.25
  10  10   2    0.15    0.17
  11  10   2    0.30    0.23
 -10  11   2    0.53    0.32
  -9  11   2    7.29    0.46
  -8  11   2    0.36    0.31
  -7  11   2    0.11    0.26
  -6  11   2    5.56    0.44
  -5  11   2    0.16    0.17
  -4  11   2    4.15    0.31
  -3  11   2    1.65    0.13
  -2  11   2    1.74    0.14
  -1  11   2    0.34    0.10
   0  11   2    2.23    0.15
   1  11   2    3.20    0.16
   2  11   2    3.96    0.19
   3  11   2    0.32    0.14
   4  11   2    0.09    0.12
   5  11   2   16.39    0.43
   6  11   2    0.51    0.13
   7  11   2   16.79    0.48
   8  11   2    0.32    0.10
   9  11   2    0.14    0.13
  10  11   2    1.37    0.72
  -9  12   2    0.63    0.30
  -8  12   2    1.47    0.40
  -7  12   2    2.68    0.42
  -6  12   2    0.12    0.19
  -5  12   2    2.04    0.30
  -4  12   2    0.06    0.14
  -3  12   2    0.08    0.07
  -2  12   2    7.78    0.30
  -1  12   2    0.10    0.09
   0  12   2    2.77    0.17
   1  12   2    0.17    0.14
   2  12   2    0.44    0.12
   3  12   2    0.66    0.18
   4  12   2    0.65    0.16
   5  12   2    3.52    0.21
   6  12   2    0.23    0.19
   7  12   2    4.05    0.40
   8  12   2    0.37    0.23
  -6  13   2    0.24    0.22
  -5  13   2    0.04    0.17
  -4  13   2    1.21    0.31
  -3  13   2    0.19    0.18
  -2  13   2    0.21    0.09
  -1  13   2    0.03    0.10
   0  13   2    8.50    0.31
   1  13   2    1.11    0.18
   2  13   2    1.97    0.20
   3  13   2    0.00    0.17
   4  13   2    0.08    0.28
   5  13   2    3.33    0.36
   6  13   2    0.06    0.30
  -2  14   2    9.49    0.67
  -1  14   2    0.44    0.15
   0  14   2    1.85    0.25
   1  14   2    0.06    0.25
 -17   0   3    0.00    0.38
 -16   0   3    0.25    0.21
 -15   0   3    4.61    0.41
 -14   0   3    0.82    0.18
 -13   0   3    1.52    0.20
 -12   0   3    8.78    0.35
 -11   0   3    1.19    0.17
 -10   0   3   46.43    0.81
  -9   0   3    0.15    0.11
  -8   0   3   13.43    0.27
  -7   0   3   17.31    0.31
  -6   0   3   17.10    0.26
  -5   0   3   10.04    0.16
  -4   0   3    3.95    0.09
  -3   0   3  221.05    2.93
  -2   0   3   85.42    1.26
  -1   0   3   12.75    0.23
   0   0   3    0.04    0.03
   1   0   3    2.08    0.09
   2   0   3   70.73    0.95
   3   0   3   21.43    0.36
   4   0   3   71.01    0.94
   5   0   3   73.34    0.91
   6   0   3    2.27    0.13
   7   0   3    3.23    0.16
   8   0   3    1.22    0.13
   9   0   3   24.90    0.50
  10   0   3    0.25    0.10
  11   0   3    3.94    0.25
  12   0   3    0.24    0.21
  13   0   3    6.44    0.36
  14   0   3    6.21    0.38
  15   0   3    0.00    0.33
 -16   1   3    2.00    0.22
 -15   1   3    0.97    0.15
 -14   1   3    1.90    0.18
 -13   1   3    1.21    0.15
 -12   1   3   14.57    0.31
 -11   1   3    0.07    0.07
 -10   1   3    0.48    0.08
  -9   1   3    6.26    0.16
  -8   1   3    0.81    0.07
  -7   1   3    0.33    0.06
  -6   1   3   17.50    0.18
  -5   1   3   81.86    0.63
  -4   1   3    8.41    0.10
  -3   1   3   76.96    0.62
  -2   1   3   52.75    0.49
  -1   1   3   12.97    0.19
   0   1   3  228.63    2.30
   1   1   3   72.01    0.69
   2   1   3  241.75    2.11
   3   1   3   21.31    0.26
   4   1   3   42.61    0.45
   5   1   3    0.06    0.04
   6   1   3   14.53    0.19
   7   1   3   19.46    0.25
   8   1   3    0.08    0.06
   9   1   3   13.58    0.24
  10   1   3    7.24    0.22
  11   1   3   22.31    0.38
  12   1   3    0.47    0.13
  13   1   3    0.16    0.17
  14   1   3    3.45    0.28
  15   1   3    0.21    0.23
 -16   2   3    0.12    0.13
 -15   2   3    1.68    0.19
 -14   2   3    1.82    0.18
 -13   2   3    1.06    0.15
 -12   2   3    6.22    0.25
 -11   2   3    1.51    0.13
 -10   2   3   35.32    0.46
  -9   2   3    7.60    0.15
  -8   2   3   19.63    0.25
  -7   2   3   48.09    0.44
  -6   2   3    8.26    0.11
  -5   2   3   26.76    0.26
  -4   2   3    4.55    0.07
  -3   2   3   32.42    0.30
  -2   2   3    9.41    0.14
  -1   2   3    0.74    0.04
   0   2   3   16.79    0.21
   1   2   3   21.63    0.27
   2   2   3   70.10    0.76
   3   2   3    0.08    0.04
   4   2   3   41.81    0.45
   5   2   3   25.17    0.28
   6   2   3    6.27    0.12
   7   2   3   25.36    0.31
   8   2   3    0.31    0.07
   9   2   3   21.73    0.33
  10   2   3    1.39    0.12
  11   2   3    0.08    0.09
  12   2   3    0.13    0.15
  13   2   3    4.16    0.26
  14   2   3    1.90    0.23
  15   2   3    0.94    0.27
 -16   3   3    0.22    0.15
 -15   3   3    0.84    0.18
 -14   3   3    2.54    0.23
 -13   3   3    0.05    0.10
 -12   3   3    0.07    0.08
 -11   3   3    0.08    0.07
 -10   3   3    0.09    0.07
  -9   3   3   17.36    0.25
  -8   3   3   29.03    0.33
  -7   3   3   13.65    0.19
  -6   3   3   18.02    0.21
  -5   3   3    0.07    0.03
  -4   3   3   17.03    0.18
  -3   3   3   10.82    0.14
  -2   3   3   28.83    0.30
  -1   3   3    4.82    0.08
   0   3   3  105.35    1.10
   1   3   3   20.76    0.23
   2   3   3    4.00    0.09
   3   3   3    2.24    0.08
   4   3   3   19.26    0.26
   5   3   3   14.78    0.20
   6   3   3    4.32    0.11
   7   3   3   21.36    0.29
   8   3   3   16.64    0.29
   9   3   3    3.66    0.17
  10   3   3    2.75    0.18
  11   3   3    1.56    0.16
  12   3   3    0.02    0.15
  13   3   3    0.16    0.16
  14   3   3    0.70    0.21
  15   3   3    1.17    0.27
 -16   4   3    0.93    0.18
 -15   4   3    0.70    0.17
 -14   4   3    2.58    0.24
 -13   4   3    0.47    0.14
 -12   4   3    3.43    0.19
 -11   4   3    1.07    0.12
 -10   4   3   18.99    0.30
  -9   4   3   12.71    0.25
  -8   4   3   14.44    0.22
  -7   4   3   76.91    0.74
  -6   4   3    1.89    0.08
  -5   4   3    8.57    0.12
  -4   4   3    2.80    0.07
  -3   4   3  147.69    1.24
  -2   4   3    2.28    0.06
  -1   4   3    0.61    0.04
   0   4   3    6.85    0.11
   1   4   3    9.23    0.15
   2   4   3  222.41    2.20
   3   4   3    6.37    0.12
   4   4   3   13.60    0.21
   5   4   3    0.76    0.06
   6   4   3   30.74    0.35
   7   4   3   32.81    0.43
   8   4   3    0.69    0.09
   9   4   3   13.44    0.30
  10   4   3    1.18    0.14
  11   4   3    0.57    0.13
  12   4   3    0.23    0.16
  13   4   3    3.15    0.25
  14   4   3    0.98    0.23
  15   4   3    0.17    0.25
 -15   5   3    0.70    0.18
 -14   5   3    1.83    0.21
 -13   5   3    0.14    0.10
 -12   5   3    1.15    0.14
 -11   5   3    0.35    0.10
 -10   5   3    0.30    0.08
  -9   5   3    9.21    0.21
  -8   5   3   11.20    0.20
  -7   5   3    6.22    0.16
  -6   5   3    8.64    0.14
  -5   5   3   14.15    0.17
  -4   5   3    5.93    0.11
  -3   5   3    5.72    0.10
  -2   5   3    1.54    0.05
  -1   5   3   11.52    0.15
   0   5   3   75.42    0.72
   1   5   3    6.25    0.12
   2   5   3   10.02    0.17
   3   5   3    0.07    0.05
   4   5   3    1.50    0.10
   5   5   3    3.85    0.12
   6   5   3    4.23    0.15
   7   5   3   10.14    0.23
   8   5   3    5.44    0.20
   9   5   3    2.89    0.18
  10   5   3    0.51    0.11
  11   5   3    5.58    0.27
  12   5   3    0.15    0.16
  13   5   3    0.24    0.18
  14   5   3    1.01    0.25
 -15   6   3    1.73    0.26
 -14   6   3    0.30    0.15
 -13   6   3    0.66    0.14
 -12   6   3    2.27    0.18
 -11   6   3    0.30    0.09
 -10   6   3   18.44    0.33
  -9   6   3    0.20    0.10
  -8   6   3    5.35    0.18
  -7   6   3   23.19    0.37
  -6   6   3    0.69    0.07
  -5   6   3    0.86    0.05
  -4   6   3    0.93    0.05
  -3   6   3    3.72    0.09
  -2   6   3   11.64    0.15
  -1   6   3    3.49    0.09
   0   6   3    0.02    0.03
   1   6   3    2.44    0.09
   2   6   3    1.99    0.11
   3   6   3    0.31    0.06
   4   6   3   24.54    0.35
   5   6   3    2.96    0.13
   6   6   3    6.01    0.16
   7   6   3    3.79    0.16
   8   6   3    2.35    0.15
   9   6   3   15.04    0.33
  10   6   3    0.05    0.09
  11   6   3    0.89    0.15
  12   6   3    0.04    0.15
  13   6   3    4.47    0.30
  14   6   3    2.60    0.29
 -14   7   3    0.86    0.23
 -13   7   3    0.32    0.16
 -12   7   3   10.00    0.39
 -11   7   3    0.20    0.10
 -10   7   3    0.48    0.11
  -9   7   3    1.37    0.13
  -8   7   3    0.58    0.13
  -7   7   3    0.07    0.12
  -6   7   3    3.86    0.13
  -5   7   3   33.13    0.44
  -4   7   3    0.08    0.05
  -3   7   3   14.27    0.23
  -2   7   3   10.85    0.17
  -1   7   3    1.25    0.07
   0   7   3   35.83    0.42
   1   7   3    4.35    0.12
   2   7   3   38.19    0.48
   3   7   3    2.74    0.11
   4   7   3   22.59    0.37
   5   7   3    0.13    0.08
   6   7   3    9.44    0.20
   7   7   3    4.53    0.17
   8   7   3    0.12    0.08
   9   7   3    6.99    0.25
  10   7   3    1.12    0.15
  11   7   3   16.82    0.43
  12   7   3    0.40    0.21
  13   7   3    0.23    0.25
 -14   8   3    0.31    0.22
 -13   8   3    0.20    0.18
 -12   8   3    3.00    0.29
 -11   8   3    0.23    0.11
 -10   8   3   14.17    0.35
  -9   8   3    0.08    0.19
  -8   8   3    3.38    0.23
  -7   8   3    7.09    0.28
  -6   8   3    0.31    0.08
  -5   8   3    5.81    0.16
  -4   8   3    0.97    0.07
  -3   8   3    7.52    0.17
  -2   8   3    6.09    0.16
  -1   8   3    1.40    0.09
   0   8   3    0.01    0.04
   1   8   3    1.50    0.10
   2   8   3    0.00    0.10
   3   8   3    1.78    0.11
   4   8   3   18.64    0.34
   5   8   3    3.66    0.19
   6   8   3    0.17    0.08
   7   8   3    5.61    0.22
   8   8   3    0.47    0.11
   9   8   3   11.76    0.41
  10   8   3    0.12    0.13
  11   8   3    0.22    0.15
  12   8   3    0.18    0.20
 -13   9   3    0.24    0.22
 -12   9   3    0.79    0.19
 -11   9   3    0.19    0.12
 -10   9   3    0.07    0.09
  -9   9   3    1.37    0.22
  -8   9   3    2.62    0.20
  -7   9   3    0.06    0.12
  -6   9   3    3.29    0.15
  -5   9   3    2.66    0.23
  -4   9   3    0.29    0.06
  -3   9   3   16.62    0.28
  -2   9   3    0.10    0.07
  -1   9   3    0.04    0.06
   0   9   3   10.19    0.17
   1   9   3    0.50    0.06
   2   9   3   13.70    0.28
   3   9   3    1.81    0.14
   4   9   3    0.11    0.12
   5   9   3    1.09    0.16
   6   9   3    4.08    0.26
   7   9   3    3.39    0.18
   8   9   3    1.09    0.14
   9   9   3    3.76    0.24
  10   9   3    1.64    0.21
  11   9   3    3.02    0.29
  12   9   3    0.13    0.16
 -12  10   3    1.76    0.25
 -11  10   3    0.47    0.15
 -10  10   3    3.96    0.18
  -9  10   3    3.96    0.23
  -8  10   3    1.83    0.30
  -7  10   3    6.71    0.43
  -6  10   3    0.03    0.17
  -5  10   3   10.12    0.42
  -4  10   3    1.20    0.08
  -3  10   3    4.94    0.20
  -2  10   3    0.09    0.07
  -1  10   3    2.35    0.15
   0  10   3    1.82    0.11
   1  10   3    0.09    0.07
   2  10   3   15.47    0.26
   3  10   3    0.18    0.12
   4  10   3   10.37    0.31
   5  10   3    0.54    0.16
   6  10   3    1.04    0.11
   7  10   3   11.66    0.32
   8  10   3    0.59    0.13
   9  10   3    3.98    0.26
  10  10   3    0.51    0.18
  11  10   3    0.49    0.59
 -10  11   3    0.52    0.28
  -9  11   3    2.06    0.36
  -8  11   3    3.07    0.35
  -7  11   3    1.60    0.33
  -6  11   3    1.96    0.33
  -5  11   3    0.41    0.21
  -4  11   3    0.76    0.17
  -3  11   3    9.45    0.28
  -2  11   3    1.18    0.13
  -1  11   3    0.79    0.09
   0  11   3    5.27    0.20
   1  11   3    0.52    0.10
   2  11   3    5.08    0.19
   3  11   3    0.30    0.10
   4  11   3    1.59    0.19
   5  11   3    2.26    0.22
   6  11   3    0.56    0.11
   7  11   3    2.10    0.17
   8  11   3    1.70    0.19
   9  11   3    0.48    0.17
  -8  12   3    0.44    0.32
  -7  12   3    6.74    0.52
  -6  12   3    0.05    0.24
  -5  12   3    1.30    0.28
  -4  12   3    0.23    0.18
  -3  12   3    0.65    0.11
  -2  12   3    0.32    0.13
  -1  12   3    1.49    0.14
   0  12   3    0.45    0.11
   1  12   3    0.38    0.14
   2  12   3    4.81    0.23
   3  12   3    0.12    0.13
   4  12   3    3.97    0.19
   5  12   3    0.11    0.11
   6  12   3    1.52    0.16
   7  12   3    2.43    0.22
  -6  13   3    0.35    0.25
  -5  13   3    5.02    0.46
  -4  13   3    0.05    0.21
  -3  13   3    1.72    0.31
  -2  13   3    0.05    0.09
  -1  13   3    1.23    0.14
   0  13   3    5.20    0.28
   1  13   3    0.10    0.13
   2  13   3    3.83    0.30
   3  13   3    0.22    0.19
   4  13   3    1.83    0.23
   5  13   3    0.25    0.27
   0  14   3    0.00    0.55
 -17   0   4    0.09    0.27
 -16   0   4    0.04    0.25
 -15   0   4   15.99    0.64
 -14   0   4    0.25    0.14
 -13   0   4   18.83    0.52
 -12   0   4    1.43    0.20
 -11   0   4    0.24    0.12
 -10   0   4   15.12    0.36
  -9   0   4    1.41    0.13
  -8   0   4    0.08    0.09
  -7   0   4    5.45    0.18
  -6   0   4    0.32    0.09
  -5   0   4  112.89    1.14
  -4   0   4  199.65    2.14
  -3   0   4   14.39    0.24
  -2   0   4   93.39    1.25
  -1   0   4  499.98    5.52
   0   0   4   32.08    0.42
   1   0   4  471.20    5.24
   2   0   4    7.36    0.16
   3   0   4   62.06    0.85
   4   0   4   17.92    0.30
   5   0   4    0.00    0.10
   6   0   4   12.28    0.25
   7   0   4    0.21    0.08
   8   0   4   14.81    0.39
   9   0   4    4.09    0.26
  10   0   4    3.00    0.24
  11   0   4    0.53    0.14
  12   0   4   19.01    0.50
  13   0   4    0.18    0.18
  14   0   4    0.61    0.33
  15   0   4    1.71    0.38
 -17   1   4    2.41    0.46
 -16   1   4    0.63    0.23
 -15   1   4    0.92    0.15
 -14   1   4    3.23    0.22
 -13   1   4    5.60    0.27
 -12   1   4    0.65    0.11
 -11   1   4   26.49    0.39
 -10   1   4    0.04    0.06
  -9   1   4    2.85    0.12
  -8   1   4    8.62    0.15
  -7   1   4   19.94    0.22
  -6   1   4    5.39    0.11
  -5   1   4    6.25    0.10
  -4   1   4   45.28    0.37
  -3   1   4   25.23    0.26
  -2   1   4  225.21    1.87
  -1   1   4  209.76    1.86
   0   1   4   33.10    0.37
   1   1   4   36.12    0.35
   2   1   4   74.89    0.69
   3   1   4   26.94    0.31
   4   1   4   31.76    0.36
   5   1   4   19.73    0.27
   6   1   4    0.14    0.06
   7   1   4    0.75    0.08
   8   1   4    0.40    0.08
   9   1   4    0.21    0.07
  10   1   4    0.04    0.07
  11   1   4    0.37    0.10
  12   1   4    5.60    0.23
  13   1   4    0.32    0.17
  14   1   4    7.27    0.33
  15   1   4    0.06    0.28
 -16   2   4    0.35    0.18
 -15   2   4    5.95    0.31
 -14   2   4    0.18    0.11
 -13   2   4   12.30    0.34
 -12   2   4    2.31    0.17
 -11   2   4    0.10    0.08
 -10   2   4    9.72    0.21
  -9   2   4   16.45    0.23
  -8   2   4    3.80    0.12
  -7   2   4    9.84    0.15
  -6   2   4   25.95    0.27
  -5   2   4   13.64    0.16
  -4   2   4   36.50    0.32
  -3   2   4    0.77    0.04
  -2   2   4    1.18    0.06
  -1   2   4  105.97    0.97
   0   2   4    2.63    0.08
   1   2   4   25.25    0.27
   2   2   4    3.09    0.10
   3   2   4   19.81    0.25
   4   2   4    0.12    0.05
   5   2   4   11.25    0.19
   6   2   4    5.17    0.15
   7   2   4   10.19    0.19
   8   2   4    1.03    0.09
   9   2   4    2.77    0.16
  10   2   4    5.58    0.22
  11   2   4    0.13    0.10
  12   2   4    7.24    0.33
  13   2   4    0.32    0.15
  14   2   4    0.06    0.21
  15   2   4    0.40    0.29
 -16   3   4    0.72    0.20
 -15   3   4    2.39    0.24
 -14   3   4    0.99    0.18
 -13   3   4    0.20    0.11
 -12   3   4    1.48    0.15
 -11   3   4   19.61    0.33
 -10   3   4    1.12    0.10
  -9   3   4    2.64    0.12
  -8   3   4   80.87    0.76
  -7   3   4    1.37    0.07
  -6   3   4   37.16    0.39
  -5   3   4    1.67    0.06
  -4   3   4    1.87    0.07
  -3   3   4   31.81    0.33
  -2   3   4    4.05    0.10
  -1   3   4    0.01    0.02
   0   3   4    8.32    0.12
   1   3   4    2.11    0.07
   2   3   4    0.89    0.06
   3   3   4   36.61    0.39
   4   3   4    7.04    0.12
   5   3   4   53.09    0.54
   6   3   4    3.21    0.12
   7   3   4    0.30    0.06
   8   3   4   10.52    0.24
   9   3   4    0.67    0.11
  10   3   4    1.52    0.16
  11   3   4    0.22    0.11
  12   3   4    2.79    0.22
  13   3   4    0.13    0.17
  14   3   4    2.10    0.27
  15   3   4    2.00    0.28
 -16   4   4    0.47    0.23
 -15   4   4    2.37    0.24
 -14   4   4    0.07    0.12
 -13   4   4    9.18    0.35
 -12   4   4    1.13    0.14
 -11   4   4    0.18    0.09
 -10   4   4    4.46    0.18
  -9   4   4   19.89    0.31
  -8   4   4    9.58    0.20
  -7   4   4   12.14    0.19
  -6   4   4   52.69    0.52
  -5   4   4    0.73    0.05
  -4   4   4    5.01    0.10
  -3   4   4    3.59    0.10
  -2   4   4   21.81    0.27
  -1   4   4    0.68    0.05
   0   4   4    4.00    0.08
   1   4   4    0.08    0.03
   2   4   4    0.78    0.06
   3   4   4    8.42    0.17
   4   4   4    6.04    0.14
   5   4   4   27.40    0.39
   6   4   4    0.91    0.10
   7   4   4   17.57    0.31
   8   4   4    1.72    0.13
   9   4   4    0.45    0.10
  10   4   4    5.50    0.25
  11   4   4    0.52    0.14
  12   4   4    2.41    0.22
  13   4   4    0.47    0.21
  14   4   4    0.13    0.18
 -15   5   4    2.20    0.25
 -14   5   4    1.01    0.18
 -13   5   4    0.57    0.14
 -12   5   4    0.11    0.10
 -11   5   4   10.62    0.28
 -10   5   4    0.70    0.09
  -9   5   4    3.67    0.16
  -8   5   4   25.07    0.34
  -7   5   4    0.55    0.08
  -6   5   4   14.84    0.22
  -5   5   4    0.30    0.05
  -4   5   4    0.65    0.05
  -3   5   4   10.55    0.16
  -2   5   4    5.78    0.11
  -1   5   4    3.84    0.09
   0   5   4    7.98    0.13
   1   5   4    0.05    0.03
   2   5   4    0.21    0.04
   3   5   4   27.43    0.35
   4   5   4    3.17    0.10
   5   5   4   25.98    0.36
   6   5   4    0.84    0.10
   7   5   4    0.10    0.07
   8   5   4    0.91    0.10
   9   5   4    0.19    0.09
  10   5   4    0.50    0.11
  11   5   4    0.06    0.11
  12   5   4    3.91    0.28
  13   5   4    0.16    0.19
  14   5   4    3.20    0.30
 -15   6   4    8.01    0.45
 -14   6   4    0.37    0.16
 -13   6   4    9.12    0.33
 -12   6   4    0.29    0.11
 -11   6   4    0.27    0.09
 -10   6   4    5.90    0.20
  -9   6   4    3.01    0.14
  -8   6   4    1.17    0.12
  -7   6   4    4.78    0.15
  -6   6   4    2.88    0.11
  -5   6   4    3.75    0.11
  -4   6   4   30.79    0.31
  -3   6   4    0.27    0.04
  -2   6   4    0.12    0.04
  -1   6   4   40.01    0.42
   0   6   4    0.22    0.04
   1   6   4   48.18    0.50
   2   6   4    0.36    0.05
   3   6   4   10.14    0.18
   4   6   4    0.36    0.07
   5   6   4    1.31    0.11
   6   6   4    0.05    0.06
   7   6   4    2.98    0.16
   8   6   4    1.40    0.13
   9   6   4    0.47    0.12
  10   6   4    2.39    0.19
  11   6   4    0.28    0.13
  12   6   4    7.91    0.39
  13   6   4    0.10    0.19
 -14   7   4    1.36    0.24
 -13   7   4    3.91    0.28
 -12   7   4    0.66    0.16
 -11   7   4   10.22    0.29
 -10   7   4    0.09    0.08
  -9   7   4    2.30    0.14
  -8   7   4    0.73    0.15
  -7   7   4    2.08    0.15
  -6   7   4    2.51    0.14
  -5   7   4    1.13    0.09
  -4   7   4    5.22    0.15
  -3   7   4    4.17    0.12
  -2   7   4   52.29    0.53
  -1   7   4   23.16    0.31
   0   7   4    0.12    0.04
   1   7   4    5.62    0.13
   2   7   4    5.62    0.13
   3   7   4    7.36    0.17
   4   7   4    3.25    0.11
   5   7   4    4.48    0.16
   6   7   4    0.28    0.09
   7   7   4    0.12    0.08
   8   7   4    1.06    0.12
   9   7   4    0.05    0.10
  10   7   4    0.06    0.10
  11   7   4    0.13    0.13
  12   7   4    3.48    0.28
  13   7   4    0.33    0.25
 -14   8   4    0.27    0.22
 -13   8   4    6.44    0.42
 -12   8   4    0.32    0.17
 -11   8   4    0.08    0.11
 -10   8   4    6.29    0.25
  -9   8   4    2.34    0.23
  -8   8   4    1.17    0.19
  -7   8   4    1.49    0.17
  -6   8   4    0.02    0.13
  -5   8   4    2.56    0.16
  -4   8   4   24.68    0.40
  -3   8   4    1.00    0.10
  -2   8   4    0.52    0.06
  -1   8   4   26.86    0.37
   0   8   4    0.05    0.05
   1   8   4   19.31    0.27
   2   8   4    0.08    0.05
   3   8   4    3.00    0.13
   4   8   4    0.25    0.07
   5   8   4    1.86    0.13
   6   8   4    0.38    0.09
   7   8   4    3.07    0.17
   8   8   4    3.73    0.22
   9   8   4    0.94    0.17
  10   8   4    2.34    0.25
  11   8   4    0.15    0.14
  12   8   4    6.58    0.45
 -13   9   4    0.92    0.25
 -12   9   4    0.09    0.15
 -11   9   4   10.34    0.35
 -10   9   4    0.10    0.10
  -9   9   4    0.31    0.14
  -8   9   4   10.34    0.36
  -7   9   4    0.24    0.20
  -6   9   4    7.31    0.26
  -5   9   4    0.61    0.11
  -4   9   4    0.04    0.08
  -3   9   4    4.32    0.19
  -2   9   4    7.68    0.22
  -1   9   4    2.21    0.12
   0   9   4    0.04    0.05
   1   9   4    0.74    0.08
   2   9   4    1.70    0.11
   3   9   4    3.92    0.15
   4   9   4    0.24    0.09
   5   9   4    6.57    0.22
   6   9   4    1.32    0.14
   7   9   4    0.10    0.09
   8   9   4    1.46    0.17
   9   9   4    0.14    0.14
  10   9   4    0.29    0.16
  11   9   4    0.01    0.14
 -11  10   4    0.45    0.14
 -10  10   4    2.55    0.17
  -9  10   4    6.90    0.30
  -8  10   4    3.96    0.20
  -7  10   4    1.46    0.26
  -6  10   4    6.56    0.41
  -5  10   4    0.12    0.07
  -4  10   4    3.83    0.20
  -3  10   4    0.34    0.09
  -2  10   4    0.96    0.12
  -1  10   4    1.86    0.12
   0  10   4    0.06    0.06
   1  10   4    0.21    0.07
   2  10   4    0.10    0.08
   3  10   4    0.59    0.13
   4  10   4    0.11    0.11
   5  10   4    8.36    0.26
   6  10   4    1.20    0.15
   7  10   4    4.94    0.26
   8  10   4    0.04    0.12
   9  10   4    0.28    0.16
  10  10   4    1.58    0.25
 -10  11   4    0.83    0.29
  -9  11   4    0.37    0.33
  -8  11   4   11.53    0.62
  -7  11   4    1.24    0.29
  -6  11   4    7.68    0.45
  -5  11   4    0.11    0.23
  -4  11   4    0.07    0.08
  -3  11   4    3.03    0.20
  -2  11   4    0.25    0.10
  -1  11   4    0.09    0.07
   0  11   4    1.26    0.12
   1  11   4    0.11    0.08
   2  11   4    0.03    0.09
   3  11   4    5.66    0.21
   4  11   4    0.49    0.15
   5  11   4    6.80    0.26
   6  11   4    0.56    0.14
   7  11   4    0.11    0.12
   8  11   4    2.30    0.25
   9  11   4    0.08    0.16
  -8  12   4    1.74    0.39
  -7  12   4    0.15    0.28
  -6  12   4    2.74    0.41
  -5  12   4    0.08    0.20
  -4  12   4    3.30    0.38
  -3  12   4    0.01    0.09
  -2  12   4    0.71    0.11
  -1  12   4    0.99    0.13
   0  12   4    0.25    0.11
   1  12   4    1.84    0.18
   2  12   4    0.04    0.11
   3  12   4    0.25    0.17
   4  12   4    0.44    0.15
   5  12   4    1.83    0.21
   6  12   4    0.17    0.15
   7  12   4    1.62    0.22
  -6  13   4    1.67    0.40
  -5  13   4    0.22    0.23
  -4  13   4    0.10    0.26
  -3  13   4    0.38    0.18
  -2  13   4    3.97    0.23
  -1  13   4    1.95    0.19
   0  13   4    0.63    0.14
   1  13   4    0.33    0.15
   2  13   4    0.04    0.18
   3  13   4    2.90    0.33
   4  13   4    0.06    0.22
   5  13   4    1.76    0.80
 -17   0   5    0.00    0.54
 -16   0   5    1.23    0.34
 -15   0   5    0.10    0.26
 -14   0   5    2.38    0.25
 -13   0   5    0.06    0.15
 -12   0   5   24.12    0.61
 -11   0   5   10.01    0.37
 -10   0   5    1.27    0.14
  -9   0   5   15.80    0.33
  -8   0   5    0.20    0.07
  -7   0   5   21.65    0.37
  -6   0   5    1.42    0.10
  -5   0   5   87.54    1.04
  -4   0   5    0.38    0.05
  -3   0   5  148.01    1.92
  -2   0   5    0.63    0.06
  -1   0   5    6.82    0.15
   0   0   5  228.54    2.73
   1   0   5   43.89    0.54
   2   0   5   53.01    0.74
   3   0   5    5.25    0.17
   4   0   5   42.50    0.62
   5   0   5    2.78    0.13
   6   0   5    1.11    0.13
   7   0   5   22.16    0.55
   8   0   5    0.07    0.09
   9   0   5    2.32    0.21
  10   0   5    0.28    0.13
  11   0   5    6.02    0.32
  12   0   5    7.33    0.40
  13   0   5    2.24    0.25
  14   0   5    0.32    0.34
  15   0   5    0.33    0.56
 -16   1   5    1.53    0.25
 -15   1   5    0.27    0.15
 -14   1   5    1.22    0.18
 -13   1   5    0.16    0.11
 -12   1   5    0.05    0.08
 -11   1   5    5.71    0.22
 -10   1   5    8.91    0.21
  -9   1   5    0.23    0.06
  -8   1   5    0.71    0.06
  -7   1   5   44.04    0.43
  -6   1   5    4.80    0.12
  -5   1   5   16.52    0.19
  -4   1   5    1.48    0.06
  -3   1   5    2.71    0.08
  -2   1   5  240.00    2.05
  -1   1   5    7.65    0.12
   0   1   5  118.66    1.04
   1   1   5   20.70    0.23
   2   1   5   34.60    0.36
   3   1   5   27.79    0.33
   4   1   5    0.47    0.07
   5   1   5    1.10    0.08
   6   1   5    2.30    0.12
   7   1   5   16.39    0.28
   8   1   5    0.53    0.09
   9   1   5   26.85    0.42
  10   1   5    0.11    0.08
  11   1   5    5.92    0.25
  12   1   5    4.33    0.22
  13   1   5    0.03    0.11
  14   1   5   10.21    0.47
  15   1   5    0.31    0.35
 -16   2   5    0.38    0.22
 -15   2   5    0.32    0.20
 -14   2   5    2.15    0.20
 -13   2   5    0.31    0.12
 -12   2   5    6.63    0.27
 -11   2   5    0.35    0.09
 -10   2   5    1.27    0.11
  -9   2   5    9.71    0.17
  -8   2   5    1.36    0.08
  -7   2   5    0.99    0.07
  -6   2   5    0.61    0.06
  -5   2   5    6.72    0.11
  -4   2   5    3.72    0.09
  -3   2   5   71.38    0.61
  -2   2   5    0.78    0.06
  -1   2   5    4.66    0.09
   0   2   5   47.38    0.48
   1   2   5   20.91    0.26
   2   2   5   62.20    0.61
   3   2   5   12.35    0.18
   4   2   5   34.69    0.41
   5   2   5   34.95    0.42
   6   2   5    0.00    0.08
   7   2   5   12.28    0.25
   8   2   5    0.12    0.07
   9   2   5    3.89    0.20
  10   2   5    0.08    0.08
  11   2   5    1.18    0.16
  12   2   5    2.52    0.23
  13   2   5    2.57    0.24
  14   2   5    0.06    0.21
  15   2   5    0.04    0.26
 -16   3   5    3.10    0.34
 -15   3   5    0.08    0.17
 -14   3   5    0.06    0.12
 -13   3   5    0.34    0.13
 -12   3   5    0.87    0.13
 -11   3   5    2.07    0.15
 -10   3   5    5.58    0.20
  -9   3   5   12.30    0.22
  -8   3   5    2.78    0.12
  -7   3   5   15.92    0.22
  -6   3   5    8.27    0.14
  -5   3   5   98.87    0.89
  -4   3   5    1.75    0.07
  -3   3   5    6.40    0.11
  -2   3   5    1.50    0.07
  -1   3   5    0.18    0.03
   0   3   5    1.21    0.06
   1   3   5    3.51    0.09
   2   3   5    0.28    0.05
   3   3   5    6.15    0.13
   4   3   5   32.67    0.38
   5   3   5    7.72    0.15
   6   3   5    4.87    0.15
   7   3   5   16.43    0.30
   8   3   5    0.07    0.06
   9   3   5    3.29    0.21
  10   3   5    0.17    0.11
  11   3   5   15.49    0.45
  12   3   5    0.13    0.12
  13   3   5    0.54    0.16
  14   3   5    5.35    0.36
 -16   4   5    0.22    0.22
 -15   4   5    0.17    0.20
 -14   4   5    1.91    0.21
 -13   4   5    1.72    0.19
 -12   4   5    0.81    0.14
 -11   4   5    7.16    0.27
 -10   4   5    1.38    0.12
  -9   4   5    6.40    0.19
  -8   4   5    2.51    0.12
  -7   4   5   11.65    0.19
  -6   4   5    1.04    0.09
  -5   4   5    0.27    0.06
  -4   4   5   27.85    0.32
  -3   4   5   26.16    0.31
  -2   4   5    0.80    0.05
  -1   4   5    3.25    0.09
   0   4   5    4.09    0.09
   1   4   5    4.57    0.09
   2   4   5   57.59    0.51
   3   4   5   16.08    0.20
   4   4   5   27.75    0.35
   5   4   5   73.07    0.90
   6   4   5    0.08    0.12
   7   4   5    4.28    0.20
   8   4   5    0.40    0.10
   9   4   5   15.96    0.37
  10   4   5    0.14    0.11
  11   4   5    0.52    0.15
  12   4   5    0.57    0.17
  13   4   5    2.32    0.23
  14   4   5    0.10    0.19
 -15   5   5    0.23    0.19
 -14   5   5    0.21    0.13
 -13   5   5    0.10    0.11
 -12   5   5    0.17    0.10
 -11   5   5    3.17    0.19
 -10   5   5    2.64    0.15
  -9   5   5    4.80    0.18
  -8   5   5    2.86    0.13
  -7   5   5   12.96    0.22
  -6   5   5    4.74    0.14
  -5   5   5   43.22    0.53
  -4   5   5    0.05    0.04
  -3   5   5    2.20    0.09
  -2   5   5   21.38    0.27
  -1   5   5    0.70    0.05
   0   5   5    4.52    0.11
   1   5   5    0.07    0.04
   2   5   5    8.86    0.16
   3   5   5    1.00    0.08
   4   5   5   19.47    0.32
   5   5   5    2.25    0.12
   6   5   5    1.13    0.13
   7   5   5    3.77    0.19
   8   5   5    0.13    0.08
   9   5   5    6.36    0.25
  10   5   5    0.04    0.11
  11   5   5    6.98    0.36
  12   5   5    0.50    0.16
  13   5   5    0.65    0.18
  14   5   5    5.59    0.34
 -15   6   5    0.11    0.22
 -14   6   5    0.73    0.18
 -13   6   5    0.55    0.14
 -12   6   5    9.38    0.30
 -11   6   5    0.66    0.11
 -10   6   5    1.58    0.12
  -9   6   5    6.93    0.19
  -8   6   5    0.04    0.06
  -7   6   5    0.14    0.09
  -6   6   5    1.13    0.09
  -5   6   5    7.63    0.17
  -4   6   5   12.13    0.20
  -3   6   5   29.08    0.32
  -2   6   5    1.05    0.07
  -1   6   5    2.27    0.09
   0   6   5   12.59    0.21
   1   6   5    2.73    0.11
   2   6   5   38.58    0.47
   3   6   5    3.16    0.13
   4   6   5   23.48    0.34
   5   6   5    0.22    0.09
   6   6   5    0.43    0.11
   7   6   5    8.26    0.24
   8   6   5    0.16    0.09
   9   6   5    0.13    0.09
  10   6   5    0.14    0.11
  11   6   5    5.50    0.33
  12   6   5    2.26    0.24
  13   6   5    1.06    0.20
 -14   7   5    1.24    0.25
 -13   7   5    0.06    0.13
 -12   7   5    0.07    0.12
 -11   7   5    4.54    0.24
 -10   7   5    3.77    0.20
  -9   7   5    0.66    0.10
  -8   7   5    0.07    0.10
  -7   7   5   12.71    0.28
  -6   7   5    0.07    0.12
  -5   7   5    2.98    0.13
  -4   7   5    0.24    0.05
  -3   7   5    1.96    0.10
  -2   7   5   56.51    0.69
  -1   7   5    3.07    0.10
   0   7   5   20.79    0.28
   1   7   5    3.30    0.14
   2   7   5   16.79    0.26
   3   7   5    5.07    0.17
   4   7   5    1.03    0.12
   5   7   5    0.62    0.11
   6   7   5    0.71    0.13
   7   7   5    3.04    0.19
   8   7   5    0.51    0.12
   9   7   5   19.11    0.44
  10   7   5    0.04    0.11
  11   7   5    1.05    0.19
  12   7   5    2.91    0.28
 -13   8   5    0.21    0.17
 -12   8   5    8.03    0.37
 -11   8   5    0.47    0.13
 -10   8   5    1.45    0.14
  -9   8   5    7.71    0.24
  -8   8   5    0.13    0.11
  -7   8   5    0.32    0.15
  -6   8   5    0.19    0.18
  -5   8   5    2.05    0.17
  -4   8   5    2.26    0.16
  -3   8   5   12.23    0.28
  -2   8   5    0.29    0.06
  -1   8   5    1.16    0.08
   0   8   5   16.60    0.25
   1   8   5    0.43    0.07
   2   8   5   11.27    0.22
   3   8   5    0.31    0.08
   4   8   5    7.76    0.22
   5   8   5    0.22    0.11
   6   8   5    0.05    0.13
   7   8   5    8.74    0.26
   8   8   5    0.16    0.11
   9   8   5    0.18    0.12
  10   8   5    0.06    0.13
  11   8   5    1.01    0.22
  12   8   5    2.69    0.32
 -13   9   5    0.80    0.50
 -12   9   5    0.12    0.18
 -11   9   5    2.29    0.20
 -10   9   5    4.36    0.24
  -9   9   5    0.35    0.15
  -8   9   5    0.08    0.13
  -7   9   5    5.80    0.42
  -6   9   5    0.10    0.14
  -5   9   5    7.76    0.29
  -4   9   5    0.47    0.12
  -3   9   5    3.37    0.19
  -2   9   5    8.66    0.21
  -1   9   5    0.44    0.07
   0   9   5    7.68    0.18
   1   9   5    0.05    0.06
   2   9   5    0.11    0.07
   3   9   5    0.05    0.08
   4   9   5    1.52    0.16
   5   9   5    0.17    0.12
   6   9   5    2.71    0.20
   7   9   5    8.08    0.30
   8   9   5    0.19    0.14
   9   9   5    4.47    0.30
  10   9   5    0.22    0.15
  11   9   5    2.99    0.30
 -11  10   5    1.82    0.20
 -10  10   5    0.75    0.13
  -9  10   5    3.95    0.28
  -8  10   5    0.84    0.15
  -7  10   5    2.64    0.19
  -6  10   5    0.09    0.13
  -5  10   5    0.81    0.16
  -4  10   5    0.38    0.15
  -3  10   5    3.93    0.23
  -2  10   5    2.49    0.18
  -1  10   5    0.41    0.08
   0  10   5    7.38    0.18
   1  10   5    0.06    0.07
   2  10   5    7.25    0.24
   3  10   5    0.21    0.11
   4  10   5    1.92    0.19
   5  10   5   14.81    0.36
   6  10   5    0.08    0.16
   7  10   5    3.08    0.26
   8  10   5    0.22    0.15
   9  10   5    2.06    0.25
  10  10   5    0.20    0.15
 -10  11   5    1.06    0.32
  -9  11   5    2.04    0.37
  -8  11   5    0.10    0.28
  -7  11   5    2.60    0.40
  -6  11   5    0.96    0.27
  -5  11   5    9.93    0.30
  -4  11   5    0.30    0.14
  -3  11   5    1.67    0.17
  -2  11   5    1.38    0.12
  -1  11   5    0.04    0.08
   0  11   5    2.22    0.15
   1  11   5    0.31    0.10
   2  11   5    0.84    0.11
   3  11   5    1.77    0.19
   4  11   5    2.96    0.22
   5  11   5    0.04    0.15
   6  11   5    1.41    0.22
   7  11   5    2.58    0.28
   8  11   5    0.02    0.15
  -8  12   5    0.19    0.30
  -7  12   5    0.29    0.33
  -6  12   5    0.00    0.24
  -5  12   5    0.03    0.30
  -4  12   5    2.50    0.17
  -3  12   5    1.77    0.15
  -2  12   5    0.08    0.09
  -1  12   5    0.33    0.11
   0  12   5    2.47    0.21
   1  12   5    0.11    0.11
   2  12   5    5.06    0.28
   3  12   5    0.11    0.17
   4  12   5    2.36    0.28
   5  12   5    3.72    0.30
   6  12   5    0.34    0.21
  -5  13   5    1.56    0.37
  -4  13   5    0.20    0.33
  -3  13   5    0.20    0.12
  -2  13   5    5.89    0.30
  -1  13   5    0.13    0.15
   0  13   5    0.90    0.19
   1  13   5    0.08    0.13
   2  13   5    1.77    0.22
   3  13   5    0.01    0.22
   4  13   5    0.61    0.30
 -16   0   6    0.00    0.28
 -15   0   6    5.14    0.42
 -14   0   6    0.63    0.20
 -13   0   6    0.97    0.22
 -12   0   6    0.07    0.12
 -11   0   6    5.10    0.29
 -10   0   6    9.57    0.29
  -9   0   6    0.08    0.08
  -8   0   6    3.29    0.18
  -7   0   6   10.72    0.25
  -6   0   6   13.05    0.23
  -5   0   6    0.44    0.07
  -4   0   6    3.16    0.13
  -3   0   6    2.77    0.14
  -2   0   6    0.03    0.05
  -1   0   6  438.65    4.60
   0   0   6    7.27    0.18
   1   0   6    0.12    0.05
   2   0   6    8.69    0.21
   3   0   6    0.44    0.09
   4   0   6    0.64    0.10
   5   0   6    3.42    0.15
   6   0   6    6.56    0.27
   7   0   6    1.69    0.22
   8   0   6    2.24    0.23
   9   0   6    1.10    0.16
  10   0   6   11.61    0.41
  11   0   6    2.55    0.28
  12   0   6    0.05    0.14
  13   0   6    4.38    0.38
  14   0   6    0.25    0.27
 -16   1   6    0.01    0.20
 -15   1   6    3.33    0.26
 -14   1   6    2.68    0.24
 -13   1   6   13.67    0.36
 -12   1   6    0.80    0.13
 -11   1   6    3.67    0.18
 -10   1   6    2.05    0.12
  -9   1   6    0.24    0.07
  -8   1   6   31.51    0.36
  -7   1   6    0.69    0.06
  -6   1   6    1.03    0.06
  -5   1   6   14.52    0.17
  -4   1   6   38.82    0.40
  -3   1   6   62.76    0.58
  -2   1   6   33.13    0.37
  -1   1   6    0.32    0.04
   0   1   6   11.45    0.16
   1   1   6   85.13    0.76
   2   1   6    0.30    0.05
   3   1   6    3.77    0.13
   4   1   6   11.82    0.21
   5   1   6    0.08    0.08
   6   1   6    0.32    0.08
   7   1   6    0.31    0.11
   8   1   6    0.06    0.08
   9   1   6    1.57    0.14
  10   1   6    1.93    0.15
  11   1   6    2.04    0.17
  12   1   6    6.07    0.31
  13   1   6    0.12    0.14
  14   1   6    0.19    0.16
 -16   2   6    0.94    0.24
 -15   2   6    7.75    0.37
 -14   2   6    0.08    0.16
 -13   2   6    0.49    0.13
 -12   2   6    0.62    0.12
 -11   2   6    5.09    0.22
 -10   2   6    3.40    0.16
  -9   2   6    0.09    0.06
  -8   2   6    0.49    0.06
  -7   2   6    0.55    0.06
  -6   2   6   57.07    0.53
  -5   2   6    5.87    0.10
  -4   2   6   15.22    0.18
  -3   2   6    0.58    0.05
  -2   2   6    6.23    0.12
  -1   2   6   16.11    0.21
   0   2   6    3.08    0.10
   1   2   6   10.53    0.17
   2   2   6    0.83    0.07
   3   2   6   32.09    0.36
   4   2   6    0.40    0.06
   5   2   6   12.58    0.24
   6   2   6    6.43    0.18
   7   2   6    0.04    0.10
   8   2   6    8.43    0.26
   9   2   6    0.11    0.09
  10   2   6    9.99    0.32
  11   2   6    0.95    0.16
  12   2   6    0.15    0.12
  13   2   6    1.78    0.23
  14   2   6    0.11    0.17
 -16   3   6    0.29    0.28
 -15   3   6    0.33    0.21
 -14   3   6    7.52    0.36
 -13   3   6   11.29    0.36
 -12   3   6    0.39    0.12
 -11   3   6    0.07    0.08
 -10   3   6    9.42    0.23
  -9   3   6    0.07    0.06
  -8   3   6   41.51    0.45
  -7   3   6    0.88    0.07
  -6   3   6   29.15    0.33
  -5   3   6   24.34    0.26
  -4   3   6   59.48    0.55
  -3   3   6   17.42    0.21
  -2   3   6    0.10    0.03
  -1   3   6   27.38    0.29
   0   3   6   18.83    0.23
   1   3   6    0.99    0.06
   2   3   6   49.46    0.49
   3   3   6   41.05    0.44
   4   3   6   21.17    0.29
   5   3   6   21.95    0.32
   6   3   6   28.66    0.46
   7   3   6    0.08    0.13
   8   3   6    6.38    0.24
   9   3   6    0.77    0.15
  10   3   6    0.63    0.15
  11   3   6    3.95    0.29
  12   3   6    3.22    0.26
  13   3   6    0.82    0.17
  14   3   6    0.11    0.16
 -16   4   6    0.80    0.26
 -15   4   6    8.85    0.40
 -14   4   6    0.39    0.18
 -13   4   6    0.36    0.13
 -12   4   6    1.13    0.14
 -11   4   6    4.22    0.22
 -10   4   6    0.22    0.09
  -9   4   6    0.13    0.07
  -8   4   6    2.05    0.11
  -7   4   6    0.05    0.05
  -6   4   6   77.99    0.81
  -5   4   6   11.30    0.18
  -4   4   6   25.47    0.31
  -3   4   6    5.59    0.12
  -2   4   6   14.54    0.18
  -1   4   6    8.46    0.13
   0   4   6   17.64    0.21
   1   4   6   31.71    0.32
   2   4   6   11.02    0.17
   3   4   6   69.15    0.62
   4   4   6    0.15    0.06
   5   4   6   12.38    0.28
   6   4   6    1.61    0.15
   7   4   6    1.66    0.18
   8   4   6    9.60    0.32
   9   4   6    0.38    0.13
  10   4   6    7.55    0.39
  11   4   6    0.05    0.13
  12   4   6    0.02    0.13
  13   4   6    0.43    0.16
  14   4   6    0.00    0.23
 -15   5   6    0.13    0.20
 -14   5   6    2.78    0.27
 -13   5   6    9.28    0.34
 -12   5   6    0.26    0.12
 -11   5   6    0.19    0.10
 -10   5   6    3.97    0.18
  -9   5   6    0.20    0.07
  -8   5   6   16.15    0.26
  -7   5   6    0.06    0.05
  -6   5   6   15.97    0.26
  -5   5   6    3.89    0.11
  -4   5   6   43.63    0.51
  -3   5   6   13.53    0.20
  -2   5   6    0.51    0.05
  -1   5   6    1.46    0.08
   0   5   6    8.42    0.14
   1   5   6   16.10    0.20
   2   5   6   13.82    0.21
   3   5   6   23.85    0.31
   4   5   6    9.46    0.20
   5   5   6   10.32    0.24
   6   5   6   12.08    0.30
   7   5   6    1.03    0.16
   8   5   6    1.98    0.18
   9   5   6    0.23    0.11
  10   5   6    1.21    0.18
  11   5   6    0.84    0.17
  12   5   6    3.14    0.28
  13   5   6    0.23    0.15
 -15   6   6    3.49    0.32
 -14   6   6    0.16    0.21
 -13   6   6    0.80    0.17
 -12   6   6    0.05    0.10
 -11   6   6    3.83    0.21
 -10   6   6    0.98    0.11
  -9   6   6    0.08    0.07
  -8   6   6    1.05    0.09
  -7   6   6    5.03    0.15
  -6   6   6   17.56    0.33
  -5   6   6    0.05    0.08
  -4   6   6    7.31    0.20
  -3   6   6    6.75    0.15
  -2   6   6    3.01    0.09
  -1   6   6   61.88    0.68
   0   6   6    0.50    0.07
   1   6   6    5.03    0.15
   2   6   6    2.00    0.11
   3   6   6    9.14    0.20
   4   6   6    2.99    0.15
   5   6   6    1.33    0.13
   6   6   6    0.87    0.13
   7   6   6    0.17    0.14
   8   6   6    1.06    0.16
   9   6   6    1.11    0.15
  10   6   6    4.83    0.30
  11   6   6    0.25    0.14
  12   6   6    0.11    0.13
  13   6   6    2.09    0.25
 -14   7   6    0.34    0.27
 -13   7   6    7.70    0.39
 -12   7   6    0.38    0.14
 -11   7   6    2.96    0.22
 -10   7   6    0.68    0.11
  -9   7   6    0.04    0.07
  -8   7   6    8.30    0.21
  -7   7   6    0.68    0.10
  -6   7   6    2.50    0.15
  -5   7   6    4.38    0.16
  -4   7   6   12.31    0.25
  -3   7   6   15.32    0.30
  -2   7   6    7.04    0.15
  -1   7   6    5.22    0.14
   0   7   6    0.46    0.07
   1   7   6   38.62    0.51
   2   7   6    0.46    0.08
   3   7   6    1.99    0.13
   4   7   6    5.34    0.20
   5   7   6    0.25    0.13
   6   7   6    0.13    0.13
   7   7   6    0.13    0.15
   8   7   6    0.15    0.13
   9   7   6    0.25    0.12
  10   7   6    1.34    0.19
  11   7   6    0.66    0.18
  12   7   6    2.65    0.28
 -13   8   6    0.19    0.15
 -12   8   6    0.03    0.12
 -11   8   6    2.50    0.22
 -10   8   6    2.66    0.19
  -9   8   6    0.39    0.10
  -8   8   6    0.11    0.09
  -7   8   6    2.40    0.19
  -6   8   6    9.42    0.49
  -5   8   6    0.15    0.11
  -4   8   6    3.48    0.13
  -3   8   6    1.92    0.13
  -2   8   6    0.14    0.06
  -1   8   6   50.70    0.58
   0   8   6    0.24    0.06
   1   8   6    0.64    0.09
   2   8   6    3.40    0.16
   3   8   6    2.40    0.14
   4   8   6    1.06    0.13
   5   8   6    1.55    0.16
   6   8   6    1.19    0.16
   7   8   6    0.12    0.17
   8   8   6    2.04    0.21
   9   8   6    0.22    0.12
  10   8   6    2.94    0.27
  11   8   6    0.33    0.19
 -12   9   6    0.38    0.21
 -11   9   6    0.72    0.16
 -10   9   6    2.18    0.19
  -9   9   6    0.07    0.10
  -8   9   6   15.29    0.50
  -7   9   6    0.02    0.09
  -6   9   6    1.64    0.21
  -5   9   6    0.84    0.16
  -4   9   6    3.67    0.22
  -3   9   6    4.97    0.25
  -2   9   6    2.91    0.13
  -1   9   6    0.15    0.07
   0   9   6    0.53    0.08
   1   9   6    8.04    0.19
   2   9   6    1.00    0.11
   3   9   6    2.44    0.15
   4   9   6    2.89    0.19
   5   9   6    0.40    0.16
   6   9   6    4.46    0.25
   7   9   6    0.58    0.19
   8   9   6    0.37    0.19
   9   9   6    0.33    0.15
  10   9   6    0.22    0.17
 -11  10   6    1.57    0.24
 -10  10   6    1.03    0.16
  -9  10   6    0.66    0.11
  -8  10   6    2.31    0.22
  -7  10   6    0.01    0.11
  -6  10   6   13.59    0.42
  -5  10   6    0.32    0.16
  -4  10   6    3.75    0.24
  -3  10   6    2.17    0.16
  -2  10   6    0.06    0.07
  -1  10   6    1.29    0.11
   0  10   6    0.93    0.10
   1  10   6    2.73    0.15
   2  10   6    0.16    0.08
   3  10   6    7.91    0.28
   4  10   6    0.47    0.16
   5  10   6    3.23    0.27
   6  10   6    0.27    0.19
   7  10   6    0.20    0.21
   8  10   6    4.15    0.32
   9  10   6    0.54    0.18
 -10  11   6    0.93    0.32
  -9  11   6    0.07    0.23
  -8  11   6    7.87    0.62
  -7  11   6    0.07    0.24
  -6  11   6    1.21    0.19
  -5  11   6    3.29    0.22
  -4  11   6    3.51    0.26
  -3  11   6    1.40    0.14
  -2  11   6    0.27    0.10
  -1  11   6    0.46    0.11
   0  11   6    1.18    0.13
   1  11   6    2.75    0.20
   2  11   6    2.39    0.18
   3  11   6    4.33    0.26
   4  11   6    1.06    0.19
   5  11   6    1.38    0.24
   6  11   6    6.82    0.34
   7  11   6    0.04    0.22
   8  11   6    0.97    0.42
  -8  12   6    0.26    0.23
  -7  12   6    0.07    0.29
  -6  12   6    7.13    0.51
  -5  12   6    0.49    0.25
  -4  12   6    1.48    0.15
  -3  12   6    1.72    0.18
  -2  12   6    0.34    0.12
  -1  12   6    3.11    0.23
   0  12   6    0.30    0.12
   1  12   6    1.16    0.18
   2  12   6    0.09    0.13
   3  12   6    3.58    0.27
   4  12   6    1.49    0.24
   5  12   6    0.59    0.26
   6  12   6    0.14    0.29
  -5  13   6    0.11    0.25
  -4  13   6    2.63    0.48
  -3  13   6    2.61    0.28
  -2  13   6    0.42    0.18
  -1  13   6    0.23    0.17
   0  13   6    0.19    0.17
   1  13   6    5.04    0.38
   2  13   6    0.09    0.16
   3  13   6    0.07    0.56
 -16   0   7    1.68    0.35
 -15   0   7    0.35    0.28
 -14   0   7    9.71    0.49
 -13   0   7    0.02    0.23
 -12   0   7    3.49    0.32
 -11   0   7   14.14    0.40
 -10   0   7    0.14    0.10
  -9   0   7   16.99    0.38
  -8   0   7    9.48    0.25
  -7   0   7    0.43    0.07
  -6   0   7   66.58    0.77
  -5   0   7    0.30    0.08
  -4   0   7    4.11    0.13
  -3   0   7    2.10    0.13
  -2   0   7  114.85    1.46
  -1   0   7    3.53    0.16
   0   0   7   32.66    0.51
   1   0   7   60.49    0.84
   2   0   7    8.54    0.22
   3   0   7   22.32    0.44
   4   0   7    4.02    0.22
   5   0   7    6.16    0.29
   6   0   7    9.93    0.37
   7   0   7    7.48    0.34
   8   0   7    1.22    0.23
   9   0   7    2.60    0.26
  10   0   7    5.88    0.40
  11   0   7    2.68    0.30
  12   0   7   13.88    0.58
  13   0   7    0.05    0.17
  14   0   7    2.84    0.50
 -16   1   7    1.27    0.25
 -15   1   7    1.89    0.23
 -14   1   7    0.46    0.19
 -13   1   7   10.29    0.36
 -12   1   7    4.61    0.24
 -11   1   7    6.90    0.26
 -10   1   7    4.16    0.17
  -9   1   7    2.82    0.13
  -8   1   7   14.86    0.23
  -7   1   7    9.74    0.15
  -6   1   7    8.63    0.13
  -5   1   7    5.67    0.14
  -4   1   7   78.16    0.73
  -3   1   7    3.95    0.11
  -2   1   7    1.86    0.09
  -1   1   7    3.65    0.11
   0   1   7    0.13    0.04
   1   1   7   33.76    0.37
   2   1   7   16.21    0.24
   3   1   7   33.15    0.38
   4   1   7    6.69    0.18
   5   1   7   28.44    0.44
   6   1   7    0.07    0.09
   7   1   7    9.51    0.26
   8   1   7    3.19    0.19
   9   1   7    4.94    0.25
  10   1   7   10.35    0.37
  11   1   7    0.92    0.16
  12   1   7   10.73    0.43
  13   1   7    0.04    0.14
  14   1   7    0.06    0.16
 -16   2   7    0.87    0.24
 -15   2   7    0.81    0.22
 -14   2   7    4.87    0.28
 -13   2   7    0.66    0.17
 -12   2   7    0.93    0.14
 -11   2   7   16.95    0.35
 -10   2   7    0.71    0.10
  -9   2   7    6.15    0.21
  -8   2   7    0.68    0.07
  -7   2   7    8.33    0.14
  -6   2   7   29.92    0.28
  -5   2   7    6.80    0.14
  -4   2   7   25.88    0.28
  -3   2   7    5.31    0.13
  -2   2   7   21.37    0.27
  -1   2   7    7.37    0.14
   0   2   7    5.20    0.12
   1   2   7    7.40    0.14
   2   2   7    4.04    0.13
   3   2   7   46.66    0.54
   4   2   7   14.00    0.26
   5   2   7   11.38    0.25
   6   2   7    6.26    0.20
   7   2   7    0.59    0.12
   8   2   7    1.15    0.16
   9   2   7    0.16    0.13
  10   2   7    0.86    0.15
  11   2   7    3.78    0.29
  12   2   7    2.97    0.28
  13   2   7    0.27    0.16
  14   2   7    4.57    0.38
 -16   3   7    1.23    0.29
 -15   3   7    0.55    0.24
 -14   3   7    0.29    0.20
 -13   3   7    8.10    0.36
 -12   3   7    6.47    0.31
 -11   3   7    1.86    0.15
 -10   3   7    1.24    0.12
  -9   3   7    8.40    0.21
  -8   3   7    2.36    0.11
  -7   3   7   24.66    0.32
  -6   3   7   11.20    0.19
  -5   3   7   72.76    0.70
  -4   3   7    4.07    0.09
  -3   3   7    9.07    0.17
  -2   3   7    9.32    0.15
  -1   3   7    0.27    0.05
   0   3   7   23.00    0.27
   1   3   7   12.40    0.19
   2   3   7   20.60    0.27
   3   3   7    0.24    0.06
   4   3   7   21.03    0.34
   5   3   7   48.00    0.65
   6   3   7   12.72    0.28
   7   3   7   11.12    0.30
   8   3   7    0.25    0.15
   9   3   7   12.94    0.45
  10   3   7    0.16    0.14
  11   3   7    0.66    0.18
  12   3   7    2.55    0.26
  13   3   7    0.13    0.15
 -16   4   7    0.92    0.28
 -15   4   7    0.99    0.25
 -14   4   7    2.24    0.25
 -13   4   7    0.44    0.17
 -12   4   7    0.62    0.13
 -11   4   7   15.73    0.36
 -10   4   7    1.85    0.15
  -9   4   7    0.58    0.09
  -8   4   7    8.47    0.20
  -7   4   7   15.23    0.26
  -6   4   7   11.25    0.21
  -5   4   7   13.03    0.24
  -4   4   7   64.38    0.68
  -3   4   7   10.08    0.20
  -2   4   7    6.87    0.13
  -1   4   7   14.37    0.19
   0   4   7    1.47    0.08
   1   4   7    2.82    0.10
   2   4   7    3.47    0.12
   3   4   7   43.01    0.45
   4   4   7   16.19    0.26
   5   4   7   16.38    0.32
   6   4   7    1.49    0.16
   7   4   7    0.40    0.14
   8   4   7    2.96    0.23
   9   4   7    0.01    0.15
  10   4   7    0.17    0.13
  11   4   7    2.59    0.25
  12   4   7    0.28    0.15
  13   4   7    0.44    0.18
 -15   5   7    0.17    0.23
 -14   5   7    0.07    0.21
 -13   5   7    5.66    0.30
 -12   5   7    4.42    0.24
 -11   5   7    0.26    0.10
 -10   5   7    0.09    0.08
  -9   5   7    7.44    0.21
  -8   5   7    3.06    0.14
  -7   5   7    8.64    0.20
  -6   5   7    2.63    0.13
  -5   5   7   32.86    0.45
  -4   5   7   12.90    0.25
  -3   5   7    5.87    0.14
  -2   5   7    9.53    0.17
  -1   5   7    0.42    0.06
   0   5   7    5.69    0.13
   1   5   7    8.32    0.14
   2   5   7   14.08    0.22
   3   5   7    1.56    0.10
   4   5   7    8.46    0.22
   5   5   7   13.37    0.30
   6   5   7    4.65    0.21
   7   5   7   11.33    0.32
   8   5   7    0.24    0.17
   9   5   7    3.81    0.30
  10   5   7    0.63    0.16
  11   5   7    0.07    0.13
  12   5   7    4.04    0.31
  13   5   7    0.11    0.15
 -15   6   7    0.00    0.25
 -14   6   7    4.59    0.35
 -13   6   7    0.25    0.18
 -12   6   7    2.51    0.19
 -11   6   7    9.38    0.29
 -10   6   7    0.76    0.10
  -9   6   7    3.88    0.18
  -8   6   7    0.48    0.08
  -7   6   7    0.07    0.06
  -6   6   7   16.45    0.27
  -5   6   7    2.94    0.15
  -4   6   7    0.66    0.08
  -3   6   7    3.88    0.12
  -2   6   7   23.83    0.31
  -1   6   7    4.68    0.14
   0   6   7   19.79    0.30
   1   6   7    0.93    0.09
   2   6   7    8.62    0.20
   3   6   7    3.54    0.16
   4   6   7    2.61    0.15
   5   6   7   11.50    0.28
   6   6   7    0.87    0.15
   7   6   7    0.95    0.15
   8   6   7    0.12    0.16
   9   6   7    2.00    0.21
  10   6   7    1.59    0.20
  11   6   7    1.14    0.20
  12   6   7    5.35    0.35
 -14   7   7    0.28    0.28
 -13   7   7    4.43    0.35
 -12   7   7    1.95    0.21
 -11   7   7    6.38    0.28
 -10   7   7    4.07    0.21
  -9   7   7    2.72    0.16
  -8   7   7    6.18    0.19
  -7   7   7    3.06    0.14
  -6   7   7    0.43    0.07
  -5   7   7    1.73    0.11
  -4   7   7   33.05    0.45
  -3   7   7    0.07    0.09
  -2   7   7    3.26    0.14
  -1   7   7    0.05    0.06
   0   7   7    0.91    0.09
   1   7   7    6.84    0.19
   2   7   7    8.30    0.21
   3   7   7   13.02    0.27
   4   7   7    1.63    0.14
   5   7   7    4.29    0.23
   6   7   7    0.45    0.17
   7   7   7    9.72    0.32
   8   7   7    1.10    0.20
   9   7   7    0.61    0.19
  10   7   7    5.02    0.34
  11   7   7    0.09    0.14
 -13   8   7    0.00    0.24
 -12   8   7    1.05    0.19
 -11   8   7    5.73    0.31
 -10   8   7    0.13    0.11
  -9   8   7    5.22    0.23
  -8   8   7    1.98    0.15
  -7   8   7    0.19    0.08
  -6   8   7   14.20    0.26
  -5   8   7    1.87    0.11
  -4   8   7    0.03    0.09
  -3   8   7    1.47    0.12
  -2   8   7   14.25    0.26
  -1   8   7    0.49    0.08
   0   8   7   13.93    0.27
   1   8   7    6.03    0.21
   2   8   7    4.39    0.20
   3   8   7    5.98    0.23
   4   8   7    0.90    0.13
   5   8   7    4.59    0.25
   6   8   7    1.47    0.20
   7   8   7    2.03    0.20
   8   8   7    0.10    0.19
   9   8   7    0.83    0.19
  10   8   7    2.55    0.25
  11   8   7    0.55    0.21
 -12   9   7    1.06    0.26
 -11   9   7    0.13    0.14
 -10   9   7    0.20    0.12
  -9   9   7    1.71    0.17
  -8   9   7    2.02    0.16
  -7   9   7    8.07    0.25
  -6   9   7    2.45    0.18
  -5   9   7    3.20    0.16
  -4   9   7    9.09    0.28
  -3   9   7    0.09    0.11
  -2   9   7    4.41    0.17
  -1   9   7    1.67    0.12
   0   9   7    0.55    0.10
   1   9   7    4.69    0.21
   2   9   7    5.32    0.23
   3   9   7    2.36    0.17
   4   9   7    2.55    0.20
   5   9   7   15.14    0.37
   6   9   7    0.15    0.18
   7   9   7    3.47    0.28
   8   9   7    0.18    0.24
   9   9   7    2.74    0.31
  10   9   7    1.42    0.24
 -11  10   7    4.46    0.36
 -10  10   7    0.08    0.11
  -9  10   7    0.53    0.13
  -8  10   7    0.15    0.10
  -7  10   7    0.83    0.11
  -6  10   7    3.44    0.20
  -5  10   7    3.32    0.18
  -4  10   7    9.71    0.31
  -3  10   7    2.52    0.20
  -2  10   7    4.03    0.18
  -1  10   7    0.09    0.08
   0  10   7    4.53    0.21
   1  10   7    1.88    0.15
   2  10   7    0.48    0.11
   3  10   7   17.91    0.41
   4  10   7    0.97    0.18
   5  10   7    2.51    0.26
   6  10   7    0.60    0.24
   7  10   7    0.33    0.22
   8  10   7    1.56    0.30
  -9  11   7    1.70    0.36
  -8  11   7    0.19    0.10
  -7  11   7    3.97    0.22
  -6  11   7    2.04    0.15
  -5  11   7    4.54    0.22
  -4  11   7    2.25    0.19
  -3  11   7    0.11    0.16
  -2  11   7    4.91    0.24
  -1  11   7    1.13    0.13
   0  11   7    2.23    0.18
   1  11   7    2.14    0.18
   2  11   7    2.52    0.20
   3  11   7    0.37    0.14
   4  11   7    1.84    0.22
   5  11   7    7.18    0.42
   6  11   7    1.15    0.28
   7  11   7    2.06    0.30
  -7  12   7    0.05    0.20
  -6  12   7    2.50    0.40
  -5  12   7    1.74    0.20
  -4  12   7    2.66    0.20
  -3  12   7    1.58    0.20
  -2  12   7    3.77    0.31
  -1  12   7    1.00    0.20
   0  12   7    2.94    0.28
   1  12   7    0.19    0.14
   2  12   7    1.30    0.22
   3  12   7    3.16    0.26
   4  12   7    0.20    0.17
   5  12   7    3.07    0.30
  -3  13   7    0.55    0.25
  -2  13   7    0.86    0.25
  -1  13   7    0.01    0.17
   0  13   7    0.01    0.17
   1  13   7    1.14    0.23
 -16   0   8    0.19    0.23
 -15   0   8    0.42    0.31
 -14   0   8    4.44    0.37
 -13   0   8    7.29    0.42
 -12   0   8    2.53    0.31
 -11   0   8    0.52    0.15
 -10   0   8    0.62    0.13
  -9   0   8    9.16    0.30
  -8   0   8    5.43    0.25
  -7   0   8    3.62    0.15
  -6   0   8   17.49    0.33
  -5   0   8   46.99    0.60
  -4   0   8   11.30    0.25
  -3   0   8   14.21    0.29
  -2   0   8   23.47    0.42
  -1   0   8    4.88    0.21
   0   0   8   17.64    0.32
   1   0   8    0.01    0.05
   2   0   8  118.85    1.65
   3   0   8   19.23    0.45
   4   0   8    1.95    0.18
   5   0   8    0.24    0.11
   6   0   8    2.69    0.26
   7   0   8   10.21    0.41
   8   0   8    4.48    0.31
   9   0   8    4.26    0.34
  10   0   8    0.55    0.28
  11   0   8    7.64    0.49
  12   0   8    0.46    0.22
  13   0   8    1.39    0.30
 -16   1   8    0.36    0.18
 -15   1   8    6.04    0.32
 -14   1   8    1.71    0.22
 -13   1   8    0.35    0.18
 -12   1   8    8.04    0.30
 -11   1   8    0.50    0.11
 -10   1   8    1.66    0.14
  -9   1   8    0.47    0.08
  -8   1   8   20.92    0.30
  -7   1   8    4.38    0.14
  -6   1   8    1.65    0.08
  -5   1   8    3.94    0.13
  -4   1   8    0.51    0.07
  -3   1   8   54.98    0.59
  -2   1   8   11.84    0.19
  -1   1   8   11.60    0.19
   0   1   8    1.68    0.09
   1   1   8   43.18    0.48
   2   1   8   21.00    0.30
   3   1   8    2.61    0.13
   4   1   8   16.19    0.31
   5   1   8    0.17    0.07
   6   1   8    0.75    0.13
   7   1   8    0.17    0.13
   8   1   8    0.37    0.14
   9   1   8    0.17    0.16
  10   1   8    3.35    0.28
  11   1   8    0.07    0.12
  12   1   8    0.22    0.15
  13   1   8    2.55    0.27
 -16   2   8    0.19    0.16
 -15   2   8    0.14    0.22
 -14   2   8    0.08    0.17
 -13   2   8    3.67    0.24
 -12   2   8    0.79    0.18
 -11   2   8    0.13    0.09
 -10   2   8    6.19    0.23
  -9   2   8    0.62    0.09
  -8   2   8   10.52    0.20
  -7   2   8   10.17    0.18
  -6   2   8   30.00    0.34
  -5   2   8   28.66    0.32
  -4   2   8    1.34    0.09
  -3   2   8    8.34    0.17
  -2   2   8   15.47    0.26
  -1   2   8    8.96    0.16
   0   2   8    3.45    0.12
   1   2   8    4.37    0.13
   2   2   8    5.39    0.18
   3   2   8   10.10    0.22
   4   2   8    0.16    0.07
   5   2   8    0.09    0.07
   6   2   8    4.94    0.23
   7   2   8    1.85    0.17
   8   2   8    8.25    0.31
   9   2   8    2.94    0.24
  10   2   8    0.07    0.14
  11   2   8    4.89    0.34
  12   2   8    0.13    0.15
  13   2   8    0.20    0.16
 -16   3   8    0.12    0.18
 -15   3   8    2.76    0.31
 -14   3   8    0.18    0.22
 -13   3   8    0.60    0.21
 -12   3   8    3.84    0.25
 -11   3   8    1.44    0.15
 -10   3   8    5.54    0.23
  -9   3   8    3.25    0.15
  -8   3   8    1.51    0.10
  -7   3   8    7.26    0.17
  -6   3   8    0.34    0.06
  -5   3   8    0.06    0.04
  -4   3   8    6.71    0.15
  -3   3   8    0.90    0.08
  -2   3   8    0.75    0.08
  -1   3   8    3.96    0.12
   0   3   8   45.88    0.53
   1   3   8    8.78    0.17
   2   3   8    1.62    0.10
   3   3   8    3.05    0.15
   4   3   8   27.86    0.44
   5   3   8    0.59    0.10
   6   3   8   18.12    0.41
   7   3   8    1.67    0.18
   8   3   8    0.57    0.15
   9   3   8    4.25    0.31
  10   3   8    1.82    0.26
  11   3   8    0.39    0.16
  12   3   8    0.03    0.14
  13   3   8    0.44    0.19
 -15   4   8    0.13    0.24
 -14   4   8    0.96    0.23
 -13   4   8    1.87    0.22
 -12   4   8    0.13    0.15
 -11   4   8    0.24    0.11
 -10   4   8   13.40    0.31
  -9   4   8    0.36    0.09
  -8   4   8   12.61    0.24
  -7   4   8   17.46    0.29
  -6   4   8   25.00    0.34
  -5   4   8    8.66    0.19
  -4   4   8    0.07    0.08
  -3   4   8    8.54    0.19
  -2   4   8    6.03    0.15
  -1   4   8   10.32    0.17
   0   4   8    0.25    0.05
   1   4   8   14.44    0.21
   2   4   8    6.32    0.17
   3   4   8    2.68    0.14
   4   4   8    2.50    0.14
   5   4   8    0.07    0.07
   6   4   8   20.24    0.47
   7   4   8    0.04    0.14
   8   4   8    7.36    0.34
   9   4   8    1.12    0.24
  10   4   8    0.13    0.16
  11   4   8    2.41    0.25
  12   4   8    0.23    0.16
 -15   5   8    2.41    0.30
 -14   5   8    0.29    0.21
 -13   5   8    0.41    0.19
 -12   5   8    1.66    0.19
 -11   5   8    1.17    0.15
 -10   5   8    3.05    0.19
  -9   5   8    1.75    0.13
  -8   5   8    1.80    0.12
  -7   5   8    0.49    0.08
  -6   5   8    0.43    0.08
  -5   5   8    1.45    0.11
  -4   5   8    3.11    0.15
  -3   5   8    0.22    0.07
  -2   5   8    0.30    0.08
  -1   5   8   19.75    0.28
   0   5   8   13.46    0.23
   1   5   8    8.65    0.17
   2   5   8    3.16    0.13
   3   5   8    1.10    0.12
   4   5   8   20.07    0.37
   5   5   8    0.69    0.11
   6   5   8    9.95    0.29
   7   5   8    0.50    0.16
   8   5   8    0.53    0.16
   9   5   8    0.61    0.20
  10   5   8    0.91    0.19
  11   5   8    0.36    0.16
  12   5   8    0.11    0.15
 -14   6   8    1.00    0.27
 -13   6   8    2.77    0.25
 -12   6   8    0.37    0.17
 -11   6   8    0.13    0.10
 -10   6   8    0.09    0.09
  -9   6   8    0.72    0.10
  -8   6   8    4.90    0.19
  -7   6   8    6.05    0.19
  -6   6   8    6.42    0.19
  -5   6   8    6.21    0.19
  -4   6   8    1.39    0.11
  -3   6   8   11.87    0.23
  -2   6   8    2.16    0.13
  -1   6   8    2.74    0.14
   0   6   8    2.66    0.14
   1   6   8    6.18    0.21
   2   6   8    9.99    0.24
   3   6   8    3.85    0.20
   4   6   8    0.03    0.08
   5   6   8    0.08    0.09
   6   6   8    0.48    0.15
   7   6   8    4.78    0.24
   8   6   8    2.52    0.20
   9   6   8    1.05    0.22
  10   6   8    0.15    0.16
  11   6   8    3.20    0.29
 -14   7   8    1.25    0.29
 -13   7   8    0.08    0.25
 -12   7   8    2.66    0.29
 -11   7   8    0.30    0.12
 -10   7   8    1.28    0.15
  -9   7   8    0.25    0.09
  -8   7   8    8.06    0.22
  -7   7   8    3.69    0.16
  -6   7   8    1.86    0.11
  -5   7   8    1.29    0.10
  -4   7   8    0.12    0.11
  -3   7   8   13.34    0.28
  -2   7   8    3.79    0.16
  -1   7   8   17.84    0.33
   0   7   8    0.64    0.10
   1   7   8   14.43    0.29
   2   7   8    8.47    0.24
   3   7   8    1.20    0.14
   4   7   8    4.69    0.23
   5   7   8    0.12    0.10
   6   7   8    0.15    0.14
   7   7   8    0.38    0.21
   8   7   8    0.02    0.18
   9   7   8    0.68    0.25
  10   7   8    1.30    0.23
  11   7   8    0.15    0.16
 -13   8   8    1.32    0.31
 -12   8   8    0.40    0.21
 -11   8   8    0.15    0.14
 -10   8   8    0.03    0.11
  -9   8   8    1.08    0.12
  -8   8   8    3.50    0.17
  -7   8   8    0.63    0.10
  -6   8   8    4.20    0.18
  -5   8   8    5.36    0.19
  -4   8   8    0.13    0.12
  -3   8   8    4.94    0.17
  -2   8   8    1.77    0.13
  -1   8   8    1.74    0.14
   0   8   8    0.66    0.11
   1   8   8    1.55    0.14
   2   8   8    6.75    0.27
   3   8   8    5.28    0.26
   4   8   8    0.92    0.14
   5   8   8    0.05    0.10
   6   8   8    0.16    0.15
   7   8   8    3.93    0.30
   8   8   8    2.60    0.27
   9   8   8    1.56    0.28
  10   8   8    0.18    0.16
 -12   9   8    2.04    0.38
 -11   9   8    0.13    0.16
 -10   9   8    1.20    0.20
  -9   9   8    0.24    0.12
  -8   9   8    1.84    0.16
  -7   9   8    0.03    0.10
  -6   9   8    2.13    0.17
  -5   9   8    0.00    0.09
  -4   9   8    0.49    0.14
  -3   9   8    1.78    0.14
  -2   9   8    0.47    0.12
  -1   9   8    1.57    0.15
   0   9   8    2.79    0.18
   1   9   8    6.99    0.26
   2   9   8    1.25    0.14
   3   9   8    0.94    0.14
   4   9   8    3.68    0.23
   5   9   8    0.13    0.12
   6   9   8    0.79    0.18
   7   9   8    0.61    0.28
   8   9   8    0.46    0.25
   9   9   8    0.14    0.29
 -10  10   8    2.96    0.30
  -9  10   8    0.09    0.11
  -8  10   8    2.96    0.22
  -7  10   8    0.58    0.13
  -6  10   8    4.58    0.25
  -5  10   8    4.24    0.25
  -4  10   8    0.52    0.17
  -3  10   8    0.83    0.12
  -2  10   8    1.46    0.17
  -1  10   8    2.75    0.21
   0  10   8    0.57    0.11
   1  10   8    1.51    0.15
   2  10   8    0.56    0.14
   3  10   8    1.55    0.18
   4  10   8    0.15    0.13
   5  10   8    0.05    0.14
   6  10   8    4.07    0.31
   7  10   8    0.01    0.26
   8  10   8    3.31    0.36
  -9  11   8    0.47    0.17
  -8  11   8    0.06    0.13
  -7  11   8    0.95    0.17
  -6  11   8    0.62    0.14
  -5  11   8    0.09    0.13
  -4  11   8    0.78    0.19
  -3  11   8    0.08    0.17
  -2  11   8    0.03    0.18
  -1  11   8    1.43    0.22
   0  11   8    5.47    0.26
   1  11   8    2.10    0.18
   2  11   8    0.37    0.15
   3  11   8    0.22    0.14
   4  11   8    4.33    0.31
   5  11   8    0.08    0.15
   6  11   8    3.02    0.32
  -6  12   8    0.88    0.17
  -5  12   8    0.75    0.19
  -4  12   8    0.29    0.25
  -3  12   8    1.71    0.25
  -2  12   8    0.37    0.22
  -1  12   8    1.50    0.27
   0  12   8    0.20    0.16
   1  12   8    1.27    0.23
   2  12   8    0.32    0.17
   3  12   8    0.61    0.18
   4  12   8    0.00    0.43
 -16   0   9    1.99    0.32
 -15   0   9    0.20    0.22
 -14   0   9    2.42    0.35
 -13   0   9   18.09    0.62
 -12   0   9    0.30    0.24
 -11   0   9    9.72    0.47
 -10   0   9    1.04    0.17
  -9   0   9    0.24    0.11
  -8   0   9    2.69    0.20
  -7   0   9    0.09    0.08
  -6   0   9    4.19    0.20
  -5   0   9   15.98    0.34
  -4   0   9  143.79    1.95
  -3   0   9    1.64    0.15
  -2   0   9   30.33    0.50
  -1   0   9    0.33    0.13
   0   0   9   37.45    0.64
   1   0   9    0.33    0.11
   2   0   9   17.08    0.43
   3   0   9   72.23    1.20
   4   0   9    9.04    0.35
   5   0   9    0.05    0.11
   6   0   9    0.08    0.13
   7   0   9    0.46    0.20
   8   0   9   10.64    0.46
   9   0   9    2.79    0.29
  10   0   9    8.41    0.46
  11   0   9    0.37    0.27
  12   0   9   12.14    0.65
  13   0   9    0.32    0.30
 -16   1   9    0.00    0.14
 -15   1   9    4.30    0.29
 -14   1   9    3.60    0.27
 -13   1   9    6.82    0.28
 -12   1   9    2.06    0.19
 -11   1   9    6.74    0.27
 -10   1   9    0.17    0.09
  -9   1   9    0.85    0.10
  -8   1   9    1.05    0.10
  -7   1   9   15.01    0.24
  -6   1   9   36.76    0.40
  -5   1   9    0.27    0.06
  -4   1   9   23.18    0.31
  -3   1   9    3.95    0.16
  -2   1   9    8.73    0.18
  -1   1   9    9.02    0.20
   0   1   9    0.06    0.05
   1   1   9   77.91    0.88
   2   1   9   22.35    0.36
   3   1   9    3.03    0.16
   4   1   9    1.74    0.14
   5   1   9   14.17    0.31
   6   1   9    3.33    0.20
   7   1   9    2.28    0.20
   8   1   9    4.08    0.25
   9   1   9    0.15    0.15
  10   1   9   18.23    0.51
  11   1   9    0.81    0.22
  12   1   9    0.14    0.17
  13   1   9    0.45    0.23
 -16   2   9    1.31    0.21
 -15   2   9    0.15    0.16
 -14   2   9    1.47    0.24
 -13   2   9    9.89    0.33
 -12   2   9    0.09    0.15
 -11   2   9    4.84    0.25
 -10   2   9    0.56    0.11
  -9   2   9    0.05    0.07
  -8   2   9    6.42    0.22
  -7   2   9    1.97    0.11
  -6   2   9   11.97    0.20
  -5   2   9    7.42    0.17
  -4   2   9   23.38    0.30
  -3   2   9    3.17    0.13
  -2   2   9   32.92    0.42
  -1   2   9   11.31    0.24
   0   2   9   21.74    0.32
   1   2   9    3.28    0.14
   2   2   9    2.25    0.15
   3   2   9   41.70    0.62
   4   2   9    0.06    0.07
   5   2   9    1.07    0.13
   6   2   9    3.36    0.21
   7   2   9    0.87    0.18
   8   2   9    8.70    0.35
   9   2   9    2.32    0.22
  10   2   9    0.40    0.26
  11   2   9    0.09    0.20
  12   2   9    9.20    0.52
 -15   3   9    4.16    0.31
 -14   3   9    2.10    0.29
 -13   3   9    0.13    0.20
 -12   3   9    0.86    0.21
 -11   3   9    3.63    0.24
 -10   3   9    0.31    0.10
  -9   3   9   12.56    0.27
  -8   3   9    2.13    0.13
  -7   3   9    3.03    0.14
  -6   3   9   18.85    0.28
  -5   3   9    6.88    0.18
  -4   3   9   41.78    0.48
  -3   3   9    7.68    0.18
  -2   3   9    1.66    0.11
  -1   3   9    0.44    0.09
   0   3   9   16.21    0.28
   1   3   9   28.39    0.37
   2   3   9    5.97    0.20
   3   3   9   10.25    0.25
   4   3   9    0.62    0.11
   5   3   9   17.67    0.37
   6   3   9    0.07    0.09
   7   3   9   11.07    0.36
   8   3   9    0.06    0.18
   9   3   9    0.30    0.18
  10   3   9    8.43    0.43
  11   3   9    0.27    0.21
  12   3   9    0.10    0.16
 -15   4   9    0.11    0.15
 -14   4   9    1.49    0.27
 -13   4   9    4.46    0.29
 -12   4   9    0.25    0.17
 -11   4   9    2.24    0.21
 -10   4   9    1.98    0.17
  -9   4   9    0.35    0.10
  -8   4   9    9.45    0.23
  -7   4   9    4.68    0.18
  -6   4   9   12.50    0.25
  -5   4   9    1.96    0.13
  -4   4   9    0.48    0.08
  -3   4   9    9.25    0.22
  -2   4   9   27.94    0.37
  -1   4   9   24.92    0.37
   0   4   9   11.10    0.20
   1   4   9    9.96    0.19
   2   4   9    0.26    0.07
   3   4   9   26.47    0.40
   4   4   9    5.66    0.21
   5   4   9    2.57    0.17
   6   4   9    3.53    0.23
   7   4   9    2.23    0.23
   8   4   9    6.90    0.36
   9   4   9    2.21    0.25
  10   4   9    0.13    0.24
  11   4   9    0.12    0.18
  12   4   9    7.74    0.43
 -15   5   9    3.58    0.29
 -14   5   9    1.00    0.27
 -13   5   9    1.12    0.22
 -12   5   9    0.70    0.18
 -11   5   9    1.70    0.18
 -10   5   9    0.10    0.09
  -9   5   9    7.28    0.26
  -8   5   9    0.07    0.08
  -7   5   9    2.38    0.14
  -6   5   9   21.35    0.35
  -5   5   9    1.90    0.13
  -4   5   9   15.87    0.31
  -3   5   9    0.79    0.12
  -2   5   9    0.42    0.09
  -1   5   9    0.14    0.09
   0   5   9   12.20    0.22
   1   5   9   30.93    0.41
   2   5   9    2.47    0.14
   3   5   9    0.56    0.10
   4   5   9    0.20    0.09
   5   5   9   15.03    0.36
   6   5   9    0.62    0.13
   7   5   9    3.91    0.27
   8   5   9    0.10    0.17
   9   5   9    0.25    0.20
  10   5   9   10.10    0.44
  11   5   9    0.46    0.21
 -14   6   9    0.93    0.31
 -13   6   9    7.79    0.36
 -12   6   9    0.06    0.19
 -11   6   9    4.86    0.27
 -10   6   9    0.38    0.11
  -9   6   9    0.36    0.10
  -8   6   9    4.91    0.21
  -7   6   9    2.18    0.14
  -6   6   9    1.98    0.13
  -5   6   9    2.09    0.13
  -4   6   9   21.92    0.36
  -3   6   9    0.16    0.10
  -2   6   9   17.89    0.32
  -1   6   9    0.99    0.11
   0   6   9   11.96    0.27
   1   6   9    0.12    0.07
   2   6   9    1.35    0.14
   3   6   9   35.24    0.61
   4   6   9    0.18    0.10
   5   6   9    0.49    0.12
   6   6   9    0.70    0.15
   7   6   9    2.14    0.24
   8   6   9    8.59    0.38
   9   6   9    0.76    0.23
  10   6   9    3.26    0.33
  11   6   9    0.45    0.23
 -13   7   9    3.77    0.34
 -12   7   9    0.77    0.22
 -11   7   9    1.81    0.23
 -10   7   9    0.03    0.10
  -9   7   9    0.87    0.12
  -8   7   9    1.39    0.12
  -7   7   9    6.27    0.21
  -6   7   9   15.96    0.28
  -5   7   9    0.20    0.08
  -4   7   9    5.12    0.21
  -3   7   9    3.39    0.17
  -2   7   9    1.12    0.13
  -1   7   9    2.48    0.16
   0   7   9    0.82    0.13
   1   7   9   30.50    0.49
   2   7   9    6.14    0.26
   3   7   9    2.96    0.20
   4   7   9    1.90    0.17
   5   7   9    9.89    0.36
   6   7   9    4.49    0.28
   7   7   9    0.19    0.16
   8   7   9    0.95    0.24
   9   7   9    0.14    0.23
  10   7   9   12.51    0.50
 -12   8   9    0.14    0.22
 -11   8   9    4.65    0.32
 -10   8   9    0.00    0.12
  -9   8   9    0.17    0.10
  -8   8   9    2.08    0.15
  -7   8   9    0.67    0.10
  -6   8   9    3.87    0.20
  -5   8   9    3.28    0.17
  -4   8   9   13.89    0.35
  -3   8   9    0.36    0.13
  -2   8   9    7.39    0.24
  -1   8   9    0.23    0.11
   0   8   9    5.76    0.23
   1   8   9    0.13    0.10
   2   8   9    1.12    0.15
   3   8   9   18.11    0.40
   4   8   9    3.04    0.21
   5   8   9    0.11    0.11
   6   8   9    0.17    0.13
   7   8   9    1.10    0.21
   8   8   9    5.15    0.32
   9   8   9    1.96    0.26
 -11   9   9    1.71    0.53
 -10   9   9    0.00    0.14
  -9   9   9    1.55    0.19
  -8   9   9    0.08    0.12
  -7   9   9    3.12    0.22
  -6   9   9    3.70    0.16
  -5   9   9    0.16    0.08
  -4   9   9    9.20    0.28
  -3   9   9    0.18    0.14
  -2   9   9    0.07    0.12
  -1   9   9    0.61    0.13
   0   9   9    0.50    0.12
   1   9   9    9.85    0.30
   2   9   9    4.81    0.27
   3   9   9    1.05    0.16
   4   9   9    0.12    0.13
   5   9   9    6.34    0.34
   6   9   9    0.51    0.16
   7   9   9    2.71    0.26
   8   9   9    1.59    0.31
 -10  10   9    1.58    0.28
  -9  10   9    0.20    0.16
  -8  10   9    1.37    0.20
  -7  10   9    0.73    0.15
  -6  10   9    7.26    0.34
  -5  10   9    1.87    0.19
  -4  10   9    0.11    0.11
  -3  10   9    0.28    0.17
  -2  10   9    4.11    0.24
  -1  10   9    4.96    0.23
   0  10   9    1.79    0.19
   1  10   9    2.58    0.22
   2  10   9    0.17    0.12
   3  10   9    5.37    0.31
   4  10   9    0.14    0.13
   5  10   9    0.18    0.17
   6  10   9    2.41    0.28
   7  10   9    0.80    0.20
  -8  11   9    0.15    0.16
  -7  11   9    0.74    0.19
  -6  11   9    1.91    0.25
  -5  11   9    0.37    0.16
  -4  11   9    8.11    0.38
  -3  11   9    1.88    0.26
  -2  11   9    0.23    0.19
  -1  11   9    0.14    0.19
   0  11   9    1.38    0.22
   1  11   9    3.79    0.28
   2  11   9    1.01    0.21
   3  11   9    2.73    0.29
   4  11   9    0.49    0.18
   5  11   9    3.27    0.33
  -5  12   9    0.42    0.19
  -4  12   9    0.67    0.21
  -3  12   9    0.43    0.27
  -2  12   9    2.85    0.32
  -1  12   9    1.48    0.29
   0  12   9    1.21    0.29
   1  12   9    0.82    0.23
   2  12   9    0.05    0.18
 -16   0  10    1.34    0.40
 -15   0  10    0.30    0.21
 -14   0  10    2.58    0.34
 -13   0  10    0.39    0.28
 -12   0  10    3.07    0.30
 -11   0  10    3.40    0.30
 -10   0  10    4.10    0.30
  -9   0  10    0.45    0.14
  -8   0  10    0.01    0.09
  -7   0  10    0.07    0.10
  -6   0  10    0.03    0.08
  -5   0  10   13.32    0.33
  -4   0  10    7.82    0.28
  -3   0  10    8.17    0.27
  -2   0  10   13.29    0.37
  -1   0  10    3.64    0.23
   0   0  10    4.16    0.23
   1   0  10    9.27    0.31
   2   0  10    5.37    0.30
   3   0  10    0.80    0.15
   4   0  10    0.63    0.17
   5   0  10    8.62    0.43
   6   0  10    9.17    0.41
   7   0  10   18.95    0.60
   8   0  10    0.12    0.20
   9   0  10    2.59    0.38
  10   0  10    0.18    0.25
  11   0  10    1.53    0.44
  12   0  10    1.22    0.39
 -15   1  10    0.49    0.16
 -14   1  10    3.98    0.28
 -13   1  10    0.56    0.19
 -12   1  10    7.55    0.27
 -11   1  10    1.70    0.18
 -10   1  10    0.27    0.12
  -9   1  10    0.10    0.08
  -8   1  10    0.47    0.09
  -7   1  10    0.09    0.06
  -6   1  10    2.03    0.11
  -5   1  10   20.94    0.30
  -4   1  10    0.17    0.06
  -3   1  10   39.27    0.49
  -2   1  10    0.13    0.09
  -1   1  10    6.72    0.20
   0   1  10   23.12    0.37
   1   1  10    0.20    0.08
   2   1  10    5.59    0.22
   3   1  10    0.08    0.07
   4   1  10    2.19    0.16
   5   1  10    6.44    0.28
   6   1  10    0.92    0.15
   7   1  10    3.25    0.23
   8   1  10    5.99    0.31
   9   1  10    3.73    0.29
  10   1  10    0.17    0.19
  11   1  10    4.35    0.32
  12   1  10    0.37    0.30
 -15   2  10    0.13    0.15
 -14   2  10    2.29    0.25
 -13   2  10    0.18    0.19
 -12   2  10    3.16    0.20
 -11   2  10    0.97    0.16
 -10   2  10    7.31    0.27
  -9   2  10    0.10    0.08
  -8   2  10    0.23    0.08
  -7   2  10   15.40    0.27
  -6   2  10    9.21    0.19
  -5   2  10   10.22    0.20
  -4   2  10    0.18    0.07
  -3   2  10    0.10    0.06
  -2   2  10    0.61    0.11
  -1   2  10    4.20    0.16
   0   2  10    2.21    0.14
   1   2  10    3.40    0.18
   2   2  10    5.16    0.23
   3   2  10    0.09    0.08
   4   2  10   12.75    0.32
   5   2  10   11.69    0.31
   6   2  10   11.48    0.34
   7   2  10   12.86    0.36
   8   2  10    0.31    0.17
   9   2  10    7.97    0.35
  10   2  10    0.76    0.24
  11   2  10    0.51    0.29
  12   2  10    1.43    0.29
 -15   3  10    0.48    0.18
 -14   3  10    1.20    0.21
 -13   3  10    0.85    0.23
 -12   3  10    2.12    0.24
 -11   3  10    0.00    0.15
 -10   3  10    0.29    0.15
  -9   3  10   11.51    0.30
  -8   3  10   12.97    0.29
  -7   3  10    3.07    0.15
  -6   3  10    1.01    0.10
  -5   3  10   14.30    0.30
  -4   3  10    6.19    0.20
  -3   3  10    5.26    0.20
  -2   3  10    6.58    0.19
  -1   3  10   10.19    0.23
   0   3  10    2.35    0.14
   1   3  10    0.97    0.12
   2   3  10    8.99    0.25
   3   3  10   12.60    0.30
   4   3  10    1.21    0.13
   5   3  10    4.16    0.23
   6   3  10    3.04    0.21
   7   3  10    1.84    0.19
   8   3  10    7.76    0.43
   9   3  10    0.41    0.26
  10   3  10    0.72    0.24
  11   3  10    2.45    0.34
 -15   4  10    0.08    0.15
 -14   4  10    1.74    0.23
 -13   4  10    0.18    0.24
 -12   4  10    2.10    0.23
 -11   4  10    0.15    0.16
 -10   4  10    7.19    0.29
  -9   4  10    0.28    0.10
  -8   4  10    0.88    0.12
  -7   4  10   33.42    0.48
  -6   4  10   20.28    0.34
  -5   4  10    7.30    0.23
  -4   4  10    4.01    0.18
  -3   4  10    1.33    0.11
  -2   4  10   10.98    0.25
  -1   4  10    3.83    0.15
   0   4  10    5.32    0.17
   1   4  10    0.79    0.11
   2   4  10    4.26    0.20
   3   4  10    0.06    0.08
   4   4  10   25.17    0.45
   5   4  10    9.91    0.31
   6   4  10    7.61    0.34
   7   4  10    4.85    0.30
   8   4  10    0.67    0.22
   9   4  10    9.32    0.43
  10   4  10    1.38    0.26
  11   4  10    0.12    0.27
 -14   5  10    1.94    0.23
 -13   5  10    0.23    0.23
 -12   5  10    2.19    0.22
 -11   5  10    0.46    0.17
 -10   5  10    0.14    0.13
  -9   5  10    1.80    0.17
  -8   5  10    6.21    0.25
  -7   5  10    1.36    0.14
  -6   5  10    0.49    0.10
  -5   5  10   14.37    0.31
  -4   5  10    2.29    0.14
  -3   5  10    6.59    0.21
  -2   5  10    2.34    0.15
  -1   5  10    7.05    0.20
   0   5  10    0.21    0.10
   1   5  10    0.61    0.11
   2   5  10   13.38    0.29
   3   5  10    4.82    0.21
   4   5  10    0.40    0.11
   5   5  10    2.28    0.19
   6   5  10    1.09    0.16
   7   5  10    0.16    0.12
   8   5  10    3.29    0.32
   9   5  10    0.87    0.26
  10   5  10    0.16    0.18
  11   5  10    3.13    0.32
 -14   6  10    0.81    0.20
 -13   6  10    0.60    0.26
 -12   6  10    1.48    0.24
 -11   6  10    0.57    0.17
 -10   6  10    3.06    0.21
  -9   6  10    0.12    0.10
  -8   6  10    1.04    0.13
  -7   6  10    1.65    0.15
  -6   6  10    1.09    0.12
  -5   6  10    6.68    0.24
  -4   6  10    0.06    0.07
  -3   6  10    1.22    0.14
  -2   6  10    1.48    0.14
  -1   6  10    1.97    0.13
   0   6  10    2.14    0.14
   1   6  10    2.59    0.20
   2   6  10    4.13    0.24
   3   6  10    1.57    0.17
   4   6  10    3.31    0.23
   5   6  10    4.22    0.26
   6   6  10    2.30    0.21
   7   6  10    4.55    0.31
   8   6  10    0.21    0.22
   9   6  10    2.30    0.31
  10   6  10    0.12    0.23
 -13   7  10    0.66    0.28
 -12   7  10    3.97    0.34
 -11   7  10    1.42    0.20
 -10   7  10    0.19    0.17
  -9   7  10    0.21    0.11
  -8   7  10    0.11    0.09
  -7   7  10    0.09    0.09
  -6   7  10    0.32    0.10
  -5   7  10    7.93    0.27
  -4   7  10    0.26    0.10
  -3   7  10   15.13    0.41
  -2   7  10    0.23    0.14
  -1   7  10    2.64    0.17
   0   7  10   14.45    0.35
   1   7  10    0.30    0.14
   2   7  10    4.36    0.25
   3   7  10    0.26    0.12
   4   7  10    0.38    0.13
   5   7  10    2.36    0.22
   6   7  10    0.11    0.13
   7   7  10    2.80    0.26
   8   7  10    1.48    0.25
   9   7  10    1.98    0.32
 -12   8  10    1.13    0.30
 -11   8  10    1.75    0.23
 -10   8  10    2.86    0.30
  -9   8  10    0.35    0.14
  -8   8  10    0.36    0.11
  -7   8  10    0.16    0.10
  -6   8  10    0.12    0.10
  -5   8  10    5.11    0.25
  -4   8  10    0.10    0.12
  -3   8  10    0.30    0.12
  -2   8  10    5.21    0.24
  -1   8  10    1.06    0.14
   0   8  10    0.49    0.15
   1   8  10    1.29    0.19
   2   8  10    1.81    0.20
   3   8  10    0.90    0.15
   4   8  10    0.78    0.16
   5   8  10    1.92    0.22
   6   8  10    2.97    0.25
   7   8  10    6.43    0.36
   8   8  10    0.13    0.19
 -11   9  10    0.02    0.27
 -10   9  10    0.23    0.24
  -9   9  10    2.49    0.26
  -8   9  10    0.90    0.19
  -7   9  10    0.10    0.13
  -6   9  10    0.26    0.11
  -5   9  10    2.10    0.18
  -4   9  10    1.09    0.16
  -3   9  10    4.48    0.25
  -2   9  10    0.39    0.17
  -1   9  10    1.05    0.17
   0   9  10    2.03    0.20
   1   9  10    0.23    0.16
   2   9  10    0.45    0.16
   3   9  10    0.05    0.14
   4   9  10    0.37    0.14
   5   9  10    1.16    0.19
   6   9  10    0.45    0.16
   7   9  10    0.12    0.14
  -9  10  10    0.02    0.17
  -8  10  10    0.17    0.18
  -7  10  10    8.04    0.43
  -6  10  10    2.55    0.27
  -5  10  10    1.60    0.24
  -4  10  10    0.21    0.15
  -3  10  10    0.67    0.17
  -2  10  10    0.03    0.18
  -1  10  10    0.50    0.16
   0  10  10    1.65    0.22
   1  10  10    0.11    0.17
   2  10  10    0.38    0.15
   3  10  10    0.14    0.13
   4  10  10    4.15    0.31
   5  10  10    0.86    0.19
   6  10  10    3.01    0.30
  -7  11  10    0.10    0.18
  -6  11  10    0.04    0.17
  -5  11  10    1.82    0.29
  -4  11  10    1.04    0.21
  -3  11  10    0.72    0.22
  -2  11  10    1.35    0.27
  -1  11  10    0.93    0.26
   0  11  10    0.03    0.22
   1  11  10    0.04    0.15
   2  11  10    1.75    0.22
   3  11  10    0.60    0.21
   4  11  10    0.11    0.33
  -3  12  10    0.05    0.16
  -2  12  10    0.20    0.18
  -1  12  10    0.30    0.24
   0  12  10    0.00    0.45
 -15   0  11    5.23    0.46
 -14   0  11    0.04    0.19
 -13   0  11   14.19    0.63
 -12   0  11    0.64    0.28
 -11   0  11    1.57    0.26
 -10   0  11   13.91    0.45
  -9   0  11   10.57    0.41
  -8   0  11    1.88    0.21
  -7   0  11    1.78    0.19
  -6   0  11    3.72    0.22
  -5   0  11    0.23    0.11
  -4   0  11    5.17    0.30
  -3   0  11    6.45    0.33
  -2   0  11    5.98    0.34
  -1   0  11   16.82    0.45
   0   0  11    0.39    0.13
   1   0  11   13.10    0.39
   2   0  11    1.78    0.20
   3   0  11    1.99    0.23
   4   0  11    0.93    0.19
   5   0  11    0.39    0.17
   6   0  11    4.26    0.35
   7   0  11   16.02    0.65
   8   0  11    1.25    0.27
   9   0  11    0.26    0.25
  10   0  11    4.44    0.53
  11   0  11    0.10    0.39
 -15   1  11    0.42    0.17
 -14   1  11    0.52    0.15
 -13   1  11    2.22    0.22
 -12   1  11    0.76    0.19
 -11   1  11   11.51    0.31
 -10   1  11    0.09    0.14
  -9   1  11    2.26    0.18
  -8   1  11   16.49    0.32
  -7   1  11    3.72    0.19
  -6   1  11    5.49    0.20
  -5   1  11    1.54    0.12
  -4   1  11    0.98    0.10
  -3   1  11    8.70    0.23
  -2   1  11    3.52    0.18
  -1   1  11    4.01    0.19
   0   1  11    0.27    0.12
   1   1  11    0.24    0.14
   2   1  11    0.14    0.09
   3   1  11    5.19    0.25
   4   1  11    0.29    0.11
   5   1  11   12.72    0.37
   6   1  11    0.44    0.13
   7   1  11    1.22    0.17
   8   1  11    9.60    0.41
   9   1  11    0.70    0.22
  10   1  11    0.56    0.27
  11   1  11    0.23    0.28
 -15   2  11    4.26    0.31
 -14   2  11    0.43    0.16
 -13   2  11    6.17    0.33
 -12   2  11    1.25    0.21
 -11   2  11    0.32    0.14
 -10   2  11    3.97    0.21
  -9   2  11    7.89    0.29
  -8   2  11    8.25    0.29
  -7   2  11    1.36    0.13
  -6   2  11    1.48    0.13
  -5   2  11    0.99    0.11
  -4   2  11    6.88    0.22
  -3   2  11    0.21    0.08
  -2   2  11    4.12    0.20
  -1   2  11    1.43    0.16
   0   2  11    0.06    0.10
   1   2  11    9.09    0.25
   2   2  11    3.59    0.20
   3   2  11    0.13    0.09
   4   2  11    4.67    0.24
   5   2  11    3.26    0.23
   6   2  11    1.18    0.16
   7   2  11    8.17    0.35
   8   2  11    1.06    0.18
   9   2  11    0.69    0.20
  10   2  11    3.78    0.37
  11   2  11    0.25    0.26
 -15   3  11    0.52    0.18
 -14   3  11    0.13    0.14
 -13   3  11    2.36    0.24
 -12   3  11    0.15    0.19
 -11   3  11    4.68    0.24
 -10   3  11    5.29    0.26
  -9   3  11    1.62    0.18
  -8   3  11    9.64    0.29
  -7   3  11    3.77    0.19
  -6   3  11   49.23    0.70
  -5   3  11    0.09    0.08
  -4   3  11    0.38    0.08
  -3   3  11    0.03    0.07
  -2   3  11    0.08    0.07
  -1   3  11    1.37    0.14
   0   3  11    3.89    0.16
   1   3  11    2.44    0.16
   2   3  11    0.71    0.12
   3   3  11   21.58    0.42
   4   3  11   10.86    0.31
   5   3  11    6.92    0.29
   6   3  11    1.72    0.20
   7   3  11    0.13    0.12
   8   3  11    5.08    0.35
   9   3  11    0.03    0.18
  10   3  11    4.07    0.38
  11   3  11    0.50    0.25
 -14   4  11    1.15    0.20
 -13   4  11    2.44    0.25
 -12   4  11    4.80    0.31
 -11   4  11    0.29    0.19
 -10   4  11    0.54    0.17
  -9   4  11    4.35    0.25
  -8   4  11   11.43    0.31
  -7   4  11    2.32    0.16
  -6   4  11    1.23    0.13
  -5   4  11    2.33    0.15
  -4   4  11    9.09    0.26
  -3   4  11    0.09    0.07
  -2   4  11    1.95    0.14
  -1   4  11    0.17    0.13
   0   4  11    0.79    0.12
   1   4  11   10.73    0.26
   2   4  11    5.16    0.21
   3   4  11    0.06    0.09
   4   4  11   10.85    0.31
   5   4  11    5.65    0.26
   6   4  11    0.74    0.16
   7   4  11    1.85    0.22
   8   4  11    4.84    0.33
   9   4  11    0.82    0.23
  10   4  11    3.34    0.34
 -14   5  11    0.24    0.16
 -13   5  11    1.96    0.24
 -12   5  11    0.07    0.22
 -11   5  11    3.76    0.27
 -10   5  11    2.21    0.23
  -9   5  11    2.54    0.21
  -8   5  11    7.04    0.31
  -7   5  11    2.57    0.18
  -6   5  11   24.24    0.45
  -5   5  11    0.28    0.10
  -4   5  11    0.07    0.08
  -3   5  11    1.33    0.13
  -2   5  11    0.33    0.10
  -1   5  11    1.35    0.16
   0   5  11    0.69    0.12
   1   5  11    0.41    0.13
   2   5  11    0.12    0.11
   3   5  11   16.35    0.37
   4   5  11    2.11    0.19
   5   5  11    2.98    0.22
   6   5  11    0.08    0.12
   7   5  11    0.48    0.16
   8   5  11    6.23    0.37
   9   5  11    0.14    0.20
  10   5  11    0.79    0.30
 -13   6  11    6.57    0.38
 -12   6  11    0.06    0.24
 -11   6  11    0.30    0.21
 -10   6  11    3.52    0.25
  -9   6  11    3.43    0.25
  -8   6  11    1.49    0.16
  -7   6  11    2.44    0.17
  -6   6  11    2.66    0.17
  -5   6  11    0.82    0.12
  -4   6  11    7.24    0.27
  -3   6  11    5.01    0.23
  -2   6  11    0.74    0.14
  -1   6  11    3.18    0.19
   0   6  11    0.66    0.16
   1   6  11   13.92    0.37
   2   6  11    1.84    0.20
   3   6  11    0.94    0.15
   4   6  11    0.10    0.11
   5   6  11    0.42    0.14
   6   6  11    3.69    0.28
   7   6  11    3.05    0.27
   8   6  11    0.05    0.14
   9   6  11    0.67    0.26
 -12   7  11    1.27    0.30
 -11   7  11    5.96    0.44
 -10   7  11    0.18    0.18
  -9   7  11    1.77    0.24
  -8   7  11    7.58    0.31
  -7   7  11    1.12    0.13
  -6   7  11    2.07    0.16
  -5   7  11    1.74    0.17
  -4   7  11    0.09    0.09
  -3   7  11    5.56    0.25
  -2   7  11    1.86    0.20
  -1   7  11    3.34    0.23
   0   7  11    0.04    0.16
   1   7  11    0.19    0.15
   2   7  11    1.22    0.18
   3   7  11    3.46    0.24
   4   7  11    0.33    0.15
   5   7  11    3.44    0.27
   6   7  11    0.10    0.13
   7   7  11    1.07    0.19
   8   7  11    5.08    0.37
 -11   8  11    0.32    0.34
 -10   8  11    4.02    0.31
  -9   8  11    3.09    0.29
  -8   8  11    0.73    0.17
  -7   8  11    0.93    0.14
  -6   8  11    1.74    0.18
  -5   8  11    0.09    0.11
  -4   8  11    3.55    0.25
  -3   8  11    1.11    0.17
  -2   8  11    1.78    0.20
  -1   8  11    4.64    0.29
   0   8  11    0.23    0.16
   1   8  11    6.28    0.30
   2   8  11    0.17    0.15
   3   8  11    0.72    0.16
   4   8  11    0.12    0.13
   5   8  11    0.23    0.14
   6   8  11    1.54    0.21
   7   8  11    4.14    0.31
 -10   9  11    0.31    0.36
  -9   9  11    0.93    0.28
  -8   9  11    5.88    0.42
  -7   9  11    0.50    0.19
  -6   9  11    4.89    0.37
  -5   9  11    0.11    0.13
  -4   9  11    0.51    0.13
  -3   9  11    0.77    0.16
  -2   9  11    0.52    0.17
  -1   9  11    3.20    0.29
   0   9  11    0.96    0.19
   1   9  11    0.27    0.19
   2   9  11    0.12    0.17
   3   9  11    2.14    0.25
   4   9  11    0.51    0.16
   5   9  11    4.18    0.30
   6   9  11    0.95    0.19
  -8  10  11    1.93    0.33
  -7  10  11    0.06    0.17
  -6  10  11    1.02    0.22
  -5  10  11    0.04    0.15
  -4  10  11    2.00    0.25
  -3  10  11    0.65    0.20
  -2  10  11    1.75    0.24
  -1  10  11    1.16    0.28
   0  10  11    0.18    0.19
   1  10  11    2.67    0.25
   2  10  11    0.59    0.19
   3  10  11    0.20    0.16
   4  10  11    2.93    0.28
  -6  11  11    6.37    0.49
  -5  11  11    0.06    0.19
  -4  11  11    0.00    0.16
  -3  11  11    0.15    0.17
  -2  11  11    0.23    0.21
  -1  11  11    1.03    0.32
   0  11  11    1.02    0.28
   1  11  11    0.69    0.22
   2  11  11    0.10    0.18
 -15   0  12    1.66    0.30
 -14   0  12    0.79    0.25
 -13   0  12    0.18    0.19
 -12   0  12    9.03    0.54
 -11   0  12    0.00    0.25
 -10   0  12    6.02    0.35
  -9   0  12    0.15    0.20
  -8   0  12    0.08    0.14
  -7   0  12    4.89    0.31
  -6   0  12    5.99    0.38
  -5   0  12    1.23    0.18
  -4   0  12    4.81    0.30
  -3   0  12    2.58    0.25
  -2   0  12   15.86    0.50
  -1   0  12    3.88    0.27
   0   0  12   11.77    0.45
   1   0  12   45.92    1.15
   2   0  12    5.73    0.40
   3   0  12    0.17    0.22
   4   0  12    6.03    0.48
   5   0  12    1.23    0.26
   6   0  12    0.20    0.18
   7   0  12    0.08    0.19
   8   0  12    0.48    0.23
   9   0  12    0.19    0.21
  10   0  12    0.51    0.35
 -15   1  12    0.15    0.16
 -14   1  12    2.74    0.26
 -13   1  12    6.41    0.34
 -12   1  12    1.05    0.17
 -11   1  12    0.27    0.17
 -10   1  12    2.31    0.18
  -9   1  12    4.91    0.22
  -8   1  12    0.15    0.11
  -7   1  12    0.54    0.11
  -6   1  12    0.14    0.09
  -5   1  12    1.36    0.13
  -4   1  12    0.91    0.11
  -3   1  12    8.73    0.29
  -2   1  12   15.32    0.33
  -1   1  12    2.50    0.16
   0   1  12   22.89    0.45
   1   1  12    0.43    0.13
   2   1  12    0.00    0.15
   3   1  12   11.78    0.35
   4   1  12    0.37    0.13
   5   1  12    1.03    0.16
   6   1  12    6.95    0.34
   7   1  12    0.96    0.17
   8   1  12    0.05    0.13
   9   1  12    3.17    0.30
  10   1  12    0.42    0.20
 -14   2  12    0.83    0.18
 -13   2  12    0.08    0.13
 -12   2  12    5.66    0.31
 -11   2  12    0.78    0.19
 -10   2  12    5.34    0.24
  -9   2  12    2.20    0.19
  -8   2  12    0.33    0.13
  -7   2  12   13.24    0.34
  -6   2  12    3.38    0.20
  -5   2  12    3.00    0.17
  -4   2  12    9.24    0.27
  -3   2  12    0.08    0.08
  -2   2  12    1.18    0.13
  -1   2  12    0.38    0.10
   0   2  12    2.93    0.19
   1   2  12    6.99    0.23
   2   2  12   13.32    0.33
   3   2  12    0.11    0.11
   4   2  12    4.81    0.27
   5   2  12    2.36    0.21
   6   2  12    0.03    0.11
   7   2  12    3.71    0.28
   8   2  12    2.58    0.25
   9   2  12    0.05    0.13
  10   2  12    1.06    0.28
 -14   3  12    2.38    0.26
 -13   3  12    1.58    0.20
 -12   3  12    0.01    0.12
 -11   3  12    2.04    0.22
 -10   3  12    0.90    0.17
  -9   3  12    1.93    0.20
  -8   3  12    0.33    0.14
  -7   3  12    0.10    0.12
  -6   3  12   14.08    0.37
  -5   3  12   13.07    0.31
  -4   3  12    0.50    0.11
  -3   3  12    0.19    0.09
  -2   3  12    0.22    0.09
  -1   3  12    0.08    0.08
   0   3  12    4.58    0.21
   1   3  12    3.03    0.17
   2   3  12    0.19    0.13
   3   3  12    1.14    0.15
   4   3  12    3.80    0.23
   5   3  12    4.13    0.27
   6   3  12    4.28    0.28
   7   3  12    0.26    0.13
   8   3  12    0.63    0.18
   9   3  12    2.30    0.26
  10   3  12    0.79    0.20
 -14   4  12    0.50    0.17
 -13   4  12    0.20    0.14
 -12   4  12    3.32    0.27
 -11   4  12    1.87    0.24
 -10   4  12    2.77    0.24
  -9   4  12    4.26    0.28
  -8   4  12    0.20    0.20
  -7   4  12   16.98    0.41
  -6   4  12    1.16    0.14
  -5   4  12    2.73    0.18
  -4   4  12    9.98    0.30
  -3   4  12    0.63    0.11
  -2   4  12    0.11    0.08
  -1   4  12    3.62    0.21
   0   4  12    0.48    0.15
   1   4  12    0.23    0.12
   2   4  12   16.88    0.35
   3   4  12    0.08    0.11
   4   4  12    3.11    0.21
   5   4  12    2.24    0.18
   6   4  12    0.08    0.13
   7   4  12    7.58    0.40
   8   4  12    3.34    0.29
   9   4  12    0.08    0.15
 -13   5  12    1.76    0.23
 -12   5  12    0.14    0.15
 -11   5  12    0.90    0.24
 -10   5  12    0.66    0.19
  -9   5  12    0.63    0.21
  -8   5  12    0.33    0.19
  -7   5  12    0.16    0.09
  -6   5  12    2.35    0.19
  -5   5  12    9.08    0.29
  -4   5  12    0.03    0.08
  -3   5  12    0.41    0.11
  -2   5  12    3.70    0.20
  -1   5  12    0.16    0.09
   0   5  12    9.09    0.29
   1   5  12    0.59    0.14
   2   5  12    0.02    0.14
   3   5  12    1.95    0.20
   4   5  12    1.16    0.17
   5   5  12    2.15    0.23
   6   5  12    1.36    0.19
   7   5  12    0.27    0.15
   8   5  12    0.10    0.15
   9   5  12    1.75    0.24
 -13   6  12    0.11    0.16
 -12   6  12    4.70    0.33
 -11   6  12    0.66    0.29
 -10   6  12    0.86    0.23
  -9   6  12    0.03    0.20
  -8   6  12    0.28    0.26
  -7   6  12    3.78    0.21
  -6   6  12    0.75    0.12
  -5   6  12    0.37    0.11
  -4   6  12    3.59    0.22
  -3   6  12    0.13    0.11
  -2   6  12    5.60    0.26
  -1   6  12    0.34    0.12
   0   6  12    5.43    0.28
   1   6  12    6.35    0.27
   2   6  12    6.89    0.30
   3   6  12    0.53    0.18
   4   6  12    1.63    0.21
   5   6  12    0.88    0.18
   6   6  12    0.21    0.15
   7   6  12    0.71    0.20
   8   6  12    0.28    0.18
 -12   7  12    0.29    0.21
 -11   7  12    0.48    0.37
 -10   7  12    1.21    0.37
  -9   7  12    1.50    0.23
  -8   7  12    0.33    0.17
  -7   7  12    0.25    0.11
  -6   7  12    0.38    0.11
  -5   7  12    1.66    0.18
  -4   7  12    0.12    0.11
  -3   7  12    4.71    0.31
  -2   7  12   11.02    0.42
  -1   7  12    1.12    0.18
   0   7  12   13.99    0.39
   1   7  12    0.52    0.16
   2   7  12    0.00    0.16
   3   7  12    4.85    0.30
   4   7  12    0.13    0.14
   5   7  12    0.66    0.17
   6   7  12    1.70    0.22
   7   7  12    0.80    0.19
 -11   8  12    0.19    0.29
 -10   8  12    1.04    0.30
  -9   8  12    0.19    0.25
  -8   8  12    0.24    0.18
  -7   8  12    2.29    0.29
  -6   8  12    1.34    0.18
  -5   8  12    0.11    0.14
  -4   8  12    1.46    0.21
  -3   8  12    0.09    0.13
  -2   8  12    3.52    0.30
  -1   8  12    0.84    0.21
   0   8  12    2.81    0.28
   1   8  12    8.54    0.36
   2   8  12    2.84    0.24
   3   8  12    0.10    0.15
   4   8  12    1.24    0.20
   5   8  12    0.67    0.18
   6   8  12    0.31    0.16
  -9   9  12    1.16    0.32
  -8   9  12    0.08    0.21
  -7   9  12    0.59    0.21
  -6   9  12    1.59    0.26
  -5   9  12    1.78    0.26
  -4   9  12    0.16    0.14
  -3   9  12    1.18    0.20
  -2   9  12    0.70    0.19
  -1   9  12    0.23    0.18
   0   9  12    4.00    0.33
   1   9  12    0.14    0.18
   2   9  12    0.08    0.19
   3   9  12    0.98    0.22
   4   9  12    0.41    0.18
   5   9  12    0.11    0.15
  -7  10  12    3.35    0.42
  -6  10  12    0.45    0.20
  -5  10  12    0.20    0.18
  -4  10  12    1.42    0.29
  -3  10  12    0.26    0.19
  -2  10  12    0.14    0.16
  -1  10  12    0.17    0.18
   0  10  12    0.28    0.26
   1  10  12    0.10    0.21
   2  10  12    3.16    0.27
   3  10  12    0.37    0.20
  -3  11  12    0.01    0.43
  -2  11  12    0.01    0.45
  -1  11  12    0.00    0.43
 -14   0  13    0.37    0.24
 -13   0  13    0.75    0.24
 -12   0  13    1.28    0.26
 -11   0  13    0.50    0.22
 -10   0  13    3.74    0.34
  -9   0  13   21.88    0.65
  -8   0  13    2.08    0.31
  -7   0  13    4.57    0.35
  -6   0  13    4.86    0.36
  -5   0  13   13.39    0.40
  -4   0  13    3.93    0.32
  -3   0  13   33.24    0.83
  -2   0  13    0.57    0.16
  -1   0  13   44.69    0.91
   0   0  13    2.34    0.33
   1   0  13    3.81    0.37
   2   0  13    3.51    0.33
   3   0  13    0.00    0.26
   4   0  13    2.38    0.34
   5   0  13    5.87    0.49
   6   0  13    0.23    0.20
   7   0  13    0.31    0.22
   8   0  13    1.68    0.32
   9   0  13    0.09    0.20
 -14   1  13    0.77    0.19
 -13   1  13    0.98    0.20
 -12   1  13    0.16    0.14
 -11   1  13   10.58    0.38
 -10   1  13    2.75    0.23
  -9   1  13    1.75    0.19
  -8   1  13    7.43    0.34
  -7   1  13    1.83    0.19
  -6   1  13    0.15    0.10
  -5   1  13   13.77    0.30
  -4   1  13    0.03    0.08
  -3   1  13    1.79    0.17
  -2   1  13    5.82    0.27
  -1   1  13    2.19    0.17
   0   1  13    0.89    0.16
   1   1  13   17.93    0.49
   2   1  13    1.73    0.21
   3   1  13    3.81    0.26
   4   1  13    2.08    0.23
   5   1  13    2.16    0.23
   6   1  13    3.02    0.29
   7   1  13    0.23    0.15
   8   1  13    0.15    0.15
   9   1  13    3.51    0.32
 -14   2  13    0.23    0.16
 -13   2  13    0.16    0.14
 -12   2  13    0.52    0.15
 -11   2  13    0.22    0.15
 -10   2  13    1.05    0.21
  -9   2  13    6.68    0.30
  -8   2  13    1.43    0.21
  -7   2  13    0.39    0.16
  -6   2  13    5.35    0.29
  -5   2  13    0.05    0.09
  -4   2  13    7.92    0.31
  -3   2  13   20.06    0.40
  -2   2  13    0.06    0.09
  -1   2  13   30.28    0.52
   0   2  13    1.33    0.16
   1   2  13    0.76    0.17
   2   2  13    5.32    0.23
   3   2  13    1.19    0.20
   4   2  13    0.64    0.15
   5   2  13    1.18    0.18
   6   2  13    0.01    0.11
   7   2  13    0.10    0.13
   8   2  13    1.60    0.24
   9   2  13    0.25    0.19
 -14   3  13    0.26    0.20
 -13   3  13    1.19    0.18
 -12   3  13    0.41    0.15
 -11   3  13    0.87    0.18
 -10   3  13    5.24    0.29
  -9   3  13    0.18    0.20
  -8   3  13    7.57    0.35
  -7   3  13    2.95    0.27
  -6   3  13    3.48    0.23
  -5   3  13    4.56    0.26
  -4   3  13    0.63    0.12
  -3   3  13   18.39    0.39
  -2   3  13   12.97    0.32
  -1   3  13    7.99    0.29
   0   3  13    0.06    0.10
   1   3  13   14.45    0.36
   2   3  13    1.95    0.17
   3   3  13    2.11    0.19
   4   3  13    6.27    0.31
   5   3  13    0.08    0.12
   6   3  13    6.68    0.35
   7   3  13    0.78    0.19
   8   3  13    0.79    0.19
   9   3  13    0.19    0.16
 -13   4  13    0.44    0.18
 -12   4  13    0.47    0.17
 -11   4  13    0.70    0.21
 -10   4  13    0.14    0.26
  -9   4  13    1.15    0.24
  -8   4  13    1.88    0.24
  -7   4  13    0.17    0.17
  -6   4  13    4.67    0.25
  -5   4  13    7.00    0.31
  -4   4  13   10.92    0.31
  -3   4  13   13.25    0.33
  -2   4  13    0.38    0.11
  -1   4  13   23.20    0.45
   0   4  13    0.34    0.13
   1   4  13    0.18    0.16
   2   4  13    4.96    0.22
   3   4  13    1.40    0.18
   4   4  13    1.27    0.17
   5   4  13    0.08    0.13
   6   4  13    0.08    0.13
   7   4  13    0.12    0.15
   8   4  13    2.14    0.26
 -13   5  13    1.11    0.23
 -12   5  13    0.00    0.16
 -11   5  13    2.34    0.28
 -10   5  13    4.02    0.37
  -9   5  13    0.00    0.22
  -8   5  13    4.19    0.33
  -7   5  13    0.78    0.23
  -6   5  13    1.03    0.16
  -5   5  13    3.09    0.20
  -4   5  13    0.89    0.13
  -3   5  13    9.59    0.33
  -2   5  13    5.99    0.28
  -1   5  13    6.31    0.26
   0   5  13    0.10    0.12
   1   5  13   11.42    0.34
   2   5  13    0.14    0.15
   3   5  13    0.97    0.21
   4   5  13    2.06    0.23
   5   5  13    0.21    0.15
   6   5  13    5.63    0.39
   7   5  13    0.09    0.16
   8   5  13    0.13    0.16
 -12   6  13    0.71    0.20
 -11   6  13    0.74    0.20
 -10   6  13    1.79    0.35
  -9   6  13    5.72    0.33
  -8   6  13    1.21    0.26
  -7   6  13    1.17    0.24
  -6   6  13    2.12    0.19
  -5   6  13    0.90    0.15
  -4   6  13    2.32    0.22
  -3   6  13   12.90    0.38
  -2   6  13    0.05    0.11
  -1   6  13   22.17    0.46
   0   6  13    0.27    0.13
   1   6  13    0.22    0.22
   2   6  13    0.57    0.19
   3   6  13    0.16    0.20
   4   6  13    3.45    0.28
   5   6  13    1.52    0.22
   6   6  13    0.27    0.16
   7   6  13    0.68    0.20
 -11   7  13    5.83    0.46
 -10   7  13    0.81    0.31
  -9   7  13    2.06    0.27
  -8   7  13    3.19    0.24
  -7   7  13    0.48    0.18
  -6   7  13    0.05    0.12
  -5   7  13    4.20    0.28
  -4   7  13    0.21    0.12
  -3   7  13    0.30    0.17
  -2   7  13    1.21    0.22
  -1   7  13    0.96    0.22
   0   7  13    0.13    0.14
   1   7  13    8.72    0.37
   2   7  13    1.70    0.21
   3   7  13    1.31    0.22
   4   7  13    0.32    0.18
   5   7  13    1.47    0.22
   6   7  13    2.10    0.25
 -10   8  13    2.37    0.37
  -9   8  13    5.24    0.41
  -8   8  13    0.74    0.30
  -7   8  13    0.82    0.25
  -6   8  13    2.24    0.30
  -5   8  13    1.09    0.23
  -4   8  13    0.89    0.21
  -3   8  13    6.12    0.43
  -2   8  13    0.06    0.16
  -1   8  13   11.26    0.51
   0   8  13    1.21    0.23
   1   8  13    0.61    0.24
   2   8  13    0.58    0.20
   3   8  13    0.37    0.19
   4   8  13    0.53    0.20
   5   8  13    2.12    0.25
  -8   9  13    5.25    0.43
  -7   9  13    1.41    0.36
  -6   9  13    0.03    0.20
  -5   9  13    1.80    0.29
  -4   9  13    0.04    0.16
  -3   9  13    1.69    0.26
  -2   9  13    3.23    0.31
  -1   9  13    0.68    0.21
   0   9  13    0.10    0.19
   1   9  13    4.35    0.37
   2   9  13    0.03    0.20
   3   9  13    0.77    0.23
  -5  10  13    1.56    0.31
  -4  10  13    1.75    0.32
  -3  10  13    1.63    0.31
  -2  10  13    0.08    0.16
  -1  10  13    4.31    0.37
   0  10  13    0.53    0.19
   1  10  13    0.00    0.45
 -13   0  14    2.61    0.34
 -12   0  14    0.23    0.21
 -11   0  14    0.76    0.27
 -10   0  14    0.42    0.23
  -9   0  14    1.70    0.40
  -8   0  14    0.10    0.23
  -7   0  14    0.14    0.24
  -6   0  14    5.94    0.35
  -5   0  14    2.00    0.27
  -4   0  14    0.73    0.19
  -3   0  14    2.47    0.28
  -2   0  14    3.20    0.27
  -1   0  14    3.68    0.38
   0   0  14   16.92    0.66
   1   0  14    0.29    0.22
   2   0  14    7.50    0.49
   3   0  14    3.32    0.37
   4   0  14    0.56    0.31
   5   0  14    0.20    0.26
   6   0  14    3.16    0.40
   7   0  14    0.21    0.23
   8   0  14    2.99    0.41
 -13   1  14    2.61    0.26
 -12   1  14    0.80    0.19
 -11   1  14    0.24    0.15
 -10   1  14    0.06    0.13
  -9   1  14    0.05    0.27
  -8   1  14    0.04    0.17
  -7   1  14    7.27    0.35
  -6   1  14    1.70    0.18
  -5   1  14    2.71    0.22
  -4   1  14   16.25    0.40
  -3   1  14    0.13    0.10
  -2   1  14   15.93    0.37
  -1   1  14    0.15    0.10
   0   1  14    4.55    0.28
   1   1  14    8.95    0.40
   2   1  14    2.64    0.26
   3   1  14    0.09    0.18
   4   1  14    0.11    0.20
   5   1  14    0.21    0.17
   6   1  14    1.47    0.22
   7   1  14    2.45    0.29
   8   1  14    0.25    0.17
 -13   2  14    0.98    0.21
 -12   2  14    0.23    0.14
 -11   2  14    2.88    0.26
 -10   2  14    0.04    0.13
  -9   2  14    2.64    0.29
  -8   2  14    3.77    0.28
  -7   2  14    0.22    0.18
  -6   2  14    7.87    0.33
  -5   2  14    3.83    0.25
  -4   2  14    1.84    0.18
  -3   2  14    1.36    0.15
  -2   2  14    1.04    0.14
  -1   2  14    0.05    0.10
   0   2  14   16.39    0.43
   1   2  14    1.20    0.18
   2   2  14    2.04    0.24
   3   2  14    2.01    0.22
   4   2  14    0.28    0.19
   5   2  14    4.41    0.30
   6   2  14    0.32    0.17
   7   2  14    0.79    0.19
   8   2  14    4.11    0.33
 -13   3  14    0.64    0.18
 -12   3  14    0.71    0.18
 -11   3  14    0.17    0.13
 -10   3  14    0.06    0.15
  -9   3  14    4.56    0.33
  -8   3  14    5.22    0.31
  -7   3  14    7.25    0.32
  -6   3  14    2.61    0.27
  -5   3  14    2.46    0.22
  -4   3  14    1.13    0.15
  -3   3  14    0.09    0.11
  -2   3  14   15.37    0.37
  -1   3  14    2.45    0.19
   0   3  14    0.04    0.10
   1   3  14    0.08    0.12
   2   3  14    0.63    0.18
   3   3  14    0.57    0.17
   4   3  14    0.28    0.18
   5   3  14    0.02    0.15
   6   3  14    2.24    0.23
   7   3  14    6.13    0.39
   8   3  14    0.92    0.23
 -12   4  14    0.79    0.22
 -11   4  14    3.84    0.34
 -10   4  14    1.14    0.23
  -9   4  14    3.04    0.31
  -8   4  14    8.54    0.38
  -7   4  14    0.22    0.21
  -6   4  14    6.48    0.37
  -5   4  14    2.69    0.20
  -4   4  14    2.22    0.19
  -3   4  14    1.02    0.15
  -2   4  14    0.15    0.10
  -1   4  14    0.39    0.12
   0   4  14   15.34    0.40
   1   4  14    3.43    0.24
   2   4  14    0.42    0.22
   3   4  14    1.62    0.21
   4   4  14    1.00    0.20
   5   4  14    8.60    0.40
   6   4  14    0.07    0.15
   7   4  14    0.43    0.18
 -12   5  14    0.75    0.21
 -11   5  14    0.30    0.18
 -10   5  14    0.03    0.17
  -9   5  14    2.33    0.32
  -8   5  14    1.79    0.27
  -7   5  14    4.57    0.35
  -6   5  14    2.49    0.27
  -5   5  14    1.71    0.17
  -4   5  14    2.13    0.20
  -3   5  14    0.16    0.12
  -2   5  14   13.87    0.35
  -1   5  14    0.33    0.12
   0   5  14    0.05    0.10
   1   5  14    2.54    0.25
   2   5  14    0.65    0.24
   3   5  14    0.62    0.21
   4   5  14    0.06    0.19
   5   5  14    0.04    0.19
   6   5  14    1.04    0.22
   7   5  14    3.20    0.32
 -11   6  14    0.43    0.19
 -10   6  14    0.02    0.15
  -9   6  14    2.56    0.34
  -8   6  14    1.61    0.23
  -7   6  14    0.17    0.18
  -6   6  14    3.39    0.29
  -5   6  14    0.26    0.15
  -4   6  14    0.81    0.17
  -3   6  14    1.31    0.18
  -2   6  14    1.15    0.17
  -1   6  14    2.14    0.21
   0   6  14   10.73    0.47
   1   6  14    0.19    0.17
   2   6  14    2.41    0.29
   3   6  14    1.12    0.23
   4   6  14    0.09    0.20
   5   6  14    1.21    0.28
   6   6  14    0.34    0.20
 -10   7  14    0.16    0.15
  -9   7  14    0.12    0.22
  -8   7  14    0.07    0.21
  -7   7  14    2.07    0.25
  -6   7  14    0.52    0.20
  -5   7  14    1.23    0.21
  -4   7  14    7.42    0.49
  -3   7  14    0.09    0.16
  -2   7  14    7.81    0.49
  -1   7  14    0.10    0.14
   0   7  14    1.29    0.21
   1   7  14    8.12    0.39
   2   7  14    2.19    0.28
   3   7  14    0.05    0.19
   4   7  14    0.31    0.20
   5   7  14    0.32    0.20
  -8   8  14    1.40    0.38
  -7   8  14    0.12    0.21
  -6   8  14    2.50    0.32
  -5   8  14    0.99    0.25
  -4   8  14    0.24    0.18
  -3   8  14    0.36    0.20
  -2   8  14    0.42    0.20
  -1   8  14    1.66    0.27
   0   8  14    4.45    0.40
   1   8  14    0.06    0.15
   2   8  14    1.48    0.27
   3   8  14    0.76    0.22
  -6   9  14    0.06    0.29
  -5   9  14    0.52    0.25
  -4   9  14    1.47    0.26
  -3   9  14    0.43    0.20
  -2   9  14    2.14    0.30
  -1   9  14    0.45    0.22
   0   9  14    0.54    0.21
   1   9  14    1.13    0.23
 -13   0  15    0.31    0.44
 -12   0  15    2.00    0.39
 -11   0  15    0.17    0.23
 -10   0  15    0.23    0.23
  -9   0  15    0.00    0.17
  -8   0  15    1.12    0.29
  -7   0  15    0.00    0.23
  -6   0  15    1.45    0.27
  -5   0  15    0.93    0.29
  -4   0  15    0.28    0.21
  -3   0  15    8.72    0.51
  -2   0  15    0.35    0.17
  -1   0  15    0.15    0.18
   0   0  15    2.06    0.32
   1   0  15    0.11    0.18
   2   0  15    1.57    0.35
   3   0  15    3.40    0.44
   4   0  15    0.28    0.31
   5   0  15    0.03    0.31
   6   0  15    5.39    0.51
   7   0  15    0.00    0.20
 -12   1  15    2.29    0.30
 -11   1  15    0.49    0.19
 -10   1  15    2.80    0.27
  -9   1  15    0.12    0.15
  -8   1  15    0.13    0.21
  -7   1  15    0.12    0.17
  -6   1  15    0.10    0.17
  -5   1  15    1.69    0.28
  -4   1  15    0.34    0.12
  -3   1  15    0.49    0.11
  -2   1  15    1.68    0.17
  -1   1  15    3.71    0.28
   0   1  15    0.01    0.11
   1   1  15    0.51    0.15
   2   1  15    0.03    0.14
   3   1  15    0.15    0.23
   4   1  15    7.45    0.36
   5   1  15    1.92    0.27
   6   1  15    1.19    0.23
   7   1  15    1.00    0.23
 -12   2  15    1.39    0.25
 -11   2  15    0.33    0.17
 -10   2  15    1.19    0.21
  -9   2  15    0.15    0.15
  -8   2  15    0.82    0.23
  -7   2  15    0.54    0.20
  -6   2  15    0.46    0.22
  -5   2  15    0.19    0.19
  -4   2  15    1.89    0.19
  -3   2  15    8.08    0.33
  -2   2  15    2.86    0.21
  -1   2  15    0.28    0.12
   0   2  15    0.77    0.16
   1   2  15    0.40    0.15
   2   2  15    0.21    0.17
   3   2  15    0.11    0.23
   4   2  15    0.11    0.19
   5   2  15    0.22    0.21
   6   2  15    6.58    0.41
   7   2  15    0.15    0.15
 -12   3  15    0.44    0.18
 -11   3  15    1.37    0.23
 -10   3  15    4.63    0.33
  -9   3  15    0.20    0.15
  -8   3  15    0.38    0.24
  -7   3  15    0.61    0.20
  -6   3  15    1.59    0.25
  -5   3  15    5.26    0.35
  -4   3  15    6.93    0.33
  -3   3  15    0.42    0.14
  -2   3  15    3.51    0.25
  -1   3  15    5.64    0.32
   0   3  15    0.05    0.11
   1   3  15    0.10    0.13
   2   3  15    3.23    0.28
   3   3  15    0.21    0.24
   4   3  15    8.10    0.37
   5   3  15    0.28    0.22
   6   3  15    1.29    0.26
 -11   4  15    0.24    0.18
 -10   4  15    1.31    0.20
  -9   4  15    0.21    0.15
  -8   4  15    1.29    0.26
  -7   4  15    0.68    0.21
  -6   4  15    0.24    0.19
  -5   4  15    0.13    0.21
  -4   4  15    3.77    0.26
  -3   4  15    6.67    0.34
  -2   4  15    9.40    0.36
  -1   4  15    0.56    0.14
   0   4  15    0.20    0.13
   1   4  15    0.66    0.15
   2   4  15    0.19    0.16
   3   4  15    0.78    0.25
   4   4  15    0.29    0.27
   5   4  15    0.05    0.22
   6   4  15    5.75    0.40
 -11   5  15    0.73    0.19
 -10   5  15    3.28    0.29
  -9   5  15    0.26    0.15
  -8   5  15    0.28    0.27
  -7   5  15    1.11    0.22
  -6   5  15    0.32    0.19
  -5   5  15    1.79    0.23
  -4   5  15    1.92    0.21
  -3   5  15    0.10    0.11
  -2   5  15    2.23    0.23
  -1   5  15    4.48    0.29
   0   5  15    0.34    0.14
   1   5  15    0.11    0.12
   2   5  15    0.86    0.24
   3   5  15    0.39    0.29
   4   5  15    6.07    0.40
   5   5  15    0.32    0.25
 -10   6  15    0.23    0.16
  -9   6  15    0.30    0.17
  -8   6  15    0.79    0.24
  -7   6  15    0.00    0.20
  -6   6  15    0.05    0.22
  -5   6  15    1.01    0.26
  -4   6  15    1.29    0.20
  -3   6  15    4.56    0.30
  -2   6  15    0.36    0.15
  -1   6  15    0.04    0.16
   0   6  15    0.14    0.14
   1   6  15    0.02    0.14
   2   6  15    2.29    0.32
   3   6  15    0.00    0.27
   4   6  15    0.16    0.26
  -8   7  15    0.57    0.27
  -7   7  15    0.00    0.23
  -6   7  15    0.00    0.19
  -5   7  15    0.22    0.20
  -4   7  15    0.18    0.20
  -3   7  15    0.21    0.20
  -2   7  15    0.49    0.22
  -1   7  15    1.77    0.25
   0   7  15    0.24    0.18
   1   7  15    0.20    0.16
   2   7  15    0.08    0.18
   3   7  15    0.64    0.21
  -6   8  15    0.79    0.27
  -5   8  15    0.68    0.28
  -4   8  15    0.11    0.24
  -3   8  15    3.20    0.35
  -2   8  15    0.12    0.19
  -1   8  15    0.23    0.20
   0   8  15    0.16    0.20
   1   8  15    0.08    0.17
 -12   0  16    2.35    0.66
 -11   0  16    6.55    0.69
 -10   0  16    1.02    0.34
  -9   0  16    0.16    0.25
  -8   0  16    0.38    0.29
  -7   0  16    0.11    0.31
  -6   0  16    0.17    0.29
  -5   0  16    4.51    0.50
  -4   0  16    0.27    0.39
  -3   0  16    8.59    0.53
  -2   0  16    6.67    0.53
  -1   0  16    0.00    0.18
   0   0  16    1.70    0.31
   1   0  16    5.01    0.48
   2   0  16    4.93    0.48
   3   0  16    1.90    0.34
   4   0  16    0.14    0.36
   5   0  16    2.72    0.42
   6   0  16    3.50    0.47
 -11   1  16    0.46    0.20
 -10   1  16    0.90    0.22
  -9   1  16    3.63    0.28
  -8   1  16    0.72    0.18
  -7   1  16    2.32    0.29
  -6   1  16    1.33    0.25
  -5   1  16    0.14    0.21
  -4   1  16    3.27    0.28
  -3   1  16    0.14    0.11
  -2   1  16    0.35    0.14
  -1   1  16   17.85    0.52
   0   1  16    4.80    0.33
   1   1  16    0.32    0.16
   2   1  16    1.73    0.23
   3   1  16    0.18    0.16
   4   1  16    2.58    0.31
   5   1  16    5.98    0.36
   6   1  16    0.33    0.25
 -11   2  16    5.86    0.40
 -10   2  16    1.01    0.19
  -9   2  16    0.20    0.15
  -8   2  16    7.47    0.37
  -7   2  16    2.59    0.30
  -6   2  16    0.81    0.23
  -5   2  16    0.62    0.21
  -4   2  16    0.11    0.19
  -3   2  16    1.58    0.19
  -2   2  16    3.41    0.23
  -1   2  16    0.18    0.13
   0   2  16    0.72    0.17
   1   2  16    3.88    0.30
   2   2  16    0.25    0.15
   3   2  16    5.63    0.37
   4   2  16    0.43    0.27
   5   2  16    1.89    0.30
 -11   3  16    0.17    0.17
 -10   3  16    3.09    0.27
  -9   3  16    8.68    0.41
  -8   3  16    0.53    0.19
  -7   3  16    0.61    0.25
  -6   3  16    4.26    0.32
  -5   3  16    0.71    0.22
  -4   3  16    2.42    0.28
  -3   3  16    0.13    0.12
  -2   3  16    0.56    0.15
  -1   3  16    1.04    0.19
   0   3  16    0.94    0.19
   1   3  16    1.05    0.21
   2   3  16    0.50    0.16
   3   3  16    0.25    0.18
   4   3  16    1.03    0.28
   5   3  16    5.34    0.42
 -10   4  16    0.34    0.16
  -9   4  16    0.28    0.15
  -8   4  16   11.43    0.49
  -7   4  16    6.90    0.36
  -6   4  16    0.84    0.22
  -5   4  16    0.00    0.19
  -4   4  16    0.03    0.17
  -3   4  16    0.09    0.12
  -2   4  16    1.60    0.20
  -1   4  16    0.18    0.13
   0   4  16    0.78    0.18
   1   4  16    2.92    0.27
   2   4  16    0.06    0.15
   3   4  16    6.32    0.57
   4   4  16    0.56    0.37
  -9   5  16    4.70    0.38
  -8   5  16    0.37    0.17
  -7   5  16    0.95    0.24
  -6   5  16    3.64    0.30
  -5   5  16    0.52    0.23
  -4   5  16    1.38    0.26
  -3   5  16    0.10    0.15
  -2   5  16    0.59    0.18
  -1   5  16    3.47    0.31
   0   5  16    1.15    0.18
   1   5  16    1.35    0.23
   2   5  16    0.70    0.19
   3   5  16    0.20    0.21
   4   5  16    1.25    0.40
  -8   6  16    1.82    0.30
  -7   6  16    0.37    0.28
  -6   6  16    0.60    0.26
  -5   6  16    1.53    0.28
  -4   6  16    0.13    0.20
  -3   6  16    1.22    0.22
  -2   6  16    2.90    0.28
  -1   6  16    0.12    0.17
   0   6  16    1.45    0.26
   1   6  16    3.84    0.32
   2   6  16    1.21    0.22
  -6   7  16    0.97    0.33
  -5   7  16    0.56    0.28
  -4   7  16    1.76    0.38
  -3   7  16    0.18    0.22
  -2   7  16    0.51    0.21
  -1   7  16   10.77    0.55
   0   7  16    2.36    0.30
 -10   0  17    7.77    0.76
  -9   0  17    0.37    0.29
  -8   0  17    0.25    0.25
  -7   0  17    1.55    0.44
  -6   0  17    1.62    0.44
  -5   0  17    1.81    0.41
  -4   0  17    5.62    0.44
  -3   0  17    0.07    0.25
  -2   0  17    6.12    0.52
  -1   0  17    0.10    0.20
   0   0  17    2.58    0.38
   1   0  17    1.39    0.32
   2   0  17    1.15    0.31
   3   0  17    0.83    0.28
   4   0  17    0.76    0.29
 -10   1  17    0.18    0.18
  -9   1  17    2.87    0.29
  -8   1  17    0.27    0.17
  -7   1  17    0.07    0.19
  -6   1  17    2.07    0.36
  -5   1  17    0.42    0.24
  -4   1  17    0.47    0.20
  -3   1  17    2.52    0.27
  -2   1  17    0.02    0.14
  -1   1  17    0.60    0.17
   0   1  17    1.55    0.23
   1   1  17    0.27    0.16
   2   1  17    2.32    0.26
   3   1  17    0.09    0.15
   4   1  17    2.98    0.30
 -10   2  17    4.08    0.31
  -9   2  17    0.20    0.15
  -8   2  17    0.33    0.17
  -7   2  17    2.26    0.26
  -6   2  17    0.63    0.24
  -5   2  17    2.45    0.26
  -4   2  17    1.02    0.23
  -3   2  17    0.52    0.24
  -2   2  17    3.46    0.33
  -1   2  17    0.06    0.13
   0   2  17    1.13    0.20
   1   2  17    0.79    0.19
   2   2  17    0.09    0.14
   3   2  17    0.10    0.16
   4   2  17    1.98    0.27
  -9   3  17    1.58    0.24
  -8   3  17    0.01    0.15
  -7   3  17    1.09    0.21
  -6   3  17    0.22    0.23
  -5   3  17    0.90    0.23
  -4   3  17    0.72    0.22
  -3   3  17    0.92    0.25
  -2   3  17    0.07    0.14
  -1   3  17    0.07    0.16
   0   3  17    1.83    0.25
   1   3  17    0.04    0.15
   2   3  17    4.32    0.39
   3   3  17    1.91    0.29
  -9   4  17    0.26    0.26
  -8   4  17    0.51    0.16
  -7   4  17    2.48    0.25
  -6   4  17    0.33    0.25
  -5   4  17    3.85    0.31
  -4   4  17    0.18    0.21
  -3   4  17    0.32    0.20
  -2   4  17    1.52    0.22
  -1   4  17    0.06    0.14
   0   4  17    0.37    0.17
   1   4  17    0.58    0.19
   2   4  17    0.14    0.16
  -7   5  17    0.34    0.17
  -6   5  17    0.33    0.26
  -5   5  17    0.57    0.25
  -4   5  17    0.77    0.25
  -3   5  17    1.54    0.28
  -2   5  17    0.07    0.16
  -1   5  17    0.27    0.17
   0   5  17    1.13    0.22
   1   5  17    0.40    0.21
  -5   6  17    2.30    0.32
  -4   6  17    2.39    0.28
  -3   6  17    0.52    0.29
  -2   6  17    2.09    0.33
  -1   6  17    0.09    0.20
  -8   0  18    0.09    0.26
  -7   0  18    0.59    0.33
  -6   0  18    0.96    0.37
  -5   0  18    0.14    0.32
  -4   0  18    1.18    0.33
  -3   0  18    0.44    0.31
  -2   0  18    4.05    0.47
  -1   0  18    6.87    0.57
   0   0  18    0.57    0.25
   1   0  18    3.62    0.45
   2   0  18    0.08    0.24
  -8   1  18    3.63    0.39
  -7   1  18    0.09    0.17
  -6   1  18    1.22    0.23
  -5   1  18    0.14    0.24
  -4   1  18    0.55    0.23
  -3   1  18    7.06    0.39
  -2   1  18    0.99    0.26
  -1   1  18    3.35    0.30
   0   1  18    1.14    0.22
   1   1  18    0.21    0.17
   2   1  18    0.08    0.15
  -8   2  18    0.25    0.17
  -7   2  18    0.52    0.17
  -6   2  18    0.34    0.19
  -5   2  18    0.86    0.27
  -4   2  18    1.99    0.28
  -3   2  18    0.28    0.23
  -2   2  18    0.63    0.25
  -1   2  18    3.34    0.33
   0   2  18    0.65    0.20
   1   2  18    2.40    0.27
  -7   3  18    1.17    0.20
  -6   3  18    3.66    0.30
  -5   3  18    0.21    0.24
  -4   3  18    0.10    0.21
  -3   3  18    2.30    0.29
  -2   3  18    0.21    0.23
  -1   3  18    1.20    0.23
   0   3  18    0.24    0.18
   1   3  18    0.00    0.21
  -6   4  18    0.23    0.23
  -5   4  18    1.12    0.27
  -4   4  18    2.93    0.29
  -3   4  18    0.26    0.22
  -2   4  18    0.15    0.23
  -1   4  18    1.68    0.29
  -5   0  19    0.53    0.41
  -4   0  19    1.90    0.36
  -3   0  19    0.08    0.24
  -2   0  19    1.28    0.63
  -4   1  19    0.20    0.26
  -3   1  19    0.11    0.24
   0   0   0    0.00    0.00
;
_shelx_hkl_checksum              28132
_shelx_res_file
;
    b16076.res created by SHELXL-2014/7
TITL b16076_hklf4_a.res in P2(1)/m
CELL  0.71073   10.21571    8.50667   11.44535   90.0000  101.8074   90.0000
ZERR    4.000    0.00263    0.00209    0.00351    0.0000    0.0167    0.0000
LATT  1
SYMM -X, 1/2+Y, -Z
SFAC   C  H  N   O   F  S
UNIT  20 48  4  12  12  4
TEMP -163.140
SIZE 0.065 0.155 0.215
OMIT      0   0   1
OMIT      1   0   0
OMIT      1   0   1
OMIT      0   1   1
OMIT      1   1   0
OMIT      0   0   2
OMIT     -2   0   1
OMIT      0   1   2
L.S. 12 4
BOND $H
FMAP 2
CONF
ACTA
PLAN 20
REM Instructions for potential hydrogen bonds
EQIV $1 -x+1, y-1/2, -z+1
HTAB C1 O4_$1
EQIV $2 x-1, y, z
HTAB C1 O3_$2
HTAB C3 O4_$1
EQIV $3 -x+1, -y+2, -z+1
HTAB C3 O4_$3
HTAB C5 O2_$1
HTAB C5 O2_$3
EQIV $4 x-1, -y+3/2, z
HTAB C6 O4_$4
HTAB C6 O2_$1
WGHT    0.051900    0.145200
FVAR       0.19740
MOLE 1
N1    3   -0.160401    0.750000    0.592843    10.50000    0.01330    0.01326 =
         0.01594    0.00000    0.00218    0.00000
C1    1   -0.223042    0.605930    0.530074    11.00000    0.02342    0.01614 =
         0.02100   -0.00284    0.00226   -0.00355
AFIX 137
H1A   2   -0.318953    0.605315    0.530152    11.00000   -1.50000
H1B   2   -0.181136    0.512153    0.571389    11.00000   -1.50000
H1C   2   -0.210059    0.605975    0.447576    11.00000   -1.50000
AFIX   0
C2    1   -0.013699    0.750000    0.593375    10.50000    0.01324    0.02747 =
         0.02732    0.00000    0.00542    0.00000
AFIX 137
H2A   2    0.029340    0.662703    0.642561    10.50000   -1.50000
H2B   2    0.025696    0.849616    0.626360    10.50000   -1.50000
H2C   2   -0.000123    0.737681    0.511551    10.50000   -1.50000
AFIX   0
C3    1   -0.179837    0.750000    0.719061    10.50000    0.02369    0.02121 =
         0.01687    0.00000    0.00447    0.00000
AFIX 137
H3A   2   -0.131155    0.661337    0.762303    10.50000   -1.50000
H3B   2   -0.275305    0.739998    0.719495    10.50000   -1.50000
H3C   2   -0.145768    0.848665    0.757964    10.50000   -1.50000
AFIX   0
MOLE 2
C4    1    0.355493    0.750000    0.790472    10.50000    0.02879    0.02555 =
         0.01673    0.00000    0.00750    0.00000
F1    5    0.466631    0.750000    0.876535    10.50000    0.04349    0.05917 =
         0.01385    0.00000   -0.00172    0.00000
F2    5    0.284774    0.623877    0.807076    11.00000    0.05026    0.03661 =
         0.03302    0.00639    0.02189   -0.01122
S1    6    0.397424    0.750000    0.642680    10.50000    0.01419    0.01330 =
         0.01369    0.00000    0.00323    0.00000
O1    4    0.269212    0.750000    0.562756    10.50000    0.01563    0.02729 =
         0.01829    0.00000    0.00003    0.00000
O2    4    0.474422    0.892721    0.643450    11.00000    0.02493    0.02075 =
         0.02633   -0.00092    0.00633   -0.00818
MOLE 3
N2    3    0.400955    0.750000    0.202710    10.50000    0.01378    0.01432 =
         0.01469    0.00000    0.00231    0.00000
C5    1    0.379189    0.750000    0.328303    10.50000    0.02203    0.01908 =
         0.01425    0.00000    0.00468    0.00000
AFIX 137
H5A   2    0.410366    0.650121    0.366842    10.50000   -1.50000
H5B   2    0.283680    0.762980    0.327460    10.50000   -1.50000
H5C   2    0.429289    0.836900    0.372724    10.50000   -1.50000
AFIX   0
C6    1    0.338026    0.606476    0.139563    11.00000    0.02245    0.01599 =
         0.01888   -0.00316    0.00246   -0.00235
AFIX 137
H6A   2    0.241918    0.606750    0.138771    11.00000   -1.50000
H6B   2    0.378945    0.512410    0.181177    11.00000   -1.50000
H6C   2    0.351975    0.606207    0.057359    11.00000   -1.50000
AFIX   0
C7    1    0.547848    0.750000    0.204741    10.50000    0.01369    0.02420 =
         0.02584    0.00000    0.00543    0.00000
AFIX 137
H7A   2    0.588532    0.655387    0.245684    10.50000   -1.50000
H7B   2    0.588843    0.843504    0.247143    10.50000   -1.50000
H7C   2    0.562395    0.751109    0.122726    10.50000   -1.50000
AFIX   0
MOLE 4
S2    6    0.963584    0.750000    0.222875    10.50000    0.01404    0.01859 =
         0.01491    0.00000    0.00181    0.00000
O3    4    0.845414    0.750000    0.271650    10.50000    0.02157    0.06400 =
         0.02761    0.00000    0.01071    0.00000
O4    4    1.041838    0.891193    0.241637    11.00000    0.03820    0.03243 =
         0.03685   -0.00900    0.00189   -0.01627
C8    1    0.898950    0.750000    0.062440    10.50000    0.02675    0.03494 =
         0.01795    0.00000   -0.00273    0.00000
F3    5    0.997377    0.750000    0.002785    10.50000    0.05153    0.10442 =
         0.02049    0.00000    0.01385    0.00000
F4    5    0.823650    0.625404    0.028237    11.00000    0.07552    0.06813 =
         0.04118   -0.02024   -0.01156   -0.03308
MOLE 0
HKLF 4
REM  b16076_hklf4_a.res in P2(1)/m
REM R1 =  0.0395 for    3766 Fo > 4sig(Fo)  and  0.0581 for all    4962 data
REM    145 parameters refined using      0 restraints
END
WGHT      0.0519      0.1452
REM Highest difference peak  0.424,  deepest hole -0.539,  1-sigma level  0.071
Q1    1   0.9106  0.7500  0.1382  10.50000  0.05    0.42
Q2    1   0.3412  0.7500  0.5891  10.50000  0.05    0.42
Q3    1   0.3610  0.7500  0.7217  10.50000  0.05    0.36
Q4    1   1.0166  0.7500 -0.0174  10.50000  0.05    0.36
Q5    1   0.9771  0.8280  0.0184  11.00000  0.05    0.36
Q6    1   0.3820  0.7500  0.2524  10.50000  0.05    0.32
Q7    1  -0.1848  0.8204  0.5682  11.00000  0.05    0.31
Q8    1   1.0202  0.8223  0.2586  11.00000  0.05    0.30
Q9    1   0.9796  0.9176  0.2345  11.00000  0.05    0.30
Q10   1   0.9840  0.8934  0.2579  11.00000  0.05    0.29
Q11   1   0.3610  0.8047  0.1789  11.00000  0.05    0.28
Q12   1   0.4292  0.8295  0.6434  11.00000  0.05    0.27
Q13   1   0.4638  0.7500  0.2158  10.50000  0.05    0.27
Q14   1   0.2358  0.7500  0.5020  10.50000  0.05    0.27
Q15   1   0.8762  0.5746  0.0548  11.00000  0.05    0.27
Q16   1   0.2446  0.5860  0.7655  11.00000  0.05    0.26
Q17   1   0.1220  0.7500  0.1458  10.50000  0.05    0.24
Q18   1   0.5156  0.7500  0.8780  10.50000  0.05    0.24
Q19   1   0.5084  0.8880  0.6933  11.00000  0.05    0.24
Q20   1  -0.0944  0.7500  0.5954  10.50000  0.05    0.24
;
_shelx_res_checksum              34287
loop_
_space_group_symop_operation_xyz
'x, y, z'
'-x, y+1/2, -z'
'-x, -y, -z'
'x, -y-1/2, z'
loop_
_atom_site_type_symbol
_atom_site_label
_atom_site_fract_x
_atom_site_fract_y
_atom_site_fract_z
_atom_site_U_iso_or_equiv
_atom_site_adp_type
_atom_site_calc_flag
_atom_site_occupancy
N N1 -0.16040(11) 0.7500 0.59284(10) 0.01428(19) Uani d 1
C C1 -0.22304(11) 0.60593(11) 0.53007(10) 0.02051(19) Uani d 1
H H1A -0.3190 0.6053 0.5302 0.031 Uiso calc 1
H H1B -0.1811 0.5122 0.5714 0.031 Uiso calc 1
H H1C -0.2101 0.6060 0.4476 0.031 Uiso calc 1
C C2 -0.01370(14) 0.7500 0.59337(15) 0.0225(3) Uani d 1
H H2A 0.0293 0.6627 0.6426 0.034 Uiso calc 0.5
H H2B 0.0257 0.8496 0.6264 0.034 Uiso calc 0.5
H H2C -0.0001 0.7377 0.5116 0.034 Uiso calc 0.5
C C3 -0.17984(16) 0.7500 0.71906(13) 0.0205(3) Uani d 1
H H3A -0.1312 0.6613 0.7623 0.031 Uiso calc 0.5
H H3B -0.2753 0.7400 0.7195 0.031 Uiso calc 0.5
H H3C -0.1458 0.8487 0.7580 0.031 Uiso calc 0.5
C C4 0.35549(17) 0.7500 0.79047(14) 0.0233(3) Uani d 1
F F1 0.46663(13) 0.7500 0.87653(9) 0.0399(3) Uani d 1
F F2 0.28477(9) 0.62388(10) 0.80708(7) 0.0381(2) Uani d 1
S S1 0.39742(3) 0.7500 0.64268(3) 0.01368(7) Uani d 1
O O1 0.26921(11) 0.7500 0.56276(10) 0.0209(2) Uani d 1
O O2 0.47442(8) 0.89272(9) 0.64345(8) 0.02385(16) Uani d 1
N N2 0.40095(11) 0.7500 0.20271(10) 0.01435(19) Uani d 1
C C5 0.37919(15) 0.7500 0.32830(12) 0.0183(2) Uani d 1
H H5A 0.4104 0.6501 0.3668 0.027 Uiso calc 0.5
H H5B 0.2837 0.7630 0.3275 0.027 Uiso calc 0.5
H H5C 0.4293 0.8369 0.3727 0.027 Uiso calc 0.5
C C6 0.33803(11) 0.60648(11) 0.13956(9) 0.01936(18) Uani d 1
H H6A 0.2419 0.6067 0.1388 0.029 Uiso calc 1
H H6B 0.3789 0.5124 0.1812 0.029 Uiso calc 1
H H6C 0.3520 0.6062 0.0574 0.029 Uiso calc 1
C C7 0.54785(14) 0.7500 0.20474(15) 0.0210(3) Uani d 1
H H7A 0.5885 0.6554 0.2457 0.032 Uiso calc 0.5
H H7B 0.5888 0.8435 0.2471 0.032 Uiso calc 0.5
H H7C 0.5624 0.7511 0.1227 0.032 Uiso calc 0.5
S S2 0.96358(3) 0.7500 0.22288(3) 0.01601(7) Uani d 1
O O3 0.84541(13) 0.7500 0.27165(12) 0.0369(3) Uani d 1
O O4 1.04184(10) 0.89119(11) 0.24164(9) 0.0366(2) Uani d 1
C C8 0.89895(18) 0.7500 0.06244(15) 0.0276(3) Uani d 1
F F3 0.99738(16) 0.7500 0.00278(12) 0.0579(4) Uani d 1
F F4 0.82365(12) 0.62540(14) 0.02824(9) 0.0650(3) Uani d 1
loop_
_atom_site_aniso_label
_atom_site_aniso_U_11
_atom_site_aniso_U_22
_atom_site_aniso_U_33
_atom_site_aniso_U_12
_atom_site_aniso_U_13
_atom_site_aniso_U_23
N1 0.0133(4) 0.0133(4) 0.0159(5) 0.000 0.0022(4) 0.000
C1 0.0234(5) 0.0161(4) 0.0210(5) -0.0036(3) 0.0023(4) -0.0028(3)
C2 0.0132(6) 0.0275(7) 0.0273(7) 0.000 0.0054(5) 0.000
C3 0.0237(7) 0.0212(6) 0.0169(6) 0.000 0.0045(5) 0.000
C4 0.0288(7) 0.0256(7) 0.0167(6) 0.000 0.0075(5) 0.000
F1 0.0435(7) 0.0592(8) 0.0139(5) 0.000 -0.0017(4) 0.000
F2 0.0503(5) 0.0366(4) 0.0330(4) -0.0112(4) 0.0219(4) 0.0064(3)
S1 0.01419(13) 0.01330(13) 0.01369(14) 0.000 0.00323(10) 0.000
O1 0.0156(4) 0.0273(5) 0.0183(5) 0.000 0.0000(4) 0.000
O2 0.0249(4) 0.0208(3) 0.0263(4) -0.0082(3) 0.0063(3) -0.0009(3)
N2 0.0138(5) 0.0143(4) 0.0147(5) 0.000 0.0023(4) 0.000
C5 0.0220(6) 0.0191(6) 0.0142(6) 0.000 0.0047(5) 0.000
C6 0.0224(4) 0.0160(4) 0.0189(4) -0.0023(3) 0.0025(3) -0.0032(3)
C7 0.0137(5) 0.0242(6) 0.0258(7) 0.000 0.0054(5) 0.000
S2 0.01404(14) 0.01859(15) 0.01491(15) 0.000 0.00181(11) 0.000
O3 0.0216(6) 0.0640(9) 0.0276(6) 0.000 0.0107(5) 0.000
O4 0.0382(5) 0.0324(5) 0.0368(5) -0.0163(4) 0.0019(4) -0.0090(4)
C8 0.0267(8) 0.0349(8) 0.0180(7) 0.000 -0.0027(6) 0.000
F3 0.0515(8) 0.1044(12) 0.0205(5) 0.000 0.0138(5) 0.000
F4 0.0755(8) 0.0681(7) 0.0412(6) -0.0331(6) -0.0116(5) -0.0202(5)
loop_
_atom_type_symbol
_atom_type_description
_atom_type_scat_dispersion_real
_atom_type_scat_dispersion_imag
_atom_type_scat_source
C C 0.0033 0.0016 'International Tables Vol C Tables 4.2.6.8 and 6.1.1.4'
H H 0.0000 0.0000 'International Tables Vol C Tables 4.2.6.8 and 6.1.1.4'
N N 0.0061 0.0033 'International Tables Vol C Tables 4.2.6.8 and 6.1.1.4'
O O 0.0106 0.0060 'International Tables Vol C Tables 4.2.6.8 and 6.1.1.4'
F F 0.0171 0.0103 'International Tables Vol C Tables 4.2.6.8 and 6.1.1.4'
S S 0.1246 0.1234 'International Tables Vol C Tables 4.2.6.8 and 6.1.1.4'
loop_
_geom_angle_atom_site_label_1
_geom_angle_atom_site_label_2
_geom_angle_atom_site_label_3
_geom_angle_site_symmetry_1
_geom_angle_site_symmetry_3
_geom_angle
C1 N1 C1 . 4_575 109.96(11)
C1 N1 C2 . . 109.34(7)
C1 N1 C2 4_575 . 109.35(7)
C1 N1 C3 . . 109.57(7)
C1 N1 C3 4_575 . 109.57(7)
C2 N1 C3 . . 109.03(12)
N1 C1 H1A . . 109.5
N1 C1 H1B . . 109.5
H1A C1 H1B . . 109.5
N1 C1 H1C . . 109.5
H1A C1 H1C . . 109.5
H1B C1 H1C . . 109.5
N1 C2 H2A . . 109.5
N1 C2 H2B . . 109.5
H2A C2 H2B . . 109.5
N1 C2 H2C . . 109.5
H2A C2 H2C . . 109.5
H2B C2 H2C . . 109.5
N1 C3 H3A . . 109.5
N1 C3 H3B . . 109.5
H3A C3 H3B . . 109.5
N1 C3 H3C . . 109.5
H3A C3 H3C . . 109.5
H3B C3 H3C . . 109.5
F2 C4 F2 4_575 . 107.70(14)
F2 C4 F1 4_575 . 107.34(9)
F2 C4 F1 . . 107.34(9)
F2 C4 S1 4_575 . 111.69(8)
F2 C4 S1 . . 111.69(8)
F1 C4 S1 . . 110.85(11)
O1 S1 O2 . 4_575 115.35(4)
O1 S1 O2 . . 115.35(4)
O2 S1 O2 4_575 . 114.24(7)
O1 S1 C4 . . 103.51(7)
O2 S1 C4 4_575 . 102.98(5)
O2 S1 C4 . . 102.98(5)
C6 N2 C6 4_575 . 109.47(11)
C6 N2 C7 4_575 . 109.76(7)
C6 N2 C7 . . 109.76(7)
C6 N2 C5 4_575 . 109.27(7)
C6 N2 C5 . . 109.27(7)
C7 N2 C5 . . 109.29(11)
N2 C5 H5A . . 109.5
N2 C5 H5B . . 109.5
H5A C5 H5B . . 109.5
N2 C5 H5C . . 109.5
H5A C5 H5C . . 109.5
H5B C5 H5C . . 109.5
N2 C6 H6A . . 109.5
N2 C6 H6B . . 109.5
H6A C6 H6B . . 109.5
N2 C6 H6C . . 109.5
H6A C6 H6C . . 109.5
H6B C6 H6C . . 109.5
N2 C7 H7A . . 109.5
N2 C7 H7B . . 109.5
H7A C7 H7B . . 109.5
N2 C7 H7C . . 109.5
H7A C7 H7C . . 109.5
H7B C7 H7C . . 109.5
O3 S2 O4 . 4_575 115.51(5)
O3 S2 O4 . . 115.51(5)
O4 S2 O4 4_575 . 113.72(9)
O3 S2 C8 . . 103.47(9)
O4 S2 C8 4_575 . 103.13(5)
O4 S2 C8 . . 103.13(5)
F4 C8 F4 . 4_575 106.70(16)
F4 C8 F3 . . 107.72(11)
F4 C8 F3 4_575 . 107.72(11)
F4 C8 S2 . . 111.60(10)
F4 C8 S2 4_575 . 111.60(10)
F3 C8 S2 . . 111.27(13)
loop_
_geom_bond_atom_site_label_1
_geom_bond_atom_site_label_2
_geom_bond_site_symmetry_2
_geom_bond_distance
N1 C1 . 1.4965(12)
N1 C1 4_575 1.4965(12)
N1 C2 . 1.4974(18)
N1 C3 . 1.4979(19)
C1 H1A . 0.9800
C1 H1B . 0.9800
C1 H1C . 0.9800
C2 H2A . 0.9800
C2 H2B . 0.9800
C2 H2C . 0.9800
C3 H3A . 0.9800
C3 H3B . 0.9800
C3 H3C . 0.9800
C4 F2 4_575 1.3286(12)
C4 F2 . 1.3286(12)
C4 F1 . 1.342(2)
C4 S1 . 1.8279(16)
S1 O1 . 1.4360(12)
S1 O2 4_575 1.4457(8)
S1 O2 . 1.4457(8)
N2 C6 4_575 1.4953(12)
N2 C6 . 1.4954(12)
N2 C7 . 1.4960(18)
N2 C5 . 1.4988(18)
C5 H5A . 0.9800
C5 H5B . 0.9800
C5 H5C . 0.9800
C6 H6A . 0.9800
C6 H6B . 0.9800
C6 H6C . 0.9800
C7 H7A . 0.9800
C7 H7B . 0.9800
C7 H7C . 0.9800
S2 O3 . 1.4299(13)
S2 O4 4_575 1.4344(9)
S2 O4 . 1.4344(9)
S2 C8 . 1.8198(18)
C8 F4 . 1.3210(14)
C8 F4 4_575 1.3210(14)
C8 F3 . 1.326(2)
loop_
_geom_hbond_atom_site_label_D
_geom_hbond_atom_site_label_H
_geom_hbond_atom_site_label_A
_geom_hbond_site_symmetry_A
_geom_hbond_distance_DH
_geom_hbond_distance_HA
_geom_hbond_distance_DA
_geom_hbond_angle_DHA
C1 H1B O4 2_646 0.98 2.53 3.4075(16) 148.5
C1 H1C O3 1_455 0.98 2.52 3.4038(18) 150.2
C3 H3A O4 2_646 0.98 2.48 3.3536(13) 148.8
C3 H3C O4 3_676 0.98 2.45 3.3536(13) 152.4
C5 H5A O2 2_646 0.98 2.50 3.3734(12) 148.3
C5 H5C O2 3_676 0.98 2.52 3.3734(12) 145.0
C6 H6A O4 4_475 0.98 2.56 3.4594(17) 152.7
C6 H6B O2 2_646 0.98 2.47 3.3463(15) 149.4
loop_
_geom_torsion_atom_site_label_1
_geom_torsion_atom_site_label_2
_geom_torsion_atom_site_label_3
_geom_torsion_atom_site_label_4
_geom_torsion_site_symmetry_1
_geom_torsion_site_symmetry_4
_geom_torsion
F2 C4 S1 O1 4_575 . -60.35(10)
F2 C4 S1 O1 . . 60.35(10)
F1 C4 S1 O1 . . 180.0000(10)
F2 C4 S1 O2 4_575 4_575 179.18(9)
F2 C4 S1 O2 . 4_575 -60.13(11)
F1 C4 S1 O2 . 4_575 59.52(4)
F2 C4 S1 O2 4_575 . 60.13(12)
F2 C4 S1 O2 . . -179.18(9)
F1 C4 S1 O2 . . -59.52(4)
O3 S2 C8 F4 . . -59.64(11)
O4 S2 C8 F4 4_575 . 61.06(13)
O4 S2 C8 F4 . . 179.65(11)
O3 S2 C8 F4 . 4_575 59.64(11)
O4 S2 C8 F4 4_575 4_575 -179.65(11)
O4 S2 C8 F4 . 4_575 -61.06(13)
O3 S2 C8 F3 . . 180.0
O4 S2 C8 F3 4_575 . -59.29(5)
O4 S2 C8 F3 . . 59.29(5)

_cod_database_fobs_code 1542877
