#------------------------------------------------------------------------------
#$Date: 2016-03-04 10:30:57 +0200 (Fri, 04 Mar 2016) $
#$Revision: 177333 $
#$URL: svn://www.crystallography.net/cod/cif/1/54/26/1542683.cif $
#------------------------------------------------------------------------------
#
# This file is available in the Crystallography Open Database (COD),
# http://www.crystallography.net/
#
# All data on this site have been placed in the public domain by the
# contributors.
#
data_1542683
loop_
_publ_author_name
'Wang, Shoulei'
'Rodriguez-Escrich, Carles'
'Peric\`as, Miquel A'
_publ_section_title
;
 H-Bond-Directing Organocatalyst for Enantioselective [4 + 2]
 Cycloadditions via Dienamine Catalysis.
;
_journal_issue                   3
_journal_name_full               'Organic letters'
_journal_page_first              556
_journal_page_last               559
_journal_paper_doi               10.1021/acs.orglett.5b03575
_journal_volume                  18
_journal_year                    2016
_chemical_absolute_configuration ad
_chemical_formula_sum            'C36 H36 Br N2 O4.5 S'
_chemical_formula_weight         680.64
_chemical_name_systematic
;
 ?
;
_space_group_IT_number           5
_space_group_name_Hall           'C 2y'
_symmetry_cell_setting           monoclinic
_symmetry_space_group_name_Hall  'C 2y'
_symmetry_space_group_name_H-M   'C 1 2 1'
_atom_sites_solution_hydrogens   geom
_audit_creation_method           SHELXL-2014
_cell_angle_alpha                90
_cell_angle_beta                 90.5644(9)
_cell_angle_gamma                90
_cell_formula_units_Z            4
_cell_length_a                   27.2716(8)
_cell_length_b                   10.7113(3)
_cell_length_c                   11.2422(3)
_cell_measurement_reflns_used    9989
_cell_measurement_temperature    100(2)
_cell_measurement_theta_max      29.97
_cell_measurement_theta_min      2.73
_cell_volume                     3283.85(16)
_computing_cell_refinement       'Bruker APEX2 v2011.4-0'
_computing_data_collection       'Bruker APEX2 v2011.4-0'
_computing_data_reduction        'Bruker SAINT V7.60A'
_computing_molecular_graphics    'Bruker SHELXTL'
_computing_publication_material  'Bruker SHELXTL'
_computing_structure_refinement  'SHELXL-2014 (Sheldrick, 2014)'
_computing_structure_solution    Sir2011
_diffrn_ambient_temperature      100(2)
_diffrn_detector_area_resol_mean 512
_diffrn_detector_type            '4K CCD area detector APEX II'
_diffrn_measured_fraction_theta_full 0.999
_diffrn_measured_fraction_theta_max 0.977
_diffrn_measurement_device_type  'APEX DUO Kappa 4-axis goniometer'
_diffrn_measurement_method
;
 Fullsphere data collection, phi and omega scans
;
_diffrn_measurement_specimen_support 'magnetic support with MicroMount'
_diffrn_radiation_monochromator  'Quazar MX Multilayer Optics'
_diffrn_radiation_type           MoK\a
_diffrn_radiation_wavelength     0.71073
_diffrn_reflns_av_R_equivalents  0.0333
_diffrn_reflns_av_unetI/netI     0.0462
_diffrn_reflns_laue_measured_fraction_full 0.999
_diffrn_reflns_laue_measured_fraction_max 0.977
_diffrn_reflns_limit_h_max       39
_diffrn_reflns_limit_h_min       -39
_diffrn_reflns_limit_k_max       13
_diffrn_reflns_limit_k_min       -15
_diffrn_reflns_limit_l_max       11
_diffrn_reflns_limit_l_min       -16
_diffrn_reflns_number            32138
_diffrn_reflns_point_group_measured_fraction_full 0.989
_diffrn_reflns_point_group_measured_fraction_max 0.919
_diffrn_reflns_theta_full        25.242
_diffrn_reflns_theta_max         31.527
_diffrn_reflns_theta_min         1.493
_diffrn_source                   'Microfocus source E025 IuS'
_diffrn_source_current           0.6
_diffrn_source_power             50
_diffrn_source_size              '0.2 mm x 0.2 mm fine focus'
_diffrn_source_type              'Bruker APEX DUO'
_exptl_absorpt_coefficient_mu    1.359
_exptl_absorpt_correction_T_max  0.822
_exptl_absorpt_correction_T_min  0.529
_exptl_absorpt_correction_type   empirical
_exptl_absorpt_process_details
; 
 SADABS Version 2008/1 Bruker-Nonius
 Blessing, Acta Cryst. (1995) A51 33-38
;
_exptl_crystal_colour            colourless
_exptl_crystal_density_diffrn    1.377
_exptl_crystal_description       block
_exptl_crystal_F_000             1412
_exptl_crystal_size_max          0.45
_exptl_crystal_size_mid          0.20
_exptl_crystal_size_min          0.15
_refine_diff_density_max         0.441
_refine_diff_density_min         -0.328
_refine_diff_density_rms         0.058
_refine_ls_abs_structure_details
;
 Flack x determined using 3514 quotients [(I+)-(I-)]/[(I+)+(I-)]
 (Parsons, Flack and Wagner, Acta Cryst. B69 (2013) 249-259).
;
_refine_ls_abs_structure_Flack   -0.003(2)
_refine_ls_extinction_method     none
_refine_ls_goodness_of_fit_ref   1.054
_refine_ls_hydrogen_treatment    constr
_refine_ls_matrix_type           full
_refine_ls_number_parameters     428
_refine_ls_number_reflns         10074
_refine_ls_number_restraints     39
_refine_ls_restrained_S_all      1.062
_refine_ls_R_factor_all          0.0443
_refine_ls_R_factor_gt           0.0343
_refine_ls_shift/su_max          0.002
_refine_ls_shift/su_mean         0.000
_refine_ls_structure_factor_coef Fsqd
_refine_ls_weighting_details
'w=1/[\s^2^(Fo^2^)+(0.0351P)^2^+0.1316P] where P=(Fo^2^+2Fc^2^)/3'
_refine_ls_weighting_scheme      calc
_refine_ls_wR_factor_gt          0.0693
_refine_ls_wR_factor_ref         0.0724
_reflns_Friedel_coverage         0.796
_reflns_friedel_fraction_full    0.977
_reflns_friedel_fraction_max     0.855
_reflns_number_gt                8804
_reflns_number_total             10074
_reflns_threshold_expression     'I > 2\s(I)'
_cod_data_source_file            ol5b03575_si_002.cif
_cod_data_source_block           mo_SW148_0m
_cod_depositor_comments
;
The following automatic conversions were performed:

'_symmetry_cell_setting' value 'Monoclinic' changed to 'monoclinic'
according to
/usr/data/users/saulius/crontab/automatic-downloads/current/ACS/lib/dictionaries/cif_core.dic
dictionary named 'cif_core.dic' version 2.4.2 from 2011-04-26.

Automatic conversion script
Id: cif_fix_values 4268 2015-11-12 08:31:59Z antanas 
;
_cod_original_sg_symbol_H-M      C2
_cod_original_formula_sum        'C36 H36 Br N2 O4.50 S'
_cod_database_code               1542683
_shelx_space_group_comment
;
The symmetry employed for this shelxl refinement is uniquely defined
by the following loop, which should always be used as a source of
symmetry information in preference to the above space-group names.
They are only intended as comments.
;
_shelx_estimated_absorpt_t_min   0.580
_shelx_estimated_absorpt_t_max   0.822
_shelxl_version_number           2014-3
_shelx_res_file
;
TITL mo_SW148_0m in C2
CELL 0.71073  27.27160  10.71130  11.24220  90.0000  90.5644  90.0000
ZERR    4.00   0.00080   0.00030   0.00030   0.0000   0.0009   0.0000
LATT -7
SYMM -X, Y, -Z
SFAC C  H  N  O  S  Br
UNIT 144 144 8 18 4 4
LIST 4
L.S. 12
BOND
FMAP 2
acta
conf
PLAN 5
SIZE 0.15 0.20 0.45
TEMP -173.170
WGHT    0.035100    0.131600
FVAR       0.10045
MOLE 1
BR1   6    0.913551    1.051270    0.208835    11.00000    0.03056    0.03787 =
         0.01964    0.00803    0.00116   -0.01648
S1    5    0.717228    0.378815    1.008035    11.00000    0.02093    0.02081 =
         0.01714    0.00581    0.00069   -0.00115
N1    3    0.904656    0.518543    0.792424    11.00000    0.01203    0.01658 =
         0.01590    0.00134   -0.00046   -0.00018
N2    3    0.944910    0.595261    0.779353    11.00000    0.01230    0.02002 =
         0.02101    0.00081    0.00162   -0.00288
O1    4    0.819519    0.522376    0.756136    11.00000    0.01080    0.01305 =
         0.01908    0.00338   -0.00210   -0.00004
O2    4    0.715408    0.469216    0.897262    11.00000    0.02283    0.01768 =
         0.01683    0.00565    0.00310    0.00040
O3    4    0.764472    0.321752    1.016505    11.00000    0.01837    0.02859 =
         0.02886    0.01034   -0.00406   -0.00146
O4    4    0.700760    0.454135    1.103881    11.00000    0.03859    0.02911 =
         0.02162    0.00370    0.00542   -0.00184
C1    1    0.863580    0.578367    0.754458    11.00000    0.01305    0.01503 =
         0.01132   -0.00126   -0.00096   -0.00051
C2    1    0.927010    0.701201    0.734546    11.00000    0.01471    0.01922 =
         0.01636   -0.00173    0.00096   -0.00160
C3    1    0.875693    0.694652    0.715083    11.00000    0.01307    0.01530 =
         0.01309   -0.00007    0.00042   -0.00076
C4    1    0.838048    0.778686    0.657058    11.00000    0.01416    0.01432 =
         0.01474   -0.00034    0.00203    0.00017
AFIX  13
H4    2    0.827137    0.842697    0.715892    11.00000   -1.20000
AFIX   0
C5    1    0.793925    0.693817    0.623203    11.00000    0.01332    0.01331 =
         0.01223    0.00123    0.00111    0.00130
AFIX  13
H5    2    0.804967    0.638268    0.557181    11.00000   -1.20000
AFIX   0
C6    1    0.779471    0.608168    0.727695    11.00000    0.01181    0.01354 =
         0.01507    0.00215   -0.00103    0.00264
AFIX  13
H6    2    0.771794    0.660111    0.799039    11.00000   -1.20000
AFIX   0
C7    1    0.735964    0.524977    0.697447    11.00000    0.01485    0.01904 =
         0.01500    0.00497   -0.00310   -0.00259
AFIX  23
H7A   2    0.705848    0.576589    0.696817    11.00000   -1.20000
H7B   2    0.740275    0.491393    0.616178    11.00000   -1.20000
AFIX   0
C8    1    0.728850    0.417228    0.781882    11.00000    0.01701    0.01680 =
         0.01705    0.00366   -0.00090   -0.00262
AFIX  23
H8A   2    0.702571    0.361395    0.751904    11.00000   -1.20000
H8B   2    0.759514    0.368269    0.789387    11.00000   -1.20000
AFIX   0
C9    1    0.910186    0.391266    0.826466    11.00000    0.01567    0.01582 =
         0.01537    0.00061   -0.00333    0.00065
C10   1    0.873152    0.330587    0.886443    11.00000    0.01470    0.02012 =
         0.01515    0.00020   -0.00057    0.00191
AFIX  43
H10   2    0.843865    0.373851    0.905609    11.00000   -1.20000
AFIX   0
C11   1    0.878867    0.206158    0.918632    11.00000    0.02250    0.02134 =
         0.02398    0.00537    0.00098   -0.00075
AFIX  43
H11   2    0.853436    0.164047    0.959564    11.00000   -1.20000
AFIX   0
C12   1    0.921793    0.143535    0.890869    11.00000    0.03851    0.02059 =
         0.04344    0.00976    0.01046    0.00971
AFIX  43
H12   2    0.925872    0.058479    0.912770    11.00000   -1.20000
AFIX   0
C13   1    0.958738    0.205701    0.830972    11.00000    0.02680    0.02934 =
         0.05233    0.01066    0.01624    0.01549
AFIX  43
H13   2    0.988241    0.162901    0.812798    11.00000   -1.20000
AFIX   0
C14   1    0.953200    0.328772    0.797477    11.00000    0.01907    0.02439 =
         0.03155    0.00443    0.00748    0.00465
AFIX  43
H14   2    0.978390    0.370343    0.755202    11.00000   -1.20000
AFIX   0
C15   1    0.960718    0.809159    0.712718    11.00000    0.01848    0.02257 =
         0.03455    0.00115   -0.00060   -0.00547
AFIX 137
H15A  2    0.994404    0.785120    0.733456    11.00000   -1.50000
H15B  2    0.950792    0.880187    0.761871    11.00000   -1.50000
H15C  2    0.958995    0.832751    0.628557    11.00000   -1.50000
AFIX   0
C16   1    0.857952    0.844034    0.548245    11.00000    0.01167    0.01594 =
         0.01469    0.00119    0.00013   -0.00088
C17   1    0.876093    0.777445    0.452443    11.00000    0.02156    0.01529 =
         0.02046   -0.00213    0.00205   -0.00073
AFIX  43
H17   2    0.876638    0.688833    0.455761    11.00000   -1.20000
AFIX   0
C18   1    0.893532    0.837608    0.351468    11.00000    0.01838    0.02640 =
         0.01567   -0.00207    0.00253   -0.00360
AFIX  43
H18   2    0.905607    0.790976    0.286114    11.00000   -1.20000
AFIX   0
C19   1    0.892890    0.966342    0.348410    11.00000    0.01338    0.02571 =
         0.01706    0.00494   -0.00043   -0.00644
C20   1    0.875954    1.036288    0.443054    11.00000    0.01675    0.01779 =
         0.02217    0.00341   -0.00056   -0.00349
AFIX  43
H20   2    0.876286    1.124918    0.440025    11.00000   -1.20000
AFIX   0
C21   1    0.858482    0.974368    0.542443    11.00000    0.01670    0.01512 =
         0.01894    0.00010    0.00033   -0.00102
AFIX  43
H21   2    0.846658    1.021461    0.607772    11.00000   -1.20000
AFIX   0
C22   1    0.749278    0.764686    0.577454    11.00000    0.01481    0.01453 =
         0.01460    0.00629    0.00036    0.00003
C23   1    0.728581    0.731958    0.467341    11.00000    0.02201    0.01354 =
         0.01780    0.00392   -0.00027   -0.00055
AFIX  43
H23   2    0.744051    0.670436    0.419788    11.00000   -1.20000
AFIX   0
C24   1    0.685641    0.788416    0.426709    11.00000    0.02510    0.02269 =
         0.01935    0.00868   -0.00728   -0.00621
AFIX  43
H24   2    0.671875    0.765027    0.352022    11.00000   -1.20000
AFIX   0
C25   1    0.662967    0.878614    0.494996    11.00000    0.01891    0.02580 =
         0.03015    0.01526   -0.00129    0.00462
AFIX  43
H25   2    0.633451    0.916648    0.467803    11.00000   -1.20000
AFIX   0
C26   1    0.683713    0.913432    0.604125    11.00000    0.02506    0.02665 =
         0.02621    0.00706    0.00422    0.01086
AFIX  43
H26   2    0.668464    0.975962    0.650910    11.00000   -1.20000
AFIX   0
C27   1    0.726746    0.856636    0.644555    11.00000    0.02313    0.02287 =
         0.01715    0.00269    0.00036    0.00456
AFIX  43
H27   2    0.740764    0.881082    0.718660    11.00000   -1.20000
AFIX   0
C28   1    0.673806    0.262542    0.973419    11.00000    0.01647    0.02116 =
         0.01631    0.00744    0.00270   -0.00106
C29   1    0.624271    0.289403    0.987726    11.00000    0.02030    0.02995 =
         0.02053    0.00942    0.00519    0.00625
AFIX  43
H29   2    0.614107    0.367799    1.018367    11.00000   -1.20000
AFIX   0
C30   1    0.590082    0.199031    0.956200    11.00000    0.01410    0.04303 =
         0.02569    0.01380   -0.00035    0.00023
AFIX  43
H30   2    0.556165    0.216494    0.965141    11.00000   -1.20000
AFIX   0
C31   1    0.604254    0.083768    0.911928    11.00000    0.02324    0.03730 =
         0.02070    0.01665   -0.00698   -0.00758
C32   1    0.654218    0.059028    0.901029    11.00000    0.02842    0.02297 =
         0.02276    0.00638   -0.00056   -0.00180
AFIX  43
H32   2    0.664517   -0.020177    0.872608    11.00000   -1.20000
AFIX   0
C33   1    0.689246    0.148429    0.931092    11.00000    0.01849    0.02269 =
         0.02390    0.00633    0.00285    0.00338
AFIX  43
H33   2    0.723198    0.131137    0.922599    11.00000   -1.20000
AFIX   0
C34   1    0.566395   -0.013068    0.878085    11.00000    0.03390    0.05053 =
         0.04197    0.02148   -0.01716   -0.01945
AFIX 137
H34A  2    0.539763    0.026738    0.832870    11.00000   -1.50000
H34B  2    0.553165   -0.051095    0.950269    11.00000   -1.50000
H34C  2    0.581678   -0.077711    0.829144    11.00000   -1.50000
AFIX   0
PART -1 10.50
DFIX 1.45 0.01 O1S C1S O1S C3S
DFIX 1.52 0.01 C1S C2S C3S C4S
DFIX 2.45 0.01 C2S O1S C4S O1S
DFIX 2.50 0.01 C1S C3S
SIMU 0.005 O1S > C4S
DELU 0.005 O1S > C4S
O1S   4    1.006351    0.352192    0.510819    10.50000    0.02798    0.03782 =
         0.02984   -0.00153   -0.00314   -0.00621
C1S   1    0.973893    0.250470    0.483805    10.50000    0.02209    0.03587 =
         0.03733   -0.00545   -0.00638   -0.00079
AFIX  23
H1S1  2    0.963649    0.253871    0.399140    10.50000   -1.20000
H1S2  2    0.944201    0.255780    0.533510    10.50000   -1.20000
AFIX   0
C2S   1    1.000930    0.129767    0.508949    10.50000    0.02927    0.04059 =
         0.04752   -0.01924   -0.01895    0.00263
AFIX 137
H2S1  2    1.010705    0.127000    0.593026    10.50000   -1.50000
H2S2  2    1.030192    0.125276    0.459229    10.50000   -1.50000
H2S3  2    0.979397    0.058874    0.490870    10.50000   -1.50000
AFIX   0
C3S   1    0.983754    0.473257    0.498679    10.50000    0.03828    0.03594 =
         0.02191   -0.00262   -0.00102   -0.00305
AFIX  23
H3S1  2    0.955677    0.480719    0.553377    10.50000   -1.20000
H3S2  2    0.971630    0.485499    0.416209    10.50000   -1.20000
AFIX   0
C4S   1    1.022616    0.570237    0.529187    10.50000    0.05341    0.04253 =
         0.02839   -0.00031    0.01384   -0.01935
AFIX 137
H4S1  2    1.050738    0.559765    0.476513    10.50000   -1.50000
H4S2  2    1.033306    0.559373    0.612021    10.50000   -1.50000
H4S3  2    1.008845    0.654069    0.518686    10.50000   -1.50000
AFIX   0
HKLF 4
REM  mo_SW148_0m in C2
REM R1 =  0.0343 for    8804 Fo > 4sig(Fo)  and  0.0443 for all   10074 data
REM    428 parameters refined using     39 restraints
END
WGHT      0.0351      0.1316
REM Highest difference peak  0.441,  deepest hole -0.328,  1-sigma level  0.058
Q1    1   0.9360  1.0972  0.2161  11.00000  0.05    0.33
Q2    1   0.9137  1.0252  0.2848  11.00000  0.05    0.30
Q3    1   0.7327  0.4720  0.7459  11.00000  0.05    0.29
Q4    1   0.6945  0.4156  1.0339  11.00000  0.05    0.28
Q5    1   0.6250  0.0546  0.9294  11.00000  0.05    0.28
;
_shelx_res_checksum              94137
_shelx_hkl_file
;
  -2   0   0  140.27    3.59
  -2   0   0  139.90    3.60
   2   0   0  138.53    3.62
  -2   0   0  140.82    3.59
  -4   0   0  138.03    3.50
  -4   0   0  135.94    3.57
   4   0   0  136.63    3.50
  -4   0   0  135.15    3.52
   4   0   0  135.83    3.52
   4   0   0  133.50    3.56
  -4   0   0  134.38    3.50
   4   0   0  132.74    3.50
   4   0   0  131.97    3.53
   6   0   0  361.70    9.29
   6   0   0  355.11    9.22
   6   0   0  366.56    9.23
   6   0   0  357.18    9.25
  -6   0   0  354.98    9.23
  -6   0   0  357.29    9.33
   6   0   0  355.91    9.32
  -6   0   0  365.12    9.23
  -6   0   0  362.56    9.26
   8   0   0    0.39    0.16
  -8   0   0    0.74    0.14
   8   0   0    0.45    0.13
  -8   0   0    0.70    0.20
   8   0   0    1.01    0.18
  -8   0   0    0.56    0.14
   8   0   0    0.67    0.17
   8   0   0    0.63    0.14
 -10   0   0   84.26    2.41
 -10   0   0   80.22    2.23
  10   0   0   77.44    2.21
  10   0   0   79.21    2.36
  10   0   0   77.44    2.26
  10   0   0   76.07    2.30
 -10   0   0   80.58    2.22
  10   0   0   79.07    2.21
  12   0   0    3.94    0.36
  12   0   0    3.71    0.39
 -12   0   0    3.84    0.44
  12   0   0    3.13    0.30
  12   0   0    4.21    0.45
  12   0   0    3.90    0.33
 -12   0   0    4.11    0.34
  14   0   0    8.16    0.56
  14   0   0    8.01    0.53
  14   0   0    7.89    0.47
  14   0   0    9.01    0.49
 -14   0   0    7.66    0.65
 -16   0   0   42.80    1.68
  16   0   0   45.80    1.60
  16   0   0   41.84    1.51
  16   0   0   44.59    1.43
  16   0   0   43.97    1.44
 -18   0   0    4.03    0.59
  18   0   0    3.79    0.40
  18   0   0    3.71    0.50
  18   0   0    4.06    0.47
  18   0   0    4.58    0.44
  20   0   0   26.52    1.09
  20   0   0   25.35    1.17
  20   0   0   27.17    1.07
  20   0   0   27.83    1.27
 -20   0   0   24.97    1.37
  22   0   0   93.83    3.02
  22   0   0   93.51    2.85
  22   0   0   96.02    2.85
 -22   0   0   99.59    3.34
  22   0   0   92.20    3.09
  24   0   0   29.71    1.41
  24   0   0   30.23    1.26
 -24   0   0   28.85    1.67
  24   0   0   29.29    1.51
  26   0   0    0.10    0.46
  26   0   0    0.26    0.54
 -26   0   0    0.47    0.57
  26   0   0   -0.28    0.34
  28   0   0   13.44    0.96
 -28   0   0    8.46    1.31
  28   0   0    9.80    1.04
  28   0   0   10.79    1.01
  30   0   0   17.94    1.36
  30   0   0   17.00    1.33
  30   0   0   15.71    1.07
  32   0   0    8.91    1.14
  32   0   0    8.98    0.87
  32   0   0    8.28    1.05
  34   0   0    0.67    0.86
  34   0   0    0.63    0.70
  34   0   0    1.25    0.60
  36   0   0    0.58    0.82
  36   0   0   -0.14    0.68
  36   0   0   -0.21    0.53
  38   0   0   -0.02    0.61
  38   0   0    0.99    0.97
  -1  -1   0   18.56    0.51
  -1  -1   0   17.89    0.55
   1  -1   0   16.20    0.50
  -1  -1   0   14.05    0.52
  -1  -1   0   16.74    0.50
   1  -1   0   17.84    0.56
   1  -1   0   18.28    0.53
  -1   1   0    6.54    0.25
   1   1   0    6.27    0.23
  -1   1   0    6.35    0.27
   1   1   0    6.05    0.23
   1   1   0    6.28    0.27
  -1   1   0    6.46    0.23
   3  -1   0  210.31    5.41
   3  -1   0  209.96    5.46
   3  -1   0  208.87    5.41
   3  -1   0  212.08    5.39
   3  -1   0  210.28    5.43
  -3  -1   0  211.49    5.41
  -3  -1   0  204.39    5.38
  -3  -1   0  209.02    5.39
  -3   1   0  210.31    5.35
   3   1   0  203.02    5.32
   3   1   0  208.63    5.36
  -3   1   0  205.90    5.35
   3   1   0  202.03    5.32
  -3   1   0  208.60    5.40
   3   1   0  212.21    5.40
  -3   1   0  205.58    5.33
  -5  -1   0   80.81    2.22
   5  -1   0   83.92    2.27
  -5  -1   0   81.93    2.22
  -5  -1   0   85.85    2.27
  -5  -1   0   84.29    2.33
   5  -1   0   81.06    2.22
   5  -1   0   82.44    2.32
   5  -1   0   84.00    2.24
   5   1   0   72.32    1.95
   5   1   0   71.40    1.99
   5   1   0   71.38    2.03
  -5   1   0   72.00    2.03
   5   1   0   72.14    1.94
  -5   1   0   70.03    1.97
  -5   1   0   72.96    1.95
  -5   1   0   72.57    1.99
  -5   1   0   72.02    1.95
  -7  -1   0  107.97    2.93
  -7  -1   0  102.88    3.00
  -7  -1   0  106.96    2.86
   7  -1   0  102.52    2.86
   7  -1   0  106.30    2.99
   7  -1   0  109.49    2.88
  -7  -1   0  107.42    2.87
  -7  -1   0  110.62    2.87
   7  -1   0  107.79    2.92
  -7   1   0  100.70    2.79
  -7   1   0  102.97    2.85
   7   1   0   98.20    2.73
  -7   1   0  101.17    2.73
  -7   1   0  103.20    2.73
   7   1   0  100.91    2.85
   7   1   0  102.41    2.73
  -7   1   0  102.60    2.78
   7   1   0  100.87    2.80
  -9  -1   0  207.84    5.51
  -9  -1   0  215.70    5.52
   9  -1   0  208.02    5.66
  -9  -1   0  210.04    5.50
  -9  -1   0  208.47    5.69
   9  -1   0  209.61    5.50
   9  -1   0  209.35    5.52
   9  -1   0  207.42    5.57
   9   1   0  208.44    5.56
  -9   1   0  213.12    5.55
   9   1   0  210.15    5.54
   9   1   0  206.17    5.63
  -9   1   0  215.80    5.56
   9   1   0  212.36    5.70
  -9   1   0  211.56    5.70
  11  -1   0   10.09    0.61
  11  -1   0    9.86    0.48
  11  -1   0    9.49    0.52
  11  -1   0    9.35    0.47
 -11  -1   0   10.84    0.49
 -11  -1   0   11.34    0.56
 -11  -1   0    9.34    0.60
 -11  -1   0   10.54    0.49
  11   1   0   23.99    0.82
 -11   1   0   23.63    0.97
  11   1   0   23.42    0.92
  11   1   0   22.61    0.84
 -11   1   0   21.80    0.81
  13  -1   0   61.41    2.02
  13  -1   0   62.18    1.94
  13  -1   0   60.73    1.82
 -13  -1   0   60.41    2.05
  13  -1   0   60.80    1.91
 -13  -1   0   62.96    1.85
  13  -1   0   60.67    1.84
  13   1   0   67.33    2.04
  13   1   0   81.53    2.90
 -13   1   0   70.85    2.27
  13   1   0   68.70    2.18
  13   1   0   68.08    2.09
  15  -1   0   15.80    0.72
  15  -1   0   15.97    0.81
 -15  -1   0   16.29    0.94
  15  -1   0   16.98    0.72
  15  -1   0   16.24    0.78
  15   1   0   18.87    0.79
  15   1   0   21.49    0.87
  15   1   0   19.06    0.92
 -15   1   0   18.72    0.98
  17  -1   0  102.79    2.96
  17  -1   0  101.10    3.13
  17  -1   0  100.40    3.08
 -17  -1   0  103.38    3.31
  17  -1   0  107.64    3.00
  17   1   0   91.71    2.65
 -17   1   0   91.85    2.96
  17   1   0   87.71    2.81
  17   1   0   90.05    2.72
  19  -1   0   29.47    1.15
  19  -1   0   29.56    1.25
 -19  -1   0   31.85    1.48
  19  -1   0   31.21    1.18
  19  -1   0   29.08    1.29
 -19   1   0   38.81    1.68
  19   1   0   39.16    1.56
  19   1   0   39.37    1.47
  19   1   0   39.09    1.39
  21  -1   0   23.45    1.04
 -21  -1   0   22.39    1.38
  21  -1   0   23.41    1.17
  21  -1   0   25.62    1.05
  21  -1   0   24.00    1.21
  21   1   0   27.97    1.36
 -21   1   0   31.13    1.55
  21   1   0   28.58    1.19
  21   1   0   30.99    1.30
  23  -1   0   30.87    1.41
  23  -1   0   31.03    1.28
  23  -1   0   32.02    1.28
 -23  -1   0   33.60    1.74
  23  -1   0   31.76    1.48
  23   1   0   27.53    1.43
 -23   1   0   29.43    1.55
  23   1   0   28.43    1.30
  23   1   0   26.25    1.18
  25  -1   0   28.83    1.46
  25  -1   0   30.53    1.29
 -25  -1   0   24.32    1.58
  25  -1   0   33.42    1.60
  25  -1   0   30.77    1.28
  25   1   0   32.97    1.48
 -25   1   0   30.10    1.69
  25   1   0   33.70    1.36
  25   1   0   28.79    1.55
  27  -1   0    1.07    0.52
 -27  -1   0    0.77    0.66
  27  -1   0    1.91    0.46
  27  -1   0    1.03    0.59
  27  -1   0    0.91    0.42
  27   1   0    3.31    0.65
 -27   1   0    2.13    0.76
  27   1   0    1.58    0.59
  27   1   0    2.43    0.49
  29  -1   0    8.25    0.98
  29  -1   0    5.84    0.96
  29  -1   0    6.32    0.70
  29   1   0    7.99    1.04
  29   1   0    9.92    0.98
  29   1   0    9.99    0.85
  31  -1   0    7.15    0.77
  31  -1   0    7.74    0.97
  31  -1   0    8.20    1.05
  31   1   0    8.12    0.85
  31   1   0    7.51    1.11
  31   1   0    9.51    1.03
  33  -1   0    0.80    0.72
  33  -1   0   -0.33    0.65
  33  -1   0    0.12    0.49
  33   1   0    0.31    0.66
  33   1   0    1.36    0.83
  33   1   0    0.23    0.51
  35  -1   0    8.48    1.14
  35  -1   0    7.98    1.26
 -35  -1   0    9.23    1.30
  35  -1   0    9.50    0.94
  35   1   0    9.44    0.98
  35   1   0   11.50    1.43
  35   1   0    9.35    1.15
  37  -1   0    2.98    0.71
 -37  -1   0    1.49    0.96
  37  -1   0    1.97    0.92
  37  -1   0    1.75    0.89
  37   1   0    1.55    0.68
  37   1   0    3.23    1.04
 -39  -1   0    6.11    1.44
  39  -1   0    4.17    1.09
   0  -2   0   63.34    1.88
   0  -2   0   66.32    1.85
   0  -2   0   65.96    1.83
   0  -2   0   67.09    1.79
   0  -2   0   64.24    1.78
   0   2   0   39.47    1.14
   0   2   0   39.70    1.14
   0   2   0   39.83    1.18
   0   2   0   40.19    1.23
   2  -2   0  236.19    6.02
   2  -2   0  227.01    5.97
  -2  -2   0  234.57    6.09
   2  -2   0  226.90    6.02
   2  -2   0  223.29    6.08
  -2  -2   0  230.13    6.05
  -2  -2   0  236.35    5.98
  -2  -2   0  232.59    5.97
  -2   2   0  248.61    6.55
   2   2   0  245.49    6.50
   2   2   0  250.13    6.46
   2   2   0  252.43    6.44
  -2   2   0  249.89    6.44
   2   2   0  248.72    6.54
  -2   2   0  248.56    6.49
  -2   2   0  250.54    6.48
  -4  -2   0  131.98    3.40
   4  -2   0  128.21    3.51
  -4  -2   0  128.47    3.37
   4  -2   0  127.58    3.42
  -4  -2   0  126.97    3.40
   4  -2   0  127.33    3.42
  -4  -2   0  126.02    3.51
  -4  -2   0  127.06    3.49
  -4  -2   0  130.51    3.38
   4  -2   0  128.37    3.38
   4  -2   0  125.49    3.43
  -4   2   0  142.07    3.66
   4   2   0  136.62    3.62
  -4   2   0  135.43    3.72
  -4   2   0  136.90    3.62
   4   2   0  138.15    3.73
  -4   2   0  137.41    3.66
   4   2   0  133.79    3.65
   6  -2   0  128.93    3.34
  -6  -2   0  124.78    3.49
  -6  -2   0  129.42    3.38
   6  -2   0  122.86    3.37
   6  -2   0  124.98    3.40
  -6  -2   0  123.97    3.32
  -6  -2   0  121.99    3.47
   6  -2   0  124.40    3.38
   6  -2   0  123.68    3.48
  -6  -2   0  125.21    3.33
   6   2   0  129.36    3.49
  -6   2   0  131.89    3.62
  -6   2   0  129.63    3.52
   6   2   0  129.71    3.62
   6   2   0  132.03    3.49
   6   2   0  131.21    3.55
  -6   2   0  133.42    3.54
   8  -2   0   87.86    2.54
  -8  -2   0   83.48    2.54
   8  -2   0   85.45    2.36
   8  -2   0   82.26    2.44
  -8  -2   0   87.53    2.36
   8  -2   0   84.06    2.40
  -8  -2   0   88.02    2.35
  -8   2   0   88.38    2.41
   8   2   0   85.63    2.46
   8   2   0   85.53    2.38
   8   2   0   86.04    2.53
  -8   2   0   83.29    2.51
  -8   2   0   86.14    2.44
  10  -2   0  122.34    3.37
 -10  -2   0  116.84    3.26
  10  -2   0  126.43    3.49
 -10  -2   0  118.59    3.49
  10  -2   0  119.52    3.31
  10  -2   0  115.94    3.26
 -10  -2   0  119.82    3.25
  10   2   0  119.27    3.24
 -10   2   0  118.45    3.41
 -10   2   0  113.48    3.29
 -10   2   0  117.26    3.33
  10   2   0  115.91    3.23
  10   2   0  120.55    3.41
  10   2   0  121.24    3.34
 -12  -2   0  107.34    3.26
  12  -2   0  109.27    3.12
  12  -2   0  107.45    3.04
  12  -2   0  105.30    3.00
  12  -2   0  110.77    3.24
  12   2   0  108.77    3.08
  12   2   0  109.95    3.06
  12   2   0  109.59    3.18
 -12   2   0  110.18    3.26
  14  -2   0   37.48    1.24
  14  -2   0   36.94    1.27
 -14  -2   0   35.67    1.48
  14  -2   0   37.15    1.36
  14   2   0   34.70    1.23
 -14   2   0   35.67    1.41
  14   2   0   35.72    1.21
  14   2   0   34.94    1.33
  16  -2   0   63.00    1.95
  16  -2   0   62.80    2.08
  16  -2   0   61.30    2.06
 -16  -2   0   65.14    2.29
  16  -2   0   64.71    2.00
  16   2   0   49.88    1.64
  16   2   0   50.37    1.81
 -16   2   0   54.55    1.94
  16   2   0   50.00    1.69
  18  -2   0   69.22    2.25
  18  -2   0   68.61    2.13
 -18  -2   0   65.51    2.42
  18  -2   0   65.00    2.06
  18  -2   0   64.31    2.22
 -18   2   0   77.21    2.65
  18   2   0   73.82    2.37
  18   2   0   76.93    2.32
  18   2   0   75.00    2.51
  20  -2   0    4.33    0.58
  20  -2   0    4.40    0.49
  20  -2   0    3.08    0.43
 -20  -2   0    3.31    0.62
  20  -2   0    4.29    0.57
  20   2   0    4.12    0.49
  20   2   0    2.23    0.54
  20   2   0    3.62    0.49
 -20   2   0    4.10    0.66
  22  -2   0   19.20    1.08
 -22  -2   0   20.45    1.35
  22  -2   0   19.79    1.15
  22  -2   0   17.31    0.94
  22  -2   0   19.90    0.95
  22   2   0   13.86    0.89
  22   2   0   13.82    0.85
  22   2   0   15.21    1.03
 -22   2   0   15.76    1.13
  24  -2   0    3.46    0.62
  24  -2   0    3.36    0.52
 -24  -2   0    2.87    0.72
  24  -2   0    2.96    0.61
  24  -2   0    3.80    0.51
  24   2   0    9.68    0.85
  24   2   0    9.24    0.94
  24   2   0    8.18    0.71
 -24   2   0    8.99    1.03
  26  -2   0    4.88    0.72
  26  -2   0    3.97    0.58
  26  -2   0    4.54    0.73
 -26  -2   0    5.57    0.96
  26  -2   0    4.31    0.56
  26   2   0    4.04    0.57
  26   2   0    3.41    0.72
 -26   2   0    4.39    0.80
  26   2   0    4.65    0.68
  28  -2   0   10.32    0.87
  28  -2   0   10.82    1.10
  28  -2   0   10.15    0.81
  28  -2   0    9.38    0.97
  28   2   0   13.83    1.32
  28   2   0   15.00    1.17
  28   2   0   14.17    1.00
  30  -2   0    5.93    0.93
  30  -2   0    6.38    0.71
  30  -2   0    6.41    0.98
  30   2   0    7.05    0.79
  30   2   0    6.55    0.99
  30   2   0    4.46    0.80
  32  -2   0    0.51    0.75
  32  -2   0    0.54    0.71
 -32  -2   0    0.84    0.81
  32  -2   0    0.60    0.50
  32   2   0    1.41    0.82
  32   2   0    0.75    0.65
  32   2   0    0.16    0.53
  34  -2   0   11.89    0.99
  34  -2   0    9.74    1.25
 -34  -2   0   10.60    1.38
  34  -2   0    8.55    1.18
  34   2   0   12.45    1.44
  34   2   0   12.73    1.09
  36  -2   0    4.89    1.07
  36  -2   0    4.44    0.78
  36  -2   0    4.41    0.95
 -36  -2   0    5.69    1.18
  36   2   0    3.32    1.03
  38  -2   0    0.76    0.88
  38  -2   0   -0.19    0.58
  38  -2   0    0.38    0.95
 -38  -2   0    0.08    0.95
  38   2   0    0.89    0.97
   1  -3   0   60.47    1.75
  -1  -3   0   62.14    1.82
  -1  -3   0   62.04    1.90
   1  -3   0   60.56    1.83
  -1  -3   0   61.39    1.74
   1  -3   0   61.60    1.82
  -1  -3   0   63.65    1.86
  -1  -3   0   64.68    1.77
   1  -3   0   62.40    1.76
   1   3   0   67.00    1.90
   1   3   0   66.90    2.03
  -1   3   0   66.71    2.04
  -1   3   0   69.16    2.05
  -1   3   0   66.95    1.96
   1   3   0   67.81    1.97
  -1   3   0   67.52    1.89
  -1   3   0   67.24    1.90
   1   3   0   68.89    1.90
   3  -3   0   44.36    1.48
  -3  -3   0   46.02    1.31
   3  -3   0   44.69    1.39
  -3  -3   0   44.90    1.34
   3  -3   0   45.15    1.32
  -3  -3   0   43.95    1.47
   3  -3   0   44.55    1.34
   3  -3   0   43.77    1.37
  -3  -3   0   44.50    1.44
  -3   3   0   43.00    1.45
   3   3   0   48.01    1.48
  -3   3   0   44.06    1.38
   3   3   0   45.83    1.33
   3   3   0   44.51    1.35
  -3   3   0   46.09    1.39
   3   3   0   44.25    1.40
  -3   3   0   42.50    1.33
  -5  -3   0  268.26    6.93
  -5  -3   0  263.05    6.90
   5  -3   0  260.37    6.97
   5  -3   0  265.26    7.09
  -5  -3   0  267.92    6.91
  -5  -3   0  269.04    6.89
   5  -3   0  265.19    6.97
  -5  -3   0  265.39    7.07
   5  -3   0  259.70    6.96
  -5  -3   0  266.52    7.10
   5  -3   0  261.51    6.90
  -5   3   0  282.05    7.73
  -5   3   0  295.27    7.66
   5   3   0  285.30    7.64
   5   3   0  296.39    7.74
  -5   3   0  299.45    7.61
  -7  -3   0  132.41    3.51
  -7  -3   0  127.80    3.71
   7  -3   0  136.98    3.76
  -7  -3   0  131.25    3.57
   7  -3   0  130.29    3.62
   7  -3   0  128.96    3.59
  -7  -3   0  134.54    3.56
  -7  -3   0  126.71    3.73
  -7  -3   0  130.93    3.51
   7  -3   0  129.38    3.53
   7  -3   0  128.48    3.59
   7   3   0  106.89    2.86
   7   3   0   99.94    2.91
   7   3   0  105.71    3.02
  -7   3   0  105.27    2.91
  -7   3   0   99.14    3.00
   9  -3   0   71.76    2.22
   9  -3   0   76.79    2.14
  -9  -3   0   74.25    2.10
   9  -3   0   75.00    2.19
  -9  -3   0   72.85    2.35
  -9  -3   0   73.00    2.18
   9  -3   0   77.05    2.20
   9  -3   0   76.31    2.35
  -9  -3   0   74.76    2.11
  -9  -3   0   71.38    2.34
   9   3   0   72.39    2.25
  -9   3   0   72.72    2.26
   9   3   0   70.32    2.08
  -9   3   0   71.88    2.15
   9   3   0   71.91    2.18
 -11  -3   0  258.52    7.03
 -11  -3   0  261.01    6.70
  11  -3   0  255.95    6.80
  11  -3   0  249.21    6.85
  11  -3   0  251.34    6.98
  11  -3   0  252.01    6.72
 -11   3   0  294.75    7.85
  11   3   0  293.13    7.64
  11   3   0  287.70    7.63
  11   3   0  282.86    7.75
  13  -3   0   62.33    1.96
  13  -3   0   61.92    2.03
 -13  -3   0   65.04    2.23
  13  -3   0   62.79    1.90
 -13   3   0   61.69    2.09
  13   3   0   62.85    2.02
  13   3   0   59.85    1.88
  13   3   0   59.45    1.88
  15  -3   0    2.43    0.37
 -15  -3   0    1.46    0.46
  15  -3   0    1.92    0.40
  15  -3   0    1.68    0.30
  15   3   0    3.80    0.41
  15   3   0    3.28    0.40
  15   3   0    3.39    0.48
 -15   3   0    2.65    0.49
  17  -3   0   15.92    0.90
  17  -3   0   17.57    0.85
 -17  -3   0   16.33    1.07
  17  -3   0   16.71    0.81
 -17   3   0   17.93    1.07
  17   3   0   16.84    0.84
  17   3   0   18.06    0.87
  17   3   0   17.91    0.99
  19  -3   0   59.02    1.98
  19  -3   0   57.73    1.92
  19  -3   0   59.21    2.09
 -19  -3   0   58.07    2.34
  19  -3   0   60.35    2.08
  19   3   0   57.74    1.95
  19   3   0   59.59    2.16
 -19   3   0   57.56    2.23
  19   3   0   60.25    1.99
  21  -3   0    9.95    0.74
  21  -3   0   10.39    0.73
  21  -3   0   11.35    0.95
  21  -3   0   11.06    0.92
 -21  -3   0   10.94    1.06
  21   3   0    6.08    0.76
 -21   3   0    5.72    0.78
  21   3   0    8.47    0.69
  21   3   0    7.35    0.69
 -23  -3   0   21.92    1.50
  23  -3   0   21.47    1.20
  23  -3   0   20.49    1.19
  23  -3   0   19.96    1.05
  23  -3   0   22.54    1.05
  23   3   0   26.33    1.42
 -23   3   0   27.27    1.52
  23   3   0   26.27    1.28
  23   3   0   28.29    1.26
  25  -3   0   69.47    2.31
 -25  -3   0   71.47    2.83
  25  -3   0   68.13    2.55
  25  -3   0   71.52    2.40
  25  -3   0   72.65    2.59
 -25  -3   0   65.58    2.87
  25   3   0   74.78    2.79
  25   3   0   71.80    2.52
 -25   3   0   72.70    2.87
  25   3   0   73.54    2.47
 -27  -3   0   34.56    2.01
  27  -3   0   34.37    1.47
 -27  -3   0   39.72    1.97
  27  -3   0   34.34    1.70
  27  -3   0   33.04    1.73
  27  -3   0   35.62    1.54
  27   3   0   36.12    1.55
  27   3   0   36.30    1.83
  27   3   0   30.72    1.52
 -29  -3   0   11.97    1.34
  29  -3   0   14.45    1.00
  29  -3   0   13.39    1.23
  29  -3   0   15.59    1.58
  29  -3   0   14.69    1.29
  29   3   0   10.24    1.17
  29   3   0   13.03    1.08
  29   3   0   12.73    0.99
  31  -3   0    0.98    0.66
 -31  -3   0    0.89    0.88
  31  -3   0    1.88    0.54
  31  -3   0    0.44    0.71
  31   3   0    0.05    0.65
  31   3   0    1.44    0.60
  33  -3   0    5.01    1.00
  33  -3   0    5.88    1.00
  33  -3   0    4.77    0.74
 -33  -3   0    6.97    1.25
  33   3   0    5.16    1.16
  35  -3   0    6.07    0.83
 -35  -3   0    5.32    1.21
  35  -3   0    6.98    1.13
  35  -3   0    6.93    1.09
  35   3   0    4.81    1.13
  37  -3   0    5.72    1.16
 -37  -3   0    5.70    1.29
 -37  -3   0    5.80    1.02
  37  -3   0    5.54    1.10
  37  -3   0    7.03    0.88
  37   3   0    5.77    1.30
  39  -3   0    0.39    0.81
 -39  -3   0    0.92    1.11
   0  -4   0  231.14    6.15
   0  -4   0  223.54    6.02
   0  -4   0  225.11    6.06
   0  -4   0  224.88    5.92
   0  -4   0  217.84    5.93
   0   4   0  232.72    6.14
   0   4   0  232.62    6.13
   0   4   0  232.39    6.33
  -2  -4   0   41.08    1.33
   2  -4   0   40.28    1.31
  -2  -4   0   44.26    1.52
   2  -4   0   43.07    1.43
  -2  -4   0   43.52    1.30
  -2  -4   0   44.46    1.48
   2  -4   0   42.27    1.40
   2  -4   0   42.85    1.33
  -2  -4   0   42.27    1.40
  -2   4   0   46.05    1.47
   2   4   0   45.02    1.56
  -2   4   0   44.91    1.57
   2   4   0   46.21    1.40
   2   4   0   42.81    1.39
  -2   4   0   46.25    1.58
  -2   4   0   46.64    1.57
   4  -4   0  115.85    3.29
  -4  -4   0  116.80    3.26
   4  -4   0  116.06    3.34
   4  -4   0  119.44    3.50
  -4  -4   0  120.04    3.44
   4  -4   0  118.60    3.25
   4  -4   0  123.08    3.36
  -4  -4   0  123.37    3.24
  -4  -4   0  113.26    3.46
  -4  -4   0  120.56    3.28
  -4   4   0  110.11    3.22
   4   4   0  108.39    3.07
  -4   4   0  112.23    3.12
   4   4   0  107.63    3.20
   6  -4   0   31.17    1.23
  -6  -4   0   29.09    0.98
  -6  -4   0   29.92    1.19
  -6  -4   0   29.29    0.98
   6  -4   0   28.74    1.00
  -6  -4   0   29.75    1.04
  -6  -4   0   29.11    1.21
   6  -4   0   28.44    1.06
  -6  -4   0   30.12    1.00
   6  -4   0   28.40    1.06
   6  -4   0   28.73    1.07
   6   4   0   30.59    1.19
   6   4   0   29.50    1.09
  -6   4   0   30.65    1.19
  -6   4   0   31.13    1.11
  -8  -4   0   19.48    0.95
  -8  -4   0   15.10    0.87
   8  -4   0   16.55    0.69
  -8  -4   0   17.02    0.74
   8  -4   0   16.46    0.76
   8  -4   0   16.71    0.75
  -8  -4   0   15.20    0.64
   8  -4   0   16.57    0.87
   8  -4   0   17.08    0.75
  -8  -4   0   15.21    0.85
  -8   4   0   11.91    0.72
   8   4   0   14.17    0.69
 -10  -4   0    8.70    0.45
 -10  -4   0    7.89    0.69
 -10  -4   0    6.78    0.53
  10  -4   0    8.59    0.85
  10  -4   0    7.21    0.53
 -10  -4   0    8.67    0.68
  10  -4   0    7.53    0.48
  10  -4   0    7.25    0.51
  10  -4   0    5.92    0.54
 -10   4   0    9.40    0.69
  10   4   0   10.02    0.53
  10   4   0    9.16    0.62
 -12  -4   0   80.69    2.71
  12  -4   0   80.77    2.41
  12  -4   0   84.70    2.52
 -12  -4   0   81.46    2.73
 -12  -4   0   82.67    2.50
  12  -4   0   84.69    2.50
  12  -4   0   80.97    2.55
  12   4   0   77.50    2.46
 -12   4   0   79.60    2.57
  12   4   0   77.48    2.33
 -14  -4   0   46.70    1.85
 -14  -4   0   47.40    1.62
 -14  -4   0   46.63    1.84
  14  -4   0   44.01    1.59
  14  -4   0   45.36    1.52
  14  -4   0   44.65    1.66
  14   4   0   47.30    1.61
  14   4   0   48.32    1.76
 -14   4   0   51.29    1.89
  16  -4   0   17.69    0.88
 -16  -4   0   19.37    0.97
  16  -4   0   18.00    1.00
  16  -4   0   16.28    0.83
 -16  -4   0   18.06    1.14
 -16  -4   0   18.29    1.13
  16   4   0   25.36    1.06
 -16   4   0   25.48    1.26
  16   4   0   25.27    1.24
 -18  -4   0   41.16    1.64
 -18  -4   0   42.27    1.91
  18  -4   0   45.55    1.65
 -18  -4   0   46.77    2.00
  18  -4   0   42.45    1.70
  18  -4   0   45.31    1.56
 -18   4   0   37.07    1.65
  18   4   0   35.14    1.55
  18   4   0   34.68    1.37
  20  -4   0    4.02    0.56
  20  -4   0    2.85    0.44
  20  -4   0    3.97    0.65
  20  -4   0    3.62    0.56
 -20  -4   0    4.03    0.77
 -20  -4   0    3.43    0.72
 -20  -4   0    2.63    0.53
 -20   4   0    2.70    0.66
  20   4   0    3.57    0.52
  20   4   0    4.27    0.69
  22  -4   0   35.19    1.48
  22  -4   0   34.98    1.59
  22  -4   0   33.54    1.58
 -22  -4   0   35.63    1.84
 -22  -4   0   35.95    1.91
  22  -4   0   36.59    1.42
 -22   4   0   42.87    1.98
  22   4   0   41.16    1.89
  22   4   0   41.33    1.61
 -24  -4   0   14.11    1.39
 -24  -4   0   13.58    1.34
  24  -4   0   13.04    1.10
  24  -4   0   16.46    0.99
  24  -4   0   12.32    0.89
  24  -4   0   17.22    1.10
  24   4   0   11.18    0.90
 -24   4   0   12.01    1.18
  24   4   0   11.65    1.11
  26  -4   0    1.65    0.49
 -26  -4   0    0.90    0.68
 -26  -4   0    1.72    0.59
 -26  -4   0    1.75    0.81
  26  -4   0    1.34    0.60
  26  -4   0    1.60    0.53
  26  -4   0    1.27    0.55
  26   4   0    1.52    0.51
  26   4   0    1.15    0.64
 -28  -4   0   15.85    1.26
 -28  -4   0   15.00    1.52
  28  -4   0   16.92    1.08
  28  -4   0   16.10    1.23
  28  -4   0   17.58    1.29
  28  -4   0   15.73    1.04
  28   4   0   15.64    1.44
  28   4   0   14.81    1.10
  30  -4   0    2.42    0.80
  30  -4   0    3.14    0.76
 -30  -4   0    2.07    0.93
  30  -4   0    2.96    0.58
 -30  -4   0    2.50    0.70
  30   4   0    3.96    0.90
 -32  -4   0    1.43    0.91
  32  -4   0    3.02    0.80
  32  -4   0    2.51    0.63
 -32  -4   0    2.32    0.77
  32  -4   0    2.71    0.81
  32   4   0    1.86    0.84
  34  -4   0    8.55    0.90
  34  -4   0    9.55    1.26
  34  -4   0    8.53    1.18
 -34  -4   0    8.83    1.46
 -34  -4   0    8.96    1.10
  34   4   0    5.74    1.14
 -36  -4   0    5.79    1.34
  36  -4   0    5.57    0.81
  36  -4   0    5.34    1.10
 -36  -4   0    4.33    0.95
  36  -4   0    3.50    1.08
  36   4   0    5.05    1.18
  38  -4   0    0.72    1.04
  38  -4   0    0.77    0.93
 -38  -4   0   -0.01    1.02
   1  -5   0   21.98    0.96
  -1  -5   0   20.74    0.85
   1  -5   0   21.18    0.85
   1  -5   0   21.83    0.83
  -1  -5   0   21.92    0.94
   1  -5   0   21.89    0.97
  -1  -5   0   22.98    1.07
  -1  -5   0   22.56    0.99
  -1  -5   0   23.71    0.83
  -1   5   0   10.64    0.72
   1   5   0   11.90    0.57
  -1   5   0   11.52    0.55
   3  -5   0   11.64    0.64
  -3  -5   0   10.67    0.51
   3  -5   0   10.59    0.64
   3  -5   0    9.28    0.53
  -3  -5   0    9.45    0.71
  -3  -5   0    9.83    0.62
   3  -5   0   10.89    0.56
  -3  -5   0   10.40    0.56
  -3  -5   0   10.39    0.70
   3   5   0   11.34    0.60
  -3   5   0   12.09    0.77
  -5  -5   0   61.33    2.12
  -5  -5   0   64.01    2.07
   5  -5   0   62.48    1.90
   5  -5   0   60.33    1.95
   5  -5   0   61.29    1.84
   5  -5   0   56.58    1.93
  -5  -5   0   59.54    1.87
  -5  -5   0   59.25    1.88
   5  -5   0   60.58    2.12
   5   5   0   51.38    1.69
  -5   5   0   54.50    1.88
   7  -5   0  126.27    3.63
   7  -5   0  124.19    3.61
   7  -5   0  124.80    3.50
  -7  -5   0  126.00    3.79
  -7  -5   0  123.26    3.81
  -7  -5   0  125.91    3.56
   7  -5   0  126.36    3.61
   7  -5   0  129.59    4.03
   7   5   0  148.34    4.14
  -7   5   0  144.67    4.28
  -9  -5   0    8.08    0.74
   9  -5   0    8.82    0.58
   9  -5   0    8.67    0.60
  -9  -5   0    8.35    0.60
   9  -5   0    8.98    0.55
  -9  -5   0    9.37    0.83
   9  -5   0    9.74    0.64
   9   5   0    9.76    0.64
  -9   5   0    9.75    0.79
 -11  -5   0   35.35    1.59
 -11  -5   0   39.69    1.65
  11  -5   0   37.45    1.32
  11  -5   0   38.74    1.44
 -11  -5   0   38.50    1.41
  11  -5   0   39.71    1.41
  11   5   0   46.30    1.70
 -11   5   0   49.78    1.85
 -13  -5   0    7.65    0.64
  13  -5   0    5.79    0.60
 -13  -5   0    6.03    0.74
  13  -5   0    6.90    0.63
  13  -5   0    7.50    0.57
  13  -5   0    7.68    0.60
 -13  -5   0    6.05    0.72
  13   5   0   10.69    0.65
 -13   5   0   12.33    0.85
  13   5   0   12.98    0.83
  15  -5   0    2.73    0.47
 -15  -5   0    2.19    0.57
  15  -5   0    2.85    0.41
  15  -5   0    2.94    0.50
 -15  -5   0    2.34    0.58
 -15  -5   0    1.75    0.42
  15   5   0    1.75    0.47
 -15   5   0    1.70    0.50
  15   5   0    1.66    0.37
  17  -5   0   40.83    1.48
 -17  -5   0   41.68    1.62
 -17  -5   0   41.11    1.89
  17  -5   0   38.86    1.64
  17  -5   0   41.26    1.60
 -17  -5   0   41.78    1.89
  17   5   0   46.38    1.65
 -17   5   0   45.56    1.91
  17   5   0   45.97    1.87
  19  -5   0   18.93    1.12
  19  -5   0   18.34    1.02
 -19  -5   0   17.54    1.33
  19  -5   0   18.60    0.94
 -19  -5   0   16.96    1.05
 -19  -5   0   17.74    1.27
  19   5   0   18.79    1.21
  19   5   0   19.61    1.00
 -19   5   0   20.16    1.29
 -21  -5   0    1.63    0.69
  21  -5   0    0.85    0.46
  21  -5   0    1.87    0.54
  21  -5   0    1.21    0.40
 -21  -5   0    0.66    0.45
  21  -5   0    1.14    0.46
 -21  -5   0    1.85    0.72
  21   5   0    0.53    0.37
  21   5   0    1.11    0.57
 -21   5   0    1.22    0.60
  23  -5   0   12.37    0.88
  23  -5   0   13.30    1.11
 -23  -5   0   13.22    1.03
 -23  -5   0   12.89    1.32
  23  -5   0   13.32    1.02
  23  -5   0   11.48    0.98
 -23  -5   0   14.21    1.37
  23   5   0   12.66    1.16
  23   5   0   14.19    0.93
 -23   5   0   13.97    1.27
  25  -5   0    4.98    0.73
  25  -5   0    6.44    0.87
 -25  -5   0    7.79    1.09
 -25  -5   0    6.68    0.84
  25  -5   0    5.95    0.79
  25  -5   0    5.68    0.67
 -25  -5   0    5.02    1.01
  25   5   0    2.50    0.57
  25   5   0    2.82    0.72
  27  -5   0   -0.02    0.43
 -27  -5   0    0.63    0.56
  27  -5   0   -0.01    0.51
  27  -5   0   -0.28    0.55
  27  -5   0    0.83    0.54
 -27  -5   0    0.53    0.72
  27   5   0    0.88    0.70
 -29  -5   0   14.41    1.21
  29  -5   0   14.03    1.31
  29  -5   0   13.53    1.01
 -29  -5   0   14.61    1.54
  29  -5   0   12.94    1.28
  29  -5   0   15.84    1.32
  29   5   0   13.55    1.41
  31  -5   0    1.69    0.73
  31  -5   0    2.07    0.80
 -31  -5   0    2.82    1.09
  31  -5   0    1.76    0.59
 -31  -5   0    1.75    0.73
  31   5   0    1.93    0.84
 -33  -5   0    8.87    1.48
  33  -5   0    6.58    1.11
  33  -5   0    7.02    1.07
  33  -5   0    9.11    0.92
 -33  -5   0    7.97    1.07
  33   5   0   11.38    1.49
  35  -5   0    3.01    0.71
 -35  -5   0    3.64    0.88
 -35  -5   0    5.05    1.29
  35  -5   0    3.79    1.05
  35  -5   0    3.87    1.08
  35   5   0    0.80    1.04
  37  -5   0    3.28    1.12
  37  -5   0    3.85    1.15
 -37  -5   0    4.53    1.31
  37   5   0    5.79    1.35
   0  -6   0  127.06    3.47
   0  -6   0  122.76    3.50
   0  -6   0  124.80    3.64
   0  -6   0  118.44    3.67
   0   6   0  103.76    3.30
   0   6   0  103.09    2.96
   2  -6   0    9.86    0.70
  -2  -6   0    9.04    0.77
  -2  -6   0    7.72    0.66
   2  -6   0    9.95    0.55
   2  -6   0    7.58    0.63
  -2  -6   0    9.54    0.59
  -2  -6   0    7.84    0.50
   2  -6   0    9.24    0.57
  -2  -6   0    9.38    0.81
  -2   6   0    7.07    0.71
   2   6   0    6.89    0.49
   4  -6   0   24.96    1.10
  -4  -6   0   25.65    1.11
   4  -6   0   24.66    0.98
  -4  -6   0   25.93    1.24
   4  -6   0   26.01    1.13
  -4  -6   0   23.28    1.16
  -4  -6   0   24.11    1.01
  -4   6   0   24.15    1.18
   4   6   0   22.35    0.96
   6  -6   0   95.14    2.97
   6  -6   0   98.22    2.98
  -6  -6   0  101.47    3.22
  -6  -6   0   96.79    2.89
  -6  -6   0   95.46    3.12
   6  -6   0   97.77    2.84
  -6   6   0   96.00    3.06
   6   6   0   93.28    2.85
   8  -6   0    2.29    0.36
   8  -6   0    2.67    0.46
   8  -6   0    1.73    0.37
  -8  -6   0    2.12    0.38
  -8  -6   0    2.49    0.54
   8  -6   0    2.59    0.44
  -8  -6   0    2.94    0.58
  -8   6   0    3.64    0.56
   8   6   0    3.44    0.47
  10  -6   0   21.96    1.04
  10  -6   0   21.00    0.92
  10  -6   0   19.99    0.99
  10  -6   0   21.23    1.03
 -10  -6   0   19.87    1.18
 -10  -6   0   19.65    1.18
 -10  -6   0   20.05    0.98
  10   6   0   19.49    0.99
 -10   6   0   18.09    1.08
  12  -6   0   42.49    1.49
 -12  -6   0   41.40    1.58
 -12  -6   0   44.23    1.90
 -12  -6   0   41.88    1.89
  12  -6   0   41.18    1.62
  12  -6   0   41.15    1.60
  12  -6   0   42.77    1.57
  12   6   0   42.31    1.71
 -12   6   0   48.27    1.88
 -14  -6   0   11.41    1.05
  14  -6   0   10.96    0.88
  14  -6   0   10.66    0.87
 -14  -6   0   11.10    1.08
 -14  -6   0   11.46    0.85
  14  -6   0   12.27    0.79
  14  -6   0    9.73    0.69
 -14   6   0   10.64    0.93
  14   6   0   12.08    0.89
 -16  -6   0   63.43    2.26
  16  -6   0   66.47    2.34
 -16  -6   0   65.49    2.63
  16  -6   0   63.38    2.12
 -16  -6   0   64.48    2.60
  16  -6   0   68.35    2.22
  16  -6   0   63.85    2.28
 -16   6   0   62.36    2.39
  16   6   0   64.17    2.35
  18  -6   0    9.08    0.72
 -18  -6   0   12.06    0.94
  18  -6   0    9.49    0.85
 -18  -6   0   11.10    1.17
 -18  -6   0    8.23    1.02
  18  -6   0    7.01    0.81
  18   6   0    8.14    0.88
 -18   6   0    8.14    0.90
  18   6   0    8.83    0.72
 -20  -6   0    8.54    1.11
  20  -6   0   10.06    1.01
  20  -6   0    8.85    0.72
  20  -6   0    8.59    0.83
 -20  -6   0   10.03    0.92
 -20  -6   0    8.94    1.11
  20   6   0   10.80    1.08
  20   6   0    9.98    0.79
 -20   6   0   10.00    1.08
  22  -6   0   22.62    1.34
  22  -6   0   20.28    1.21
 -22  -6   0   21.27    1.56
  22  -6   0   21.26    1.25
 -22  -6   0   19.86    1.70
  22  -6   0   20.56    1.10
 -22  -6   0   21.18    1.27
  22   6   0   17.99    1.03
 -22   6   0   17.57    1.30
  22   6   0   16.12    1.23
 -24  -6   0   19.12    1.67
  24  -6   0   19.79    1.40
  24  -6   0   19.31    1.10
  24  -6   0   17.60    1.17
  24  -6   0   20.53    1.23
 -24  -6   0   19.04    1.66
 -24  -6   0   19.56    1.30
  24   6   0   18.71    1.44
  26  -6   0    7.61    1.00
 -26  -6   0    8.07    1.30
  26  -6   0    7.64    0.89
  26  -6   0    7.90    0.91
 -26  -6   0    6.05    0.88
  26  -6   0    6.09    0.71
  26   6   0    5.48    0.94
  28  -6   0   12.39    0.96
  28  -6   0   12.98    1.14
 -28  -6   0   13.28    1.58
  28  -6   0   13.06    1.27
 -28  -6   0   12.44    1.19
  28  -6   0   12.73    1.24
  28   6   0   14.05    1.48
  30  -6   0    7.07    1.03
  30  -6   0    7.90    0.83
 -30  -6   0    8.69    1.45
 -30  -6   0    9.18    1.09
  30  -6   0    7.26    1.08
  30   6   0    7.97    1.22
 -32  -6   0    5.34    1.25
  32  -6   0    6.25    0.82
 -32  -6   0    5.31    0.97
  32  -6   0    5.04    1.04
  32  -6   0    5.48    1.03
  32   6   0    2.32    1.03
 -34  -6   0   10.06    1.19
  34  -6   0    8.84    1.27
  34  -6   0    9.59    1.27
 -34  -6   0    5.58    1.45
  34  -6   0    8.78    0.91
  34   6   0    7.30    1.38
  36  -6   0    3.90    1.10
  36  -6   0    5.57    1.16
 -36  -6   0    4.77    1.49
  36   6   0    5.78    1.38
   1  -7   0   17.28    0.94
  -1  -7   0   14.88    0.91
  -1  -7   0   14.92    0.81
   1  -7   0   16.01    0.81
   1  -7   0   16.40    0.98
  -1  -7   0   16.49    1.00
   1   7   0   20.32    0.89
  -1   7   0   20.01    1.18
   1   7   0   18.68    1.17
   3  -7   0    5.84    0.52
  -3  -7   0    4.53    0.49
  -3  -7   0    6.57    0.76
   3  -7   0    7.12    0.68
  -3  -7   0    5.81    0.68
  -3  -7   0    6.19    0.66
   3  -7   0    6.07    0.66
  -3   7   0    8.01    0.84
   3   7   0    6.67    0.57
  -5  -7   0   13.12    0.99
  -5  -7   0   14.65    0.82
   5  -7   0   14.97    0.90
  -5  -7   0   14.32    1.02
   5  -7   0   16.34    0.93
   5  -7   0   14.58    0.78
  -5  -7   0   15.20    0.97
   5   7   0   12.72    0.76
  -5   7   0   14.37    1.00
  -7  -7   0   33.04    1.45
   7  -7   0   31.56    1.37
  -7  -7   0   32.62    1.58
  -7  -7   0   30.18    1.53
   7  -7   0   29.87    1.30
  -7  -7   0   32.74    1.31
   7  -7   0   30.89    1.22
   7  -7   0   31.80    1.36
   7   7   0   29.21    1.26
  -7   7   0   30.52    1.48
   9  -7   0    3.19    0.43
  -9  -7   0    3.00    0.47
  -9  -7   0    3.26    0.65
   9  -7   0    4.27    0.56
   9  -7   0    3.31    0.53
   9  -7   0    3.50    0.54
  -9  -7   0    1.62    0.57
   9   7   0    2.36    0.47
  -9   7   0    3.37    0.61
 -11  -7   0   13.63    0.89
  11  -7   0   13.12    0.89
  11  -7   0   12.91    0.78
  11  -7   0   13.35    0.90
 -11  -7   0   13.84    1.19
 -11  -7   0   14.86    1.24
  11  -7   0   14.42    0.90
  11   7   0   23.51    1.20
 -11   7   0   23.71    1.34
 -13  -7   0   34.72    1.79
  13  -7   0   35.71    1.45
  13  -7   0   30.64    1.46
  13  -7   0   31.91    1.48
 -13  -7   0   34.01    1.45
 -13  -7   0   37.80    1.83
  13  -7   0   32.20    1.32
  13   7   0   27.28    1.38
 -13   7   0   29.68    1.52
  15  -7   0   18.27    1.12
  15  -7   0   18.07    1.11
  15  -7   0   17.69    0.96
  15  -7   0   19.83    1.05
 -15  -7   0   16.98    1.07
 -15  -7   0   20.56    1.42
 -15  -7   0   18.27    1.36
  15   7   0   20.12    1.21
 -15   7   0   19.10    1.30
  17  -7   0    2.28    0.50
 -17  -7   0    1.57    0.64
  17  -7   0    0.63    0.48
  17  -7   0    1.62    0.43
  17  -7   0    1.39    0.52
 -17  -7   0    1.74    0.77
 -17  -7   0    1.94    0.53
  17   7   0    2.40    0.57
 -17   7   0    1.97    0.61
  19  -7   0    9.24    0.88
 -19  -7   0    9.61    1.21
  19  -7   0    8.15    0.94
  19  -7   0    9.09    0.75
 -19  -7   0    8.63    0.88
 -19  -7   0    7.75    1.08
  19   7   0    9.63    1.05
 -19   7   0   10.60    1.12
 -21  -7   0    2.85    0.83
 -21  -7   0    3.44    0.67
  21  -7   0    3.90    0.57
  21  -7   0    3.98    0.70
 -21  -7   0    1.88    0.91
  21  -7   0    2.66    0.68
  21   7   0    5.76    0.93
  23  -7   0   24.94    1.44
 -23  -7   0   28.23    1.93
  23  -7   0   23.66    1.26
 -23  -7   0   27.69    1.51
 -23  -7   0   26.39    1.97
  23  -7   0   27.35    1.46
  23  -7   0   26.60    1.61
  23   7   0   25.27    1.62
  25  -7   0    8.60    1.10
 -25  -7   0   11.93    1.12
  25  -7   0    8.08    0.98
  25  -7   0    8.66    0.83
  25  -7   0    9.21    1.02
 -25  -7   0   13.04    1.63
  25   7   0   11.60    1.28
  27  -7   0   10.96    1.12
 -27  -7   0    8.19    1.04
 -27  -7   0   10.43    1.50
  27  -7   0    9.98    1.19
  27  -7   0   10.21    1.09
  27  -7   0   11.61    0.97
  27   7   0   10.30    1.31
  29  -7   0   23.78    1.67
 -29  -7   0   27.09    2.29
  29  -7   0   23.73    1.59
 -29  -7   0   19.05    1.51
  29  -7   0   22.50    1.31
  29   7   0   25.13    1.88
  31  -7   0   10.28    0.96
 -31  -7   0   10.47    1.67
  31  -7   0   12.74    1.26
 -31  -7   0   11.71    1.22
  31  -7   0   13.93    1.45
  31   7   0    9.75    1.40
 -33  -7   0    1.91    1.13
  33  -7   0    2.15    0.64
 -33  -7   0    1.95    0.85
  33  -7   0    3.69    0.97
  33  -7   0    0.54    0.83
  33   7   0    2.23    1.05
 -35  -7   0    0.63    1.34
  35  -7   0    1.51    0.82
  35   7   0    2.44    1.06
   0  -8   0   15.01    0.86
   0  -8   0   14.16    0.95
   0  -8   0   14.66    1.04
   0   8   0   18.05    1.21
  -2  -8   0   28.35    1.21
   2  -8   0   26.47    1.18
  -2  -8   0   29.72    1.38
  -2  -8   0   28.33    1.46
   2  -8   0   27.28    1.39
   2  -8   0   28.88    1.37
   2   8   0   33.28    1.69
   2   8   0   35.12    1.34
  -2   8   0   35.19    1.71
  -4  -8   0   48.70    1.72
  -4  -8   0   42.66    1.98
   4  -8   0   47.45    1.84
   4  -8   0   43.78    1.84
   4  -8   0   47.25    1.66
  -4  -8   0   45.08    1.85
  -4  -8   0   48.31    1.98
  -4   8   0   51.36    2.09
   4   8   0   47.98    1.75
   6  -8   0   15.64    1.04
  -6  -8   0   14.56    1.09
   6  -8   0   15.25    0.91
   6  -8   0   14.23    0.97
  -6  -8   0   12.13    0.99
   6  -8   0   13.99    0.83
  -6  -8   0   13.87    0.88
  -6  -8   0   13.05    1.16
  -6   8   0   19.07    1.24
   6   8   0   17.51    0.97
   8  -8   0   15.32    1.06
   8  -8   0   14.53    1.00
  -8  -8   0   15.47    1.18
  -8  -8   0   15.30    0.95
  -8  -8   0   13.03    1.16
   8  -8   0   16.30    1.01
   8  -8   0   15.90    0.89
  -8  -8   0   16.05    1.06
   8   8   0   13.70    0.90
  -8   8   0   14.06    1.16
 -10  -8   0    7.38    0.96
 -10  -8   0    7.61    0.84
 -10  -8   0    8.57    0.78
  10  -8   0    9.15    0.69
  10  -8   0    9.14    0.82
  10  -8   0    8.92    0.84
  10  -8   0    8.60    0.86
 -10  -8   0    7.68    0.97
 -10   8   0    6.66    0.86
  10   8   0    7.64    0.77
 -12  -8   0   61.47    2.64
  12  -8   0   68.05    2.16
 -12  -8   0   66.97    2.71
 -12  -8   0   60.73    2.24
  12  -8   0   66.21    2.32
  12  -8   0   62.38    2.34
  12  -8   0   61.40    2.31
 -12  -8   0   63.20    2.41
 -12   8   0   53.14    2.22
  12   8   0   50.61    2.05
 -14  -8   0   10.62    1.17
  14  -8   0    8.47    0.85
 -14  -8   0    8.43    0.82
  14  -8   0    8.63    0.82
  14  -8   0    9.47    0.74
  14  -8   0    7.96    0.87
 -14  -8   0    8.94    1.06
 -14   8   0    7.80    0.98
  14   8   0    8.24    0.87
 -16  -8   0    0.32    0.46
  16  -8   0    0.00    0.41
 -16  -8   0    0.79    0.68
 -16  -8   0    0.88    0.65
  16  -8   0    0.32    0.36
  16  -8   0    0.07    0.46
  16  -8   0    0.55    0.50
  16   8   0    1.66    0.60
 -16   8   0    2.15    0.70
  18  -8   0   42.84    1.95
 -18  -8   0   50.26    2.47
  18  -8   0   43.99    1.73
  18  -8   0   41.33    1.94
  18  -8   0   48.38    1.86
 -18  -8   0   46.80    1.94
 -18  -8   0   44.85    2.37
 -18   8   0   46.81    3.10
  18   8   0   47.06    2.11
 -20  -8   0   14.58    1.17
  20  -8   0   14.12    1.22
 -20  -8   0   13.45    1.48
  20  -8   0   16.06    1.01
  20  -8   0   13.96    1.15
 -20  -8   0   16.09    1.63
  20   8   0   14.65    1.34
  22  -8   0    6.35    0.73
 -22  -8   0    4.84    0.81
  22  -8   0    6.14    0.89
 -22  -8   0    5.84    1.22
  22  -8   0    6.66    0.95
  22  -8   0    6.04    0.79
  22   8   0    4.84    0.96
 -24  -8   0   19.43    1.84
  24  -8   0   20.47    1.33
  24  -8   0   18.89    1.17
  24  -8   0   19.02    1.35
  24  -8   0   19.78    1.58
 -24  -8   0   16.60    1.34
  24   8   0   21.98    1.65
  26  -8   0    3.99    0.80
 -26  -8   0    4.38    0.87
  26  -8   0    3.53    0.67
 -26  -8   0    5.30    1.32
  26  -8   0    3.79    0.84
  26  -8   0    3.75    0.96
  26   8   0    5.73    1.08
  28  -8   0   22.69    1.55
  28  -8   0   22.74    1.60
 -28  -8   0   25.02    2.23
  28  -8   0   23.68    1.83
 -28  -8   0   24.69    1.68
  28  -8   0   22.48    1.34
  28   8   0   16.73    1.71
 -30  -8   0    5.66    1.00
 -30  -8   0    4.50    1.40
  30  -8   0    6.66    0.82
  30  -8   0    6.18    1.03
  30  -8   0    5.49    1.15
  30   8   0    2.61    1.05
 -32  -8   0    3.78    1.43
 -32  -8   0    7.53    1.13
  32  -8   0    6.87    1.14
  32  -8   0    5.49    0.81
  32  -8   0    6.46    1.27
  32   8   0    5.54    1.31
  34  -8   0    3.87    1.00
  34   8   0    4.36    1.26
   1  -9   0   25.02    1.19
   1  -9   0   27.76    1.48
   1  -9   0   24.19    1.34
  -1  -9   0   26.22    1.22
  -1  -9   0   24.85    1.41
  -1  -9   0   25.47    1.37
   1   9   0   22.57    1.43
  -1   9   0   22.02    1.45
   3  -9   0   17.15    1.13
   3  -9   0   19.48    1.22
   3  -9   0   17.38    0.97
  -3  -9   0   15.99    0.99
  -3  -9   0   17.03    1.15
  -3  -9   0   19.00    1.30
  -3   9   0   19.42    1.37
   3   9   0   18.46    0.97
   3   9   0   17.73    1.38
  -5  -9   0   52.84    2.34
   5  -9   0   59.20    2.12
   5  -9   0   53.72    1.94
  -5  -9   0   56.04    2.22
  -5  -9   0   55.22    2.02
   5  -9   0   57.49    2.21
  -5  -9   0   57.67    2.47
   5  -9   0   55.47    2.20
  -5   9   0   54.87    2.29
   5   9   0   51.79    1.91
   7  -9   0   20.80    1.32
   7  -9   0   24.39    1.15
  -7  -9   0   21.87    1.53
  -7  -9   0   23.37    1.21
   7  -9   0   23.67    1.31
   7  -9   0   23.40    1.27
  -7  -9   0   22.54    1.52
  -7  -9   0   23.50    1.36
  -7   9   0   25.13    1.54
   7   9   0   25.40    1.25
   9  -9   0    2.34    0.56
   9  -9   0    1.66    0.56
   9  -9   0    1.95    0.54
  -9  -9   0    1.38    0.69
  -9  -9   0    1.67    0.50
  -9  -9   0    2.63    0.81
   9  -9   0    2.07    0.45
  -9  -9   0    1.58    0.66
   9   9   0    2.55    0.56
  -9   9   0    0.81    0.57
 -11  -9   0   68.85    2.46
  11  -9   0   70.63    2.54
 -11  -9   0   73.22    3.00
 -11  -9   0   70.63    2.66
  11  -9   0   67.15    2.51
 -11  -9   0   69.22    2.93
  11  -9   0   68.92    2.57
  11  -9   0   70.70    2.34
  11   9   0   74.81    2.67
 -11   9   0   74.60    2.88
  13  -9   0   24.87    1.31
  13  -9   0   22.41    1.15
  13  -9   0   22.78    1.35
 -13  -9   0   22.05    1.31
 -13  -9   0   23.79    1.73
  13  -9   0   22.80    1.34
 -13  -9   0   21.29    1.60
 -13  -9   0   24.48    1.43
 -13   9   0   21.02    1.47
  13   9   0   19.51    1.23
  15  -9   0    1.24    0.58
 -15  -9   0    2.69    0.85
 -15  -9   0    1.72    0.57
  15  -9   0    2.04    0.48
 -15  -9   0    1.92    0.79
  15  -9   0    1.96    0.68
 -15  -9   0    2.19    0.73
  15  -9   0    2.08    0.58
  15   9   0    2.42    0.67
 -17  -9   0   20.07    1.47
 -17  -9   0   22.65    1.88
  17  -9   0   20.91    1.25
 -17  -9   0   22.18    1.72
 -17  -9   0   20.84    1.35
  17  -9   0   22.72    1.40
  17  -9   0   21.35    1.40
  17  -9   0   21.21    1.16
  17   9   0   22.55    1.46
  19  -9   0   10.10    0.86
 -19  -9   0    7.04    0.92
 -19  -9   0    8.54    1.29
  19  -9   0    8.52    1.02
 -19  -9   0   10.08    1.17
  19  -9   0   10.20    1.08
  19  -9   0   10.32    0.98
  19   9   0    7.67    1.05
 -21  -9   0   17.42    1.75
  21  -9   0   14.19    1.10
  21  -9   0   16.35    1.35
 -21  -9   0   15.23    1.25
  21  -9   0   14.96    1.07
  21  -9   0   12.69    1.24
  21   9   0   16.83    1.52
 -23  -9   0    1.60    0.71
  23  -9   0    1.82    0.76
 -23  -9   0    2.22    1.01
  23  -9   0    0.15    0.58
  23  -9   0    0.82    0.52
  23  -9   0    1.43    0.62
  23   9   0    1.75    0.82
  25  -9   0   25.63    1.70
  25  -9   0   24.02    1.49
 -25  -9   0   22.81    2.26
 -25  -9   0   24.34    1.63
  25  -9   0   23.82    1.60
  25  -9   0   24.06    1.37
  25   9   0   18.07    1.67
  27  -9   0    7.04    1.07
  27  -9   0    4.66    0.76
 -27  -9   0    6.40    1.50
  27  -9   0    4.99    1.03
 -27  -9   0    3.79    0.92
  27  -9   0    5.60    0.93
  27   9   0    3.35    1.04
  29  -9   0    0.51    0.59
  29  -9   0    1.35    0.77
 -29  -9   0    0.14    0.73
  29  -9   0    0.59    0.87
 -29  -9   0    1.17    1.21
  29   9   0    0.08    0.90
 -31  -9   0    0.66    1.10
 -31  -9   0    1.39    0.87
  31  -9   0    0.73    0.99
  31  -9   0    0.43    0.60
  31  -9   0    1.02    0.79
  31   9   0    0.69    1.05
   0 -10   0   11.05    1.15
   0 -10   0   12.23    1.11
   0 -10   0   10.96    0.86
   0  10   0   19.03    1.47
  -2 -10   0    3.33    0.77
   2 -10   0    3.68    0.57
  -2 -10   0    4.13    0.60
   2 -10   0    4.84    0.76
   2 -10   0    2.78    0.70
  -2 -10   0    4.21    0.80
   2  10   0    4.16    0.89
  -2  10   0    3.56    0.84
  -4 -10   0    2.41    0.74
   4 -10   0    3.70    0.56
  -4 -10   0    2.15    0.51
   4 -10   0    3.52    0.72
   4 -10   0    1.99    0.64
  -4 -10   0    3.05    0.71
   4 -10   0    2.74    0.59
   4  10   0    5.27    0.63
   4  10   0    6.18    0.99
  -4  10   0    3.83    0.81
  -6 -10   0    5.92    0.71
   6 -10   0    6.78    0.88
  -6 -10   0    6.25    1.05
   6 -10   0    4.75    0.62
  -6 -10   0    6.22    1.02
   6 -10   0    5.94    0.85
   6 -10   0    7.39    0.86
  -6 -10   0    6.62    0.94
   6  10   0    3.18    0.56
  -6  10   0    2.53    0.76
  -8 -10   0    0.38    0.60
  -8 -10   0    0.92    0.50
   8 -10   0    0.93    0.55
   8 -10   0    1.41    0.47
   8 -10   0    1.24    0.59
  -8 -10   0    0.20    0.64
  -8 -10   0    0.08    0.68
   8 -10   0    0.57    0.58
  -8  10   0    0.55    0.63
   8  10   0    0.37    0.42
 -10 -10   0    3.83    0.92
  10 -10   0    4.40    0.74
  10 -10   0    5.75    0.79
 -10 -10   0    6.95    0.99
  10 -10   0    6.64    0.71
  10 -10   0    5.52    0.83
 -10 -10   0    5.32    0.74
 -10 -10   0    5.03    0.98
  10  10   0    7.18    0.85
 -12 -10   0   21.94    1.57
  12 -10   0   22.25    1.43
  12 -10   0   24.48    1.42
  12 -10   0   23.68    1.22
 -12 -10   0   20.42    1.76
  12 -10   0   22.31    1.35
 -12 -10   0   27.00    1.88
 -12 -10   0   27.34    1.43
  12  10   0   22.34    1.37
 -14 -10   0    5.64    0.90
 -14 -10   0    3.77    1.09
 -14 -10   0    5.77    0.82
 -14 -10   0    4.41    1.04
  14 -10   0    5.55    0.90
  14 -10   0    6.14    0.83
  14 -10   0    5.90    0.86
  14 -10   0    5.38    0.68
  14  10   0    8.56    1.00
 -16 -10   0   13.00    1.61
  16 -10   0    9.75    0.99
  16 -10   0   11.73    1.20
  16 -10   0    9.48    1.05
  16 -10   0   11.32    0.91
 -16 -10   0    9.44    1.00
 -16 -10   0    9.88    1.14
  16  10   0   12.48    1.23
 -18 -10   0   18.28    1.82
 -18 -10   0   16.06    1.49
  18 -10   0   16.05    1.10
  18 -10   0   16.25    1.36
  18 -10   0   12.96    1.24
 -18 -10   0   15.15    1.25
  18  10   0   15.02    1.42
 -20 -10   0    2.27    1.04
  20 -10   0    3.47    0.64
 -20 -10   0    1.53    0.71
 -20 -10   0    3.57    0.93
  20 -10   0    2.40    0.84
  20 -10   0    3.69    0.84
  20  10   0    2.93    0.85
  22 -10   0    6.90    0.81
 -22 -10   0    9.70    1.21
  22 -10   0    7.71    1.11
 -22 -10   0    7.13    1.01
 -22 -10   0    8.52    1.46
  22 -10   0    6.83    1.05
  22  10   0    5.40    1.07
 -24 -10   0    0.01    0.98
  24 -10   0    0.73    0.84
 -24 -10   0   -0.32    0.80
  24 -10   0    1.09    0.59
 -24 -10   0    0.05    0.67
  24 -10   0    1.00    0.79
  24  10   0    2.63    0.94
  26 -10   0   13.15    1.43
 -26 -10   0   11.31    1.26
  26 -10   0   13.09    1.07
 -26 -10   0   13.10    1.79
  26 -10   0   13.09    1.37
 -28 -10   0    1.89    0.86
 -28 -10   0    2.63    1.28
  28 -10   0    2.03    0.67
  28 -10   0    0.87    0.85
   1 -11   0   44.14    2.04
  -1 -11   0   47.99    2.15
  -1 -11   0   42.08    2.15
   1 -11   0   38.73    1.71
   1 -11   0   42.81    2.10
  -1 -11   0   38.04    1.71
   3 -11   0   12.37    1.09
  -3 -11   0   13.63    1.26
   3 -11   0   13.88    1.26
   3 -11   0   13.59    1.01
  -3 -11   0   11.63    0.97
  -3 -11   0   13.12    1.37
   3 -11   0   11.69    1.21
   5 -11   0   10.30    1.03
   5 -11   0   11.52    1.17
   5 -11   0   10.43    0.89
  -5 -11   0   10.85    1.16
  -5 -11   0   12.29    1.35
   5 -11   0    9.39    1.09
  -5 -11   0   10.83    0.95
  -7 -11   0   30.24    1.90
  -7 -11   0   30.45    1.77
  -7 -11   0   32.89    2.04
   7 -11   0   32.13    1.47
   7 -11   0   33.13    1.67
  -7 -11   0   30.03    1.53
   7 -11   0   29.83    1.77
   7 -11   0   31.12    1.71
  -9 -11   0   14.34    1.58
   9 -11   0   17.38    1.24
  -9 -11   0   18.60    1.24
   9 -11   0   16.38    1.43
  -9 -11   0   16.32    1.72
  -9 -11   0   16.46    1.44
   9 -11   0   17.01    1.29
   9 -11   0   18.28    1.12
 -11 -11   0    1.02    0.81
  11 -11   0    1.67    0.54
  11 -11   0    1.64    0.66
 -11 -11   0    0.45    0.94
  11 -11   0    1.28    0.64
 -11 -11   0    1.41    0.72
 -11 -11   0    1.31    0.60
  11 -11   0    1.36    0.67
 -13 -11   0    3.46    0.73
  13 -11   0    3.77    0.65
 -13 -11   0    4.46    1.12
  13 -11   0    4.96    0.82
  13 -11   0    3.40    0.88
  13 -11   0    5.10    0.94
 -13 -11   0    3.09    0.92
 -15 -11   0   -0.06    0.75
  15 -11   0   -0.38    0.58
  15 -11   0    0.22    0.47
 -15 -11   0   -0.62    0.76
  15 -11   0    2.03    0.72
 -15 -11   0   -0.60    0.54
 -17 -11   0    7.20    1.44
  17 -11   0    4.42    0.90
 -17 -11   0    5.55    0.88
  17 -11   0    5.17    0.96
  17 -11   0    4.02    0.67
 -17 -11   0    4.77    0.99
  19 -11   0    3.98    0.87
 -19 -11   0    4.95    0.98
 -19 -11   0    3.70    0.83
  19 -11   0    2.88    0.92
  19 -11   0    5.11    0.73
 -19 -11   0    3.48    1.17
  21 -11   0    2.69    0.91
  21 -11   0    1.15    0.80
 -21 -11   0   -0.10    1.16
  21 -11   0    2.22    0.63
 -21 -11   0    1.68    0.75
 -21 -11   0    2.23    0.97
  23 -11   0   26.23    1.97
  23 -11   0   25.79    1.43
 -23 -11   0   23.13    1.85
  23 -11   0   26.67    1.81
 -23 -11   0   21.63    2.29
 -23 -11   0   24.83    1.73
 -25 -11   0    4.57    1.42
  25 -11   0    4.67    1.04
 -25 -11   0    4.72    0.97
  25 -11   0    3.80    0.77
  25 -11   0    2.42    0.94
  27 -11   0    5.65    1.11
   0 -12   0   25.85    1.69
   0 -12   0   28.26    1.83
   0 -12   0   26.69    1.54
   0 -12   0   26.55    1.43
   2 -12   0    3.62    0.92
  -2 -12   0    2.56    0.63
  -2 -12   0    2.18    0.86
   2 -12   0    3.08    0.88
   2 -12   0    3.35    0.73
   2 -12   0    2.32    0.61
  -2 -12   0    4.07    0.96
  -4 -12   0    1.10    0.71
  -4 -12   0    1.16    0.84
   4 -12   0    2.98    0.74
   4 -12   0    1.68    0.56
   4 -12   0    1.38    0.78
  -4 -12   0    2.15    0.63
   4 -12   0    1.62    0.73
  -6 -12   0    4.75    1.12
   6 -12   0    5.94    0.91
   6 -12   0    6.84    1.06
   6 -12   0    6.21    1.00
  -6 -12   0    4.66    0.97
  -6 -12   0    5.78    0.80
   6 -12   0    6.97    0.79
  -8 -12   0    2.80    0.85
   8 -12   0    2.71    0.62
  -8 -12   0    2.20    1.02
   8 -12   0    3.93    0.89
   8 -12   0    2.68    0.72
   8 -12   0    2.09    0.76
  -8 -12   0    2.04    0.68
  10 -12   0   14.08    1.30
 -10 -12   0   11.28    1.10
  10 -12   0   11.88    0.99
 -10 -12   0   11.26    1.54
 -10 -12   0   12.12    1.34
  10 -12   0   12.26    1.33
  10 -12   0   13.01    1.27
  12 -12   0    0.78    0.75
 -12 -12   0    0.79    0.79
 -12 -12   0    0.13    0.62
 -12 -12   0    0.62    0.96
  12 -12   0    1.60    0.57
  12 -12   0    0.15    0.75
  14 -12   0    8.02    1.21
  14 -12   0    9.78    1.15
 -14 -12   0   10.44    1.48
 -14 -12   0    7.41    0.96
 -14 -12   0    7.99    1.20
  14 -12   0    7.03    0.82
 -16 -12   0   15.78    1.61
 -16 -12   0   16.96    1.96
  16 -12   0   15.87    1.50
  16 -12   0   14.66    1.44
 -16 -12   0   17.68    1.37
  16 -12   0   16.18    1.17
  18 -12   0    3.25    0.94
  18 -12   0    3.37    1.02
 -18 -12   0    3.17    0.94
  18 -12   0    3.27    0.70
 -18 -12   0    4.27    0.91
 -18 -12   0    3.02    1.20
  20 -12   0    6.02    1.09
 -20 -12   0    6.14    1.44
 -20 -12   0    4.80    0.97
  20 -12   0    6.97    1.22
 -20 -12   0    7.58    1.30
  20 -12   0    5.09    0.78
  22 -12   0    2.32    0.96
  22 -12   0    2.09    1.01
 -22 -12   0    2.89    1.03
 -22 -12   0    2.70    0.86
 -22 -12   0    3.74    1.47
  22 -12   0    2.02    0.69
 -24 -12   0   18.68    2.31
 -24 -12   0   12.05    2.16
  24 -12   0   14.11    1.69
  24 -12   0   15.19    1.84
  24 -12   0   16.02    1.64
   1 -13   0    3.89    0.96
  -1 -13   0    3.15    0.95
  -1 -13   0    4.21    0.75
  -1 -13   0    3.91    0.97
   1 -13   0    6.64    1.16
   1 -13   0    5.19    0.77
   1 -13   0    4.98    0.90
  -1 -13   0    4.49    0.87
   3 -13   0    0.31    0.55
   3 -13   0   -0.64    0.76
  -3 -13   0   -0.66    0.77
  -3 -13   0    0.18    0.82
   3 -13   0    0.60    0.66
   3 -13   0   -0.13    0.72
  -3 -13   0    0.41    0.57
   5 -13   0    3.39    0.69
   5 -13   0    2.96    0.76
  -5 -13   0    4.54    1.02
  -5 -13   0    2.70    1.05
   5 -13   0    3.77    0.95
  -5 -13   0    2.67    0.70
   5 -13   0    4.41    0.99
   7 -13   0    2.57    0.87
   7 -13   0    3.43    0.87
  -7 -13   0    4.52    1.21
  -7 -13   0    3.40    0.78
  -7 -13   0    1.84    0.85
   7 -13   0    5.13    1.07
   7 -13   0    3.58    0.69
   9 -13   0    1.09    0.59
  -9 -13   0    2.25    1.10
  -9 -13   0    2.17    0.71
   9 -13   0    0.83    0.78
   9 -13   0    1.28    0.80
  -9 -13   0    1.50    0.86
  11 -13   0    9.52    1.22
 -11 -13   0    7.93    1.39
 -11 -13   0    7.57    0.99
  11 -13   0    9.31    1.31
 -11 -13   0    5.40    1.12
  11 -13   0    7.00    0.87
 -13 -13   0   -0.54    0.87
 -13 -13   0    0.16    1.03
 -13 -13   0    0.87    0.68
  13 -13   0   -0.39    0.71
  13 -13   0    0.81    0.60
  13 -13   0    1.28    0.85
 -15 -13   0    2.53    0.81
 -15 -13   0    3.55    1.00
  15 -13   0    3.59    0.73
  15 -13   0    3.29    0.92
  15 -13   0    3.89    1.00
 -15 -13   0    4.33    1.30
 -17 -13   0    3.99    0.92
  17 -13   0    1.86    0.99
  17 -13   0    2.33    0.69
 -17 -13   0    3.26    1.25
  17 -13   0    4.28    1.00
 -17 -13   0    3.72    1.05
 -19 -13   0    1.25    0.95
  19 -13   0   -0.30    0.57
  19 -13   0   -0.71    0.87
 -19 -13   0    0.06    1.19
 -19 -13   0    0.24    0.71
  19 -13   0    0.10    0.79
  21 -13   0    4.29    1.26
 -21 -13   0    6.81    1.37
  21 -13   0    7.06    1.22
   0 -14   0    7.56    1.30
   0 -14   0   10.00    1.42
   0 -14   0    9.28    1.01
  -2 -14   0    2.08    0.90
   2 -14   0    1.63    0.68
  -2 -14   0    3.27    0.77
  -2 -14   0    2.33    0.98
   2 -14   0    1.76    0.89
   2 -14   0    2.34    0.83
   2 -14   0    1.40    0.95
  -4 -14   0   10.31    1.51
   4 -14   0    9.77    1.42
  -4 -14   0   10.13    1.08
   4 -14   0    9.06    1.16
   4 -14   0    8.67    1.30
  -4 -14   0   10.91    1.51
   4 -14   0    7.73    0.92
  -6 -14   0    4.54    1.24
  -6 -14   0    3.85    1.19
  -6 -14   0    3.55    0.80
   6 -14   0    3.78    0.74
   6 -14   0    3.90    1.03
   6 -14   0    4.11    0.98
  -8 -14   0    1.70    0.72
   8 -14   0    3.29    0.86
  -8 -14   0    1.93    1.17
   8 -14   0    0.54    0.95
  -8 -14   0    1.42    0.90
   8 -14   0    1.62    0.66
  10 -14   0    0.23    0.84
 -10 -14   0   -0.36    0.66
  10 -14   0   -0.06    0.88
 -10 -14   0   -0.05    1.01
 -10 -14   0    0.85    0.99
  10 -14   0    0.75    0.63
  12 -14   0    1.15    0.65
 -12 -14   0    0.80    0.72
 -12 -14   0    1.04    1.20
  12 -14   0    2.39    0.95
 -12 -14   0    1.58    1.09
  12 -14   0    1.79    1.03
  14 -14   0   -0.42    0.57
 -14 -14   0   -1.43    1.06
 -14 -14   0    0.86    0.73
 -14 -14   0   -0.20    0.84
  14 -14   0   -1.45    0.78
  14 -14   0    1.24    0.86
  16 -14   0    1.53    0.99
 -16 -14   0    4.13    1.35
 -16 -14   0    1.75    1.12
  16 -14   0    2.20    1.00
 -18 -14   0    2.18    1.15
   1 -15   0    5.42    1.30
   1 -15   0    2.46    1.25
  -1 -15   0    5.49    1.32
  -1 -15   0    4.14    0.84
   1 -15   0    6.20    0.91
  -1 -15   0    4.20    1.16
  -3 -15   0    6.84    1.42
  -3 -15   0    5.75    1.23
   3 -15   0    6.25    0.89
  -3 -15   0    2.59    0.77
   3 -15   0    5.21    1.13
  -5 -15   0   10.69    1.14
   5 -15   0    8.71    1.39
  -5 -15   0    8.91    1.61
  -5 -15   0   11.03    1.51
   5 -15   0   10.90    1.09
  -7 -15   0    1.66    1.18
  -7 -15   0    1.26    1.19
   7 -15   0    1.79    0.94
  -7 -15   0    1.11    1.11
   7 -15   0    1.45    0.85
   7 -15   0    2.66    1.26
  -9 -15   0    1.70    1.25
   9 -15   0    0.44    0.84
  -9 -15   0   -0.64    0.98
 -11 -15   0    3.03    1.37
  11 -15   0    4.28    1.10
  38   0  -1    7.23    1.22
  38   0  -1    8.78    1.42
  36   0  -1    4.47    0.76
  36   0  -1    3.01    0.95
  36   0  -1    4.56    1.09
  34   0  -1    6.41    1.13
  34   0  -1    6.36    0.80
  34   0  -1    5.07    0.99
  32   0  -1   26.09    1.72
  32   0  -1   21.23    1.26
  32   0  -1   23.66    1.57
  30   0  -1    0.94    0.47
  30   0  -1   -0.50    0.60
  30   0  -1    1.43    0.66
  28   0  -1    7.17    0.71
  28   0  -1    8.13    1.06
  28   0  -1    8.44    0.97
  26   0  -1    7.03    0.82
  26   0  -1    8.06    0.95
 -26   0   1    8.38    1.03
  26   0  -1    8.59    0.72
  24   0  -1   16.47    0.92
 -24   0   1   15.43    1.19
  24   0  -1   15.87    0.90
  24   0  -1   15.26    1.06
  24   0  -1   16.16    1.14
  22   0  -1    4.82    0.74
 -22   0   1    4.51    0.71
  22   0  -1    4.31    0.53
  22   0  -1    5.05    0.64
  22   0  -1    4.82    0.51
  20   0  -1    2.18    0.40
  20   0  -1    3.15    0.57
  20   0  -1    2.48    0.46
  20   0  -1    2.56    0.40
 -20   0   1    2.11    0.57
  18   0  -1    1.34    0.39
  18   0  -1    1.79    0.31
  18   0  -1    2.42    0.47
  18   0  -1    1.79    0.35
 -18   0   1    1.84    0.48
  16   0  -1   66.29    2.10
  16   0  -1   68.25    2.24
  16   0  -1   67.83    2.03
  16   0  -1   66.61    2.17
 -16   0   1   67.68    2.31
  16   0  -1   66.90    2.29
  14   0  -1   88.95    2.72
  14   0  -1   88.33    2.52
 -14   0   1   86.65    2.76
  14   0  -1   87.17    2.65
  14   0  -1   92.59    2.76
  14   0  -1   86.14    2.59
  12   0  -1   16.18    0.80
 -12   0   1   16.17    0.80
  12   0  -1   16.53    0.71
  12   0  -1   16.06    0.76
  12   0  -1   16.23    0.64
  12   0  -1   15.66    0.72
  10   0  -1  117.68    3.35
  10   0  -1  120.94    3.39
  10   0  -1  119.40    3.43
 -10   0   1  123.93    3.38
 -10   0   1  126.74    3.48
  10   0  -1  123.54    3.46
  10   0  -1  121.60    3.28
   8   0  -1   46.81    1.45
  -8   0   1   46.81    1.40
   8   0  -1   46.57    1.40
   8   0  -1   46.08    1.45
   8   0  -1   46.70    1.33
  -8   0   1   46.89    1.47
  -8   0   1   45.25    1.46
   8   0  -1   47.74    1.43
  -8   0   1   45.13    1.40
  -8   0   1   45.04    1.32
   6   0  -1  118.63    3.10
   6   0  -1  117.87    3.19
   6   0  -1  116.30    3.19
  -6   0   1  124.81    3.18
  -6   0   1  116.55    3.21
   6   0  -1  120.55    3.22
   6   0  -1  121.29    3.22
  -6   0   1  107.52    3.10
  -6   0   1  119.41    3.18
  -6   0   1  119.37    3.19
   4   0  -1   64.57    1.76
  -4   0   1   54.64    1.73
   4   0  -1   62.69    1.66
   4   0  -1   65.41    1.76
  -4   0   1   64.18    1.76
  -4   0   1   65.52    1.75
   4   0  -1   63.27    1.76
  -4   0   1   64.28    1.74
   4   0  -1   65.79    1.76
  -4   0   1   60.03    1.66
  -2   0   1    0.60    0.08
   2   0  -1    0.62    0.10
   2   0  -1    0.56    0.10
   2   0  -1    0.83    0.09
  -2   0   1    0.44    0.09
   2   0  -1    0.62    0.10
  -2   0   1    0.90    0.11
   0   0   1   34.55    0.96
   0   0   1   34.21    0.96
   0   0   1   35.57    0.98
   0   0   1   34.65    0.95
  -2   0  -1   38.25    1.04
  -2   0  -1   37.02    1.03
   2   0   1   38.90    1.03
  -4   0  -1    0.80    0.09
  -4   0  -1    0.52    0.12
   4   0   1    0.58    0.09
   4   0   1    0.33    0.11
  -4   0  -1    1.10    0.13
   6   0   1  514.22   12.91
   6   0   1  506.35   12.74
  -6   0  -1  505.60   12.92
  -6   0  -1  486.74   12.80
   6   0   1  491.99   12.81
  -6   0  -1  499.55   12.73
   6   0   1  501.33   12.80
  -8   0  -1  878.95   21.98
   8   0   1  889.77   22.07
   8   0   1  729.86   21.97
  -8   0  -1  898.08   22.21
   8   0   1  871.68   22.05
  -8   0  -1  916.01   22.10
   8   0   1  854.93   22.18
  -8   0  -1  880.71   22.06
 -10   0  -1    8.85    0.36
  10   0   1    8.81    0.42
 -10   0  -1    8.83    0.45
  10   0   1    8.82    0.43
 -10   0  -1    9.46    0.43
 -10   0  -1    9.12    0.56
  10   0   1    8.60    0.36
  10   0   1    7.89    0.50
 -12   0  -1    0.56    0.25
 -12   0  -1    1.25    0.22
 -12   0  -1    0.88    0.16
  12   0   1    0.78    0.19
  12   0   1    0.98    0.21
  12   0   1    0.80    0.15
  14   0   1  314.96    8.16
 -14   0  -1  314.95    8.27
  14   0   1  319.01    8.25
 -14   0  -1  310.69    8.17
  14   0   1  314.27    8.28
 -14   0  -1  309.90    8.51
  16   0   1   16.61    0.88
 -16   0  -1   17.95    0.97
 -16   0  -1   17.59    0.69
  16   0   1   17.22    0.78
  16   0   1   15.78    0.67
  16   0   1   17.26    0.76
  18   0   1    0.60    0.33
 -18   0  -1    0.12    0.38
  18   0   1    0.68    0.22
  18   0   1    0.38    0.26
  18   0   1    0.30    0.28
  20   0   1   28.74    1.17
  20   0   1   27.78    1.29
  20   0   1   26.69    1.11
 -20   0  -1   28.20    1.43
 -22   0  -1    6.28    0.85
  22   0   1    4.64    0.65
  22   0   1    5.10    0.55
  22   0   1    4.64    0.55
  24   0   1    3.76    0.62
  24   0   1    3.39    0.49
 -24   0  -1    2.47    0.66
  24   0   1    3.15    0.53
  26   0   1    0.79    0.48
 -26   0  -1   -0.28    0.61
  26   0   1    0.96    0.43
  26   0   1    1.37    0.59
  28   0   1    0.51    0.59
 -28   0  -1   -0.73    0.57
  28   0   1    0.25    0.50
  28   0   1    0.27    0.41
  30   0   1   15.80    1.32
  30   0   1   16.05    1.23
  30   0   1   14.48    1.05
  32   0   1   -0.09    0.49
  32   0   1    0.54    0.57
  32   0   1    0.33    0.65
  34   0   1    2.59    0.66
 -34   0  -1    1.94    0.83
  34   0   1    1.84    0.75
  34   0   1    2.52    0.85
  36   0   1   -0.03    0.58
  36   0   1   -0.79    0.82
  36   0   1    1.41    0.93
  38   0   1    3.25    1.05
  38   0   1    3.13    0.77
 -39  -1   1    3.64    1.17
  39  -1  -1    5.70    1.17
  37  -1  -1    4.28    1.04
  37  -1  -1    1.67    0.65
  37  -1  -1    2.60    1.01
  37   1  -1    5.09    1.31
  37   1  -1    3.81    0.98
  35  -1  -1    1.28    0.95
  35  -1  -1    1.30    0.59
  35  -1  -1    1.76    0.87
  35   1  -1    2.18    0.83
  35   1  -1    1.92    1.01
  33  -1  -1   12.41    1.42
  33  -1  -1   10.68    1.25
  33  -1  -1   11.22    0.94
  33   1  -1    9.46    1.29
  33   1  -1    6.65    1.00
  33   1  -1    6.49    0.81
  31  -1  -1    7.06    0.76
  31  -1  -1    8.20    1.03
  31  -1  -1    7.70    1.12
  31   1  -1    5.36    0.92
  31   1  -1    5.60    1.06
  31   1  -1    6.99    0.77
  29  -1  -1    5.91    0.67
  29  -1  -1    4.77    0.69
  29  -1  -1    6.26    0.94
  29  -1  -1    6.09    0.92
  29   1  -1    4.93    0.67
  29   1  -1    4.23    0.81
  29   1  -1    5.28    0.92
  27  -1  -1    6.21    0.91
  27  -1  -1    5.51    0.68
  27  -1  -1    5.15    0.81
  27  -1  -1    5.62    0.63
  27   1  -1    8.69    0.91
  27   1  -1    7.42    0.71
  27   1  -1    7.53    0.97
 -25  -1   1   36.96    1.87
  25  -1  -1   36.77    1.44
  25  -1  -1   38.75    1.79
  25  -1  -1   35.93    1.50
  25  -1  -1   33.77    1.62
 -25   1   1   30.32    1.71
  25   1  -1   30.53    1.62
  25   1  -1   28.89    1.47
  25   1  -1   31.69    1.32
  23  -1  -1    6.44    0.64
  23  -1  -1    5.39    0.69
 -23  -1   1    4.17    0.72
  23  -1  -1    5.95    0.75
  23  -1  -1    5.54    0.57
 -23   1   1    3.05    0.72
  23   1  -1    5.22    0.67
  23   1  -1    3.61    0.50
  23   1  -1    3.61    0.68
  21  -1  -1   11.23    0.91
  21  -1  -1   11.15    0.74
 -21  -1   1   11.82    1.06
  21  -1  -1    8.40    0.82
  21  -1  -1    9.39    0.66
  21   1  -1   13.13    0.77
 -21   1   1   13.70    1.15
  21   1  -1   14.32    1.06
  21   1  -1   11.79    0.87
  19  -1  -1   21.09    1.10
  19  -1  -1   15.82    0.89
 -19  -1   1   18.96    1.12
  19  -1  -1   19.13    0.99
  19  -1  -1   18.47    0.85
  19   1  -1   13.22    0.82
  19   1  -1   14.81    0.76
 -19   1   1   13.63    0.99
  19   1  -1   14.92    0.96
  17  -1  -1   16.35    0.92
  17  -1  -1   15.99    0.81
  17  -1  -1   17.07    0.92
  17  -1  -1   17.02    0.76
 -17  -1   1   18.48    1.06
  17   1  -1   21.09    0.99
 -17   1   1   21.84    1.13
  17   1  -1   23.25    0.93
  17   1  -1   21.86    1.11
  15  -1  -1   25.87    1.11
  15  -1  -1   24.88    1.07
 -15  -1   1   23.77    1.16
  15  -1  -1   28.29    0.98
  15  -1  -1   25.82    1.15
  15  -1  -1   26.91    1.04
  15   1  -1   27.00    1.01
  15   1  -1   27.83    1.19
  15   1  -1   25.89    1.09
 -15   1   1   26.94    1.22
  15   1  -1   30.76    1.25
  13  -1  -1   17.66    0.79
 -13  -1   1   19.68    0.94
  13  -1  -1   19.66    0.90
  13  -1  -1   18.29    0.83
  13  -1  -1   18.71    0.72
  13  -1  -1   18.83    0.86
  13   1  -1   16.09    0.84
 -13   1   1   16.07    0.84
  13   1  -1   16.61    0.68
  13   1  -1   16.00    0.75
  13   1  -1   15.89    0.82
  11  -1  -1    7.84    0.49
  11  -1  -1    7.61    0.41
  11  -1  -1    8.28    0.52
  11  -1  -1    6.97    0.46
  11  -1  -1    8.32    0.52
 -11  -1   1    7.98    0.54
  11   1  -1    4.85    0.47
  11   1  -1    4.81    0.40
  11   1  -1    4.86    0.47
  11   1  -1    4.06    0.32
 -11   1   1    4.52    0.44
  -9  -1   1  192.16    5.18
   9  -1  -1  195.42    5.19
   9  -1  -1  197.39    5.09
   9  -1  -1  195.69    5.21
   9  -1  -1  194.44    5.21
   9  -1  -1  187.20    5.25
  -9  -1   1  196.71    5.29
  -9  -1   1  192.81    5.17
  -9   1   1  182.73    4.86
  -9   1   1  182.17    4.94
   9   1  -1  185.84    4.95
   9   1  -1  177.38    4.87
   9   1  -1  182.21    4.94
   9   1  -1  178.02    4.78
   7  -1  -1   29.53    1.00
   7  -1  -1   29.66    0.98
  -7  -1   1   28.24    1.01
  -7  -1   1   28.42    0.94
  -7  -1   1   28.81    0.96
   7  -1  -1   29.21    0.96
   7  -1  -1   28.82    0.87
  -7  -1   1   29.66    0.89
   7  -1  -1   29.40    0.97
   7   1  -1   32.82    1.11
  -7   1   1   33.05    1.10
   7   1  -1   30.97    1.06
  -7   1   1   33.83    1.11
  -7   1   1   34.45    1.06
  -7   1   1   34.49    1.00
   7   1  -1   31.98    1.10
   5  -1  -1  316.11    8.14
  -5  -1   1  322.27    8.13
  -5  -1   1  323.88    8.05
   5  -1  -1  304.65    8.16
  -5  -1   1  311.37    8.13
   5  -1  -1  304.93    8.10
   5  -1  -1  304.37    8.03
   5  -1  -1  314.98    8.13
   5  -1  -1  316.62    8.13
  -5  -1   1  316.70    8.17
  -5   1   1  355.62    9.23
   5   1  -1  353.66    9.21
  -5   1   1  364.08    9.15
   5   1  -1  358.31    9.24
  -5   1   1  343.67    9.19
   5   1  -1  357.25    9.20
  -5   1   1  355.82    9.19
   3  -1  -1  206.79    5.19
   3  -1  -1  202.51    5.14
  -3  -1   1  195.03    5.19
   3  -1  -1  207.47    5.23
  -3  -1   1  204.33    5.20
   3  -1  -1  199.62    5.09
   3  -1  -1  199.06    5.18
  -3  -1   1  172.88    5.19
   3  -1  -1  200.27    5.19
   3   1  -1  163.51    4.28
  -3   1   1  157.57    4.15
  -3   1   1  164.81    4.23
   3   1  -1  162.07    4.25
  -3   1   1  161.51    4.17
  -3   1   1  160.09    4.27
   3   1  -1  157.49    4.24
  -3   1   1  161.93    4.22
  -1  -1   1  346.54    8.72
   1  -1  -1  344.48    8.64
   1  -1  -1  340.02    8.71
   1  -1  -1  347.82    8.69
  -1  -1   1  325.57    8.74
   1  -1  -1  328.34    8.67
   1  -1  -1  342.70    8.75
   1   1  -1  334.77    8.50
   1   1  -1  344.62    8.49
  -1   1   1  338.98    8.45
  -1   1   1  332.52    8.44
  -1   1   1  291.33    8.39
  -1   1   1  329.31    8.47
   1   1  -1  340.96    8.53
  -1  -1  -1  226.88    5.87
   1  -1   1  234.41    5.89
  -1  -1  -1  232.99    6.00
   1  -1   1  224.43    6.00
  -1  -1  -1  231.67    5.94
  -1  -1  -1  231.01    5.93
   1   1   1  228.97    6.07
   1   1   1  230.97    5.95
   1   1   1  234.94    5.96
  -1   1  -1  229.04    6.08
  -1   1  -1  234.91    6.06
   1   1   1  233.01    5.95
   1   1   1  238.26    6.01
  -1   1  -1  238.65    5.97
   3  -1   1  185.05    4.85
   3  -1   1  182.47    4.76
  -3  -1  -1  182.96    4.85
   3  -1   1  185.79    4.77
  -3  -1  -1  188.16    4.74
  -3  -1  -1  184.27    4.75
  -3  -1  -1  178.57    4.75
  -3  -1  -1  190.45    4.84
   3   1   1  176.16    4.52
   3   1   1  177.09    4.60
   3   1   1  177.10    4.61
   3   1   1  171.90    4.53
  -3   1  -1  177.33    4.54
  -3   1  -1  174.54    4.61
   5  -1   1  548.39   14.15
   5  -1   1  525.94   14.01
  -5  -1  -1  542.76   14.03
  -5  -1  -1  564.93   14.05
  -5  -1  -1  552.23   14.16
   5  -1   1  530.83   14.05
  -5  -1  -1  559.41   14.00
  -5  -1  -1  578.27   14.15
  -5   1  -1  523.88   13.64
   5   1   1  538.90   13.48
   5   1   1  518.27   13.52
  -5   1  -1  517.50   13.54
  -5   1  -1  495.58   13.51
   5   1   1  564.52   13.62
   5   1   1  553.38   13.64
  -7  -1  -1  627.65   15.74
  -7  -1  -1  624.98   15.89
  -7  -1  -1  612.11   15.91
   7  -1   1  624.66   15.91
   7  -1   1  612.30   15.73
   7  -1   1  617.34   15.81
   7  -1   1  606.91   15.77
  -7  -1  -1  607.81   15.76
   7   1   1  589.30   15.11
   7   1   1  580.67   14.94
  -7   1  -1  574.78   14.99
   7   1   1  586.10   14.97
  -7   1  -1  605.26   15.13
  -7   1  -1  578.79   14.94
   9  -1   1   53.67    1.74
   9  -1   1   55.96    1.62
   9  -1   1   55.50    1.66
  -9  -1  -1   56.90    1.79
   9  -1   1   56.17    1.57
  -9  -1  -1   58.82    1.61
  -9  -1  -1   55.63    1.56
  -9  -1  -1   54.89    1.61
   9   1   1   57.30    1.67
  -9   1  -1   55.55    1.55
   9   1   1   56.92    1.74
   9   1   1   54.05    1.57
  -9   1  -1   55.85    1.76
  -9   1  -1   52.95    1.60
   9   1   1   56.56    1.60
 -11  -1  -1   75.43    2.32
  11  -1   1   74.01    2.16
 -11  -1  -1   72.88    2.05
  11  -1   1   73.61    2.06
 -11  -1  -1   75.74    2.11
  11  -1   1   70.45    2.10
 -11  -1  -1   74.72    2.11
  11   1   1   74.68    2.22
 -11   1  -1   73.83    2.32
  11   1   1   72.48    2.12
  11   1   1   75.24    2.14
 -11   1  -1   76.29    2.16
 -11   1  -1   78.11    2.10
 -13  -1  -1   61.45    2.08
  13  -1   1   60.16    1.84
 -13  -1  -1   59.55    1.84
  13  -1   1   63.77    1.91
 -13  -1  -1   63.83    1.79
  13  -1   1   62.78    1.80
 -13   1  -1   48.99    1.74
  13   1   1   49.24    1.53
 -13   1  -1   48.05    1.55
 -13   1  -1   49.49    1.48
  13   1   1   50.84    1.64
  13   1   1   51.72    1.54
 -15  -1  -1   71.31    2.41
 -15  -1  -1   72.99    2.16
  15  -1   1   71.51    2.20
  15  -1   1   69.21    2.13
 -15  -1  -1   73.31    2.08
  15  -1   1   71.62    2.08
 -15   1  -1   83.02    2.36
  15   1   1   80.75    2.42
  15   1   1   82.19    2.54
 -15   1  -1   86.00    2.71
  15   1   1   83.62    2.42
  17  -1   1   17.02    0.85
 -17  -1  -1   16.44    1.04
  17  -1   1   17.22    0.73
  17  -1   1   16.80    0.78
 -17  -1  -1   16.18    0.77
  17   1   1   17.58    0.80
  17   1   1   15.87    0.77
 -17   1  -1   17.94    1.03
  17   1   1   17.14    0.88
  19  -1   1    7.33    0.69
 -19  -1  -1    8.00    0.83
  19  -1   1    8.79    0.54
  19  -1   1    9.13    0.64
  19  -1   1    7.01    0.56
  19   1   1   10.34    0.66
  19   1   1   10.93    0.68
 -19   1  -1    9.48    0.89
  19   1   1   12.79    0.81
  21  -1   1  134.12    3.91
  21  -1   1  133.32    3.78
 -21  -1  -1  130.85    4.23
  21  -1   1  127.03    3.95
  21  -1   1  131.57    3.71
  21   1   1  130.19    3.69
 -21   1  -1  121.54    4.08
  21   1   1  130.86    3.76
  21   1   1  126.64    3.87
  23  -1   1   55.36    2.03
  23  -1   1   58.58    2.17
  23  -1   1   56.42    1.84
  23  -1   1   58.23    1.94
 -23  -1  -1   56.12    2.36
  23   1   1   59.07    2.02
 -23   1  -1   57.29    2.36
  23   1   1   55.41    1.92
  23   1   1   54.84    2.15
  25  -1   1   47.88    1.88
 -25  -1  -1   44.56    2.21
  25  -1   1   47.86    1.63
  25  -1   1   46.17    1.93
  25  -1   1   46.59    1.72
 -25   1  -1   54.39    2.41
  25   1   1   53.61    1.93
  25   1   1   55.20    2.02
  25   1   1   56.77    2.18
  27  -1   1   14.59    0.95
  27  -1   1   15.62    1.14
 -27  -1  -1   13.33    1.31
  27  -1   1   15.17    1.08
  27   1   1   11.33    1.08
  27   1   1   10.00    0.91
 -27   1  -1    7.61    1.08
  27   1   1   10.11    0.82
  29  -1   1    8.83    0.96
  29  -1   1    9.12    0.85
 -29  -1  -1    9.72    1.21
  29  -1   1    9.54    1.08
 -29  -1  -1   10.44    1.14
  29   1   1    7.40    0.80
 -29   1  -1    8.75    1.23
  29   1   1    9.40    0.94
  29   1   1    8.13    0.99
 -31  -1  -1   15.33    1.42
  31  -1   1   18.21    1.16
  31  -1   1   19.77    1.54
  31  -1   1   19.02    1.34
  31   1   1   17.80    1.28
  31   1   1   17.43    1.16
  31   1   1   16.78    1.42
  33  -1   1    4.09    0.72
  33  -1   1    3.00    0.80
  33  -1   1    2.50    0.88
 -33  -1  -1    5.21    1.04
  33   1   1    2.73    0.66
  33   1   1    3.05    0.74
  33   1   1    4.08    1.00
  35  -1   1   -0.01    0.53
  35  -1   1    0.08    0.67
  35  -1   1   -0.28    0.76
 -35  -1  -1    1.00    0.86
  35   1   1   -1.43    0.66
  35   1   1    0.31    0.57
  37  -1   1    3.24    1.07
  37  -1   1    5.89    1.05
 -37  -1  -1    2.78    1.03
  37  -1   1    3.67    0.76
  37   1   1    2.88    0.76
  37   1   1    3.85    1.15
  38  -2  -1    2.00    0.66
  38  -2  -1    2.33    1.01
 -38  -2   1    1.33    1.09
  38  -2  -1    1.83    1.09
  38   2  -1    4.82    1.23
 -36  -2   1    1.85    1.05
  36  -2  -1    1.43    0.89
  36  -2  -1    2.08    0.89
  36  -2  -1    1.09    0.56
  36   2  -1    2.40    1.07
  34  -2  -1    1.02    0.72
  34  -2  -1    1.44    0.93
  34  -2  -1    0.98    0.55
  34   2  -1    0.12    0.77
  34   2  -1    0.80    0.73
  32  -2  -1    5.17    1.00
  32  -2  -1    5.54    0.71
  32  -2  -1    6.98    1.06
  32   2  -1    3.76    1.00
  32   2  -1    5.56    0.94
  30  -2  -1    2.90    0.78
  30  -2  -1    3.24    0.63
  30  -2  -1    2.86    0.56
  30  -2  -1    2.86    0.83
  30   2  -1    3.12    0.74
  30   2  -1    3.43    0.89
  28  -2  -1    6.06    0.74
  28  -2  -1    6.70    0.68
  28  -2  -1    7.72    0.96
  28  -2  -1    6.68    0.89
  28   2  -1    6.57    0.74
  28   2  -1    4.79    0.90
  28   2  -1    5.45    0.81
  26  -2  -1   32.60    1.47
  26  -2  -1   29.83    1.55
  26  -2  -1   31.41    1.34
 -26  -2   1   31.62    1.90
  26  -2  -1   34.12    1.72
  26   2  -1   30.04    1.34
  26   2  -1   28.70    1.64
  26   2  -1   28.85    1.47
  24  -2  -1   11.60    0.99
  24  -2  -1   12.58    0.96
 -24  -2   1   11.75    1.18
  24  -2  -1   12.68    0.81
  24  -2  -1   12.50    1.08
  24   2  -1   16.82    1.05
 -24   2   1   14.59    1.27
  24   2  -1   14.22    1.21
  24   2  -1   14.86    0.93
  22  -2  -1   14.02    0.97
  22  -2  -1   14.56    0.91
  22  -2  -1   13.74    0.81
  22  -2  -1   14.13    0.99
 -22  -2   1   15.27    1.29
  22   2  -1   14.67    0.96
  22   2  -1   15.69    1.15
 -22   2   1   15.85    1.27
  22   2  -1   12.66    0.84
 -20  -2   1   84.52    2.99
  20  -2  -1   79.38    2.77
  20  -2  -1   82.15    2.55
  20  -2  -1   91.04    2.84
  20  -2  -1   87.53    2.69
  20   2  -1   94.52    3.09
  20   2  -1   90.88    2.91
 -20   2   1   89.40    3.11
  20   2  -1   91.51    2.78
  18  -2  -1    2.73    0.47
 -18  -2   1    3.16    0.63
  18  -2  -1    2.33    0.46
  18  -2  -1    2.30    0.34
  18  -2  -1    2.25    0.42
  18   2  -1    2.26    0.48
  18   2  -1    3.02    0.47
  18   2  -1    2.30    0.37
 -18   2   1    3.35    0.56
  16  -2  -1   41.17    1.47
  16  -2  -1   39.00    1.34
  16  -2  -1   40.93    1.52
  16  -2  -1   39.94    1.75
  16  -2  -1   39.20    1.51
 -16  -2   1   43.22    1.71
  16   2  -1   37.24    1.51
  16   2  -1   38.58    1.41
 -16   2   1   38.22    1.56
  16   2  -1   36.86    1.32
  14  -2  -1   86.38    2.67
 -14  -2   1   88.08    2.82
  14  -2  -1   87.06    2.63
  14  -2  -1   89.80    2.78
  14  -2  -1   85.54    2.50
  14  -2  -1   89.06    2.68
 -14   2   1  109.80    3.31
  14   2  -1  107.63    3.30
  14   2  -1  106.70    3.08
  14   2  -1  109.94    3.30
  14   2  -1  109.39    3.18
  12  -2  -1   34.96    1.31
  12  -2  -1   32.10    1.08
  12  -2  -1   33.57    1.23
 -12  -2   1   34.72    1.34
  12  -2  -1   32.05    1.18
  12  -2  -1   32.07    1.20
  12   2  -1   36.17    1.35
  12   2  -1   36.35    1.26
  12   2  -1   35.02    1.33
 -12   2   1   34.45    1.33
  12   2  -1   33.27    1.16
  10  -2  -1   40.64    1.44
  10  -2  -1   40.15    1.37
  10  -2  -1   39.97    1.34
  10  -2  -1   41.70    1.35
  10  -2  -1   40.76    1.25
 -10  -2   1   42.03    1.47
  10   2  -1   49.03    1.60
  10   2  -1   46.70    1.50
 -10   2   1   45.33    1.56
  10   2  -1   46.45    1.58
  -8  -2   1   25.02    1.00
   8  -2  -1   25.47    0.95
   8  -2  -1   25.22    0.97
   8  -2  -1   26.26    0.93
   8  -2  -1   25.51    0.89
   8  -2  -1   26.15    0.94
  -8  -2   1   25.75    0.89
   8  -2  -1   26.00    0.83
   8   2  -1   14.28    0.67
  -8   2   1   14.68    0.66
   8   2  -1   14.77    0.69
   8   2  -1   14.05    0.62
  -8   2   1   15.06    0.67
   6  -2  -1  120.58    3.40
  -6  -2   1  124.80    3.47
   6  -2  -1  121.84    3.40
   6  -2  -1  123.36    3.43
  -6  -2   1  127.46    3.40
  -6  -2   1  126.67    3.31
   6  -2  -1  124.95    3.45
  -6  -2   1  125.55    3.38
   6  -2  -1  122.53    3.29
   6  -2  -1  124.49    3.34
   6   2  -1  119.39    3.35
  -6   2   1  124.56    3.34
   6   2  -1  118.20    3.29
  -6   2   1  123.36    3.37
  -6   2   1  116.44    3.33
   6   2  -1  119.92    3.35
  -6   2   1  116.97    3.20
  -6   2   1  123.13    3.29
   4  -2  -1  350.11    9.32
  -4  -2   1  357.49    9.34
   4  -2  -1  358.31    9.18
   4  -2  -1  364.02    9.33
  -4  -2   1  364.04    9.28
  -4  -2   1  371.08    9.30
   4  -2  -1  353.99    9.27
   4  -2  -1  345.42    9.28
   4   2  -1  391.75   10.47
  -4   2   1  407.52   10.40
  -4   2   1  407.13   10.45
  -4   2   1  402.62   10.42
  -4   2   1  405.49   10.48
   4   2  -1  393.44   10.44
   4   2  -1  415.57   10.48
   2  -2  -1  410.21   10.60
  -2  -2   1  419.08   10.58
  -2  -2   1  389.91   10.50
   2  -2  -1  402.74   10.46
   2  -2  -1  410.35   10.53
  -2  -2   1  417.51   10.59
   2  -2  -1  411.45   10.57
   2  -2  -1  416.31   10.62
  -2  -2   1  411.77   10.62
  -2   2   1  368.32    9.77
   2   2  -1  378.82    9.78
  -2   2   1  381.64    9.68
  -2   2   1  381.17    9.77
   2   2  -1  380.42    9.78
  -2   2   1  370.85    9.75
   0  -2  -1   43.51    1.19
   0  -2  -1   46.51    1.36
   0  -2   1   43.00    1.24
   0  -2  -1   42.61    1.31
   0  -2   1   42.53    1.23
   0  -2   1   42.99    1.31
   0  -2  -1   43.91    1.21
   0  -2  -1   42.54    1.27
   0  -2  -1   44.16    1.19
   0   2   1   45.90    1.32
   0   2   1   47.11    1.36
   0   2   1   46.18    1.37
   0   2  -1   46.18    1.38
   0   2  -1   45.04    1.26
   0   2   1   44.14    1.38
   0   2  -1   43.10    1.36
  -2  -2  -1  186.05    4.78
  -2  -2  -1  179.61    4.79
   2  -2   1  186.86    4.92
   2  -2   1  182.44    4.82
   2  -2   1  182.62    4.80
   2  -2   1  187.41    4.94
  -2  -2  -1  185.28    4.94
  -2  -2  -1  193.38    4.86
  -2  -2  -1  182.65    4.91
  -2   2  -1  189.19    5.10
   2   2   1  190.85    4.92
   2   2   1  195.72    4.96
   2   2   1  197.02    5.01
  -2   2  -1  187.67    4.96
  -2   2  -1  189.41    4.98
   2   2   1  192.20    5.06
  -4  -2  -1  282.84    7.37
   4  -2   1  290.23    7.31
  -4  -2  -1  283.96    7.34
   4  -2   1  269.43    7.36
  -4  -2  -1  287.92    7.26
  -4  -2  -1  286.14    7.47
   4  -2   1  290.83    7.36
  -4  -2  -1  284.56    7.32
  -4  -2  -1  280.46    7.48
   4  -2   1  289.23    7.49
   4   2   1  260.47    6.64
  -4   2  -1  250.47    6.61
   4   2   1  260.11    6.76
   4   2   1  264.98    6.77
  -4   2  -1  257.05    6.67
  -4   2  -1  250.36    6.77
   4   2   1  258.03    6.64
   4   2   1  256.03    6.65
   6  -2   1    1.23    0.17
  -6  -2  -1    1.26    0.11
  -6  -2  -1    1.59    0.27
  -6  -2  -1    1.06    0.16
   6  -2   1    1.35    0.15
   6  -2   1    2.10    0.29
  -6  -2  -1    1.19    0.24
   6  -2   1    1.53    0.19
  -6  -2  -1    1.16    0.17
  -6   2  -1    0.33    0.11
   6   2   1    0.08    0.15
  -6   2  -1    0.16    0.12
   6   2   1    0.42    0.09
   6   2   1    0.46    0.14
   6   2   1    0.62    0.13
  -6   2  -1    0.42    0.19
  -6   2  -1    0.74    0.15
   6   2   1    0.05    0.16
   8  -2   1  142.82    3.96
  -8  -2  -1  143.57    3.90
   8  -2   1  146.47    3.90
  -8  -2  -1  144.27    4.08
  -8  -2  -1  145.71    3.88
  -8  -2  -1  147.60    3.81
   8  -2   1  142.64    4.06
  -8  -2  -1  148.56    4.07
   8  -2   1  146.59    3.88
   8   2   1  127.61    3.46
  -8   2  -1  125.83    3.42
  -8   2  -1  124.76    3.58
  -8   2  -1  125.83    3.40
  -8   2  -1  126.58    3.43
   8   2   1  127.20    3.41
   8   2   1  126.04    3.56
   8   2   1  130.33    3.36
 -10  -2  -1   62.73    1.81
  10  -2   1   64.18    1.81
  10  -2   1   61.74    1.82
 -10  -2  -1   60.46    1.99
 -10  -2  -1   62.70    2.03
 -10  -2  -1   62.63    1.75
  10  -2   1   60.46    1.88
 -10   2  -1   79.89    2.26
  10   2   1   78.99    2.23
 -10   2  -1   74.17    2.22
 -10   2  -1   81.35    2.25
 -10   2  -1   78.17    2.42
  10   2   1   80.14    2.30
  10   2   1   80.35    2.19
 -12  -2  -1  175.12    5.13
 -12  -2  -1  187.10    4.89
  12  -2   1  177.96    4.96
 -12  -2  -1  183.42    4.83
 -12  -2  -1  181.47    4.84
 -12  -2  -1  183.40    5.12
  12  -2   1  185.72    4.89
  12  -2   1  179.46    4.86
 -12   2  -1  209.69    5.67
  12   2   1  203.10    5.42
 -12   2  -1  205.26    5.41
 -12   2  -1  202.57    5.45
 -12   2  -1  206.15    5.46
  12   2   1  197.52    5.51
  12   2   1  200.37    5.39
  14  -2   1   86.70    2.69
 -14  -2  -1   92.57    2.93
 -14  -2  -1   90.11    2.61
  14  -2   1   89.70    2.61
  14  -2   1   91.85    2.59
 -14  -2  -1   88.56    2.85
 -14  -2  -1   94.74    2.58
 -14   2  -1   74.12    2.44
  14   2   1   74.19    2.19
  14   2   1   74.80    2.30
  14   2   1   74.43    2.18
  16  -2   1   18.59    0.78
  16  -2   1   18.83    0.89
 -16  -2  -1   16.82    1.00
  16  -2   1   19.39    0.83
 -16  -2  -1   20.17    1.12
 -16   2  -1   25.02    1.21
  16   2   1   26.18    1.00
  16   2   1   24.75    1.09
  16   2   1   26.19    0.98
  18  -2   1   58.77    2.04
 -18  -2  -1   65.63    2.34
  18  -2   1   59.84    1.90
  18  -2   1   59.30    1.93
  18   2   1   70.01    2.32
  18   2   1   67.12    2.15
  18   2   1   69.66    2.17
 -18   2  -1   72.60    2.49
  20  -2   1    3.36    0.42
  20  -2   1    3.18    0.55
  20  -2   1    2.84    0.47
  20  -2   1    2.88    0.43
 -20  -2  -1    2.40    0.59
  20   2   1    5.71    0.55
  20   2   1    5.34    0.53
  20   2   1    6.72    0.69
 -20   2  -1    5.88    0.77
 -22  -2  -1   34.65    1.70
  22  -2   1   33.14    1.49
  22  -2   1   32.87    1.34
 -22  -2  -1   33.29    1.72
  22  -2   1   37.46    1.52
  22  -2   1   33.96    1.29
  22   2   1   31.22    1.45
  22   2   1   31.04    1.30
 -22   2  -1   33.06    1.66
  22   2   1   33.99    1.33
  24  -2   1    5.77    0.72
  24  -2   1    5.35    0.74
 -24  -2  -1    5.33    0.90
  24  -2   1    6.17    0.63
  24  -2   1    5.87    0.56
 -24  -2  -1    5.32    0.80
 -24   2  -1    4.75    0.81
  24   2   1    5.63    0.62
  24   2   1    4.62    0.75
  24   2   1    5.29    0.63
  26  -2   1   56.02    2.20
 -26  -2  -1   52.97    2.34
  26  -2   1   51.22    2.06
  26  -2   1   54.78    1.86
 -26  -2  -1   49.26    2.38
  26  -2   1   54.92    1.94
 -26   2  -1   54.93    2.48
  26   2   1   57.48    2.13
  26   2   1   59.84    2.36
  26   2   1   59.75    2.08
  28  -2   1   10.71    1.05
 -28  -2  -1   12.21    1.29
  28  -2   1    9.87    0.83
  28  -2   1   10.67    1.05
 -28  -2  -1   12.33    1.34
  28   2   1   12.10    0.96
 -28   2  -1   12.17    1.28
  28   2   1   11.23    0.98
  28   2   1   10.81    1.13
  30  -2   1    2.28    0.78
 -30  -2  -1    2.84    0.80
  30  -2   1    1.61    0.62
  30  -2   1    2.34    0.58
  30   2   1    1.64    0.78
  30   2   1    2.42    0.64
  30   2   1    2.77    0.64
  32  -2   1    6.75    0.80
  32  -2   1    8.04    1.03
 -32  -2  -1    8.22    1.22
  32  -2   1   11.09    1.21
  32   2   1   14.27    1.11
  32   2   1   10.29    1.29
  32   2   1   13.09    1.77
 -34  -2  -1    1.33    0.88
  34  -2   1    1.25    0.75
  34  -2   1    1.01    0.61
  34  -2   1    1.04    0.78
  34   2   1    2.17    0.94
  34   2   1    1.19    0.62
 -36  -2  -1    7.49    1.29
 -36  -2  -1    7.76    1.03
  36  -2   1    6.24    1.10
  36  -2   1    4.21    0.79
  36  -2   1    5.85    1.09
  36   2   1    7.07    1.20
  36   2   1    6.16    0.90
 -38  -2  -1    3.08    1.12
  38  -2   1    4.32    1.15
 -38  -2  -1    1.47    0.81
  38  -2   1    0.89    0.82
  38  -2   1    1.96    0.71
  38   2   1    2.60    0.78
  38   2   1    2.32    1.02
  39  -3  -1    4.55    1.18
 -39  -3   1    3.20    1.24
 -37  -3   1    6.99    1.40
  37  -3  -1    7.10    1.25
  37  -3  -1    9.55    0.95
  37  -3  -1    9.46    1.41
  37   3  -1    7.12    1.36
  35  -3  -1    4.97    1.10
  35  -3  -1    3.53    1.08
  35  -3  -1    2.99    0.65
 -35  -3   1    5.73    1.18
  35   3  -1    6.54    1.35
  33  -3  -1    2.84    0.91
  33  -3  -1    2.70    0.63
 -33  -3   1    3.07    1.03
  33  -3  -1    2.73    0.85
  33   3  -1    3.39    0.83
  33   3  -1    3.38    1.06
  31  -3  -1    4.69    0.88
  31  -3  -1    4.58    0.66
  31  -3  -1    4.69    0.97
  31   3  -1    2.57    0.74
  31   3  -1    3.82    1.00
  29  -3  -1    2.96    0.80
  29  -3  -1    2.51    0.54
  29  -3  -1    2.64    0.63
  29  -3  -1    3.98    0.80
  29   3  -1    2.59    0.81
  29   3  -1    1.96    0.64
  27  -3  -1   23.51    1.40
  27  -3  -1   21.14    1.21
  27  -3  -1   20.17    1.41
  27  -3  -1   20.35    1.09
  27   3  -1   18.64    1.22
  27   3  -1   21.31    1.56
  25  -3  -1   21.34    1.29
  25  -3  -1   21.63    1.06
  25  -3  -1   17.58    1.11
 -25  -3   1   21.71    1.56
  25  -3  -1   20.20    1.34
  25   3  -1   25.34    1.59
  25   3  -1   22.27    1.27
  23  -3  -1   14.16    1.04
 -23  -3   1   15.41    1.33
  23  -3  -1   15.37    0.97
  23  -3  -1   14.30    1.10
  23  -3  -1   15.03    0.86
  23   3  -1   13.25    0.95
 -23   3   1   16.58    1.32
  23   3  -1   13.85    1.21
  21  -3  -1  163.28    4.57
  21  -3  -1  168.08    4.86
  21  -3  -1  165.29    4.76
  21  -3  -1  157.47    4.86
 -21  -3   1  161.69    5.12
 -21   3   1  152.63    4.74
  21   3  -1  145.70    4.72
  21   3  -1  158.48    4.52
  19  -3  -1    3.05    0.54
  19  -3  -1    3.34    0.42
  19  -3  -1    2.72    0.47
 -19  -3   1    4.07    0.71
  19  -3  -1    3.93    0.56
  19   3  -1    1.69    0.42
 -19   3   1    2.21    0.51
  19   3  -1    1.12    0.47
  17  -3  -1   12.13    0.81
 -17  -3   1   12.78    0.99
  17  -3  -1   13.03    0.84
  17  -3  -1   12.06    0.67
  17  -3  -1   13.02    0.76
  17   3  -1   14.88    0.87
  17   3  -1   16.21    1.00
 -17   3   1   15.86    0.98
  15  -3  -1   48.09    1.68
  15  -3  -1   47.69    1.72
  15  -3  -1   47.12    1.54
  15  -3  -1   49.66    1.86
  15  -3  -1   48.09    1.69
 -15  -3   1   46.89    1.88
 -15   3   1   42.11    1.64
  15   3  -1   43.19    1.66
  15   3  -1   41.80    1.52
  13  -3  -1   68.76    2.21
  13  -3  -1   69.44    2.32
 -13  -3   1   68.92    2.36
  13  -3  -1   69.54    2.16
  13  -3  -1   68.26    2.03
  13  -3  -1   67.49    2.16
  13   3  -1   57.84    2.00
  13   3  -1   58.54    1.89
  13   3  -1   58.60    2.02
 -13   3   1   57.98    1.99
  11  -3  -1   57.45    1.79
 -11  -3   1   56.36    1.96
  11  -3  -1   57.96    1.86
  11  -3  -1   57.80    1.70
  11  -3  -1   57.80    1.84
  11  -3  -1   55.45    1.93
  11  -3  -1   54.79    1.85
 -11   3   1   61.50    2.02
  11   3  -1   61.70    2.04
  11   3  -1   62.87    2.05
  11   3  -1   59.09    1.92
   9  -3  -1   33.78    1.20
  -9  -3   1   32.23    1.29
   9  -3  -1   32.91    1.26
   9  -3  -1   31.45    1.05
   9  -3  -1   34.51    1.19
   9  -3  -1   31.93    1.19
   9   3  -1   23.01    0.92
  -9   3   1   23.40    0.98
   9   3  -1   24.27    1.02
   9   3  -1   24.16    1.02
  -7  -3   1    3.31    0.39
   7  -3  -1    2.20    0.29
   7  -3  -1    3.53    0.40
   7  -3  -1    2.39    0.30
   7  -3  -1    2.85    0.33
   7  -3  -1    2.27    0.23
  -7  -3   1    2.46    0.29
  -7   3   1    1.40    0.27
   7   3  -1    1.51    0.25
   7   3  -1    1.47    0.29
   7   3  -1    1.95    0.32
   5  -3  -1  135.15    3.77
  -5  -3   1  137.92    3.66
  -5  -3   1  135.06    3.71
   5  -3  -1  132.39    3.72
  -5  -3   1  131.62    3.69
  -5  -3   1  137.79    3.83
  -5  -3   1  135.72    3.78
   5  -3  -1  136.01    3.60
   5  -3  -1  136.53    3.81
   5  -3  -1  136.64    3.71
  -5   3   1  136.72    3.90
   5   3  -1  143.99    3.92
  -5   3   1  148.03    3.93
   5   3  -1  140.85    3.94
   5   3  -1  136.50    3.85
  -3  -3   1    0.86    0.20
   3  -3  -1    0.40    0.20
  -3  -3   1    0.84    0.17
   3  -3  -1    0.41    0.16
  -3  -3   1    0.42    0.20
   3  -3  -1    0.41    0.12
  -3  -3   1    0.39    0.15
   3  -3  -1    0.58    0.19
   3  -3  -1    0.30    0.18
  -3  -3   1    0.72    0.18
   3   3  -1    6.61    0.42
  -3   3   1    6.25    0.42
   3   3  -1    6.57    0.43
  -3   3   1    6.13    0.41
  -3   3   1    6.25    0.36
   1  -3  -1  127.03    3.57
  -1  -3   1  132.78    3.56
   1  -3  -1  131.81    3.65
   1  -3  -1  127.13    3.63
   1  -3  -1  126.98    3.49
   1  -3  -1  129.65    3.39
  -1  -3   1  137.24    3.60
  -1  -3   1  134.63    3.67
   1  -3  -1  130.98    3.46
  -1  -3   1  129.75    3.50
  -1   3   1  129.44    3.64
   1   3  -1  131.74    3.51
  -1   3   1  130.99    3.58
   1   3  -1  130.13    3.67
  -1   3   1  124.74    3.50
  -1   3   1  138.03    3.67
  -1   3   1  131.02    3.65
   1   3  -1  136.08    3.57
   1   3  -1  131.80    3.62
  -1  -3  -1   64.65    1.66
  -1  -3  -1   60.20    1.91
   1  -3   1   64.58    1.87
  -1  -3  -1   62.47    1.75
   1  -3   1   61.12    1.80
  -1  -3  -1   61.81    1.91
  -1  -3  -1   64.02    1.84
   1  -3   1   62.33    1.78
   1   3   1   61.66    1.66
   1   3   1   60.95    1.75
   1   3   1   59.90    1.87
  -1   3  -1   61.77    1.90
   1   3   1   62.03    1.87
  -1   3  -1   63.40    1.92
   1   3   1   62.41    1.80
  -1   3  -1   61.60    1.75
  -1   3  -1   61.61    1.84
  -1   3  -1   64.25    1.77
  -3  -3  -1  232.67    6.39
  -3  -3  -1  240.05    6.18
   3  -3   1  237.11    6.40
   3  -3   1  244.63    6.24
   3  -3   1  234.21    6.22
  -3  -3  -1  245.58    6.29
  -3  -3  -1  239.59    6.38
   3  -3   1  237.73    6.28
  -3  -3  -1  241.33    6.14
   3  -3   1  232.90    6.33
  -3  -3  -1  233.65    6.21
  -3   3  -1  260.72    6.83
  -3   3  -1  251.22    6.64
   3   3   1  252.51    6.77
  -3   3  -1  249.92    6.66
   3   3   1  259.28    6.71
   3   3   1  257.91    6.60
  -5  -3  -1   41.30    1.29
  -5  -3  -1   41.25    1.40
   5  -3   1   40.59    1.25
  -5  -3  -1   41.06    1.20
   5  -3   1   40.12    1.40
  -5  -3  -1   39.98    1.39
  -5  -3  -1   40.70    1.15
  -5  -3  -1   39.78    1.23
   5  -3   1   39.67    1.27
   5  -3   1   41.15    1.22
  -5  -3  -1   41.80    1.21
  -5   3  -1   36.76    1.17
  -5   3  -1   37.97    1.31
  -5   3  -1   36.72    1.13
   5   3   1   38.74    1.29
   5   3   1   37.23    1.13
   7  -3   1   36.83    1.18
  -7  -3  -1   35.85    1.06
  -7  -3  -1   37.55    1.14
   7  -3   1   37.13    1.35
  -7  -3  -1   38.07    1.19
   7  -3   1   37.88    1.14
  -7  -3  -1   38.55    1.35
   7  -3   1   37.78    1.20
  -7  -3  -1   36.32    1.34
  -7   3  -1   27.41    0.94
  -7   3  -1   26.13    0.89
   7   3   1   28.22    0.93
   7   3   1   26.94    0.83
   7   3   1   28.03    0.91
  -7   3  -1   28.15    1.07
   9  -3   1  169.00    4.55
  -9  -3  -1  168.98    4.41
  -9  -3  -1  168.19    4.55
  -9  -3  -1  168.25    4.50
  -9  -3  -1  172.55    4.78
   9  -3   1  165.61    4.53
   9  -3   1  168.62    4.49
   9  -3   1  166.36    4.62
  -9  -3  -1  170.05    4.77
  -9   3  -1  182.50    4.91
  -9   3  -1  180.83    5.08
   9   3   1  182.66    4.88
   9   3   1  180.12    4.92
  -9   3  -1  185.96    4.88
   9   3   1  183.47    4.81
  11  -3   1   23.59    0.88
 -11  -3  -1   22.98    0.90
 -11  -3  -1   22.97    0.85
 -11  -3  -1   22.33    0.76
  11  -3   1   24.49    0.97
  11  -3   1   23.18    0.87
 -11  -3  -1   21.47    1.05
 -11  -3  -1   22.46    1.08
 -11   3  -1   22.03    0.84
  11   3   1   21.74    0.84
 -11   3  -1   23.84    0.88
  11   3   1   21.92    0.78
 -11   3  -1   21.19    1.00
  11   3   1   23.01    0.91
 -13  -3  -1   82.56    2.42
 -13  -3  -1   82.63    2.48
  13  -3   1   82.46    2.44
  13  -3   1   83.72    2.44
 -13  -3  -1   87.27    2.77
 -13  -3  -1   84.92    2.35
  13  -3   1   83.21    2.55
 -13  -3  -1   79.76    2.69
 -13   3  -1   67.14    2.28
  13   3   1   67.33    2.06
  13   3   1   70.33    2.17
  13   3   1   67.91    2.01
 -13   3  -1   71.50    2.21
  15  -3   1    5.34    0.55
  15  -3   1    5.42    0.48
 -15  -3  -1    4.58    0.49
 -15  -3  -1    5.45    0.52
 -15  -3  -1    4.86    0.61
  15  -3   1    4.64    0.44
 -15  -3  -1    4.71    0.61
  15   3   1    2.46    0.32
  15   3   1    1.99    0.31
  15   3   1    2.35    0.38
 -15   3  -1    1.79    0.42
 -17  -3  -1    7.22    0.78
  17  -3   1    6.15    0.61
  17  -3   1    5.82    0.52
 -17  -3  -1    7.62    0.84
  17  -3   1    7.29    0.57
 -17  -3  -1    7.15    0.62
  17   3   1    7.10    0.56
  17   3   1    5.85    0.62
 -17   3  -1    7.00    0.77
  17   3   1    6.15    0.51
 -19  -3  -1   96.79    3.35
 -19  -3  -1   94.05    3.27
  19  -3   1   97.76    2.91
  19  -3   1   99.13    2.91
  19  -3   1   97.94    3.06
  19   3   1   97.94    3.06
 -19   3  -1   95.91    3.24
  19   3   1   97.42    2.87
  19   3   1   92.72    2.87
  21  -3   1    7.10    0.61
 -21  -3  -1    6.03    0.82
  21  -3   1    7.17    0.73
 -21  -3  -1    7.23    0.90
  21  -3   1    7.90    0.65
  21   3   1   10.69    0.93
  21   3   1    9.73    0.73
  21   3   1    7.61    0.66
 -21   3  -1   11.33    1.05
 -23  -3  -1    6.89    0.95
  23  -3   1    5.91    0.60
  23  -3   1    8.27    0.70
 -23  -3  -1    8.00    1.02
  23  -3   1    6.20    0.74
  23  -3   1    6.23    0.72
  23   3   1    5.89    0.61
 -23   3  -1    6.81    0.88
  23   3   1    6.84    0.66
  23   3   1    7.34    0.86
  25  -3   1   17.08    1.14
  25  -3   1   16.97    0.94
  25  -3   1   16.85    1.00
  25  -3   1   14.73    1.07
 -25  -3  -1   18.42    1.44
 -25  -3  -1   16.17    1.41
  25   3   1   16.75    1.17
  25   3   1   16.78    1.02
  25   3   1   17.05    1.02
 -27  -3  -1    0.72    0.71
  27  -3   1   -0.13    0.50
  27  -3   1    0.44    0.43
  27  -3   1   -0.06    0.47
  27  -3   1    0.18    0.40
 -27  -3  -1   -0.52    0.60
  27   3   1    0.78    0.45
  27   3   1    0.44    0.57
  27   3   1    0.36    0.45
 -27   3  -1    0.80    0.70
  29  -3   1    0.99    0.66
  29  -3   1    0.67    0.59
 -29  -3  -1    0.22    0.75
 -29  -3  -1    0.17    0.53
 -29  -3  -1    0.91    0.95
  29  -3   1   -0.45    0.42
  29   3   1    1.11    0.53
  29   3   1    1.64    0.56
  29   3   1    1.09    0.71
  31  -3   1   15.56    1.37
 -31  -3  -1   18.45    1.34
  31  -3   1   16.87    1.15
  31  -3   1   17.18    1.38
 -31  -3  -1   14.18    1.49
  31   3   1   19.02    1.47
  31   3   1   17.73    1.24
  33  -3   1    7.94    1.11
 -33  -3  -1    9.22    1.05
 -33  -3  -1    7.37    1.27
  33  -3   1   10.13    1.19
  33  -3   1    9.61    0.93
  33   3   1    9.73    1.24
  33   3   1    9.98    1.00
  35  -3   1   14.17    1.44
 -35  -3  -1   17.20    1.77
 -35  -3  -1   16.54    1.38
  35  -3   1   13.38    1.12
  35  -3   1   13.17    1.44
  35   3   1   12.01    1.13
  35   3   1   12.13    1.45
  37  -3   1    1.36    0.81
 -37  -3  -1    2.77    1.10
  37  -3   1    3.18    1.08
  37  -3   1    3.69    0.76
 -37  -3  -1    2.71    0.82
  37   3   1    1.02    0.94
 -39  -3  -1    3.44    1.25
  39  -3   1    3.18    1.08
 -38  -4   1    7.38    1.49
  38  -4  -1    6.40    1.32
  38  -4  -1    8.25    1.54
 -36  -4   1    9.47    1.18
 -36  -4   1    9.96    1.53
  36  -4  -1    7.80    1.34
  36  -4  -1    7.41    0.84
  36  -4  -1    7.09    1.26
  36   4  -1    8.27    1.50
  34  -4  -1   13.63    1.49
  34  -4  -1   11.38    0.96
  34  -4  -1   11.59    1.35
 -34  -4   1   13.70    1.34
 -34  -4   1   10.88    1.55
  34   4  -1    8.74    1.45
  32  -4  -1    1.26    0.76
 -32  -4   1    0.46    0.80
  32  -4  -1    1.78    0.86
  32  -4  -1    1.16    0.54
  32   4  -1    0.83    0.89
  30  -4  -1    7.20    1.02
  30  -4  -1    7.39    1.07
  30  -4  -1    8.20    0.78
  30  -4  -1    7.38    0.92
 -30  -4   1    7.57    1.27
  30   4  -1    3.90    0.95
  30   4  -1    5.74    0.87
  28  -4  -1    4.73    0.92
 -28  -4   1    3.93    0.99
  28  -4  -1    4.81    0.88
  28  -4  -1    6.02    0.81
  28  -4  -1    4.30    0.62
  28   4  -1    6.32    1.03
  28   4  -1    5.38    0.81
  26  -4  -1   33.01    1.68
 -26  -4   1   30.56    1.90
  26  -4  -1   30.84    1.35
  26  -4  -1   31.79    1.62
  26  -4  -1   30.25    1.52
  26   4  -1   28.26    1.47
  26   4  -1   30.05    1.79
  24  -4  -1    1.37    0.43
  24  -4  -1    1.72    0.53
 -24  -4   1    0.97    0.64
  24  -4  -1    1.91    0.60
  24  -4  -1    1.54    0.53
  24   4  -1    1.83    0.53
  24   4  -1    1.51    0.63
  22  -4  -1   21.32    1.30
  22  -4  -1   20.52    1.00
  22  -4  -1   19.30    1.15
 -22  -4   1   21.30    1.48
  22  -4  -1   20.53    1.14
 -22   4   1   17.99    1.29
  22   4  -1   19.98    1.11
  22   4  -1   18.41    1.26
  20  -4  -1   15.07    0.81
  20  -4  -1   15.97    0.96
  20  -4  -1   14.26    0.99
  20  -4  -1   12.64    0.90
 -20  -4   1   11.06    1.13
  20   4  -1   13.39    1.12
 -20   4   1   11.62    1.03
  20   4  -1   13.73    0.91
  18  -4  -1    2.24    0.46
  18  -4  -1    1.83    0.48
  18  -4  -1    3.15    0.52
 -18  -4   1    4.19    0.72
  18  -4  -1    2.46    0.39
 -18   4   1    2.39    0.55
  18   4  -1    1.42    0.40
  18   4  -1    2.09    0.55
  16  -4  -1   50.65    1.67
  16  -4  -1   52.44    1.89
 -16  -4   1   49.36    2.02
  16  -4  -1   51.54    1.82
  16  -4  -1   51.15    1.82
  16   4  -1   54.55    2.05
 -16   4   1   52.98    1.99
  16   4  -1   50.64    1.82
 -14  -4   1   50.87    1.99
  14  -4  -1   54.12    2.19
  14  -4  -1   50.35    1.80
  14  -4  -1   53.65    1.65
  14  -4  -1   50.02    1.83
  14  -4  -1   50.68    1.75
  14   4  -1   53.22    1.85
 -14   4   1   55.07    2.01
  14   4  -1   57.73    2.05
 -12  -4   1   73.50    2.56
 -12  -4   1   82.14    2.64
  12  -4  -1   77.56    2.43
  12  -4  -1   75.80    2.41
  12  -4  -1   78.15    2.45
  12  -4  -1   76.86    2.58
 -12  -4   1   76.91    2.37
  12  -4  -1   74.97    2.25
  12   4  -1   78.39    2.43
 -12   4   1   77.16    2.55
  12   4  -1   80.71    2.58
  10  -4  -1    4.07    0.35
  10  -4  -1    4.08    0.45
 -10  -4   1    3.92    0.51
  10  -4  -1    4.75    0.46
  10  -4  -1    5.47    0.53
  10  -4  -1    4.31    0.52
 -10  -4   1    4.97    0.46
 -10  -4   1    4.02    0.53
  10   4  -1    6.33    0.61
  10   4  -1    7.49    0.53
  10   4  -1    5.04    0.55
 -10   4   1    5.61    0.54
   8  -4  -1  177.59    4.85
   8  -4  -1  182.55    5.02
   8  -4  -1  181.27    5.16
   8  -4  -1  182.75    5.05
  -8  -4   1  187.56    5.19
   8  -4  -1  182.47    5.03
  -8  -4   1  177.70    5.12
  -8  -4   1  184.38    4.95
   8   4  -1  193.07    5.31
  -8   4   1  199.37    5.43
   8   4  -1  191.69    5.41
   8   4  -1  195.59    5.45
   6  -4  -1   24.38    0.97
   6  -4  -1   25.09    0.84
   6  -4  -1   22.39    1.03
  -6  -4   1   23.43    0.90
  -6  -4   1   23.20    1.06
  -6  -4   1   25.12    1.03
   6  -4  -1   24.85    0.96
   6  -4  -1   22.80    0.97
   6   4  -1   23.63    0.98
   6   4  -1   24.12    1.02
  -6   4   1   22.82    0.98
  -4  -4   1  235.40    6.49
   4  -4  -1  227.66    6.41
  -4  -4   1  237.93    6.41
   4  -4  -1  240.12    6.38
   4  -4  -1  242.36    6.23
  -4  -4   1  243.31    6.30
   4  -4  -1  233.78    6.49
   4  -4  -1  237.27    6.32
   4   4  -1  220.06    5.99
  -4   4   1  219.78    6.04
   4   4  -1  223.59    6.07
  -2  -4   1   60.08    1.87
   2  -4  -1   60.58    1.92
  -2  -4   1   59.67    1.78
  -2  -4   1   58.19    1.95
   2  -4  -1   59.18    1.67
  -2  -4   1   64.89    1.85
   2  -4  -1   57.78    1.78
   2  -4  -1   58.39    1.85
   2  -4  -1   60.22    1.73
   2   4  -1   70.09    2.06
  -2   4   1   72.30    2.25
   2   4  -1   74.46    2.27
   2   4  -1   71.82    2.18
   0  -4  -1   23.14    0.80
   0  -4  -1   22.53    0.96
   0  -4  -1   23.13    0.90
   0  -4  -1   23.10    0.97
   0  -4   1   22.72    0.88
   0  -4   1   22.29    0.83
   0  -4   1   23.57    0.89
   0  -4  -1   22.52    0.70
   0   4  -1   28.52    1.12
   0   4   1   29.11    1.13
   0   4  -1   28.80    1.00
   0   4  -1   27.12    1.02
   0   4  -1   28.26    0.95
   0   4   1   27.59    0.84
  -2  -4  -1  118.33    3.21
   2  -4   1  120.02    3.29
   2  -4   1  119.48    3.32
   2  -4   1  112.66    3.24
  -2  -4  -1  117.63    3.32
  -2  -4  -1  119.13    3.10
   2  -4   1  117.83    3.32
  -2  -4  -1  119.01    3.43
  -2  -4  -1  114.74    3.42
  -2   4  -1   97.48    2.82
   2   4   1   99.69    2.67
  -2   4  -1   98.67    2.77
  -2   4  -1   98.41    2.96
  -2   4  -1   95.84    2.94
  -2   4  -1  100.76    2.75
  -4  -4  -1   64.66    1.77
  -4  -4  -1   62.81    2.06
   4  -4   1   61.25    1.87
   4  -4   1   62.09    1.87
  -4  -4  -1   62.62    1.94
   4  -4   1   62.16    2.09
  -4  -4  -1   64.39    1.86
  -4  -4  -1   61.56    1.80
  -4  -4  -1   63.18    2.06
   4  -4   1   67.22    2.11
   4  -4   1   67.07    1.95
  -4   4  -1   57.97    1.73
  -4   4  -1   56.70    1.71
  -4   4  -1   56.54    1.89
   4   4   1   58.25    1.67
   6  -4   1   74.14    2.22
  -6  -4  -1   76.84    2.16
   6  -4   1   76.42    2.27
  -6  -4  -1   76.50    2.22
  -6  -4  -1   76.47    2.16
  -6  -4  -1   77.09    2.12
  -6  -4  -1   77.69    2.30
  -6  -4  -1   80.13    2.47
   6  -4   1   77.80    2.22
  -6  -4  -1   75.13    2.43
  -6   4  -1   85.44    2.64
  -6   4  -1   85.78    2.43
  -6   4  -1   82.35    2.44
   6   4   1   86.87    2.43
   8  -4   1  125.57    3.55
  -8  -4  -1  129.38    3.46
  -8  -4  -1  126.11    3.77
  -8  -4  -1  124.56    3.52
  -8  -4  -1  124.29    3.37
  -8  -4  -1  129.19    3.77
   8  -4   1  125.64    3.48
   8  -4   1  129.03    3.51
  -8   4  -1  114.88    3.23
   8   4   1  116.11    3.26
  -8   4  -1  114.50    3.45
  -8   4  -1  119.69    3.27
  10  -4   1   30.57    1.04
 -10  -4  -1   28.19    1.29
 -10  -4  -1   29.51    1.09
  10  -4   1   28.89    1.09
  10  -4   1   29.81    1.16
 -10  -4  -1   29.81    0.93
 -10  -4  -1   29.97    1.32
  10  -4   1   29.57    1.06
 -10  -4  -1   30.04    1.02
 -10   4  -1   36.42    1.23
 -10   4  -1   36.41    1.42
  10   4   1   35.49    1.27
  10   4   1   35.89    1.13
  12  -4   1   28.79    1.10
 -12  -4  -1   28.76    1.14
  12  -4   1   30.50    1.21
 -12  -4  -1   29.38    1.06
 -12  -4  -1   30.59    0.96
  12  -4   1   30.37    1.13
 -12  -4  -1   30.57    1.36
 -12  -4  -1   31.99    1.40
  12   4   1   33.18    1.21
  12   4   1   34.46    1.14
  12   4   1   37.31    1.31
 -12   4  -1   31.97    1.41
 -12   4  -1   34.79    1.31
 -14  -4  -1   33.04    1.52
 -14  -4  -1   33.15    1.08
  14  -4   1   31.30    1.31
 -14  -4  -1   34.15    1.22
 -14  -4  -1   32.79    1.28
 -14  -4  -1   33.42    1.53
  14  -4   1   33.33    1.24
  14  -4   1   34.01    1.23
  14   4   1   35.55    1.21
 -14   4  -1   36.55    1.52
  14   4   1   36.67    1.38
  14   4   1   34.66    1.29
  16  -4   1   51.78    1.73
  16  -4   1   52.90    1.75
 -16  -4  -1   53.69    2.12
  16  -4   1   50.31    1.84
 -16  -4  -1   52.25    1.80
 -16  -4  -1   47.94    2.05
 -16   4  -1   50.64    1.98
  16   4   1   52.16    1.85
  16   4   1   50.07    1.65
  16   4   1   52.37    1.74
 -18  -4  -1    4.47    0.56
 -18  -4  -1    3.54    0.70
 -18  -4  -1    3.90    0.73
  18  -4   1    3.60    0.46
  18  -4   1    3.80    0.56
  18  -4   1    4.77    0.51
  18   4   1    4.68    0.49
  18   4   1    4.33    0.62
 -18   4  -1    4.75    0.67
  18   4   1    5.02    0.53
 -20  -4  -1    8.03    0.99
  20  -4   1    9.98    0.75
  20  -4   1    8.61    0.80
 -20  -4  -1    8.20    0.75
  20  -4   1    9.65    0.69
 -20  -4  -1    8.87    0.97
  20   4   1   13.74    0.76
  20   4   1   11.89    0.90
  20   4   1   12.93    0.85
 -20   4  -1   14.79    1.08
 -22  -4  -1    6.87    0.75
 -22  -4  -1    6.24    0.91
 -22  -4  -1    7.66    0.96
  22  -4   1    8.21    0.71
  22  -4   1    7.51    0.67
  22  -4   1    7.11    0.80
  22   4   1    6.80    0.80
  22   4   1    7.03    0.68
  22   4   1    7.89    0.68
 -22   4  -1    7.54    0.93
  24  -4   1    6.03    0.67
 -24  -4  -1    6.51    1.04
  24  -4   1    5.73    0.67
 -24  -4  -1    6.51    1.00
 -24  -4  -1    4.71    0.67
  24  -4   1    6.36    0.76
  24  -4   1    5.90    0.83
 -24   4  -1    4.11    0.79
  24   4   1    3.21    0.52
  24   4   1    3.02    0.56
  24   4   1    5.44    0.82
  26  -4   1   32.32    1.42
 -26  -4  -1   30.87    1.97
 -26  -4  -1   30.49    1.54
 -26  -4  -1   28.04    1.79
  26  -4   1   30.02    1.63
  26  -4   1   32.90    1.65
  26  -4   1   30.74    1.39
  26   4   1   28.14    1.33
  26   4   1   26.39    1.36
  26   4   1   29.62    1.59
 -26   4  -1   28.75    1.80
 -28  -4  -1    0.47    0.56
 -28  -4  -1    0.06    0.76
  28  -4   1   -0.22    0.42
 -28  -4  -1    0.38    0.70
  28  -4   1    0.51    0.61
  28  -4   1   -0.11    0.53
  28   4   1    0.64    0.61
  28   4   1   -0.01    0.48
  30  -4   1    2.99    0.62
  30  -4   1    2.74    0.81
 -30  -4  -1    3.53    1.04
  30  -4   1    2.32    0.82
 -30  -4  -1    2.86    0.71
  30   4   1    4.85    0.75
  30   4   1    4.74    0.91
 -32  -4  -1   26.20    1.59
  32  -4   1   26.85    1.67
  32  -4   1   25.26    1.43
 -32  -4  -1   28.11    2.07
  32  -4   1   27.68    1.69
  32   4   1   24.86    1.75
  34  -4   1   -0.11    0.52
 -34  -4  -1    1.04    0.71
  34  -4   1    1.86    0.89
  34  -4   1    1.14    0.77
 -34  -4  -1    1.03    1.01
  34   4   1    1.00    0.92
 -36  -4  -1    2.90    0.86
  36  -4   1    2.91    0.72
 -36  -4  -1    2.16    1.14
  36  -4   1    2.10    0.87
  36  -4   1    2.86    0.99
  36   4   1    2.37    1.02
 -38  -4  -1    4.24    1.36
  38  -4   1    3.54    1.11
 -37  -5   1    7.19    1.53
  37  -5  -1    5.96    1.29
  37  -5  -1    4.98    1.17
  37   5  -1    6.89    1.62
 -35  -5   1    0.93    0.80
  35  -5  -1    0.27    0.53
  35  -5  -1    0.04    0.81
  35  -5  -1   -0.16    0.75
 -35  -5   1   -0.55    0.89
  35   5  -1   -0.05    1.03
 -33  -5   1    6.60    1.29
 -33  -5   1    4.57    0.94
  33  -5  -1    5.07    0.74
  33  -5  -1    7.92    1.18
  33  -5  -1    3.73    1.06
  33   5  -1    4.06    1.13
  31  -5  -1   10.10    1.29
 -31  -5   1   11.15    1.54
  31  -5  -1   10.12    0.89
  31  -5  -1    9.56    1.18
 -31  -5   1   10.24    1.15
  31   5  -1   12.33    1.51
  29  -5  -1    2.34    0.54
 -29  -5   1    2.32    0.75
  29  -5  -1    1.62    0.75
  29  -5  -1    2.45    0.70
 -29  -5   1    3.12    0.93
  29  -5  -1    1.13    0.72
  29   5  -1    1.15    0.78
  27  -5  -1    3.71    0.71
  27  -5  -1    3.25    0.78
 -27  -5   1    1.38    0.79
  27  -5  -1    4.33    0.89
 -27  -5   1    3.75    0.77
  27  -5  -1    3.74    0.59
  27   5  -1    4.14    0.71
  27   5  -1    2.93    0.91
  25  -5  -1   29.55    1.58
 -25  -5   1   31.90    1.88
  25  -5  -1   26.75    1.45
  25  -5  -1   26.57    1.57
 -25  -5   1   31.33    1.57
  25  -5  -1   28.98    1.28
  25   5  -1   25.53    1.37
  25   5  -1   28.98    1.71
 -23  -5   1    7.59    1.06
  23  -5  -1    6.70    0.63
  23  -5  -1    6.12    0.76
 -23  -5   1    5.79    1.00
 -23  -5   1    7.69    0.87
  23  -5  -1    8.00    0.91
  23  -5  -1    7.43    0.88
  23   5  -1    7.63    0.80
  23   5  -1    6.29    0.97
 -21  -5   1   11.68    1.23
 -21  -5   1   11.82    0.95
  21  -5  -1   14.32    1.04
  21  -5  -1   12.88    1.02
  21  -5  -1   13.56    0.98
  21  -5  -1   10.66    0.79
 -21  -5   1   11.84    1.23
  21   5  -1   11.12    0.92
 -21   5   1   13.05    1.17
  21   5  -1   12.50    1.21
  19  -5  -1   55.25    2.10
  19  -5  -1   59.49    2.04
 -19  -5   1   51.31    2.28
  19  -5  -1   51.64    1.81
  19  -5  -1   54.18    2.03
 -19  -5   1   53.23    2.01
 -19  -5   1   52.67    2.33
  19   5  -1   51.62    1.89
  19   5  -1   49.21    2.14
 -19   5   1   50.91    2.08
  17  -5  -1   37.85    1.44
  17  -5  -1   44.12    1.66
  17  -5  -1   44.61    1.61
  17  -5  -1   37.69    1.66
 -17  -5   1   38.37    1.86
 -17  -5   1   42.11    1.93
 -17  -5   1   42.86    1.64
  17   5  -1   38.14    1.74
 -17   5   1   39.54    1.75
  17   5  -1   41.31    1.58
  15  -5  -1   25.47    1.03
 -15  -5   1   30.06    1.22
  15  -5  -1   23.86    1.20
 -15  -5   1   22.37    1.38
  15  -5  -1   24.95    1.09
 -15  -5   1   21.54    1.34
  15  -5  -1   27.37    1.21
  15  -5  -1   25.82    1.21
  15   5  -1   41.09    1.68
 -15   5   1   37.41    1.67
  15   5  -1   39.34    1.52
  13  -5  -1   55.31    1.75
  13  -5  -1   55.17    1.94
 -13  -5   1   56.93    2.18
  13  -5  -1   53.13    1.92
 -13  -5   1   52.03    2.09
  13  -5  -1   56.81    1.97
 -13  -5   1   56.64    1.89
  13   5  -1   45.13    1.65
  13   5  -1   44.71    1.80
 -13   5   1   49.43    1.84
  11  -5  -1   37.81    1.66
  11  -5  -1   39.30    1.51
 -11  -5   1   40.21    1.69
  11  -5  -1   40.77    1.36
  11  -5  -1   42.75    1.55
 -11  -5   1   39.37    1.65
 -11  -5   1   41.04    1.48
  11  -5  -1   41.68    1.52
  11   5  -1   42.00    1.61
  11   5  -1   41.32    1.49
 -11   5   1   39.79    1.61
   9  -5  -1  102.30    3.31
   9  -5  -1  101.68    2.95
   9  -5  -1  105.75    3.13
   9  -5  -1  106.15    3.17
   9  -5  -1  104.71    3.14
  -9  -5   1  105.45    3.28
  -9  -5   1  106.87    3.33
  -9  -5   1  102.73    3.05
   9   5  -1   91.56    2.90
  -9   5   1   94.63    2.94
  -7  -5   1   29.19    1.11
  -7  -5   1   28.99    1.32
   7  -5  -1   30.24    1.20
   7  -5  -1   29.41    1.21
   7  -5  -1   29.63    1.15
   7  -5  -1   29.18    1.02
  -7  -5   1   27.05    1.23
   7  -5  -1   27.97    1.29
  -7   5   1   25.33    1.13
   7   5  -1   25.30    1.26
   7   5  -1   23.28    1.07
   5  -5  -1   15.35    0.87
   5  -5  -1   14.65    0.81
   5  -5  -1   14.74    0.65
  -5  -5   1   16.02    0.73
   5  -5  -1   13.58    0.75
  -5  -5   1   16.66    0.90
   5  -5  -1   16.43    0.76
  -5  -5   1   15.57    0.83
   5  -5  -1   14.96    0.65
  -5   5   1   21.15    1.01
   5   5  -1   20.94    1.00
   5   5  -1   20.47    0.94
  -3  -5   1   62.57    2.06
  -3  -5   1   65.36    1.95
   3  -5  -1   61.50    1.87
   3  -5  -1   63.01    2.10
  -3  -5   1   62.90    2.16
   3  -5  -1   65.61    1.84
   3  -5  -1   61.22    2.03
   3  -5  -1   65.46    1.96
   3   5  -1   77.24    2.19
   3   5  -1   73.15    2.31
  -3   5   1   73.42    2.40
   3   5  -1   73.59    2.41
   1  -5  -1   75.86    2.10
   1  -5  -1   74.40    2.33
   1  -5  -1   77.92    2.44
  -1  -5   1   76.13    2.25
  -1  -5   1   74.95    2.34
   1  -5  -1   73.60    2.17
  -1  -5   1   75.37    2.47
   1   5  -1   75.74    2.45
  -1   5   1   77.24    2.44
   1   5  -1   74.71    2.19
   1   5  -1   71.50    2.28
  -1  -5  -1   39.12    1.46
   1  -5   1   35.13    1.31
  -1  -5  -1   36.20    1.08
   1  -5   1   36.55    1.31
  -1  -5  -1   36.44    1.43
  -1  -5  -1   35.95    1.32
  -1  -5  -1   36.25    1.20
   1  -5   1   37.35    1.25
  -1   5  -1   37.11    1.20
  -1   5  -1   34.39    1.40
  -1   5  -1   33.33    1.39
   1   5   1   35.73    1.08
  -1   5  -1   33.51    1.24
  -3  -5  -1  239.70    6.72
  -3  -5  -1  240.44    6.30
   3  -5   1  240.55    6.46
  -3  -5  -1  244.85    6.72
  -3  -5  -1  243.22    6.57
   3  -5   1  249.58    6.57
  -3  -5  -1  241.80    6.38
   3  -5   1  243.97    6.53
  -3  -5  -1  238.03    6.43
   3   5   1  245.29    6.35
  -3   5  -1  239.53    6.43
  -3   5  -1  244.49    6.71
  -3   5  -1  234.99    6.68
   5  -5   1   19.45    0.87
  -5  -5  -1   20.46    0.75
  -5  -5  -1   19.51    0.81
  -5  -5  -1   18.54    0.99
  -5  -5  -1   19.99    1.03
  -5  -5  -1   21.38    0.91
   5  -5   1   19.25    0.82
  -5  -5  -1   20.76    0.72
   5  -5   1   17.71    0.82
  -5  -5  -1   20.04    0.76
   5   5   1   23.48    0.87
  -5   5  -1   22.69    1.10
  -5   5  -1   22.40    1.20
  -7  -5  -1   20.38    1.04
   7  -5   1   20.33    0.85
   7  -5   1   21.21    0.92
  -7  -5  -1   20.31    0.84
   7  -5   1   18.75    0.82
  -7  -5  -1   20.39    0.77
  -7  -5  -1   21.05    1.07
  -7  -5  -1   20.38    0.74
  -7  -5  -1   18.43    0.89
   7   5   1   21.10    0.85
  -7   5  -1   20.60    1.05
  -9  -5  -1  118.68    3.27
  -9  -5  -1  118.45    3.21
  -9  -5  -1  119.20    3.67
   9  -5   1  117.84    3.35
   9  -5   1  118.89    3.43
   9  -5   1  119.92    3.35
  -9  -5  -1  113.14    3.64
  -9  -5  -1  115.41    3.36
  -9   5  -1  104.24    3.23
   9   5   1  102.38    3.02
 -11  -5  -1   27.75    1.37
  11  -5   1   30.13    1.16
  11  -5   1   29.23    1.07
 -11  -5  -1   28.11    1.02
 -11  -5  -1   26.19    0.92
 -11  -5  -1   27.68    1.12
 -11  -5  -1   29.36    1.40
  11  -5   1   27.81    1.08
  11  -5   1   25.79    1.15
  11   5   1   27.94    1.14
 -11   5  -1   28.76    1.32
  13  -5   1   77.83    2.37
 -13  -5  -1   81.76    2.82
  13  -5   1   78.80    2.40
 -13  -5  -1   82.99    2.45
  13  -5   1   76.05    2.45
 -13  -5  -1   77.17    2.45
 -13  -5  -1   81.95    2.80
  13  -5   1   77.09    2.54
 -13  -5  -1   76.28    2.22
 -13   5  -1   79.11    2.75
  13   5   1   84.89    2.61
 -15  -5  -1   13.70    0.84
  15  -5   1   15.22    0.90
 -15  -5  -1   14.09    1.21
 -15  -5  -1   13.88    1.04
  15  -5   1   14.79    0.82
  15  -5   1   13.70    0.78
  15   5   1   13.26    0.66
 -15   5  -1   12.62    0.93
  15   5   1   12.82    0.84
  17  -5   1   13.81    0.97
  17  -5   1   15.62    0.87
 -17  -5  -1   13.12    1.16
 -17  -5  -1   15.70    1.15
  17  -5   1   15.05    0.83
 -17  -5  -1   13.37    0.90
 -17   5  -1   15.97    1.13
  17   5   1   15.36    0.78
  17   5   1   17.05    1.03
 -19  -5  -1   18.28    1.32
 -19  -5  -1   20.73    1.42
  19  -5   1   22.28    1.05
  19  -5   1   22.34    1.08
  19  -5   1   24.65    1.23
 -19  -5  -1   21.02    1.14
  19   5   1   27.74    1.36
 -19   5  -1   22.05    1.34
  19   5   1   24.48    1.05
  21  -5   1   20.71    1.07
 -21  -5  -1   18.22    1.13
  21  -5   1   19.45    1.17
  21  -5   1   20.30    1.05
 -21  -5  -1   19.63    1.44
 -21  -5  -1   19.59    1.40
 -21   5  -1   23.22    1.38
  21   5   1   20.02    0.99
  21   5   1   19.64    1.21
 -23  -5  -1    8.63    1.20
  23  -5   1    7.65    0.72
 -23  -5  -1    7.14    0.81
  23  -5   1    9.34    0.93
 -23  -5  -1    9.99    1.25
  23  -5   1    8.72    0.79
  23   5   1    9.21    0.77
 -23   5  -1    8.84    1.05
  23   5   1    9.66    1.03
  25  -5   1   17.23    1.25
  25  -5   1   16.00    1.21
  25  -5   1   18.60    1.09
 -25  -5  -1   18.08    1.21
 -25  -5  -1   17.01    1.62
 -25  -5  -1   19.21    1.69
  25  -5   1   17.35    1.09
 -25   5  -1   17.59    1.53
  25   5   1   17.28    1.27
 -27  -5  -1   13.84    1.13
  27  -5   1   14.84    1.07
  27  -5   1   16.35    1.07
 -27  -5  -1   12.00    1.40
  27  -5   1   13.82    1.17
 -27  -5  -1   14.50    1.61
  27  -5   1   12.61    1.17
  27   5   1   15.62    1.39
  29  -5   1    8.15    1.10
 -29  -5  -1    7.79    1.24
  29  -5   1    7.87    0.83
 -29  -5  -1    7.56    0.94
  29  -5   1    8.44    0.99
  29   5   1    7.72    1.12
  31  -5   1    2.42    0.78
 -31  -5  -1    1.94    1.02
 -31  -5  -1    1.32    0.69
  31  -5   1    2.49    0.77
  31  -5   1    2.32    0.64
  31   5   1    3.25    0.95
  33  -5   1    1.58    0.61
 -33  -5  -1    1.47    0.71
  33  -5   1    0.67    0.88
  33  -5   1    0.93    0.83
 -33  -5  -1    1.33    0.97
  33   5   1    2.37    0.97
  35  -5   1    0.62    0.81
 -35  -5  -1    0.23    0.68
  35  -5   1    0.51    0.85
  35  -5   1    0.39    0.60
 -35  -5  -1    0.68    1.00
  35   5   1   -0.10    0.90
 -37  -5  -1   19.05    2.07
  37  -5   1   18.68    1.71
  37  -5   1   17.49    1.70
  37   5   1   21.06    1.98
 -36  -6   1   -0.03    1.13
  36  -6  -1   -0.30    0.95
  36  -6  -1    0.72    0.94
  36   6  -1    0.37    1.00
 -34  -6   1    2.96    1.24
 -34  -6   1    2.65    0.92
  34  -6  -1    2.89    0.97
  34  -6  -1    2.09    0.63
  34  -6  -1    2.92    0.97
  34   6  -1    0.99    1.01
 -32  -6   1   18.94    1.52
  32  -6  -1   16.22    1.51
 -32  -6   1   16.10    1.84
  32  -6  -1   16.53    1.14
  32  -6  -1   16.20    1.63
  32   6  -1   11.05    1.52
  30  -6  -1    1.85    0.83
  30  -6  -1    1.51    0.72
 -30  -6   1    1.54    0.72
  30  -6  -1    1.46    0.77
  30  -6  -1    2.17    0.57
 -30  -6   1    2.22    1.10
  30   6  -1    3.12    1.04
  28  -6  -1    2.72    0.81
 -28  -6   1    1.89    0.97
  28  -6  -1    1.57    0.70
  28  -6  -1    2.75    0.73
  28  -6  -1    2.19    0.53
 -28  -6   1    2.34    0.72
  28   6  -1    0.51    0.79
  26  -6  -1   29.75    1.56
 -26  -6   1   27.04    1.56
  26  -6  -1   29.15    1.33
 -26  -6   1   26.73    1.88
  26  -6  -1   28.02    1.67
  26  -6  -1   29.40    1.56
  26   6  -1   31.35    1.96
  24  -6  -1    3.34    0.73
 -24  -6   1    4.11    1.01
  24  -6  -1    5.43    0.79
  24  -6  -1    3.62    0.82
  24  -6  -1    3.79    0.55
 -24  -6   1    2.93    0.71
  24   6  -1    4.52    0.88
  24   6  -1    4.44    0.72
  22  -6  -1   10.50    0.79
 -22  -6   1   12.44    1.34
  22  -6  -1   11.53    0.99
  22  -6  -1    9.51    1.01
  22  -6  -1    9.23    0.91
 -22  -6   1   11.34    1.00
 -22  -6   1   10.55    1.28
  22   6  -1   13.00    1.28
  22   6  -1   13.38    0.99
  20  -6  -1   48.99    1.95
  20  -6  -1   48.18    1.84
  20  -6  -1   45.93    1.68
 -20  -6   1   44.06    2.22
 -20  -6   1   47.85    2.29
 -20  -6   1   48.23    1.93
  20  -6  -1   46.36    1.99
  20   6  -1   49.60    2.21
  20   6  -1   52.28    1.94
 -20   6   1   47.42    2.15
  18  -6  -1    8.55    0.77
 -18  -6   1    7.75    0.99
 -18  -6   1    8.90    1.03
  18  -6  -1    9.24    0.90
  18  -6  -1    8.80    0.87
 -18  -6   1    8.21    0.79
  18  -6  -1    8.60    0.68
  18   6  -1    9.15    0.81
  18   6  -1   10.25    1.04
 -18   6   1    8.94    0.93
  16  -6  -1   48.67    1.90
 -16  -6   1   45.65    1.82
  16  -6  -1   49.24    1.77
  16  -6  -1   47.45    1.65
 -16  -6   1   50.72    2.17
 -16  -6   1   47.32    2.09
  16  -6  -1   46.96    1.90
  16  -6  -1   48.31    1.84
 -16   6   1   51.61    2.07
  16   6  -1   46.72    2.04
  16   6  -1   50.05    1.82
 -14  -6   1   33.92    1.44
 -14  -6   1   34.48    1.69
 -14  -6   1   34.95    1.75
  14  -6  -1   34.60    1.51
  14  -6  -1   34.94    1.29
  14  -6  -1   37.59    1.50
  14  -6  -1   33.74    1.49
  14   6  -1   26.62    1.38
 -14   6   1   25.96    1.37
  12  -6  -1   21.32    1.10
 -12  -6   1   20.69    1.07
 -12  -6   1   25.17    1.34
 -12  -6   1   23.90    1.34
  12  -6  -1   20.54    1.09
  12  -6  -1   21.02    0.93
  12  -6  -1   22.60    1.14
 -12   6   1   22.23    1.18
  12   6  -1   22.02    1.18
  10  -6  -1   37.84    1.51
 -10  -6   1   37.48    1.67
  10  -6  -1   39.32    1.54
 -10  -6   1   38.58    1.74
 -10  -6   1   38.62    1.47
  10  -6  -1   40.65    1.56
  10  -6  -1   39.98    1.36
  10   6  -1   45.42    1.77
 -10   6   1   47.28    1.84
  -8  -6   1   21.84    1.21
   8  -6  -1   23.45    0.92
   8  -6  -1   23.12    1.08
  -8  -6   1   19.95    0.99
   8  -6  -1   23.01    1.24
   8  -6  -1   23.53    1.09
   8  -6  -1   22.96    1.11
  -8  -6   1   23.87    1.22
  -8   6   1   23.59    1.17
   8   6  -1   20.57    1.06
   6  -6  -1   23.89    0.94
   6  -6  -1   24.06    0.95
   6  -6  -1   23.76    1.05
   6  -6  -1   25.07    1.16
  -6  -6   1   25.11    1.26
  -6  -6   1   25.23    1.19
  -6  -6   1   24.86    1.04
   6  -6  -1   23.75    1.23
   6  -6  -1   22.30    1.07
   6   6  -1   24.35    1.10
  -6   6   1   21.80    1.12
  -4  -6   1   56.91    2.01
   4  -6  -1   56.34    2.02
   4  -6  -1   57.22    1.74
   4  -6  -1   55.36    1.77
   4  -6  -1   54.35    1.86
  -4  -6   1   57.24    2.13
   4  -6  -1   59.61    1.99
  -4  -6   1   61.09    1.88
  -4   6   1   65.94    2.31
   4   6  -1   67.58    2.19
   2  -6  -1    2.96    0.38
  -2  -6   1    3.23    0.47
   2  -6  -1    2.52    0.28
  -2  -6   1    2.54    0.46
   2  -6  -1    2.19    0.30
   2  -6  -1    2.28    0.42
  -2  -6   1    2.20    0.41
  -2  -6   1    2.29    0.35
   2  -6  -1    2.53    0.45
   2   6  -1    7.58    0.58
  -2   6   1    7.48    0.70
   0  -6   1    9.48    0.67
   0  -6  -1   10.37    0.46
   0  -6   1    9.06    0.64
   0  -6   1   10.33    0.62
   0  -6  -1    9.38    0.56
   0  -6  -1    8.02    0.75
   0  -6  -1    9.72    0.67
   0  -6  -1   10.11    0.77
   0   6  -1    8.28    0.79
   0   6  -1    9.32    0.62
   0   6   1   10.21    0.78
   2  -6   1   67.24    2.01
  -2  -6  -1   64.43    1.95
  -2  -6  -1   64.12    2.11
   2  -6   1   60.46    2.06
  -2  -6  -1   61.69    2.22
  -2  -6  -1   63.54    1.79
   2  -6   1   60.76    2.07
  -2  -6  -1   61.98    2.25
   2   6   1   77.53    2.20
  -2   6  -1   74.23    2.58
   4  -6   1    8.33    0.68
   4  -6   1    9.14    0.60
  -4  -6  -1    9.79    0.52
  -4  -6  -1    9.59    0.46
   4  -6   1    9.79    0.63
  -4  -6  -1    9.26    0.59
  -4  -6  -1    8.46    0.79
  -4  -6  -1    9.30    0.67
  -4  -6  -1   10.69    0.88
   4   6   1    4.03    0.37
  -4   6  -1    3.64    0.54
   6  -6   1    2.75    0.37
  -6  -6  -1    1.44    0.48
  -6  -6  -1    2.57    0.36
  -6  -6  -1    3.00    0.34
  -6  -6  -1    2.55    0.46
  -6  -6  -1    2.82    0.51
  -6  -6  -1    2.24    0.31
   6  -6   1    2.12    0.40
  -6  -6  -1    1.95    0.47
   6  -6   1    2.33    0.37
  -6   6  -1    1.05    0.41
   6   6   1    1.05    0.26
  -8  -6  -1   13.71    0.97
  -8  -6  -1   11.36    0.58
  -8  -6  -1   13.37    0.99
   8  -6   1   12.86    0.71
   8  -6   1   13.18    0.80
  -8  -6  -1   11.20    0.70
  -8  -6  -1   11.85    0.61
   8  -6   1   11.51    0.69
  -8  -6  -1   12.77    0.79
  -8   6  -1    8.67    0.78
   8   6   1    8.31    0.58
 -10  -6  -1    6.10    0.65
 -10  -6  -1    5.52    0.71
 -10  -6  -1    6.31    0.43
  10  -6   1    6.69    0.64
  10  -6   1    5.91    0.54
  10  -6   1    6.23    0.55
 -10  -6  -1    5.57    0.73
 -10  -6  -1    6.84    0.51
 -10  -6  -1    5.28    0.55
  10  -6   1    6.13    0.61
  10   6   1    5.45    0.55
 -10   6  -1    5.37    0.66
  12  -6   1   10.79    0.79
 -12  -6  -1   10.23    1.01
  12  -6   1   10.78    0.70
 -12  -6  -1   12.36    1.09
  12  -6   1   10.59    0.68
  12  -6   1   10.42    0.72
 -12  -6  -1    9.83    0.74
 -12  -6  -1   10.61    0.54
 -12  -6  -1   11.69    1.02
 -12   6  -1   15.02    1.02
  12   6   1   12.45    0.79
  14  -6   1   49.94    1.85
 -14  -6  -1   51.25    2.15
 -14  -6  -1   47.96    1.77
 -14  -6  -1   47.71    2.08
  14  -6   1   45.40    1.75
  14  -6   1   54.19    1.72
  14  -6   1   44.93    1.68
 -14   6  -1   49.10    2.04
  14   6   1   49.81    1.86
 -16  -6  -1    5.72    0.64
  16  -6   1    6.86    0.68
  16  -6   1    5.84    0.57
 -16  -6  -1    6.50    0.87
 -16  -6  -1    7.27    0.93
  16  -6   1    7.68    0.77
  16   6   1    3.54    0.58
 -16   6  -1    3.97    0.70
  18  -6   1    8.08    0.83
 -18  -6  -1    5.91    0.93
  18  -6   1    6.47    0.70
 -18  -6  -1    5.46    0.70
  18  -6   1    5.70    0.61
 -18  -6  -1    5.01    0.86
  18   6   1    4.84    0.69
 -18   6  -1    5.28    0.83
  20  -6   1   12.89    0.87
  20  -6   1   12.72    0.93
 -20  -6  -1   11.16    1.25
 -20  -6  -1   11.01    0.93
 -20  -6  -1   11.55    1.20
  20  -6   1   12.19    1.03
  20   6   1   12.30    1.08
  20   6   1   11.95    0.75
 -20   6  -1   11.64    1.13
 -22  -6  -1    0.58    0.71
 -22  -6  -1    0.94    0.71
  22  -6   1    0.40    0.52
  22  -6   1    0.47    0.43
  22  -6   1    0.46    0.44
 -22  -6  -1    0.38    0.48
  22   6   1    0.54    0.54
 -22   6  -1    0.09    0.55
  24  -6   1    2.51    0.55
  24  -6   1    3.40    0.74
 -24  -6  -1    4.21    1.08
 -24  -6  -1    3.68    0.69
  24  -6   1    3.49    0.66
 -24  -6  -1    3.31    0.93
 -24   6  -1    2.78    0.84
  24   6   1    4.48    0.84
 -26  -6  -1    6.51    1.27
  26  -6   1    6.85    0.92
 -26  -6  -1    5.97    1.20
  26  -6   1    6.27    0.81
  26  -6   1    8.34    1.06
  26  -6   1    7.51    0.81
 -26  -6  -1    8.16    0.94
  26   6   1    6.48    0.95
  28  -6   1   11.45    1.20
 -28  -6  -1   12.93    1.18
  28  -6   1   14.32    1.07
 -28  -6  -1   13.25    1.57
  28  -6   1   15.64    1.27
  28   6   1   14.71    1.45
  30  -6   1   29.58    1.49
 -30  -6  -1   29.56    1.70
  30  -6   1   26.75    1.71
 -30  -6  -1   27.91    2.10
  30  -6   1   24.51    1.59
  30   6   1   22.75    1.76
 -32  -6  -1    4.55    0.90
  32  -6   1    4.58    0.92
  32  -6   1    5.05    0.81
  32  -6   1    4.21    0.97
 -32  -6  -1    2.34    1.10
  32   6   1    6.16    1.12
  34  -6   1   10.42    1.42
  34  -6   1   13.14    1.11
 -34  -6  -1   13.36    1.83
 -34  -6  -1   16.33    1.37
  34  -6   1   13.88    1.41
  34   6   1   12.82    1.59
  36  -6   1    6.82    1.23
  36  -6   1    8.89    1.31
 -36  -6  -1    6.47    1.57
  36   6   1    7.90    1.40
  35  -7  -1    2.57    0.92
  35   7  -1    2.11    1.14
  33  -7  -1    6.00    0.77
  33  -7  -1    5.64    1.18
  33  -7  -1    3.69    1.00
 -33  -7   1    6.49    1.11
 -33  -7   1    8.04    1.59
  33   7  -1    6.57    1.40
  31  -7  -1    0.83    0.53
  31  -7  -1    1.98    0.81
 -31  -7   1   -0.04    0.89
 -31  -7   1    1.16    0.77
  31  -7  -1    1.60    0.85
  31   7  -1    2.31    1.07
  29  -7  -1    9.76    1.32
  29  -7  -1    9.44    1.17
  29  -7  -1   10.39    0.89
 -29  -7   1    9.70    1.13
  29  -7  -1    9.81    1.14
 -29  -7   1   10.33    1.50
  29   7  -1    7.38    1.30
 -27  -7   1    4.39    1.10
 -27  -7   1    4.59    0.89
  27  -7  -1    4.29    0.63
  27  -7  -1    5.20    0.98
  27  -7  -1    4.21    0.86
  27  -7  -1    4.85    0.89
  27   7  -1    5.06    1.01
  25  -7  -1    9.92    1.02
  25  -7  -1    7.52    0.75
  25  -7  -1    9.98    1.08
 -25  -7   1    8.41    1.36
  25  -7  -1    9.84    1.12
 -25  -7   1    7.82    0.96
  25   7  -1    8.61    1.20
 -23  -7   1   13.97    1.16
 -23  -7   1   14.63    1.56
  23  -7  -1   12.72    1.24
  23  -7  -1   12.40    0.90
  23  -7  -1   12.64    1.09
  23  -7  -1   13.31    1.18
  23   7  -1   11.17    1.26
  23   7  -1   10.77    0.98
  21  -7  -1   47.37    1.97
 -21  -7   1   43.27    2.66
  21  -7  -1   43.75    2.06
 -21  -7   1   43.01    2.29
  21  -7  -1   46.03    1.70
  21  -7  -1   45.76    1.87
 -21  -7   1   46.40    1.97
  21   7  -1   50.40    1.99
  21   7  -1   49.91    2.32
 -19  -7   1   13.95    1.35
 -19  -7   1   14.23    1.10
  19  -7  -1   13.30    1.11
  19  -7  -1   11.27    1.05
 -19  -7   1   15.76    1.45
  19  -7  -1   14.96    0.89
  19  -7  -1   15.18    1.01
  19   7  -1    9.99    1.12
 -17  -7   1   12.18    0.98
  17  -7  -1   13.25    0.88
  17  -7  -1   11.41    0.79
  17  -7  -1   11.46    0.98
  17  -7  -1   10.43    0.93
 -17  -7   1   10.99    1.16
 -17  -7   1   11.96    1.23
  17  -7  -1   11.38    1.02
  17   7  -1   12.34    1.18
 -17   7   1   15.34    1.26
  15  -7  -1   45.15    1.62
 -15  -7   1   47.53    2.16
  15  -7  -1   46.30    1.91
  15  -7  -1   48.23    1.91
 -15  -7   1   46.52    2.14
 -15  -7   1   43.27    1.80
  15  -7  -1   47.44    1.88
 -15   7   1   42.88    1.89
  15   7  -1   38.87    1.84
  13  -7  -1   16.96    0.86
  13  -7  -1   15.55    1.02
  13  -7  -1   16.85    1.03
  13  -7  -1   15.89    1.02
 -13  -7   1   16.78    1.25
 -13  -7   1   16.83    1.03
 -13  -7   1   15.89    1.21
  13   7  -1   15.03    1.07
 -13   7   1   16.93    1.15
  11  -7  -1    8.94    0.80
  11  -7  -1    8.67    0.66
  11  -7  -1   10.20    0.86
 -11  -7   1   10.12    0.99
  11  -7  -1    8.14    0.77
 -11  -7   1   10.74    0.82
 -11  -7   1    8.06    0.93
 -11   7   1   13.85    0.99
  11   7  -1   13.05    0.96
   9  -7  -1   64.61    2.01
  -9  -7   1   62.27    2.13
  -9  -7   1   61.71    2.44
  -9  -7   1   63.65    2.39
   9  -7  -1   60.75    2.21
   9  -7  -1   63.80    2.20
   9  -7  -1   62.75    2.25
   9   7  -1   56.88    2.08
  -9   7   1   53.94    2.13
   7  -7  -1   21.82    0.97
  -7  -7   1   25.22    1.38
   7  -7  -1   23.40    1.17
  -7  -7   1   24.56    1.11
  -7  -7   1   23.32    1.30
   7  -7  -1   23.70    1.11
   7  -7  -1   27.78    1.27
  -7   7   1   26.60    1.36
   7   7  -1   27.07    1.28
  -5  -7   1    8.26    0.66
   5  -7  -1    7.00    0.71
  -5  -7   1    6.19    0.75
   5  -7  -1    7.13    0.63
   5  -7  -1    8.82    0.55
   5  -7  -1    8.66    0.76
  -5  -7   1    7.18    0.74
   5  -7  -1    8.43    0.58
   5   7  -1    9.94    0.76
  -5   7   1   11.71    0.86
  -3  -7   1   76.57    2.75
  -3  -7   1   76.30    2.61
  -3  -7   1   77.81    2.44
   3  -7  -1   73.87    2.63
   3  -7  -1   80.46    2.45
   3  -7  -1   78.56    2.27
   3  -7  -1   77.48    2.57
   3  -7  -1   76.20    2.34
   3   7  -1   74.05    2.46
  -3   7   1   78.00    2.67
   1  -7  -1    0.01    0.32
   1  -7  -1    0.06    0.38
   1  -7  -1   -0.05    0.17
   1  -7  -1   -0.06    0.23
  -1  -7   1    0.02    0.27
  -1  -7   1    0.24    0.33
  -1  -7   1   -0.04    0.32
  -1   7   1    0.84    0.41
   1   7  -1    0.38    0.39
   1   7  -1    0.55    0.31
  -1  -7  -1   72.79    2.55
  -1  -7  -1   69.38    2.20
  -1  -7  -1   72.34    2.41
   1  -7   1   71.89    2.40
   1  -7   1   70.39    2.26
  -1  -7  -1   70.45    2.58
   1  -7   1   70.50    2.39
  -1  -7  -1   72.57    2.04
  -1   7  -1   65.84    2.48
   1   7   1   65.52    2.45
   1   7   1   66.70    1.97
  -1   7  -1   70.04    2.21
   3  -7   1    8.17    0.73
  -3  -7  -1    9.42    0.63
  -3  -7  -1    9.22    0.46
   3  -7   1    9.58    0.66
  -3  -7  -1    8.86    0.88
  -3  -7  -1    9.01    0.77
  -3  -7  -1    8.59    0.84
  -3  -7  -1    9.54    0.55
   3  -7   1   10.30    0.74
   3   7   1   10.08    0.57
  -3   7  -1   10.61    0.98
   5  -7   1    4.20    0.51
  -5  -7  -1    4.17    0.64
  -5  -7  -1    3.15    0.43
   5  -7   1    3.78    0.53
  -5  -7  -1    3.54    0.56
  -5  -7  -1    5.33    0.74
   5  -7   1    2.74    0.42
  -5  -7  -1    3.31    0.36
  -5  -7  -1    3.75    0.39
  -5   7  -1    4.24    0.67
   5   7   1    3.81    0.43
   7  -7   1   27.21    1.16
  -7  -7  -1   28.52    1.46
  -7  -7  -1   28.18    1.46
  -7  -7  -1   26.88    1.04
   7  -7   1   28.86    1.22
   7  -7   1   24.86    1.22
  -7  -7  -1   31.11    1.34
  -7  -7  -1   28.28    1.17
  -7   7  -1   26.28    1.36
   7   7   1   27.38    1.12
  -9  -7  -1   50.16    2.15
   9  -7   1   52.22    1.79
  -9  -7  -1   52.91    2.18
  -9  -7  -1   52.20    1.71
  -9  -7  -1   53.26    1.83
  -9  -7  -1   52.59    1.98
   9  -7   1   51.50    1.92
   9  -7   1   52.13    1.83
   9   7   1   57.23    1.96
  -9   7  -1   57.71    2.21
 -11  -7  -1   17.25    1.21
  11  -7   1   17.17    1.02
 -11  -7  -1   19.12    1.07
 -11  -7  -1   17.46    1.30
 -11  -7  -1   19.00    0.99
  11  -7   1   17.42    0.92
  11  -7   1   17.73    1.07
  11  -7   1   18.51    0.94
 -11   7  -1   18.76    1.23
  11   7   1   19.23    1.02
  13  -7   1   77.62    2.52
  13  -7   1   81.33    2.54
  13  -7   1   80.18    2.71
 -13  -7  -1   76.83    2.99
 -13  -7  -1   78.67    2.73
 -13  -7  -1   79.36    2.99
 -13  -7  -1   80.24    2.61
  13  -7   1   83.32    2.69
 -13   7  -1   59.13    2.36
  13   7   1   61.00    2.16
  15  -7   1   41.01    1.66
  15  -7   1   38.45    1.53
  15  -7   1   41.30    1.54
  15  -7   1   38.49    1.68
 -15  -7  -1   40.24    2.01
 -15  -7  -1   38.61    1.71
 -15  -7  -1   40.63    1.63
 -15  -7  -1   38.24    1.99
  15   7   1   44.21    1.87
 -15   7  -1   51.38    2.13
  17  -7   1   19.47    1.20
  17  -7   1   21.59    1.09
  17  -7   1   21.97    1.18
 -17  -7  -1   20.26    1.59
 -17  -7  -1   21.11    1.55
 -17  -7  -1   20.69    1.17
 -17   7  -1   23.26    1.46
  17   7   1   23.88    1.31
  19  -7   1   23.12    1.33
 -19  -7  -1   22.40    1.29
  19  -7   1   22.52    1.26
 -19  -7  -1   25.67    1.71
  19  -7   1   25.45    1.21
 -19  -7  -1   22.81    1.61
  19   7   1   22.19    1.34
 -19   7  -1   24.88    1.56
  21  -7   1   30.33    1.56
 -21  -7  -1   26.69    1.80
  21  -7   1   25.69    1.39
 -21  -7  -1   27.40    1.47
 -21  -7  -1   28.18    1.95
  21  -7   1   27.92    1.32
 -21   7  -1   26.45    1.68
  21   7   1   22.41    1.45
  23  -7   1    1.33    0.63
  23  -7   1    0.79    0.51
 -23  -7  -1    0.34    0.79
 -23  -7  -1    0.23    0.76
  23  -7   1    0.28    0.45
 -23  -7  -1    0.48    0.56
  23   7   1    0.74    0.62
 -25  -7  -1    1.34    0.64
 -25  -7  -1    2.02    0.94
  25  -7   1    1.63    0.60
  25  -7   1    2.08    0.78
  25  -7   1    2.43    0.58
 -25  -7  -1    0.80    0.88
  25  -7   1    2.30    0.63
  25   7   1    3.27    0.84
  27  -7   1   14.30    1.29
 -27  -7  -1   14.02    1.71
  27  -7   1   14.48    1.34
 -27  -7  -1   13.74    1.22
  27  -7   1   17.14    1.20
  27  -7   1   15.87    1.13
  27   7   1   13.50    1.41
  29  -7   1    1.07    0.58
  29  -7   1    0.69    0.83
 -29  -7  -1    1.24    0.69
  29  -7   1    1.26    0.77
 -29  -7  -1    1.10    1.08
  29   7   1    0.40    0.83
 -31  -7  -1    4.62    0.90
 -31  -7  -1    3.65    1.32
  31  -7   1    5.17    1.01
  31  -7   1    5.80    0.97
  31  -7   1    3.86    0.73
  31   7   1    6.23    1.14
  33  -7   1    7.51    0.93
 -33  -7  -1    9.22    1.64
  33  -7   1    6.97    1.08
  33  -7   1    8.49    1.33
 -33  -7  -1    6.38    1.02
  33   7   1    7.41    1.25
 -35  -7  -1    8.23    1.60
  35  -7   1   10.35    1.72
  35  -7   1   11.99    1.46
  35   7   1    9.76    1.57
  34  -8  -1    5.88    1.18
  34   8  -1    6.85    1.53
  32  -8  -1    1.95    0.61
 -32  -8   1    3.27    1.39
  32  -8  -1    0.75    0.98
 -32  -8   1    2.73    0.89
  32  -8  -1    2.61    0.91
  32   8  -1    2.91    1.08
  30  -8  -1   17.48    1.65
 -30  -8   1   14.10    1.40
  30  -8  -1   18.51    2.06
  30  -8  -1   15.67    1.42
 -30  -8   1   16.75    2.02
  30  -8  -1   17.47    1.17
  30   8  -1   12.67    1.60
 -28  -8   1   15.18    1.39
 -28  -8   1   11.68    1.72
  28  -8  -1   11.18    1.34
  28  -8  -1   13.10    1.26
  28  -8  -1   11.94    0.96
  28  -8  -1   12.56    1.31
  28   8  -1   15.90    1.72
  26  -8  -1    9.73    1.10
 -26  -8   1   10.56    1.51
  26  -8  -1   10.79    0.90
  26  -8  -1   13.10    1.38
  26  -8  -1    8.82    1.08
 -26  -8   1   11.02    1.16
  26   8  -1    5.21    1.16
  24  -8  -1    8.52    0.97
 -24  -8   1    9.02    1.39
  24  -8  -1    9.86    0.85
  24  -8  -1    9.20    1.13
 -24  -8   1   10.02    1.12
  24  -8  -1    7.85    1.00
  24   8  -1    9.07    1.21
  22  -8  -1   15.67    0.98
 -22  -8   1   13.44    1.18
  22  -8  -1   13.75    1.27
 -22  -8   1   14.49    1.63
  22  -8  -1   14.64    1.11
  22  -8  -1   12.59    1.18
  22   8  -1   10.07    1.22
 -20  -8   1   31.28    2.07
  20  -8  -1   27.24    1.53
  20  -8  -1   28.46    1.67
  20  -8  -1   30.38    1.47
  20  -8  -1   30.04    1.32
 -20  -8   1   26.17    1.54
  20   8  -1   25.76    1.68
  18  -8  -1    8.51    0.90
  18  -8  -1    6.85    0.86
 -18  -8   1    5.99    1.04
 -18  -8   1    7.09    0.85
  18  -8  -1    6.64    0.75
  18  -8  -1    8.16    0.71
  18  -8  -1    7.78    0.94
 -18  -8   1    7.99    1.14
  18   8  -1    9.71    1.11
  16  -8  -1   28.96    1.47
 -16  -8   1   26.13    1.42
  16  -8  -1   24.97    1.35
  16  -8  -1   26.00    1.42
 -16  -8   1   25.21    1.72
  16  -8  -1   26.41    1.18
 -16  -8   1   24.09    1.66
  16   8  -1   21.06    1.39
  14  -8  -1   83.22    2.91
  14  -8  -1   85.88    2.96
  14  -8  -1   83.10    2.94
 -14  -8   1   85.75    2.88
 -14  -8   1   86.42    3.30
 -14  -8   1   81.47    3.25
  14  -8  -1   89.36    2.67
  14   8  -1  100.70    3.46
 -14   8   1   99.06    3.48
 -12  -8   1   29.31    1.71
 -12  -8   1   32.44    1.46
  12  -8  -1   30.19    1.25
  12  -8  -1   30.82    1.49
  12  -8  -1   34.27    1.59
 -12  -8   1   30.68    1.70
  12  -8  -1   30.01    1.46
 -12   8   1   34.70    1.71
  12   8  -1   32.96    1.62
  10  -8  -1    3.24    0.60
 -10  -8   1    5.09    0.85
 -10  -8   1    3.50    0.71
  10  -8  -1    4.62    0.71
 -10  -8   1    3.78    0.57
  10  -8  -1    3.51    0.47
  10  -8  -1    3.84    0.66
  10   8  -1    7.53    0.84
 -10   8   1    7.50    0.89
  -8  -8   1   79.55    2.59
   8  -8  -1   78.37    2.70
  -8  -8   1   82.52    3.01
   8  -8  -1   76.57    2.61
   8  -8  -1   78.26    2.73
   8  -8  -1   76.37    2.42
  -8  -8   1   74.49    2.83
  -8   8   1   84.26    2.98
   8   8  -1   83.42    2.84
   6  -8  -1    3.13    0.58
   6  -8  -1    3.43    0.45
  -6  -8   1    3.12    0.59
  -6  -8   1    2.76    0.61
   6  -8  -1    4.10    0.60
   6  -8  -1    3.55    0.62
  -6  -8   1    3.91    0.71
  -6  -8   1    2.68    0.49
   6   8  -1    3.31    0.55
  -6   8   1    2.95    0.63
   4  -8  -1   28.76    1.08
   4  -8  -1   27.80    1.39
   4  -8  -1   28.05    1.15
  -4  -8   1   29.45    1.54
  -4  -8   1   26.01    1.36
   4  -8  -1   26.99    1.26
  -4  -8   1   28.31    1.41
  -4  -8   1   27.98    1.25
   4  -8  -1   25.83    1.36
  -4   8   1   27.21    1.43
   4   8  -1   27.08    1.27
   2  -8  -1    5.37    0.71
   2  -8  -1    6.05    0.62
  -2  -8   1    4.67    0.68
   2  -8  -1    4.93    0.67
   2  -8  -1    5.60    0.55
  -2  -8   1    5.26    0.59
  -2  -8   1    5.31    0.69
   2  -8  -1    6.14    0.46
   2   8  -1    5.91    0.63
  -2   8   1    6.09    0.81
   0  -8   1    2.96    0.54
   0  -8   1    3.40    0.60
   0  -8   1    3.86    0.52
   0  -8  -1    3.88    0.69
   0  -8  -1    3.81    0.47
   0  -8  -1    3.09    0.57
   0  -8  -1    3.85    0.35
   0   8  -1    4.45    0.78
   0   8  -1    5.49    0.59
   0   8   1    4.77    0.75
  -2  -8  -1   37.40    1.77
   2  -8   1   36.47    1.58
  -2  -8  -1   37.54    1.20
  -2  -8  -1   38.27    1.41
   2  -8   1   37.02    1.46
   2  -8   1   36.39    1.58
  -2  -8  -1   38.42    1.63
  -2  -8  -1   37.22    1.73
  -2   8  -1   35.26    1.71
   2   8   1   37.78    1.77
   2   8   1   34.63    1.23
   4  -8   1    8.21    0.77
  -4  -8  -1   10.13    1.03
   4  -8   1   10.11    0.88
  -4  -8  -1    8.24    0.91
  -4  -8  -1    9.62    0.61
  -4  -8  -1    9.12    0.69
  -4  -8  -1    8.56    0.82
   4  -8   1    8.50    0.69
   4   8   1    7.92    0.57
  -4   8  -1    7.38    0.89
  -6  -8  -1    6.35    0.53
  -6  -8  -1    5.52    0.75
  -6  -8  -1    6.34    0.85
   6  -8   1    6.25    0.68
  -6  -8  -1    5.63    0.81
   6  -8   1    5.87    0.71
   6  -8   1    5.29    0.56
  -6  -8  -1    6.44    0.60
   6   8   1    8.51    0.63
  -6   8  -1    7.69    0.91
   8  -8   1    5.33    0.58
   8  -8   1    5.05    0.67
  -8  -8  -1    5.38    0.72
  -8  -8  -1    5.21    0.83
  -8  -8  -1    5.02    0.80
   8  -8   1    6.51    0.69
  -8  -8  -1    6.23    0.62
  -8   8  -1    8.17    0.93
   8   8   1    9.36    0.72
 -10  -8  -1   44.84    2.10
  10  -8   1   44.82    1.80
  10  -8   1   44.23    1.69
  10  -8   1   41.85    1.64
 -10  -8  -1   46.79    1.72
  10  -8   1   43.89    1.82
 -10  -8  -1   42.53    1.88
 -10  -8  -1   47.17    2.12
  10   8   1   55.07    1.96
 -10   8  -1   51.30    2.22
  12  -8   1   32.66    1.51
  12  -8   1   31.26    1.35
 -12  -8  -1   37.71    1.88
  12  -8   1   31.73    1.39
 -12  -8  -1   34.06    1.45
 -12  -8  -1   30.67    1.53
 -12  -8  -1   30.71    1.78
  12  -8   1   30.89    1.48
  12   8   1   37.55    1.60
 -12   8  -1   38.05    1.82
 -14  -8  -1   31.61    1.85
 -14  -8  -1   29.89    1.43
 -14  -8  -1   34.65    1.86
  14  -8   1   31.71    1.38
 -14  -8  -1   28.85    1.55
  14  -8   1   32.76    1.53
  14  -8   1   30.99    1.51
  14  -8   1   29.57    1.34
 -14   8  -1   36.49    1.84
  14   8   1   36.13    1.63
 -16  -8  -1    4.68    0.67
  16  -8   1    4.37    0.73
 -16  -8  -1    4.13    0.75
 -16  -8  -1    3.45    0.87
  16  -8   1    4.14    0.71
  16  -8   1    4.52    0.58
 -16  -8  -1    3.22    0.87
  16  -8   1    4.65    0.62
 -16   8  -1    6.40    0.89
  16   8   1    5.47    0.77
 -18  -8  -1   19.08    1.30
  18  -8   1   16.41    1.05
  18  -8   1   18.75    1.21
 -18  -8  -1   18.20    1.66
 -18  -8  -1   20.41    1.74
  18  -8   1   18.37    1.24
 -18  -8  -1   18.09    1.18
 -18   8  -1   22.22    1.55
  18   8   1   23.67    1.43
  20  -8   1   11.90    1.12
 -20  -8  -1   14.24    1.12
 -20  -8  -1   14.51    1.23
  20  -8   1   13.57    1.10
 -20  -8  -1   11.84    1.47
  20  -8   1   12.97    0.98
 -20  -8  -1   11.77    1.37
 -20   8  -1    8.68    1.24
  20   8   1    7.49    0.98
  22  -8   1    1.11    0.59
  22  -8   1    0.80    0.61
 -22  -8  -1    0.56    0.81
 -22  -8  -1    0.41    0.58
 -22  -8  -1    0.63    0.76
  22  -8   1    0.02    0.44
 -22  -8  -1    1.07    0.60
  22   8   1    0.07    0.57
  24  -8   1   12.91    1.28
 -24  -8  -1   14.33    1.26
  24  -8   1   15.41    1.09
  24  -8   1   13.43    1.17
 -24  -8  -1   13.80    1.18
 -24  -8  -1   13.64    1.63
  24   8   1   19.51    1.59
 -26  -8  -1   16.16    1.89
  26  -8   1   16.09    1.32
  26  -8   1   17.17    1.36
  26  -8   1   15.13    1.42
 -26  -8  -1   15.96    1.30
  26  -8   1   17.01    1.20
  26   8   1   13.46    1.39
 -28  -8  -1   11.30    1.17
 -28  -8  -1    9.20    1.58
  28  -8   1   11.91    1.18
  28  -8   1   12.42    1.32
  28  -8   1   10.66    1.02
  28   8   1   10.51    1.37
 -30  -8  -1    1.78    0.76
  30  -8   1    2.18    0.98
 -30  -8  -1    2.99    1.19
  30  -8   1    2.18    0.84
  30  -8   1    2.76    0.72
  30   8   1    2.60    1.00
  32  -8   1   14.26    1.16
  32  -8   1   15.44    1.45
 -32  -8  -1   14.71    1.90
  32  -8   1   14.38    1.53
 -32  -8  -1   15.33    1.39
  32   8   1   12.54    1.56
  34  -8   1    2.02    0.96
  34   8   1    1.75    1.07
  31  -9  -1    0.88    0.58
 -31  -9   1    1.63    0.91
 -31  -9   1    1.26    1.29
  31  -9  -1    1.61    1.08
  31   9  -1    2.92    1.19
 -29  -9   1    0.29    0.80
  29  -9  -1    0.02    0.81
  29  -9  -1   -0.03    0.76
 -29  -9   1    0.33    1.03
  29  -9  -1    0.48    0.54
  29   9  -1   -0.12    0.88
 -27  -9   1    8.70    1.60
  27  -9  -1   11.66    1.22
  27  -9  -1    8.69    0.84
 -27  -9   1    9.21    1.16
  27  -9  -1   10.17    1.24
  27  -9  -1    7.76    1.25
  27   9  -1   10.40    1.45
 -25  -9   1    1.79    1.13
 -25  -9   1    2.28    0.83
  25  -9  -1    2.94    0.75
  25  -9  -1    3.14    0.62
  25  -9  -1    1.33    0.81
  25  -9  -1    3.68    0.92
  25   9  -1    1.57    0.87
  23  -9  -1    3.29    0.62
 -23  -9   1    4.07    1.13
  23  -9  -1    2.99    0.93
  23  -9  -1    3.56    0.80
 -23  -9   1    3.96    0.86
  23  -9  -1    3.80    0.76
  23   9  -1    3.48    0.97
  21  -9  -1   27.31    1.33
  21  -9  -1   29.58    1.72
  21  -9  -1   28.75    1.46
  21  -9  -1   26.73    1.68
 -21  -9   1   30.97    2.10
 -21  -9   1   26.84    1.64
  21   9  -1   23.38    1.71
  19  -9  -1    3.46    0.63
 -19  -9   1    2.26    0.92
  19  -9  -1    4.83    0.78
  19  -9  -1    4.40    0.89
  19  -9  -1    3.38    0.83
 -19  -9   1    2.91    0.73
  19  -9  -1    3.99    0.59
  19   9  -1    5.44    0.99
  17  -9  -1    3.04    0.73
  17  -9  -1    5.68    0.69
  17  -9  -1    4.89    0.61
 -17  -9   1    3.97    0.74
 -17  -9   1    4.17    0.98
  17  -9  -1    4.97    0.79
  17  -9  -1    2.70    0.70
  17   9  -1    4.69    0.89
  15  -9  -1    2.43    0.64
  15  -9  -1    1.92    0.60
 -15  -9   1    2.01    0.87
  15  -9  -1    2.81    0.68
 -15  -9   1    2.82    0.90
  15  -9  -1    2.63    0.50
 -15  -9   1    2.39    0.66
  15   9  -1    3.04    0.75
 -13  -9   1    7.76    1.09
  13  -9  -1   10.38    0.99
  13  -9  -1   12.73    1.17
 -13  -9   1   10.51    0.97
  13  -9  -1   10.03    0.77
  13  -9  -1   10.60    0.99
 -13  -9   1    7.01    1.06
  13   9  -1    5.27    0.84
 -11  -9   1   35.25    1.98
  11  -9  -1   36.46    1.70
 -11  -9   1   35.38    1.62
  11  -9  -1   33.98    1.40
 -11  -9   1   35.73    1.91
  11  -9  -1   34.63    1.71
  11  -9  -1   40.01    1.81
  11   9  -1   31.61    1.62
 -11   9   1   30.80    1.93
  -9  -9   1    5.44    0.81
   9  -9  -1    4.63    0.76
  -9  -9   1    5.66    0.89
  -9  -9   1    6.53    0.99
  -9  -9   1    6.15    0.74
   9  -9  -1    5.20    0.79
   9  -9  -1    7.20    0.83
   9  -9  -1    5.02    0.56
   9   9  -1   13.50    1.10
  -9   9   1   12.16    1.17
   7  -9  -1   14.73    0.86
   7  -9  -1   15.59    1.06
  -7  -9   1   12.83    1.19
  -7  -9   1   13.46    1.13
   7  -9  -1   16.53    1.25
  -7  -9   1   12.32    0.97
  -7  -9   1   11.57    1.18
   7  -9  -1   15.14    1.13
   7   9  -1   11.68    1.00
  -7   9   1   11.94    1.14
  -5  -9   1   56.65    2.46
  -5  -9   1   53.98    2.05
  -5  -9   1   55.83    2.31
   5  -9  -1   57.11    2.09
  -5  -9   1   58.25    2.25
   5  -9  -1   52.81    2.18
   5  -9  -1   57.36    1.93
   5  -9  -1   56.74    2.28
  -5   9   1   50.52    2.21
   5   9  -1   50.66    1.96
  -3  -9   1    2.94    0.54
   3  -9  -1    3.62    0.65
   3  -9  -1    2.55    0.65
  -3  -9   1    3.53    0.68
   3  -9  -1    2.51    0.50
   3  -9  -1    2.04    0.42
  -3  -9   1    2.29    0.58
   3   9  -1    7.44    0.99
  -3   9   1    6.11    0.84
   3   9  -1    6.03    0.67
  -1  -9   1    6.25    0.67
  -1  -9   1    7.31    0.84
   1  -9  -1    6.91    0.65
   1  -9  -1    6.33    0.85
   1  -9  -1    7.00    0.88
   1  -9  -1    7.82    0.75
  -1  -9   1    8.84    0.92
   1   9  -1    5.10    0.82
  -1   9   1    5.85    0.87
   1   9  -1    5.28    0.63
   1  -9   1    1.23    0.52
   1  -9   1    1.22    0.45
  -1  -9  -1    1.34    0.61
  -1  -9  -1    1.31    0.40
   1  -9   1    2.40    0.59
  -1  -9  -1    2.00    0.57
  -1   9  -1    1.46    0.55
   1   9   1    1.23    0.59
   3  -9   1   67.29    2.39
  -3  -9  -1   61.59    2.55
   3  -9   1   59.91    2.31
  -3  -9  -1   61.51    2.11
  -3  -9  -1   60.61    2.39
   3  -9   1   60.38    2.15
  -3  -9  -1   64.67    2.61
  -3   9  -1   68.27    2.69
   3   9   1   64.69    2.07
   3   9   1   69.10    2.75
   5  -9   1   22.26    1.20
   5  -9   1   18.43    1.04
  -5  -9  -1   17.56    1.37
  -5  -9  -1   21.44    1.06
  -5  -9  -1   16.66    1.30
   5  -9   1   18.93    1.18
  -5  -9  -1   18.98    1.22
  -5   9  -1   19.49    1.39
   5   9   1   20.17    0.95
  -7  -9  -1   13.20    1.11
   7  -9   1   14.94    1.04
   7  -9   1   14.59    1.06
   7  -9   1   12.85    0.91
  -7  -9  -1   14.07    1.32
  -7  -9  -1   14.70    0.93
  -7  -9  -1   16.07    1.42
  -7   9  -1   18.37    1.45
   7   9   1   16.11    0.92
  -9  -9  -1   27.68    1.49
   9  -9   1   28.13    1.30
  -9  -9  -1   26.67    1.75
   9  -9   1   29.02    1.50
   9  -9   1   27.80    1.37
  -9  -9  -1   26.91    1.31
   9  -9   1   27.87    1.40
  -9  -9  -1   28.48    1.74
  -9   9  -1   18.93    1.39
   9   9   1   18.43    1.04
 -11  -9  -1    4.40    0.62
  11  -9   1    4.60    0.72
  11  -9   1    5.28    0.78
 -11  -9  -1    6.07    1.00
  11  -9   1    5.55    0.69
 -11  -9  -1    5.19    0.84
  11  -9   1    4.45    0.61
 -11  -9  -1    6.33    1.06
 -11   9  -1    4.32    0.85
  11   9   1    5.17    0.69
 -13  -9  -1   20.61    1.40
  13  -9   1   21.20    1.32
 -13  -9  -1   21.28    1.62
  13  -9   1   18.97    1.24
  13  -9   1   20.12    1.14
 -13  -9  -1   21.14    1.21
  13  -9   1   20.30    1.14
 -13  -9  -1   21.08    1.73
 -13   9  -1   17.38    1.45
  13   9   1   19.12    1.18
  15  -9   1    7.59    0.79
 -15  -9  -1   10.83    1.10
 -15  -9  -1    8.56    1.19
  15  -9   1    7.98    0.92
  15  -9   1    7.73    0.92
 -15  -9  -1    8.73    1.31
  15  -9   1    6.92    0.73
 -15  -9  -1    8.01    0.86
  15   9   1    7.97    0.91
 -15   9  -1    9.02    1.12
 -17  -9  -1    2.86    0.78
 -17  -9  -1    2.33    0.91
 -17  -9  -1    3.53    1.06
  17  -9   1    4.12    0.74
  17  -9   1    4.19    0.66
 -17  -9  -1    4.68    0.73
  17  -9   1    3.41    0.73
 -17   9  -1    3.38    1.30
  17   9   1    2.03    0.63
  19  -9   1   11.48    1.13
 -19  -9  -1   11.14    1.16
 -19  -9  -1   12.03    1.07
  19  -9   1   10.40    1.08
 -19  -9  -1   10.47    1.42
  19  -9   1    8.83    0.84
 -19  -9  -1   11.42    1.47
  19   9   1    9.67    1.06
 -21  -9  -1    0.75    0.67
 -21  -9  -1    0.28    0.58
  21  -9   1    0.61    0.51
 -21  -9  -1   -0.01    0.78
  21  -9   1    0.19    0.61
 -21  -9  -1    1.17    0.98
  21  -9   1    0.68    0.63
  21   9   1    0.71    0.61
 -23  -9  -1    3.56    1.12
 -23  -9  -1    1.76    0.80
 -23  -9  -1    2.59    0.73
  23  -9   1    1.92    0.59
  23  -9   1    1.92    0.73
  23  -9   1    2.51    0.77
  23   9   1    3.20    0.87
  25  -9   1   10.63    1.14
  25  -9   1   13.89    1.09
 -25  -9  -1   10.66    1.60
  25  -9   1   12.49    1.17
  25  -9   1   13.42    1.40
 -25  -9  -1    9.62    1.09
  25   9   1   15.00    1.53
  27  -9   1    7.45    0.89
 -27  -9  -1    5.23    0.91
  27  -9   1    6.51    0.98
  27  -9   1    8.17    1.21
 -27  -9  -1    8.58    1.51
  27   9   1    5.16    1.10
 -29  -9  -1    0.85    0.73
  29  -9   1    1.29    0.66
  29  -9   1    1.56    0.85
  29  -9   1    0.88    0.77
 -29  -9  -1    0.33    1.06
  29   9   1   -0.02    0.86
  31  -9   1    1.10    0.86
  31  -9   1    2.93    1.01
 -31  -9  -1    2.89    0.94
  31  -9   1    1.92    0.78
 -31  -9  -1    1.54    1.35
  31   9   1    0.72    1.04
  30  10  -1    1.30    1.64
  28 -10  -1    5.12    0.74
  28 -10  -1    6.57    1.17
 -28 -10   1    5.15    1.42
 -28 -10   1    5.38    1.04
  28 -10  -1    6.19    1.11
  28  10  -1    2.81    1.07
  26 -10  -1    2.67    0.94
  26 -10  -1    1.23    0.86
 -26 -10   1    2.09    0.87
 -26 -10   1    3.23    1.31
  26 -10  -1    1.61    0.59
  26  10  -1    1.70    1.05
  24 -10  -1    6.32    0.76
  24 -10  -1    6.64    1.10
 -24 -10   1    4.88    0.97
  24 -10  -1    6.19    1.14
 -24 -10   1    6.49    1.36
  24  10  -1    8.26    1.32
  22 -10  -1    3.05    0.90
 -22 -10   1    4.15    0.91
 -22 -10   1    4.37    1.25
  22 -10  -1    4.54    0.98
  22 -10  -1    4.98    0.70
  22  10  -1    6.83    1.21
  20 -10  -1    6.59    1.00
  20 -10  -1    5.75    1.03
  20 -10  -1    6.13    0.71
 -20 -10   1    5.22    1.19
 -20 -10   1    5.56    0.90
  20  10  -1    5.01    1.06
  18 -10  -1   17.17    1.43
  18 -10  -1   19.80    1.45
  18 -10  -1   17.85    1.29
  18 -10  -1   19.78    1.12
 -18 -10   1   17.40    1.36
 -18 -10   1   18.25    1.78
  18  10  -1   20.51    1.70
  16 -10  -1    1.57    0.66
 -16 -10   1    1.82    0.66
 -16 -10   1    0.80    0.81
 -16 -10   1    2.12    0.76
  16 -10  -1    1.74    0.64
  16 -10  -1    1.07    0.65
  16 -10  -1    1.71    0.48
  16  10  -1    1.91    0.74
 -14 -10   1   14.65    1.32
  14 -10  -1   11.78    1.17
 -14 -10   1   13.63    1.16
  14 -10  -1   14.61    1.24
 -14 -10   1   12.83    1.44
  14 -10  -1   13.97    0.94
  14 -10  -1   13.24    1.19
  14  10  -1    8.84    1.08
  12 -10  -1   17.63    1.32
 -12 -10   1   18.82    1.51
  12 -10  -1   19.09    1.39
  12 -10  -1   17.87    1.25
  12 -10  -1   15.35    0.99
 -12 -10   1   18.50    1.62
 -12 -10   1   18.75    1.27
 -12 -10   1   16.56    1.79
  12  10  -1   18.33    1.35
 -10 -10   1   12.68    1.25
 -10 -10   1   12.68    1.40
  10 -10  -1   10.29    1.03
 -10 -10   1   12.35    1.06
 -10 -10   1   11.73    1.33
  10 -10  -1   12.09    1.14
  10 -10  -1   12.83    0.88
  10 -10  -1    8.25    1.00
  10  10  -1   16.12    1.21
  -8 -10   1    0.03    0.57
   8 -10  -1    0.33    0.58
  -8 -10   1    0.70    0.68
   8 -10  -1    0.61    0.55
   8 -10  -1    0.83    0.57
   8 -10  -1    0.27    0.38
  -8 -10   1   -0.31    0.44
  -8 -10   1    0.26    0.54
   8  10  -1    0.34    0.47
   6 -10  -1    2.32    0.70
   6 -10  -1    1.67    0.54
  -6 -10   1    2.35    0.74
  -6 -10   1    2.54    0.81
  -6 -10   1    0.52    0.50
   6 -10  -1    2.90    0.74
  -6 -10   1    1.32    0.63
   6 -10  -1    2.35    0.47
   6  10  -1    2.15    0.58
  -4 -10   1   20.34    1.19
   4 -10  -1   20.57    1.38
  -4 -10   1   19.58    1.36
  -4 -10   1   19.68    1.33
   4 -10  -1   19.71    1.20
   4 -10  -1   18.91    1.04
   4 -10  -1   19.82    1.38
   4  10  -1   19.40    1.14
   4  10  -1   20.01    1.67
  -2 -10   1   57.78    2.16
  -2 -10   1   62.73    2.42
   2 -10  -1   54.45    2.32
   2 -10  -1   61.87    2.53
   2 -10  -1   56.63    2.17
   2 -10  -1   57.22    2.04
  -2 -10   1   62.63    2.49
   2  10  -1   65.00    2.81
   2  10  -1   62.27    2.26
  -2  10   1   62.82    3.37
   0 -10  -1    0.55    0.55
   0 -10   1    0.71    0.55
   0 -10  -1    0.83    0.40
   0 -10   1    0.44    0.52
   0 -10  -1    1.41    0.49
   0 -10   1    0.81    0.46
   0 -10  -1    0.23    0.54
   0  10  -1    1.16    0.59
   0  10   1    1.57    0.81
   2 -10   1   27.81    1.53
  -2 -10  -1   30.23    1.74
  -2 -10  -1   29.06    1.56
   2 -10   1   26.24    1.49
   2 -10   1   26.52    1.34
  -2 -10  -1   26.63    1.26
  -2  10  -1   26.02    1.71
   2  10   1   28.02    1.95
  -4 -10  -1   12.54    0.91
   4 -10   1   13.80    0.97
  -4 -10  -1   13.75    1.18
   4 -10   1   12.94    1.12
  -4 -10  -1   14.66    1.39
   4 -10   1   10.16    1.03
  -4  10  -1   19.19    1.57
  -6 -10  -1    2.76    0.54
  -6 -10  -1    4.07    0.92
   6 -10   1    3.29    0.66
   6 -10   1    3.77    0.60
  -6 -10  -1    4.02    0.77
  -6 -10  -1    3.71    0.89
   6 -10   1    2.23    0.65
  -6  10  -1    4.73    0.88
   8 -10   1   61.85    2.47
  -8 -10  -1   63.67    2.84
   8 -10   1   65.26    2.44
   8 -10   1   59.75    2.38
  -8 -10  -1   69.17    2.61
   8 -10   1   67.56    2.30
  -8 -10  -1   60.89    2.26
  -8 -10  -1   66.13    2.89
  -8  10  -1   61.18    2.64
 -10 -10  -1    6.69    1.09
  10 -10   1    7.12    0.91
  10 -10   1    7.65    0.77
 -10 -10  -1    5.60    0.90
  10 -10   1    5.76    0.83
 -10 -10  -1    7.71    1.16
  10 -10   1    6.23    0.82
 -10 -10  -1    5.68    0.72
 -10  10  -1    3.47    0.85
 -12 -10  -1    5.75    0.90
  12 -10   1    4.90    0.78
  12 -10   1    4.43    0.71
  12 -10   1    4.80    0.77
 -12 -10  -1    4.93    0.71
  12 -10   1    4.32    0.64
 -12 -10  -1    3.81    1.05
 -12 -10  -1    4.44    1.00
 -12  10  -1    4.53    0.90
  14 -10   1   11.79    1.16
 -14 -10  -1    9.10    0.90
 -14 -10  -1   11.26    1.20
  14 -10   1    9.56    1.06
 -14 -10  -1    8.14    1.27
 -14 -10  -1   10.35    1.39
  14 -10   1    8.34    1.04
  14 -10   1   10.03    0.87
 -16 -10  -1   16.79    1.80
  16 -10   1   12.36    1.18
  16 -10   1   14.05    1.25
 -16 -10  -1   12.42    1.07
 -16 -10  -1   14.31    1.35
  16 -10   1   12.91    1.00
 -16 -10  -1   15.61    1.67
 -18 -10  -1    9.85    1.02
  18 -10   1    9.63    1.10
  18 -10   1    9.04    1.11
 -18 -10  -1    8.78    1.41
 -18 -10  -1    9.51    1.16
  18 -10   1    9.36    0.88
 -18 -10  -1    8.93    1.43
 -20 -10  -1    6.72    1.32
  20 -10   1    4.45    0.92
 -20 -10  -1    3.93    0.78
 -20 -10  -1    5.70    1.01
  20 -10   1    4.89    0.98
  20 -10   1    3.84    0.69
  22 -10   1    6.76    1.03
  22 -10   1    6.36    1.01
  22 -10   1    4.75    0.73
 -22 -10  -1    6.79    0.95
 -22 -10  -1    7.40    1.44
 -22 -10  -1    6.54    1.09
  24 -10   1    5.59    0.83
 -24 -10  -1    5.25    1.36
  24 -10   1    6.91    0.94
 -24 -10  -1    9.29    1.07
  24 -10   1    5.86    0.97
  24 -10   1    6.36    1.09
  26 -10   1   11.22    1.05
 -26 -10  -1   10.82    1.17
  26 -10   1   10.91    1.29
  26 -10   1    9.14    1.16
  26 -10   1   10.34    1.23
 -26 -10  -1    9.85    1.76
 -28 -10  -1    1.76    0.80
  28 -10   1    3.41    1.00
 -28 -10  -1    4.20    1.40
  28 -10   1    3.80    0.79
 -27 -11   1   -1.35    1.18
  27 -11  -1    1.35    0.94
  27 -11  -1    0.47    0.59
  25 -11  -1    8.42    1.26
 -25 -11   1    7.29    1.13
 -25 -11   1    8.88    1.36
  25 -11  -1    9.30    0.90
  25 -11  -1    8.71    1.32
 -25 -11   1    9.72    1.79
 -23 -11   1    2.42    0.88
 -23 -11   1    3.44    1.07
  23 -11  -1    3.31    0.65
  23 -11  -1    4.19    1.05
  23 -11  -1    3.02    1.04
 -23 -11   1    3.29    1.39
  21 -11  -1    3.99    0.69
  21 -11  -1    3.99    0.99
  21 -11  -1    3.19    0.95
 -21 -11   1    1.61    1.22
 -21 -11   1    2.65    0.90
 -21 -11   1    3.60    0.90
 -19 -11   1   10.94    1.25
  19 -11  -1   11.87    1.37
 -19 -11   1   12.02    1.69
  19 -11  -1   11.90    1.31
  19 -11  -1   12.31    0.96
 -19 -11   1   12.80    1.45
  17 -11  -1    2.63    0.58
 -17 -11   1    0.78    1.02
  17 -11  -1    2.58    0.80
 -17 -11   1    2.18    0.87
 -17 -11   1    2.88    0.79
  17 -11  -1    1.76    0.79
 -15 -11   1    8.23    1.38
  15 -11  -1    9.80    1.16
 -15 -11   1    8.68    1.24
 -15 -11   1    8.68    1.03
  15 -11  -1    7.47    0.78
  15 -11  -1    8.64    1.08
  15 -11  -1   11.95    1.24
  13 -11  -1    1.70    0.74
  13 -11  -1    2.66    0.81
 -13 -11   1    2.92    0.74
  13 -11  -1    1.47    0.71
 -13 -11   1    2.72    0.91
  13 -11  -1    1.33    0.51
 -13 -11   1    1.16    0.91
 -11 -11   1    3.19    0.98
  11 -11  -1    2.46    0.75
  11 -11  -1    3.26    0.58
 -11 -11   1    3.82    0.76
  11 -11  -1    3.68    0.81
  11 -11  -1    3.23    0.80
 -11 -11   1    3.11    0.85
   9 -11  -1   19.13    1.44
   9 -11  -1   18.91    1.30
   9 -11  -1   19.06    1.10
   9 -11  -1   17.72    1.46
  -9 -11   1   16.25    1.45
  -9 -11   1   24.27    1.79
  -9 -11   1   19.50    1.32
  -7 -11   1    2.47    0.79
   7 -11  -1    2.67    0.74
   7 -11  -1    1.65    0.50
  -7 -11   1    2.44    0.76
   7 -11  -1    2.52    0.69
  -7 -11   1    1.52    0.57
   7 -11  -1    3.55    0.81
   7  11  -1    5.83    1.19
   5 -11  -1    2.52    0.79
  -5 -11   1    2.88    0.87
  -5 -11   1    1.13    0.68
   5 -11  -1    1.49    0.71
  -5 -11   1    2.00    0.58
   5 -11  -1    1.90    0.50
   5 -11  -1    2.91    0.68
   5  11  -1    1.45    0.75
  -3 -11   1    9.89    0.96
  -3 -11   1   10.32    1.13
   3 -11  -1   10.18    0.83
   3 -11  -1   11.09    1.16
  -3 -11   1   10.41    1.23
   3 -11  -1   11.54    1.05
   3 -11  -1   10.67    1.20
   3  11  -1   12.40    1.47
   1 -11  -1    8.90    0.91
   1 -11  -1    9.02    0.80
  -1 -11   1    8.05    1.03
  -1 -11   1    8.47    1.10
   1 -11  -1   10.30    1.16
   1 -11  -1    8.50    1.11
  -1 -11   1    9.24    0.89
   1  11  -1   10.67    1.37
   1 -11   1    1.94    0.57
  -1 -11  -1    2.68    0.78
  -1 -11  -1    2.85    0.60
   1 -11   1    2.64    0.76
  -1 -11  -1    2.38    0.72
  -1 -11  -1    2.93    0.57
   1 -11   1    2.33    0.74
  -1  11  -1    0.37    0.76
  -3 -11  -1   10.27    1.19
   3 -11   1   10.34    1.10
   3 -11   1   13.36    1.21
  -3 -11  -1    9.99    0.91
  -3 -11  -1   12.11    1.34
  -3 -11  -1    9.74    0.85
   3 -11   1    8.98    0.87
  -3  11  -1    7.66    1.11
  -5 -11  -1    0.52    0.67
  -5 -11  -1    0.83    0.81
   5 -11   1    1.07    0.51
   5 -11   1    1.14    0.70
   5 -11   1    1.49    0.61
  -5 -11  -1    0.48    0.45
  -5  11  -1   -0.05    0.76
   7 -11   1   23.90    1.42
   7 -11   1   23.66    1.31
  -7 -11  -1   26.10    1.34
  -7 -11  -1   24.44    1.86
   7 -11   1   23.91    1.49
   7 -11   1   21.16    1.53
  -7 -11  -1   26.88    1.62
  -7 -11  -1   29.54    1.94
   9 -11   1    6.79    0.90
   9 -11   1    7.45    0.81
  -9 -11  -1    9.00    1.24
  -9 -11  -1    9.67    1.18
  -9 -11  -1    8.68    0.86
  -9 -11  -1    7.62    1.23
   9 -11   1    8.25    0.98
   9 -11   1    9.31    1.06
  11 -11   1    0.51    0.64
  11 -11   1    0.18    0.53
  11 -11   1    0.27    0.50
 -11 -11  -1    0.52    0.65
 -11 -11  -1    0.71    0.76
 -11 -11  -1   -0.35    0.48
 -11 -11  -1    0.25    0.73
  11 -11   1   -0.23    0.54
 -13 -11  -1   19.41    1.89
  13 -11   1   19.62    1.23
  13 -11   1   20.69    1.43
 -13 -11  -1   19.10    1.83
  13 -11   1   19.15    1.38
 -13 -11  -1   20.51    1.69
 -13 -11  -1   21.07    1.32
  15 -11   1    0.33    0.71
 -15 -11  -1    1.25    1.13
  15 -11   1    0.66    0.53
 -15 -11  -1    1.76    0.64
 -15 -11  -1    1.03    0.81
  15 -11   1    0.92    0.67
 -15 -11  -1    0.18    0.98
 -17 -11  -1   -0.86    0.94
  17 -11   1    0.61    0.75
 -17 -11  -1    0.68    0.62
  17 -11   1    1.21    0.76
 -17 -11  -1    0.93    0.80
  17 -11   1    0.53    0.54
  19 -11   1    4.88    0.98
 -19 -11  -1    5.14    1.29
  19 -11   1    4.98    0.78
 -19 -11  -1    6.48    0.93
 -19 -11  -1    5.54    1.05
  19 -11   1    4.34    0.92
 -21 -11  -1    4.07    0.82
  21 -11   1    3.99    0.96
  21 -11   1    3.78    0.72
 -21 -11  -1    4.37    1.04
 -21 -11  -1    4.55    1.43
  21 -11   1    5.36    1.04
 -23 -11  -1    7.26    1.58
  23 -11   1    6.23    1.08
  23 -11   1    8.32    1.17
  23 -11   1    7.49    0.93
 -23 -11  -1    7.80    1.05
 -23 -11  -1   10.05    1.35
  25 -11   1    0.34    0.62
 -25 -11  -1    1.57    0.75
  25 -11   1    0.22    0.80
 -25 -11  -1    1.88    1.20
  25 -11   1    1.14    0.79
 -24 -12   1    0.60    0.97
  24 -12  -1    1.38    0.61
 -24 -12   1   -0.13    1.27
  24 -12  -1    1.55    1.07
  24 -12  -1   -0.01    0.89
  22 -12  -1    2.34    0.64
 -22 -12   1    1.45    0.83
 -22 -12   1    4.15    1.17
  22 -12  -1    1.11    0.99
 -22 -12   1    1.64    1.23
  22 -12  -1    0.34    0.79
 -20 -12   1    4.04    1.40
 -20 -12   1    0.58    0.98
  20 -12  -1    0.84    0.88
 -20 -12   1    1.79    0.84
  20 -12  -1    1.51    0.58
  20 -12  -1    1.75    0.96
 -18 -12   1   -0.15    0.69
 -18 -12   1    0.78    0.94
  18 -12  -1    0.46    0.74
  18 -12  -1    0.87    0.86
  18 -12  -1    0.96    0.54
 -18 -12   1    0.81    1.15
 -16 -12   1   15.44    1.61
  16 -12  -1   10.44    1.32
  16 -12  -1   13.91    1.00
 -16 -12   1   13.38    1.69
  16 -12  -1   15.35    1.53
 -16 -12   1   12.57    1.25
 -14 -12   1    0.23    0.83
  14 -12  -1    0.70    0.78
  14 -12  -1    0.65    0.52
 -14 -12   1    0.16    0.94
 -14 -12   1    1.66    0.73
  14 -12  -1    1.13    0.84
  12 -12  -1    4.80    0.97
 -12 -12   1    3.49    0.79
  12 -12  -1    2.73    0.60
  12 -12  -1    2.75    0.83
  12 -12  -1    3.40    0.88
 -12 -12   1    4.53    1.06
 -12 -12   1    2.32    0.99
 -10 -12   1   10.71    1.07
  10 -12  -1    9.71    1.23
 -10 -12   1   12.56    1.36
 -10 -12   1   10.02    1.45
  10 -12  -1    9.10    1.18
  10 -12  -1   10.92    1.18
  10 -12  -1   10.88    0.93
  -8 -12   1    3.40    1.04
  -8 -12   1    2.66    0.71
   8 -12  -1    4.76    0.87
   8 -12  -1    3.13    0.60
  -8 -12   1    2.85    0.96
   8 -12  -1    4.43    0.93
   8 -12  -1    3.23    0.92
   6 -12  -1    1.40    0.78
   6 -12  -1    1.82    0.54
  -6 -12   1    2.37    0.69
   6 -12  -1    1.71    0.81
  -6 -12   1    0.90    0.73
  -6 -12   1    1.51    0.78
   6 -12  -1    1.05    0.60
   4 -12  -1    2.37    0.73
   4 -12  -1    2.48    0.84
   4 -12  -1    1.89    0.81
  -4 -12   1    1.70    0.64
   4 -12  -1    1.02    0.50
  -4 -12   1    1.59    0.88
  -4 -12   1    0.81    0.75
  -2 -12   1   25.83    1.45
   2 -12  -1   24.38    1.30
   2 -12  -1   25.97    1.48
  -2 -12   1   24.94    1.73
   2 -12  -1   22.98    1.61
   2 -12  -1   24.24    1.75
  -2 -12   1   21.98    1.75
   0 -12  -1   12.73    1.44
   0 -12   1    8.91    1.12
   0 -12   1   11.89    1.02
   0 -12  -1    9.70    0.88
   0 -12   1   10.83    1.24
   0 -12  -1   10.34    1.01
   0 -12  -1    9.07    1.22
   2 -12   1    1.14    0.78
  -2 -12  -1    1.53    0.54
  -2 -12  -1    3.28    0.88
  -2 -12  -1    2.77    0.69
  -2 -12  -1    1.89    0.82
   2 -12   1    1.75    0.75
   2 -12   1    2.06    0.60
   4 -12   1   13.76    1.40
   4 -12   1   12.77    1.07
  -4 -12  -1   13.74    1.44
  -4 -12  -1   14.80    1.09
  -4 -12  -1   13.97    1.34
  -4 -12  -1   11.12    1.39
   4 -12   1   14.74    1.35
   4 -12   1   12.58    1.19
  -6 -12  -1    8.01    0.87
   6 -12   1    8.60    1.10
   6 -12   1    8.34    0.90
  -6 -12  -1    9.01    1.30
   6 -12   1   10.35    1.12
   6 -12   1    8.99    1.10
  -6 -12  -1    8.32    1.15
   8 -12   1    2.53    0.65
   8 -12   1    2.25    0.86
  -8 -12  -1    2.22    1.05
  -8 -12  -1    2.64    0.84
   8 -12   1    2.58    0.77
  -8 -12  -1    2.20    1.01
   8 -12   1    2.50    0.77
  -8 -12  -1    4.10    0.71
 -10 -12  -1    1.07    0.98
  10 -12   1    1.94    0.81
 -10 -12  -1    2.72    0.65
 -10 -12  -1    2.39    0.92
  10 -12   1    1.23    0.67
  10 -12   1    0.98    0.56
 -12 -12  -1    3.66    1.14
  12 -12   1    5.38    0.78
 -12 -12  -1    4.54    0.98
  12 -12   1    5.52    0.99
 -12 -12  -1    5.04    0.81
  12 -12   1    5.47    1.04
  14 -12   1    8.93    0.93
 -14 -12  -1   12.85    1.75
 -14 -12  -1    8.14    1.23
 -14 -12  -1   10.34    1.05
  14 -12   1    8.78    1.18
  14 -12   1    7.34    1.11
  16 -12   1   -0.13    0.55
  16 -12   1    1.19    0.82
 -16 -12  -1    0.36    0.62
 -16 -12  -1   -0.77    0.77
 -16 -12  -1    1.26    1.13
  16 -12   1   -0.35    0.64
  18 -12   1    3.68    1.01
  18 -12   1    4.29    0.78
  18 -12   1    3.51    0.90
 -18 -12  -1    3.37    1.26
 -18 -12  -1    4.05    0.82
 -18 -12  -1    4.61    1.07
 -20 -12  -1    5.67    0.91
  20 -12   1    3.26    1.02
  20 -12   1    3.98    0.79
  20 -12   1    4.42    1.09
 -20 -12  -1    5.77    1.59
 -20 -12  -1    4.21    1.05
 -22 -12  -1    0.01    0.67
  22 -12   1   -0.05    0.81
  22 -12   1   -0.06    0.60
  22 -12   1   -0.65    0.71
 -22 -12  -1    0.64    0.91
 -22 -12  -1   -0.13    1.15
  24 -12   1   11.76    1.43
 -21 -13   1   -0.44    0.97
  21 -13  -1   -0.04    0.93
  21 -13  -1   -0.45    0.81
  19 -13  -1    0.22    0.93
  19 -13  -1    0.73    0.57
 -19 -13   1    0.36    0.78
  19 -13  -1   -0.12    0.79
 -19 -13   1    0.24    0.97
 -19 -13   1    2.74    1.25
  17 -13  -1    6.05    1.16
  17 -13  -1    4.53    1.17
 -17 -13   1    4.18    1.32
  17 -13  -1    3.85    0.70
 -17 -13   1    5.24    1.22
 -17 -13   1    4.34    0.97
 -15 -13   1    9.90    1.59
  15 -13  -1    9.24    1.29
  15 -13  -1    9.01    0.88
 -15 -13   1   11.95    1.27
  15 -13  -1   10.89    1.42
 -15 -13   1   10.34    1.40
 -13 -13   1    1.42    0.78
 -13 -13   1    2.13    1.18
  13 -13  -1    2.43    0.62
 -13 -13   1    1.71    1.02
  13 -13  -1    1.62    0.78
  13 -13  -1    0.31    0.80
 -11 -13   1    0.87    0.68
 -11 -13   1    2.06    1.11
 -11 -13   1    0.60    0.84
  11 -13  -1    0.57    0.84
  11 -13  -1    1.30    0.89
  11 -13  -1    1.38    0.57
   9 -13  -1   16.82    1.15
  -9 -13   1   13.91    1.49
   9 -13  -1   14.61    1.50
  -9 -13   1   15.31    1.74
   9 -13  -1   19.08    1.54
   9 -13  -1   16.00    1.61
  -9 -13   1   17.88    1.40
   7 -13  -1    3.24    0.65
  -7 -13   1    1.38    0.84
   7 -13  -1    2.79    0.99
   7 -13  -1    2.17    0.92
  -7 -13   1    3.15    1.00
   7 -13  -1    3.88    0.92
  -7 -13   1    3.40    0.81
  -5 -13   1    1.58    0.69
   5 -13  -1    2.29    0.85
   5 -13  -1    2.46    0.94
  -5 -13   1    2.17    0.96
   5 -13  -1    2.27    0.77
  -5 -13   1    2.74    0.92
   5 -13  -1    1.50    0.58
  -3 -13   1    8.75    1.04
   3 -13  -1    7.14    1.15
   3 -13  -1   10.24    1.12
  -3 -13   1    9.67    1.38
  -3 -13   1   11.44    1.41
   3 -13  -1    9.98    1.34
   3 -13  -1    9.86    0.91
  -1 -13   1    1.80    0.84
   1 -13  -1    1.56    0.82
  -1 -13   1    0.81    0.62
   1 -13  -1    2.24    0.93
   1 -13  -1    0.82    0.56
   1 -13  -1    1.51    0.72
  -1 -13   1    1.18    0.91
   1 -13   1    9.41    1.30
  -1 -13  -1    9.85    1.44
   1 -13   1   11.16    1.08
   1 -13   1    9.50    1.28
  -1 -13  -1    9.03    0.91
  -1 -13  -1    8.23    1.21
   3 -13   1    9.43    1.23
   3 -13   1    6.77    1.10
  -3 -13  -1    9.31    1.29
  -3 -13  -1    8.61    0.89
   3 -13   1    7.99    0.94
  -3 -13  -1    9.19    1.39
   3 -13   1    8.88    1.08
   5 -13   1    5.41    0.92
  -5 -13  -1    5.88    0.82
  -5 -13  -1    8.17    1.41
  -5 -13  -1    4.80    1.11
   5 -13   1    7.09    0.90
   5 -13   1    6.57    1.08
   5 -13   1    5.01    1.01
  -7 -13  -1   10.18    1.41
  -7 -13  -1   12.01    1.57
   7 -13   1   12.14    1.09
  -7 -13  -1   12.48    1.07
   7 -13   1   11.43    1.32
   7 -13   1   11.52    1.25
   9 -13   1    5.05    0.81
  -9 -13  -1    6.02    0.84
   9 -13   1    3.60    0.99
  -9 -13  -1    5.14    1.15
  -9 -13  -1    2.68    1.04
   9 -13   1    5.44    1.01
  11 -13   1    8.02    0.96
  11 -13   1    8.73    1.22
  11 -13   1    8.18    1.11
 -11 -13  -1    8.85    1.00
 -11 -13  -1   10.81    1.44
 -11 -13  -1    9.55    1.64
  13 -13   1    0.88    0.83
 -13 -13  -1    1.85    0.99
 -13 -13  -1    3.89    1.35
 -13 -13  -1    1.22    0.68
  13 -13   1    1.23    0.64
  13 -13   1    0.06    0.74
 -15 -13  -1    6.71    1.42
  15 -13   1    6.98    1.14
  15 -13   1    5.97    0.87
  15 -13   1    4.88    1.09
 -15 -13  -1    6.62    1.18
 -15 -13  -1    7.97    1.01
  17 -13   1    0.23    0.62
  17 -13   1    0.18    0.76
 -17 -13  -1    2.00    1.29
 -17 -13  -1    0.96    0.71
  17 -13   1   -1.52    0.77
 -17 -13  -1    0.75    0.95
  19 -13   1    4.41    1.12
  19 -13   1    3.43    1.08
  19 -13   1    4.26    0.81
 -19 -13  -1    5.85    1.54
 -19 -13  -1    4.28    0.88
 -19 -13  -1    4.48    1.16
  21 -13   1    4.64    1.12
 -21 -13  -1    3.81    1.16
 -18 -14   1    1.06    1.12
  16 -14  -1    3.52    0.80
 -16 -14   1    3.52    1.44
  16 -14  -1    3.10    1.18
  16 -14  -1    3.21    1.00
 -16 -14   1    1.02    1.08
 -14 -14   1   12.27    1.82
  14 -14  -1    8.47    1.35
 -14 -14   1   10.78    1.24
  14 -14  -1    9.38    0.92
 -14 -14   1    9.56    1.44
  14 -14  -1   10.05    1.39
  12 -14  -1   -0.13    0.83
  12 -14  -1    0.04    0.84
  12 -14  -1    0.40    0.56
 -12 -14   1    0.00    0.86
 -12 -14   1    0.66    0.78
 -12 -14   1    1.03    1.14
 -10 -14   1    2.21    1.17
  10 -14  -1    1.91    0.93
  10 -14  -1    0.82    0.59
 -10 -14   1    1.83    0.95
  10 -14  -1    2.06    0.94
 -10 -14   1    2.30    0.85
  -8 -14   1    2.15    1.04
  -8 -14   1    0.80    0.73
   8 -14  -1    3.79    0.97
   8 -14  -1    1.47    1.02
  -8 -14   1    2.37    1.12
   8 -14  -1    1.80    0.64
   6 -14  -1    2.42    0.88
  -6 -14   1    1.21    0.75
   6 -14  -1    1.19    0.58
   6 -14  -1    1.26    0.93
  -6 -14   1    1.51    1.04
   6 -14  -1    1.46    0.88
  -6 -14   1    0.93    0.84
   4 -14  -1    3.38    1.03
   4 -14  -1    1.71    0.62
  -4 -14   1    2.25    0.78
   4 -14  -1    0.68    0.92
  -4 -14   1    4.07    1.15
  -4 -14   1    1.13    0.87
   4 -14  -1    2.77    0.92
   2 -14  -1    1.29    0.90
  -2 -14   1    2.20    1.02
   2 -14  -1    3.45    1.07
  -2 -14   1    3.84    1.11
  -2 -14   1    3.73    0.82
   2 -14  -1    1.54    0.61
   0 -14  -1    2.47    1.04
   0 -14  -1    2.84    0.98
   0 -14   1    2.95    0.94
   0 -14   1    3.68    0.80
   0 -14  -1    2.83    0.68
   0 -14   1    3.19    0.91
   0 -14   1    2.68    1.02
   2 -14   1    9.62    1.04
   2 -14   1    8.88    1.33
   2 -14   1    7.52    1.22
   2 -14   1   10.05    1.22
  -2 -14  -1    9.26    0.94
  -2 -14  -1    8.29    1.35
  -2 -14  -1    7.86    1.34
  -4 -14  -1    3.65    0.74
   4 -14   1    2.70    0.89
  -4 -14  -1    2.22    0.97
   4 -14   1    3.45    0.77
   4 -14   1    2.13    1.03
  -4 -14  -1    4.24    1.22
   6 -14   1   -1.51    0.57
   6 -14   1    1.91    0.71
  -6 -14  -1    1.46    1.08
   6 -14   1    0.88    0.87
  -6 -14  -1    0.02    0.58
  -6 -14  -1    0.73    0.96
   8 -14   1    5.38    1.10
  -8 -14  -1    5.93    1.35
   8 -14   1    6.27    0.89
   8 -14   1    6.54    1.10
  -8 -14  -1    3.57    0.77
  -8 -14  -1    6.75    1.25
  10 -14   1    3.66    0.81
 -10 -14  -1    3.93    1.41
  10 -14   1    4.01    1.04
 -10 -14  -1    6.29    1.31
  10 -14   1    3.75    1.00
 -10 -14  -1    6.02    0.89
  12 -14   1    8.27    1.35
 -12 -14  -1    7.08    1.39
  12 -14   1    7.52    0.98
 -12 -14  -1    8.33    0.99
 -12 -14  -1    8.83    1.73
  12 -14   1    8.97    1.28
 -14 -14  -1    2.70    1.14
  14 -14   1    2.92    0.97
 -14 -14  -1    2.50    1.26
  14 -14   1    2.32    0.93
 -14 -14  -1    4.04    0.87
  14 -14   1    3.69    0.81
 -16 -14  -1    0.41    1.26
  16 -14   1    0.88    0.85
  16 -14   1    1.48    0.91
 -16 -14  -1    1.79    0.99
 -18 -14  -1    0.68    1.02
  18 -14   1    1.10    0.99
 -11 -15   1    0.21    1.12
  11 -15  -1    4.16    1.10
   9 -15  -1    7.00    1.27
  -9 -15   1    3.99    1.39
   7 -15  -1   -0.18    0.57
  -7 -15   1   -1.98    0.95
  -7 -15   1   -0.03    1.16
  -7 -15   1    0.10    1.09
   5 -15  -1    5.66    1.24
  -5 -15   1    3.23    0.88
  -5 -15   1    1.92    1.03
   5 -15  -1    3.31    0.74
  -5 -15   1    5.07    1.30
  -3 -15   1    0.65    0.96
  -3 -15   1    1.87    0.81
   3 -15  -1   -0.05    0.90
   3 -15  -1    1.01    0.62
  -3 -15   1    1.63    1.00
   3 -15  -1    0.36    0.85
  -1 -15   1    4.37    0.93
  -1 -15   1    4.92    1.20
   1 -15  -1    5.53    1.28
   1 -15  -1    5.06    1.24
   1 -15  -1    5.86    0.84
   1 -15   1    0.45    0.69
  -1 -15  -1    0.72    1.01
   1 -15   1   -0.45    0.80
  -1 -15  -1    0.90    0.95
  -1 -15  -1    0.09    0.59
  -3 -15  -1    4.32    1.15
   3 -15   1    5.99    0.95
  -3 -15  -1    5.71    0.87
  -3 -15  -1    6.22    1.39
   3 -15   1    5.43    1.27
   5 -15   1    4.98    1.07
  -5 -15  -1    4.60    1.41
   5 -15   1    5.11    0.91
  -5 -15  -1    4.26    0.82
   5 -15   1    4.44    1.14
  -5 -15  -1    4.21    1.26
   7 -15   1    3.45    1.05
  -7 -15  -1    1.60    0.72
  -7 -15  -1    3.79    1.38
  -7 -15  -1    3.30    1.25
   7 -15   1    3.21    1.26
  -9 -15  -1    3.41    1.29
  -9 -15  -1    4.09    1.44
   9 -15   1    3.44    1.06
 -11 -15  -1   10.44    2.80
  11 -15   1    7.91    1.26
  38   0  -2    4.96    1.30
  38   0  -2    4.26    1.07
  36   0  -2   -0.15    0.84
  36   0  -2    1.18    0.86
  34   0  -2    2.91    1.08
  34   0  -2    2.08    0.87
  32   0  -2    9.36    1.28
  32   0  -2    8.99    1.12
  30   0  -2    0.88    0.60
  30   0  -2    1.30    0.50
  30   0  -2    1.68    0.78
  28   0  -2   10.53    0.82
  28   0  -2    8.71    0.97
  28   0  -2    7.26    1.06
  26   0  -2    1.08    0.61
  26   0  -2   -0.17    0.51
  26   0  -2    0.75    0.39
 -24   0   2   11.30    1.14
  24   0  -2   14.25    0.85
  24   0  -2   15.09    0.98
  24   0  -2   13.96    1.03
  24   0  -2   15.31    1.17
  22   0  -2   23.23    1.03
  22   0  -2   24.62    1.16
  22   0  -2   23.24    1.35
 -22   0   2   21.29    1.30
  22   0  -2   22.46    1.22
  20   0  -2    0.07    0.41
  20   0  -2    0.10    0.26
 -20   0   2    0.44    0.43
  20   0  -2    0.06    0.32
  20   0  -2    0.27    0.36
  18   0  -2   86.99    2.87
  18   0  -2   86.07    2.91
  18   0  -2   85.01    2.71
  18   0  -2   88.52    2.82
  18   0  -2   89.34    2.58
 -18   0   2   89.65    2.92
  16   0  -2    0.29    0.20
 -16   0   2    0.17    0.27
  16   0  -2    0.22    0.27
  16   0  -2   -0.08    0.28
  16   0  -2    0.53    0.34
  16   0  -2    0.11    0.25
  14   0  -2   19.42    0.94
  14   0  -2   20.07    0.89
  14   0  -2   18.67    0.95
 -14   0   2   16.74    0.92
  14   0  -2   18.47    0.91
  14   0  -2   19.22    0.74
  12   0  -2   21.12    0.98
  12   0  -2   21.82    0.93
  12   0  -2   21.27    0.93
  12   0  -2   20.56    0.88
 -12   0   2   20.57    0.94
  12   0  -2   21.78    0.76
  10   0  -2   48.62    1.57
  10   0  -2   46.37    1.53
  10   0  -2   46.91    1.37
  10   0  -2   46.91    1.54
  10   0  -2   45.19    1.58
 -10   0   2   49.48    1.57
  -8   0   2  187.71    5.11
   8   0  -2  191.83    5.13
   8   0  -2  188.76    5.14
   8   0  -2  190.07    5.11
   8   0  -2  193.04    5.17
  -6   0   2  210.54    5.51
   6   0  -2  212.10    5.54
  -6   0   2  208.86    5.46
   6   0  -2  199.68    5.51
  -6   0   2  211.97    5.47
   6   0  -2  204.46    5.51
   6   0  -2  204.29    5.46
  -6   0   2  204.17    5.33
  -4   0   2  137.34    3.62
  -4   0   2  135.33    3.62
   4   0  -2  135.29    3.55
   4   0  -2  132.34    3.63
  -4   0   2  133.08    3.65
   4   0  -2  134.30    3.63
  -4   0   2  135.76    3.54
   4   0  -2  132.42    3.64
   2   0  -2  322.89    8.11
   2   0  -2  316.03    8.23
  -2   0   2  317.61    8.25
   2   0  -2  316.42    8.24
  -2   0   2  319.28    8.23
  -2   0   2  311.58    8.09
  -2   0   2  316.99    8.23
  -2   0   2  316.15    8.24
   2   0  -2  330.24    8.27
   2   0  -2  311.26    8.24
   0   0   2    3.54    0.22
   0   0  -2    3.24    0.21
   0   0  -2    2.58    0.23
   0   0   2    3.39    0.24
   0   0  -2    2.93    0.21
   0   0   2    2.94    0.20
   0   0  -2    3.13    0.22
  -2   0  -2  164.06    4.31
   2   0   2  168.81    4.32
  -2   0  -2  168.80    4.32
   2   0   2  170.26    4.30
   2   0   2  160.75    4.35
  -2   0  -2  169.33    4.37
   2   0   2  166.45    4.44
   2   0   2  167.40    4.37
  -4   0  -2    1.86    0.17
   4   0   2    2.01    0.11
   4   0   2    1.86    0.10
   4   0   2    1.92    0.16
  -4   0  -2    2.31    0.20
   4   0   2    1.73    0.11
  -6   0  -2  518.54   12.89
  -6   0  -2  509.59   12.89
   6   0   2  498.19   12.92
  -6   0  -2  508.62   13.05
  -6   0  -2  500.47   12.98
   6   0   2  501.06   13.03
   8   0   2  185.79    4.86
  -8   0  -2  186.27    5.01
   8   0   2  183.22    4.85
  -8   0  -2  184.00    4.83
  -8   0  -2  185.85    4.92
 -10   0  -2  104.58    3.12
 -10   0  -2  108.36    2.93
  10   0   2  105.95    2.94
 -10   0  -2  105.63    3.03
  10   0   2  111.18    2.95
 -10   0  -2  110.86    2.79
  12   0   2  175.84    4.53
 -12   0  -2  171.21    4.51
  12   0   2  164.46    4.50
 -12   0  -2  162.81    4.61
 -12   0  -2  161.13    4.72
 -12   0  -2  171.82    4.35
  14   0   2   93.59    2.67
 -14   0  -2   93.75    2.93
  14   0   2   91.61    2.67
 -14   0  -2   92.36    2.66
 -14   0  -2   95.27    2.50
 -16   0  -2  100.03    3.22
  16   0   2  102.17    2.94
 -16   0  -2  102.96    2.94
  16   0   2  102.17    2.93
 -16   0  -2  102.06    2.76
 -18   0  -2    8.21    0.56
  18   0   2    4.23    0.44
 -18   0  -2    4.56    0.60
 -18   0  -2    6.57    0.38
  18   0   2    4.23    0.47
  20   0   2    6.96    0.58
  20   0   2    7.11    0.70
 -20   0  -2    8.32    0.66
 -20   0  -2    6.39    0.76
 -20   0  -2    8.71    0.47
  20   0   2    7.23    0.60
  22   0   2   50.62    1.77
  22   0   2   52.27    1.95
 -22   0  -2   51.62    2.20
  22   0   2   49.17    1.79
  24   0   2    2.30    0.50
 -24   0  -2    2.47    0.70
  24   0   2    2.88    0.49
  24   0   2    1.72    0.57
  26   0   2    0.81    0.45
 -26   0  -2    1.11    0.59
  26   0   2    1.32    0.46
  26   0   2    0.69    0.52
 -26   0  -2    1.96    0.69
  28   0   2   16.06    1.03
  28   0   2   14.97    1.24
 -28   0  -2   17.53    1.34
 -28   0  -2   13.09    1.40
  28   0   2   15.14    1.07
 -30   0  -2    0.33    0.70
 -30   0  -2   -1.59    0.69
  30   0   2    0.09    0.45
  30   0   2   -0.24    0.54
  30   0   2   -0.49    0.46
 -32   0  -2    1.18    0.77
  32   0   2    0.13    0.63
  32   0   2    1.21    0.55
  32   0   2    0.94    0.62
  34   0   2    1.60    0.78
  34   0   2    1.84    0.64
  34   0   2    4.31    0.82
  36   0   2    0.80    0.86
  36   0   2    0.24    0.59
  38   0   2    3.51    0.81
  38   0   2    2.10    1.04
  39  -1  -2    2.56    1.06
  37  -1  -2    4.30    1.19
  37  -1  -2    2.34    0.99
  37   1  -2    3.23    0.98
  37   1  -2    2.28    1.05
  35  -1  -2    6.84    1.16
  35  -1  -2    6.02    1.19
  35   1  -2    7.35    1.28
  35   1  -2    4.35    1.02
  33  -1  -2    3.64    1.06
  33  -1  -2    1.52    0.75
  33  -1  -2    1.23    0.52
  33   1  -2    2.51    0.99
  33   1  -2    3.33    0.86
  31  -1  -2   13.70    0.98
  31  -1  -2   11.59    1.28
  31  -1  -2   13.16    1.39
  31   1  -2   12.90    1.51
  31   1  -2   15.48    1.37
  29  -1  -2    6.47    0.99
  29  -1  -2    9.14    0.77
  29  -1  -2    8.07    0.87
  29  -1  -2    9.16    1.16
  29   1  -2    8.17    1.18
  29   1  -2    9.01    1.06
  27  -1  -2    5.20    0.79
  27  -1  -2    3.93    0.67
  27  -1  -2    5.13    0.88
  27  -1  -2    4.81    0.58
  27   1  -2    4.10    0.79
  27   1  -2    4.25    0.88
  25  -1  -2  116.29    3.79
  25  -1  -2  119.83    3.96
  25  -1  -2  118.72    3.45
  25  -1  -2  110.77    3.61
  25   1  -2  102.35    3.61
  25   1  -2  100.16    3.40
 -23  -1   2   36.42    1.81
  23  -1  -2   35.45    1.52
  23  -1  -2   34.16    1.61
  23  -1  -2   39.46    1.77
  23  -1  -2   35.66    1.37
  23   1  -2   48.35    2.11
  23   1  -2   50.61    1.73
 -23   1   2   44.08    2.01
  23   1  -2   48.29    1.93
  21  -1  -2    7.30    0.72
  21  -1  -2    8.76    0.93
 -21  -1   2    9.94    0.99
  21  -1  -2    8.12    0.83
  21  -1  -2    8.00    0.61
  21   1  -2    8.78    0.82
  21   1  -2    7.29    0.86
 -21   1   2    7.83    0.86
  21   1  -2    7.56    0.61
  19  -1  -2   52.37    2.03
  19  -1  -2   50.84    1.68
  19  -1  -2   53.30    1.87
  19  -1  -2   53.48    2.02
  19  -1  -2   51.88    1.94
 -19  -1   2   50.70    2.05
 -19   1   2   42.94    1.77
  19   1  -2   41.03    1.45
  19   1  -2   39.59    1.76
  19   1  -2   42.30    1.67
  17  -1  -2   50.74    1.86
  17  -1  -2   52.27    1.95
  17  -1  -2   52.39    1.82
  17  -1  -2   51.29    1.63
  17  -1  -2   52.82    1.92
 -17  -1   2   50.74    1.96
  17   1  -2   59.28    2.00
  17   1  -2   60.70    1.89
  17   1  -2   62.01    2.23
  17   1  -2   63.20    2.17
  17   1  -2   56.22    2.07
 -17   1   2   62.44    2.18
  15  -1  -2    0.90    0.33
  15  -1  -2    0.53    0.32
  15  -1  -2    0.84    0.33
  15  -1  -2    1.07    0.24
  15  -1  -2    0.53    0.30
 -15  -1   2    0.82    0.34
  15   1  -2    1.11    0.35
  15   1  -2    1.51    0.34
  15   1  -2    1.54    0.41
 -15   1   2    1.20    0.36
  15   1  -2    1.40    0.33
 -13  -1   2   77.12    2.42
  13  -1  -2   75.78    2.38
  13  -1  -2   73.56    2.38
  13  -1  -2   73.85    2.13
  13  -1  -2   74.64    2.32
  13  -1  -2   75.99    2.37
 -13   1   2   65.08    2.12
  13   1  -2   65.37    2.04
  13   1  -2   61.91    2.17
  13   1  -2   64.32    2.09
  13   1  -2   67.85    2.14
  11  -1  -2   76.11    2.38
  11  -1  -2   80.91    2.37
  11  -1  -2   77.48    2.16
  11  -1  -2   78.33    2.38
  11  -1  -2   78.77    2.38
 -11  -1   2   76.58    2.41
  11   1  -2   81.10    2.44
 -11   1   2   86.55    2.51
  11   1  -2   82.73    2.50
  11   1  -2   79.52    2.56
  11   1  -2   82.31    2.50
   9  -1  -2   14.35    0.69
  -9  -1   2   16.43    0.73
   9  -1  -2   15.13    0.69
   9  -1  -2   15.58    0.70
   9  -1  -2   16.21    0.54
   9  -1  -2   14.94    0.69
   9   1  -2   20.58    0.84
   9   1  -2   19.85    0.83
  -9   1   2   20.27    0.82
   9   1  -2   20.60    0.89
   9   1  -2   20.75    0.82
   7  -1  -2   47.41    1.45
   7  -1  -2   46.51    1.27
   7  -1  -2   47.75    1.49
   7  -1  -2   45.37    1.47
   7  -1  -2   47.11    1.47
  -7  -1   2   47.74    1.48
   7   1  -2   59.52    1.83
  -7   1   2   59.85    1.73
  -7   1   2   59.89    1.78
   7   1  -2   60.53    1.88
   7   1  -2   59.72    1.81
   7   1  -2   62.14    1.82
   5  -1  -2   40.44    1.21
   5  -1  -2   41.30    1.31
   5  -1  -2   39.32    1.26
   5  -1  -2   41.88    1.24
  -5  -1   2   41.98    1.27
  -5  -1   2   40.90    1.23
   5  -1  -2   42.42    1.28
  -5  -1   2   33.61    1.23
  -5   1   2   51.18    1.53
  -5   1   2   51.17    1.39
  -5   1   2   54.67    1.50
   5   1  -2   52.94    1.60
  -5   1   2   53.27    1.51
   5   1  -2   49.79    1.61
   5   1  -2   52.33    1.54
   3  -1  -2  121.29    3.22
   3  -1  -2  117.01    3.28
   3  -1  -2  115.88    3.23
  -3  -1   2  117.87    3.24
   3  -1  -2  119.54    3.19
  -3  -1   2  120.45    3.19
   3  -1  -2  123.04    3.16
   3   1  -2  108.49    3.02
  -3   1   2  108.49    2.94
  -3   1   2  108.98    2.88
  -3   1   2  109.32    2.85
   3   1  -2  107.75    2.90
  -3   1   2  104.23    2.90
   3   1  -2  108.02    2.98
   1  -1  -2  179.92    4.88
   1  -1  -2  180.95    4.74
   1  -1  -2  185.20    4.80
   1  -1  -2  187.16    4.79
  -1  -1   2  184.45    4.87
   1  -1  -2  178.79    4.82
   1  -1  -2  187.75    4.74
  -1   1   2  138.32    3.55
  -1   1   2  139.93    3.63
   1   1  -2  135.56    3.75
   1   1  -2  137.08    3.62
  -1   1   2  138.68    3.56
  -1   1   2  137.25    3.72
  -1   1   2  141.06    3.66
  -1   1   2  135.81    3.62
   1   1  -2  135.07    3.71
   1  -1   2  133.14    3.40
   1  -1   2  124.98    3.51
  -1  -1  -2  131.37    3.53
  -1  -1  -2  130.11    3.40
  -1  -1  -2  129.54    3.41
  -1  -1  -2  134.29    3.45
  -1   1  -2  148.52    4.07
   1   1   2  152.01    4.03
   1   1   2  153.95    3.96
   1   1   2  150.69    3.91
   1   1   2  146.52    3.93
   1   1   2  151.38    3.88
  -3  -1  -2   48.68    1.41
  -3  -1  -2   51.03    1.37
  -3  -1  -2   48.81    1.48
   3  -1   2   49.31    1.31
   3  -1   2   50.71    1.33
  -3   1  -2   56.28    1.63
   3   1   2   56.90    1.55
   3   1   2   58.04    1.67
   3   1   2   58.43    1.54
  -3   1  -2   58.70    1.51
  -5  -1  -2   96.43    2.63
  -5  -1  -2   94.28    2.44
  -5  -1  -2   95.28    2.66
  -5  -1  -2   94.74    2.48
  -5  -1  -2   94.84    2.44
   5  -1   2   95.07    2.52
   5  -1   2   93.08    2.63
   5   1   2  105.12    2.78
  -5   1  -2  106.33    2.93
  -5   1  -2  105.72    2.76
  -5   1  -2  108.74    2.78
   5   1   2  105.56    2.76
   5   1   2  105.77    2.91
   5   1   2  106.77    2.79
  -7  -1  -2   15.41    0.66
  -7  -1  -2   15.66    0.47
   7  -1   2   15.34    0.56
   7  -1   2   14.14    0.88
   7  -1   2   16.18    0.49
  -7  -1  -2   15.89    0.53
  -7  -1  -2   15.13    0.66
  -7  -1  -2   16.25    0.52
  -7   1  -2   14.80    0.53
  -7   1  -2   15.26    0.66
  -7   1  -2   15.48    0.51
   7   1   2   14.65    0.60
   7   1   2   15.43    0.49
   7   1   2   15.80    0.53
  -9  -1  -2   20.82    0.73
   9  -1   2   22.43    0.75
  -9  -1  -2   22.57    0.88
  -9  -1  -2   21.09    0.72
   9  -1   2   21.97    0.66
  -9  -1  -2   21.58    0.89
  -9  -1  -2   21.58    0.63
  -9   1  -2   31.64    0.99
   9   1   2   30.28    0.94
  -9   1  -2   30.42    1.14
   9   1   2   32.31    0.99
  -9   1  -2   32.75    0.92
 -11  -1  -2  214.41    5.58
 -11  -1  -2  211.37    5.45
  11  -1   2  219.07    5.61
  11  -1   2  208.60    5.63
 -11  -1  -2  207.81    5.76
 -11  -1  -2  204.87    5.80
  11  -1   2  212.44    5.48
 -11   1  -2  217.45    5.53
 -11   1  -2  210.98    5.63
  11   1   2  209.93    5.58
  11   1   2  211.75    5.62
 -11   1  -2  213.73    5.84
 -13  -1  -2   25.87    0.81
 -13  -1  -2   26.24    1.11
  13  -1   2   28.09    0.85
  13  -1   2   26.18    0.98
 -13  -1  -2   26.64    1.17
 -13  -1  -2   26.46    0.95
  13  -1   2   26.96    0.96
 -13   1  -2   23.48    1.07
  13   1   2   21.71    0.85
 -13   1  -2   24.55    0.76
  13   1   2   21.85    0.81
 -13   1  -2   23.54    0.87
  15  -1   2  153.65    4.24
  15  -1   2  157.48    4.06
 -15  -1  -2  150.35    4.41
 -15  -1  -2  151.61    4.18
 -15  -1  -2  148.98    4.47
 -15  -1  -2  152.47    4.02
  15  -1   2  150.58    4.19
 -15   1  -2  147.05    4.35
  15   1   2  143.79    4.05
  15   1   2  143.70    4.02
 -15   1  -2  149.33    3.94
 -15   1  -2  153.06    4.09
 -17  -1  -2   41.34    1.67
 -17  -1  -2   45.51    1.47
  17  -1   2   40.20    1.30
  17  -1   2   43.36    1.50
 -17  -1  -2   43.62    1.29
 -17  -1  -2   43.39    1.74
  17  -1   2   41.03    1.44
  17   1   2   53.00    1.78
 -17   1  -2   59.20    1.68
 -17   1  -2   57.58    2.09
  17   1   2   55.90    1.93
  17   1   2   57.43    1.79
 -17   1  -2   57.09    1.83
 -19  -1  -2    1.64    0.51
 -19  -1  -2    2.19    0.38
  19  -1   2    1.91    0.40
 -19  -1  -2    2.55    0.29
  19  -1   2    2.14    0.28
 -19  -1  -2    3.10    0.57
  19  -1   2    1.75    0.35
  19   1   2    1.56    0.33
  19   1   2    1.38    0.33
 -19   1  -2    2.19    0.55
 -19   1  -2    1.33    0.27
 -19   1  -2    1.39    0.33
  19   1   2    1.38    0.40
 -21  -1  -2   83.13    2.93
 -21  -1  -2   90.63    3.11
  21  -1   2   84.62    2.69
 -21  -1  -2   91.20    2.85
 -21  -1  -2   83.58    2.51
  21  -1   2   84.82    2.45
  21  -1   2   84.92    2.64
  21   1   2   71.81    2.48
  21   1   2   74.72    2.34
  21   1   2   75.54    2.35
 -21   1  -2   74.49    2.74
  23  -1   2   13.17    0.96
  23  -1   2   12.20    0.64
 -23  -1  -2   11.61    1.04
 -23  -1  -2   10.78    1.07
  23  -1   2   11.19    0.89
  23  -1   2   13.60    0.84
 -23   1  -2   18.30    1.42
  23   1   2   18.04    0.98
  23   1   2   17.77    1.09
  23   1   2   20.14    0.99
  25  -1   2    4.90    0.67
 -25  -1  -2    4.42    0.81
  25  -1   2    4.45    0.58
 -25  -1  -2    5.67    0.87
  25  -1   2    3.14    0.62
  25   1   2    5.11    0.72
  25   1   2    5.36    0.61
  25   1   2    4.71    0.64
 -25   1  -2    4.37    0.85
  27  -1   2   12.08    1.03
  27  -1   2   12.31    0.92
  27  -1   2   14.81    1.10
 -27  -1  -2   15.62    1.48
 -27  -1  -2   13.83    1.24
 -27   1  -2   11.12    1.25
  27   1   2   10.63    0.91
  27   1   2   11.72    1.09
  27   1   2   13.03    0.95
 -29  -1  -2    9.62    1.30
  29  -1   2    7.90    0.96
  29  -1   2    6.17    0.81
 -29  -1  -2    8.49    1.09
  29  -1   2    6.65    0.76
 -29   1  -2    6.85    1.08
  29   1   2    7.78    0.85
  29   1   2    9.60    0.89
  29   1   2    8.62    1.02
 -31  -1  -2    8.01    1.13
  31  -1   2    8.77    0.89
  31  -1   2    8.16    1.06
 -31  -1  -2    9.52    1.55
  31  -1   2    7.73    0.93
  31   1   2    6.93    0.86
  31   1   2    6.15    0.94
 -31   1  -2    8.28    1.06
  31   1   2    9.13    0.91
  33  -1   2    7.21    0.85
  33  -1   2    8.45    1.04
 -33  -1  -2    8.71    1.22
  33  -1   2    6.11    0.99
  33   1   2   11.74    1.23
  33   1   2    9.52    0.96
  35  -1   2    3.64    0.94
 -35  -1  -2    5.99    1.17
  35  -1   2    4.59    0.95
  35  -1   2    3.59    0.75
  35   1   2    4.06    0.97
  35   1   2    4.22    0.76
 -37  -1  -2    4.06    0.84
  37  -1   2    2.99    1.00
  37  -1   2    2.47    0.73
  37   1   2    3.99    0.81
  37   1   2    2.87    1.00
  38  -2  -2    0.79    0.96
  38  -2  -2    1.39    1.16
  38   2  -2    0.00    1.11
  36  -2  -2    3.17    1.02
  36  -2  -2    2.80    1.13
  36   2  -2    2.80    1.16
  36   2  -2    3.39    0.99
  34  -2  -2   17.16    1.13
  34  -2  -2   16.73    1.72
  34  -2  -2   15.18    1.56
  34   2  -2   11.98    1.52
  34   2  -2   12.25    1.33
  32  -2  -2    2.34    1.03
  32  -2  -2    2.30    0.92
  32  -2  -2    3.16    0.84
  32  -2  -2    2.82    0.58
  32   2  -2    2.65    1.00
  32   2  -2    1.62    0.75
  30  -2  -2   21.75    1.48
  30  -2  -2   21.96    1.58
  30  -2  -2   19.35    1.12
  30  -2  -2   21.98    1.32
  30   2  -2   23.59    1.47
  30   2  -2   25.13    1.75
  28  -2  -2    3.24    0.64
  28  -2  -2    3.52    0.83
  28  -2  -2    3.82    0.89
  28  -2  -2    2.97    0.51
  28   2  -2    1.46    0.65
  28   2  -2    0.86    0.69
  26  -2  -2    6.69    0.62
  26  -2  -2    6.27    0.79
  26  -2  -2    8.20    1.00
  26  -2  -2    5.28    0.81
  26   2  -2    5.54    0.92
  26   2  -2    3.54    0.71
  24  -2  -2   18.56    1.14
  24  -2  -2   19.20    1.33
 -24  -2   2   17.68    1.37
  24  -2  -2   19.35    1.27
  24  -2  -2   19.23    0.95
  24   2  -2   21.11    1.47
  24   2  -2   19.75    1.23
  22  -2  -2   20.02    1.21
  22  -2  -2   23.55    1.01
  22  -2  -2   22.72    1.18
 -22  -2   2   23.08    1.38
  22  -2  -2   23.62    1.36
  22   2  -2   23.64    1.41
  22   2  -2   22.55    1.24
 -22   2   2   21.88    1.30
  20  -2  -2   25.48    1.04
  20  -2  -2   26.90    1.36
 -20  -2   2   25.08    1.38
  20  -2  -2   25.92    1.29
  20  -2  -2   26.65    1.23
  20   2  -2   26.02    1.48
 -20   2   2   29.12    1.45
  20   2  -2   28.49    1.34
  18  -2  -2   37.83    1.26
  18  -2  -2   35.08    1.49
  18  -2  -2   33.87    1.49
  18  -2  -2   36.54    1.57
  18  -2  -2   35.82    1.45
 -18  -2   2   35.38    1.59
 -18   2   2   32.99    1.49
  18   2  -2   33.72    1.42
  18   2  -2   32.43    1.56
  16  -2  -2   10.37    0.83
  16  -2  -2    9.97    0.73
  16  -2  -2    9.59    0.70
  16  -2  -2    9.38    0.55
  16  -2  -2    9.95    0.81
 -16  -2   2   10.22    0.79
  16   2  -2   10.57    0.82
  16   2  -2   11.12    0.77
 -16   2   2   13.73    0.85
  16   2  -2   12.70    0.88
  14  -2  -2   70.82    2.36
  14  -2  -2   72.87    2.37
 -14  -2   2   76.10    2.47
  14  -2  -2   73.66    2.41
  14  -2  -2   73.73    2.33
  14  -2  -2   74.05    2.13
 -14   2   2   90.32    2.87
  14   2  -2   90.17    2.95
  14   2  -2   96.23    2.91
  14   2  -2   93.80    2.84
 -12  -2   2   66.17    2.17
  12  -2  -2   65.19    2.12
  12  -2  -2   64.96    1.87
  12  -2  -2   62.94    2.07
  12  -2  -2   66.05    2.08
  12  -2  -2   66.52    2.11
 -12   2   2   68.15    2.24
  12   2  -2   72.77    2.30
  12   2  -2   72.99    2.26
  12   2  -2   72.98    2.37
 -10  -2   2   51.11    1.70
  10  -2  -2   47.06    1.63
  10  -2  -2   50.29    1.43
  10  -2  -2   51.84    1.66
  10  -2  -2   47.02    1.59
  10  -2  -2   50.02    1.63
 -10   2   2   46.61    1.54
  10   2  -2   44.11    1.62
  10   2  -2   45.53    1.55
  10   2  -2   45.71    1.57
   8  -2  -2   72.72    2.21
   8  -2  -2   72.46    2.21
   8  -2  -2   76.67    2.00
   8  -2  -2   72.27    2.25
   8  -2  -2   75.01    2.22
  -8  -2   2   72.61    2.24
   8  -2  -2   73.56    2.16
   8   2  -2   93.24    2.82
   8   2  -2   93.00    2.76
  -8   2   2   97.21    2.73
   8   2  -2   94.72    2.76
   6  -2  -2  252.40    6.49
   6  -2  -2  251.65    6.64
  -6  -2   2  254.77    6.74
   6  -2  -2  254.25    6.73
   6  -2  -2  251.19    6.71
   6  -2  -2  259.58    6.71
   6  -2  -2  248.72    6.77
  -6   2   2  231.74    6.17
   6   2  -2  228.17    6.24
   6   2  -2  232.57    6.22
  -6   2   2  241.93    6.08
   6   2  -2  231.00    6.30
   4  -2  -2   60.59    1.85
  -4  -2   2   59.40    1.82
  -4  -2   2   60.36    1.79
   4  -2  -2   59.48    1.76
   4  -2  -2   56.92    1.78
   4  -2  -2   62.61    1.68
   4  -2  -2   59.41    1.75
  -4  -2   2   60.48    1.80
   4   2  -2   61.96    1.82
  -4   2   2   61.59    1.76
  -4   2   2   62.43    1.68
   4   2  -2   60.67    1.90
  -4   2   2   62.19    1.77
  -4   2   2   60.16    1.88
   4   2  -2   62.50    1.86
  -4   2   2   59.52    1.65
  -2  -2   2   15.11    0.62
   2  -2  -2   16.13    0.58
   2  -2  -2   14.73    0.67
   2  -2  -2   14.95    0.61
   2  -2  -2   15.30    0.59
  -2  -2   2   16.57    0.68
   2  -2  -2   15.64    0.50
  -2   2   2   27.97    0.93
  -2   2   2   28.89    0.79
   2   2  -2   27.80    0.98
   2   2  -2   28.16    0.95
   2   2  -2   27.72    1.02
  -2   2   2   28.40    0.88
  -2   2   2   28.02    0.78
  -2   2   2   28.45    0.90
   0  -2  -2  613.37   15.66
   0  -2   2  609.32   15.55
   0  -2  -2  612.66   15.76
   0  -2  -2  598.48   15.57
   0  -2  -2  591.25   15.64
   0  -2   2  635.87   15.77
   0   2  -2  642.23   15.77
   0   2  -2  625.80   15.85
   0   2   2  643.76   15.84
   0   2   2  620.03   15.71
   0   2   2  624.85   15.58
   0   2   2  595.27   15.56
   0   2   2  617.21   15.63
   0   2   2  521.30   15.55
   0   2   2  628.56   15.71
  -2  -2  -2  290.00    7.78
   2  -2   2  300.18    7.80
  -2  -2  -2  292.08    7.68
  -2  -2  -2  294.16    7.65
   2  -2   2  292.89    7.59
  -2  -2  -2  293.05    7.54
   2  -2   2  300.29    7.55
  -2   2  -2  290.64    7.75
   2   2   2  294.56    7.57
   2   2   2  296.88    7.55
  -2   2  -2  299.74    7.57
   2   2   2  295.97    7.66
   2   2   2  293.13    7.78
   2   2   2  298.17    7.56
  -2   2  -2  297.48    7.82
  -4  -2  -2  225.15    5.71
  -4  -2  -2  221.95    5.99
   4  -2   2  228.32    5.81
   4  -2   2  221.63    6.00
  -4  -2  -2  222.41    5.91
  -4  -2  -2  225.56    5.82
   4  -2   2  221.63    5.94
  -4  -2  -2  219.58    5.70
  -4   2  -2  197.41    5.10
   4   2   2  201.17    5.13
   4   2   2  199.17    5.10
  -4   2  -2  194.07    5.26
   4   2   2  190.34    5.08
   4   2   2  198.13    5.27
   6  -2   2   80.05    2.21
   6  -2   2   82.32    2.19
  -6  -2  -2   79.26    2.13
  -6  -2  -2   78.05    2.37
  -6  -2  -2   81.04    2.19
  -6  -2  -2   78.57    2.15
  -6  -2  -2   78.79    2.33
   6   2   2   71.69    1.96
  -6   2  -2   72.17    1.99
  -6   2  -2   72.14    2.14
   8  -2   2   67.87    1.96
   8  -2   2   68.69    1.92
  -8  -2  -2   68.63    2.14
  -8  -2  -2   70.10    1.94
  -8  -2  -2   71.04    2.14
  -8  -2  -2   68.05    1.92
  -8  -2  -2   69.29    1.92
  -8   2  -2   71.03    2.21
  -8   2  -2   72.70    1.95
   8   2   2   73.62    2.03
  -8   2  -2   74.55    2.05
   8   2   2   71.93    1.92
  10  -2   2   32.20    1.00
  10  -2   2   32.05    1.06
 -10  -2  -2   31.54    1.04
 -10  -2  -2   32.05    1.24
 -10  -2  -2   31.81    1.23
 -10  -2  -2   31.94    1.02
  10   2   2   26.14    0.80
  10   2   2   25.02    0.88
 -10   2  -2   27.40    1.09
 -10   2  -2   26.59    0.88
 -10   2  -2   25.90    0.90
 -10   2  -2   26.25    0.84
  12  -2   2  245.87    6.47
  12  -2   2  245.39    6.54
 -12  -2  -2  243.52    6.72
  12  -2   2  246.37    6.39
 -12  -2  -2  242.94    6.47
 -12  -2  -2  237.11    6.70
 -12  -2  -2  245.61    6.44
 -12   2  -2  220.76    6.09
  12   2   2  221.92    5.76
 -12   2  -2  216.61    5.81
 -12   2  -2  226.36    5.87
  12   2   2  214.10    5.91
 -12   2  -2  218.54    5.81
  12   2   2  221.93    5.84
 -14  -2  -2   57.18    1.74
 -14  -2  -2   54.81    1.99
 -14  -2  -2   54.56    1.70
 -14  -2  -2   59.21    2.05
 -14  -2  -2   55.31    1.77
 -14  -2  -2   54.96    1.63
  14  -2   2   55.48    1.75
  14  -2   2   57.09    1.67
  14  -2   2   60.34    1.85
  14   2   2   48.81    1.68
 -14   2  -2   52.66    1.86
 -14   2  -2   50.67    1.62
  14   2   2   51.41    1.54
 -14   2  -2   51.41    1.60
 -14   2  -2   53.80    1.57
  14   2   2   48.86    1.59
 -16  -2  -2   26.47    1.07
  16  -2   2   27.44    0.95
 -16  -2  -2   26.13    1.02
  16  -2   2   24.64    1.07
 -16  -2  -2   26.15    1.31
 -16  -2  -2   26.79    0.91
 -16  -2  -2   26.79    1.29
  16  -2   2   27.63    1.04
 -16   2  -2   29.72    1.01
  16   2   2   28.42    1.05
  16   2   2   27.67    1.00
  16   2   2   27.51    1.14
 -16   2  -2   26.20    1.29
 -16   2  -2   26.90    1.08
 -18  -2  -2   18.96    0.85
 -18  -2  -2   15.78    1.06
  18  -2   2   17.34    0.89
  18  -2   2   16.32    0.73
  18  -2   2   16.28    0.83
 -18  -2  -2   18.20    0.72
 -18  -2  -2   17.75    1.10
  18   2   2   11.19    0.67
 -18   2  -2   11.76    0.70
 -18   2  -2   10.25    0.89
  18   2   2   11.74    0.62
  18   2   2    9.68    0.71
 -20  -2  -2    7.81    0.55
  20  -2   2    7.22    0.50
  20  -2   2    6.19    0.64
 -20  -2  -2    6.98    0.59
 -20  -2  -2    7.04    0.82
  20  -2   2    6.49    0.58
 -20  -2  -2    6.58    0.82
  20   2   2    8.05    0.74
 -20   2  -2    8.67    0.93
  20   2   2    7.19    0.58
  20   2   2    6.09    0.55
 -22  -2  -2   91.12    3.25
 -22  -2  -2   91.85    3.19
  22  -2   2   90.98    2.80
  22  -2   2   90.47    2.65
  22  -2   2   87.11    2.87
  22   2   2   83.63    2.74
  22   2   2   80.55    2.56
  22   2   2   82.39    2.55
 -22   2  -2   81.06    3.00
 -24  -2  -2    1.31    0.60
  24  -2   2    0.66    0.30
 -24  -2  -2    0.89    0.66
  24  -2   2    1.46    0.50
  24  -2   2    0.65    0.42
  24  -2   2    1.00    0.40
 -24   2  -2    2.92    0.69
  24   2   2    2.60    0.57
  24   2   2    1.53    0.42
  24   2   2    1.87    0.43
  26  -2   2   18.24    1.20
 -26  -2  -2   15.81    1.35
  26  -2   2   17.54    1.04
 -26  -2  -2   18.78    1.58
  26  -2   2   14.78    1.10
  26   2   2   20.09    1.09
  26   2   2   17.50    1.19
  26   2   2   18.50    1.06
 -26   2  -2   18.88    1.59
  28  -2   2   31.82    1.62
  28  -2   2   31.09    1.44
  28  -2   2   29.65    1.57
 -28  -2  -2   30.56    1.83
 -28  -2  -2   30.72    1.97
  28   2   2   24.02    1.44
  28   2   2   24.00    1.27
 -28   2  -2   26.59    1.79
  28   2   2   25.54    1.30
 -30  -2  -2    3.04    0.88
 -30  -2  -2    2.29    0.65
 -30  -2  -2    1.27    0.85
  30  -2   2    2.96    0.61
  30  -2   2    3.18    0.76
  30  -2   2    3.72    0.78
 -30   2  -2    3.40    1.00
  30   2   2    2.78    0.92
  30   2   2    3.38    0.81
  30   2   2    4.17    0.68
 -32  -2  -2    5.71    0.82
 -32  -2  -2    5.53    1.10
  32  -2   2    8.44    1.03
  32  -2   2    5.35    0.78
  32  -2   2    6.24    1.00
  32   2   2    6.53    1.00
  32   2   2    5.65    0.79
 -34  -2  -2   13.94    1.59
  34  -2   2   17.10    1.43
  34  -2   2   15.19    1.16
  34  -2   2   16.27    1.51
 -34  -2  -2   15.45    1.23
  34   2   2   12.37    1.11
  34   2   2   12.25    1.42
 -36  -2  -2    1.81    0.99
  36  -2   2    2.10    0.82
  36  -2   2    1.74    0.68
  36  -2   2    2.51    0.87
 -36  -2  -2    2.37    0.72
  36   2   2    2.31    0.94
  36   2   2    3.42    0.78
  38  -2   2    0.79    0.67
 -38  -2  -2    1.28    0.79
  38  -2   2    0.13    1.01
  38   2   2    1.07    0.97
  38   2   2   -0.05    0.65
 -39  -3   2    3.60    1.43
  39  -3  -2    5.18    1.19
  37  -3  -2    4.44    0.73
  37  -3  -2    5.25    1.22
  37  -3  -2    5.59    1.34
 -37  -3   2    6.23    1.28
  37   3  -2    6.24    1.36
  35  -3  -2    2.55    1.04
  35  -3  -2    1.25    0.55
  35  -3  -2    0.93    0.89
  35   3  -2    0.17    0.97
  33  -3  -2    1.82    0.91
  33  -3  -2    1.05    0.50
  33  -3  -2    2.43    0.95
  33   3  -2    1.02    0.71
  33   3  -2    1.13    0.98
  31  -3  -2   10.53    0.86
  31  -3  -2   14.33    1.45
  31  -3  -2    9.46    1.05
  31  -3  -2   12.39    1.34
  31   3  -2   11.66    1.43
  31   3  -2    7.42    1.04
  29  -3  -2    7.99    1.11
  29  -3  -2    8.95    1.17
  29  -3  -2    8.55    0.74
  29  -3  -2   10.38    1.01
  29   3  -2    8.67    1.04
  29   3  -2    7.18    1.15
  27  -3  -2   -0.20    0.54
  27  -3  -2    0.26    0.63
  27  -3  -2    0.43    0.50
  27  -3  -2    0.18    0.38
  27   3  -2    0.84    0.68
  27   3  -2    1.37    0.61
  25  -3  -2   29.39    1.54
  25  -3  -2   26.92    1.52
  25  -3  -2   27.35    1.18
  25  -3  -2   23.63    1.33
  25   3  -2   29.42    1.79
  25   3  -2   27.40    1.48
  23  -3  -2   14.72    1.18
 -23  -3   2   12.69    1.21
  23  -3  -2   12.28    0.99
  23  -3  -2   11.51    0.76
  23  -3  -2   14.83    1.07
  23   3  -2    6.95    0.81
  23   3  -2    6.79    0.98
 -23   3   2    6.41    0.99
  21  -3  -2   35.83    1.28
  21  -3  -2   31.30    1.47
 -21  -3   2   31.34    1.66
  21  -3  -2   34.94    1.58
  21  -3  -2   34.75    1.62
 -21   3   2   32.02    1.57
  21   3  -2   34.14    1.71
  21   3  -2   33.71    1.51
  19  -3  -2   33.72    1.45
  19  -3  -2   35.40    1.23
  19  -3  -2   30.71    1.47
 -19  -3   2   32.91    1.64
  19  -3  -2   33.56    1.51
 -19   3   2   34.03    1.56
  19   3  -2   34.51    1.47
  19   3  -2   35.99    1.69
 -17  -3   2   70.57    2.57
  17  -3  -2   73.68    2.54
  17  -3  -2   69.20    2.40
  17  -3  -2   66.50    2.34
  17  -3  -2   73.82    2.15
  17  -3  -2   74.27    2.45
  17   3  -2   76.44    2.49
  17   3  -2   73.03    2.65
 -17   3   2   74.43    2.56
  15  -3  -2   46.66    1.69
  15  -3  -2   46.69    1.66
  15  -3  -2   43.59    1.41
 -15  -3   2   40.69    1.72
  15  -3  -2   41.70    1.71
  15  -3  -2   43.47    1.62
  15   3  -2   40.08    1.63
  15   3  -2   40.02    1.71
 -15   3   2   41.15    1.61
  15   3  -2   41.99    1.55
  13  -3  -2  118.32    3.56
  13  -3  -2  111.05    3.43
  13  -3  -2  119.21    3.51
  13  -3  -2  118.94    3.48
  13  -3  -2  120.36    3.24
 -13  -3   2  117.76    3.60
 -13   3   2  117.85    3.49
  13   3  -2  114.16    3.45
  13   3  -2  114.14    3.60
  13   3  -2  119.87    3.53
  11  -3  -2   13.48    0.75
  11  -3  -2   13.22    0.72
  11  -3  -2   12.59    0.73
 -11  -3   2   14.06    0.80
  11  -3  -2   13.88    0.57
  11  -3  -2   13.73    0.76
  11  -3  -2   12.29    0.68
  11   3  -2   19.60    0.94
 -11   3   2   18.71    0.89
  11   3  -2   18.00    0.97
  11   3  -2   17.72    0.87
  -9  -3   2   31.12    1.27
   9  -3  -2   30.99    1.14
   9  -3  -2   33.69    1.23
   9  -3  -2   33.74    1.27
   9  -3  -2   33.06    1.26
   9  -3  -2   34.36    1.03
   9  -3  -2   33.68    1.24
   9   3  -2   29.86    1.14
  -9   3   2   28.48    1.10
   9   3  -2   27.23    1.09
   9   3  -2   26.92    1.18
   7  -3  -2  167.42    4.69
   7  -3  -2  168.68    4.43
   7  -3  -2  171.16    4.73
   7  -3  -2  173.75    4.68
   7  -3  -2  157.79    4.51
   7  -3  -2  170.09    4.65
  -7  -3   2  176.10    4.74
   7   3  -2  177.79    4.92
  -7   3   2  176.53    4.80
   7   3  -2  175.44    4.85
   7   3  -2  171.66    4.84
   5  -3  -2   48.64    1.56
   5  -3  -2   48.79    1.52
   5  -3  -2   46.49    1.54
   5  -3  -2   49.33    1.39
  -5  -3   2   48.72    1.59
   5  -3  -2   46.70    1.32
   5  -3  -2   45.40    1.59
   5   3  -2   36.28    1.30
  -5   3   2   39.28    1.26
   5   3  -2   37.42    1.35
   5   3  -2   36.90    1.30
  -3  -3   2   73.79    2.25
   3  -3  -2   75.31    2.23
   3  -3  -2   74.27    1.99
   3  -3  -2   70.96    2.27
   3  -3  -2   74.45    2.15
  -3  -3   2   75.18    2.10
   3  -3  -2   77.50    2.00
   3  -3  -2   77.53    2.23
   3   3  -2   74.08    2.26
   3   3  -2   71.72    2.20
  -3   3   2   75.62    2.08
  -3   3   2   72.46    2.15
   1  -3  -2   48.28    1.45
  -1  -3   2   50.32    1.44
   1  -3  -2   48.32    1.56
   1  -3  -2   49.36    1.33
   1  -3  -2   48.04    1.53
  -1  -3   2   49.83    1.49
  -1  -3   2   51.46    1.62
   1  -3  -2   50.67    1.33
   1  -3  -2   48.66    1.63
   1   3  -2   37.86    1.30
  -1   3   2   39.23    1.14
  -1   3   2   38.77    1.26
   1   3  -2   36.97    1.32
   1  -3   2   22.02    0.74
  -1  -3  -2   21.83    0.64
   1  -3   2   22.64    0.75
  -1  -3  -2   22.24    0.64
  -1  -3  -2   21.61    0.91
   1  -3   2   22.35    0.90
  -1  -3  -2   22.05    0.86
  -1  -3  -2   21.45    0.70
  -1  -3  -2   22.25    0.82
  -1   3  -2   24.22    0.96
  -1   3  -2   23.65    0.94
  -1   3  -2   25.23    0.78
   1   3   2   25.72    0.93
  -3  -3  -2   32.81    1.23
  -3  -3  -2   32.92    0.95
  -3  -3  -2   33.99    0.97
   3  -3   2   33.60    1.00
   3  -3   2   34.37    1.06
  -3  -3  -2   32.78    1.10
  -3  -3  -2   33.34    1.17
  -3  -3  -2   34.15    0.95
   3   3   2   37.62    1.11
   3   3   2   39.36    1.06
   3   3   2   39.31    1.20
  -3   3  -2   37.12    1.13
  -3   3  -2   36.83    1.32
  -5  -3  -2  108.77    2.92
  -5  -3  -2  109.94    3.16
  -5  -3  -2  106.97    3.04
   5  -3   2  110.56    3.04
   5  -3   2  110.42    2.90
  -5  -3  -2  114.96    2.95
  -5  -3  -2  105.99    3.21
   5  -3   2  111.35    3.01
  -5   3  -2  102.50    3.07
   5   3   2  105.34    2.86
   5   3   2  107.06    2.84
  -5   3  -2  106.96    2.80
  -5   3  -2  108.07    2.89
   7  -3   2  112.37    3.05
  -7  -3  -2  111.29    3.00
  -7  -3  -2  107.83    3.05
   7  -3   2  112.43    2.90
  -7  -3  -2  108.86    3.27
  -7  -3  -2  106.25    3.21
  -7  -3  -2  109.17    2.97
   7  -3   2  114.74    3.05
  -7   3  -2  118.62    3.47
   7   3   2  120.49    3.26
  -7   3  -2  119.93    3.17
   7   3   2  122.69    3.26
  -7   3  -2  121.20    3.29
   9  -3   2  236.96    6.22
  -9  -3  -2  235.49    6.18
  -9  -3  -2  233.90    6.23
   9  -3   2  234.95    6.24
  -9  -3  -2  231.20    6.46
  -9  -3  -2  241.53    6.51
  -9  -3  -2  243.06    6.22
  -9  -3  -2  227.38    6.03
   9   3   2  228.03    5.92
  -9   3  -2  218.49    5.92
   9   3   2  221.84    5.73
  -9   3  -2  218.13    5.80
   9   3   2  232.31    5.90
  -9   3  -2  220.81    6.13
  11  -3   2   60.41    1.81
 -11  -3  -2   61.11    1.84
 -11  -3  -2   59.17    1.68
 -11  -3  -2   60.65    2.10
 -11  -3  -2   60.81    2.09
 -11  -3  -2   61.43    1.80
  11  -3   2   62.64    1.85
  11   3   2   88.15    2.41
 -11   3  -2   88.29    2.79
  11   3   2   89.33    2.59
 -11   3  -2   92.16    2.49
  11   3   2   88.40    2.54
 -11   3  -2   91.24    2.59
  13  -3   2   25.77    0.93
 -13  -3  -2   26.96    1.00
 -13  -3  -2   24.99    1.20
 -13  -3  -2   25.26    0.84
  13  -3   2   23.23    1.02
 -13  -3  -2   24.70    1.22
 -13  -3  -2   25.84    0.94
 -13   3  -2   26.43    0.93
 -13   3  -2   26.38    1.01
  13   3   2   27.19    0.87
  13   3   2   26.63    0.98
 -13   3  -2   24.63    1.20
  13   3   2   26.22    1.03
 -15  -3  -2   16.00    0.78
 -15  -3  -2   15.11    0.64
 -15  -3  -2   15.24    0.71
  15  -3   2   14.97    0.81
  15  -3   2   13.96    0.68
 -15  -3  -2   15.30    0.97
 -15  -3  -2   14.91    0.98
  15  -3   2   14.36    0.74
  15   3   2   16.43    0.68
  15   3   2   17.67    0.79
 -15   3  -2   17.04    0.81
  15   3   2   17.28    0.84
 -15   3  -2   17.88    1.03
 -15   3  -2   18.03    0.76
 -17  -3  -2   87.42    2.72
 -17  -3  -2   84.34    3.02
  17  -3   2   88.75    2.70
  17  -3   2   93.38    2.63
 -17  -3  -2   92.06    2.68
 -17  -3  -2   94.44    3.11
  17  -3   2   87.91    2.80
 -17   3  -2   98.22    2.91
  17   3   2   95.39    2.76
 -17   3  -2   95.84    3.18
  17   3   2   98.20    2.87
  17   3   2   97.88    2.99
  19  -3   2    1.59    0.37
 -19  -3  -2    2.24    0.39
 -19  -3  -2    1.42    0.54
 -19  -3  -2    1.29    0.38
 -19  -3  -2    0.95    0.54
  19  -3   2    1.56    0.33
  19  -3   2    0.94    0.39
  19   3   2    1.67    0.37
  19   3   2    1.60    0.42
 -19   3  -2    1.81    0.56
  19   3   2    1.85    0.33
 -21  -3  -2    1.38    0.62
  21  -3   2    1.77    0.50
  21  -3   2    1.72    0.36
 -21  -3  -2    1.86    0.65
 -21  -3  -2    2.20    0.46
  21  -3   2    1.46    0.39
  21   3   2    3.74    0.47
  21   3   2    3.89    0.57
  21   3   2    4.68    0.54
 -21   3  -2    3.23    0.71
  23  -3   2   33.26    1.28
  23  -3   2   34.92    1.55
 -23  -3  -2   34.11    1.46
  23  -3   2   32.59    1.39
 -23  -3  -2   36.65    1.91
 -23  -3  -2   30.72    1.72
 -23   3  -2   37.32    1.82
  23   3   2   34.94    1.45
  23   3   2   35.46    1.39
  23   3   2   36.30    1.63
 -25  -3  -2    5.69    0.71
  25  -3   2    5.35    0.80
  25  -3   2    6.34    0.67
 -25  -3  -2    6.58    1.05
  25  -3   2    5.03    0.71
 -25  -3  -2    4.76    0.91
  25  -3   2    4.92    0.55
 -25   3  -2    4.99    0.91
  25   3   2    5.54    0.66
  25   3   2    5.40    0.79
  25   3   2    5.13    0.60
  27  -3   2   -0.05    0.54
  27  -3   2    0.27    0.46
 -27  -3  -2    0.30    0.75
 -27  -3  -2    0.54    0.48
 -27  -3  -2   -0.10    0.61
  27  -3   2    0.45    0.55
  27   3   2    0.58    0.46
  27   3   2    0.70    0.60
  27   3   2    1.17    0.46
 -27   3  -2   -0.09    0.66
 -29  -3  -2   20.40    1.30
 -29  -3  -2   23.99    1.79
  29  -3   2   19.27    1.38
 -29  -3  -2   23.09    1.74
  29  -3   2   22.78    1.43
  29  -3   2   21.34    1.24
  29   3   2   17.78    1.17
  29   3   2   18.76    1.43
 -29   3  -2   20.23    1.74
  31  -3   2    0.87    0.67
  31  -3   2    1.18    0.54
  31  -3   2    0.99    0.65
 -31  -3  -2    1.65    0.88
 -31  -3  -2    1.02    0.59
  31   3   2    0.25    0.55
  31   3   2    0.48    0.75
 -33  -3  -2    5.35    0.83
 -33  -3  -2    4.76    1.15
  33  -3   2    5.78    1.01
  33  -3   2    5.30    0.95
  33  -3   2    5.99    0.81
  33   3   2    6.23    1.13
  33   3   2    6.06    0.85
  35  -3   2    1.94    0.83
  35  -3   2    1.95    0.67
 -35  -3  -2    1.78    0.71
  35  -3   2    0.98    0.82
 -35  -3  -2    1.65    1.02
  35   3   2    1.16    0.80
  35   3   2    0.68    0.65
 -37  -3  -2    2.02    1.09
  37  -3   2    1.89    0.90
  37  -3   2    0.17    0.60
 -37  -3  -2    1.58    0.73
  37  -3   2    1.55    0.95
  37   3   2    1.41    0.90
  37   3   2    1.01    0.71
  39  -3   2    2.02    0.96
 -38  -4   2    5.11    1.40
  38  -4  -2    3.96    1.24
  38  -4  -2    7.11    1.57
 -36  -4   2    8.61    1.53
  36  -4  -2    5.42    1.23
  36  -4  -2    7.34    1.33
  36  -4  -2    8.25    0.83
  36   4  -2   12.12    1.81
  34  -4  -2    2.38    0.90
  34  -4  -2    3.22    0.62
  34  -4  -2    4.50    1.07
 -34  -4   2    3.67    1.20
  34   4  -2    5.50    1.29
  32  -4  -2    0.33    0.79
  32  -4  -2    0.26    0.45
 -32  -4   2    0.61    0.97
  32  -4  -2    1.22    0.75
  32  -4  -2    0.50    0.75
  32   4  -2    0.19    0.66
  32   4  -2    1.72    0.91
  30  -4  -2    8.71    1.15
  30  -4  -2    8.91    0.79
  30  -4  -2    9.28    1.23
  30  -4  -2   10.47    1.06
  30   4  -2    8.97    1.09
  30   4  -2    8.92    1.35
  28  -4  -2    9.72    1.16
  28  -4  -2    8.31    1.06
  28  -4  -2    9.74    1.04
  28  -4  -2    9.25    0.77
  28   4  -2   13.65    1.46
  28   4  -2   13.62    1.20
  26  -4  -2    3.27    0.52
  26  -4  -2    3.74    0.81
  26  -4  -2    2.17    0.70
  26  -4  -2    3.94    0.70
  26   4  -2    1.47    0.59
  26   4  -2    2.10    0.76
  24  -4  -2   14.50    1.21
  24  -4  -2   14.54    1.22
  24  -4  -2   14.40    1.16
  24  -4  -2   14.31    0.85
  24   4  -2    8.67    1.11
  24   4  -2   11.54    1.05
 -22  -4   2   32.89    1.81
  22  -4  -2   37.01    1.67
  22  -4  -2   35.64    1.33
  22  -4  -2   31.43    1.62
  22  -4  -2   36.48    1.61
  22   4  -2   36.60    1.92
 -22   4   2   39.29    2.64
  22   4  -2   35.67    1.63
 -20  -4   2   -0.21    0.47
  20  -4  -2    0.52    0.31
  20  -4  -2    0.23    0.37
  20  -4  -2   -0.57    0.39
  20  -4  -2    0.49    0.40
 -20   4   2    1.24    0.53
  20   4  -2    1.10    0.47
  20   4  -2    1.92    0.62
  18  -4  -2   52.30    1.95
  18  -4  -2   49.09    1.87
  18  -4  -2   48.15    1.59
 -18  -4   2   44.56    2.03
  18  -4  -2   47.70    1.84
  18   4  -2   56.28    2.01
  18   4  -2   51.32    2.16
 -18   4   2   51.09    2.05
 -16  -4   2   35.37    1.65
  16  -4  -2   35.02    1.22
  16  -4  -2   33.88    1.43
  16  -4  -2   35.16    1.50
  16  -4  -2   32.40    1.53
  16  -4  -2   38.00    1.47
 -16   4   2   34.27    1.52
  16   4  -2   37.63    1.67
  16   4  -2   33.48    1.44
  14  -4  -2   55.82    1.92
  14  -4  -2   56.06    1.99
  14  -4  -2   56.32    2.01
  14  -4  -2   58.56    1.75
  14  -4  -2   57.67    2.02
  14  -4  -2   57.53    2.09
 -14  -4   2   53.36    2.11
 -14   4   2   51.25    1.91
  14   4  -2   49.65    1.98
  14   4  -2   52.76    1.96
  14   4  -2   55.39    1.90
  12  -4  -2   75.14    2.47
 -12  -4   2   69.21    2.48
  12  -4  -2   71.58    2.27
  12  -4  -2   76.77    2.42
  12  -4  -2   74.66    2.13
  12  -4  -2   73.16    2.38
  12  -4  -2   69.98    2.36
  12   4  -2   73.23    2.47
  12   4  -2   75.35    2.55
 -12   4   2   77.48    2.45
  12   4  -2   73.20    2.41
  10  -4  -2    4.39    0.53
 -10  -4   2    4.58    0.55
  10  -4  -2    4.86    0.53
  10  -4  -2    5.39    0.55
  10  -4  -2    4.64    0.53
  10  -4  -2    5.37    0.46
  10  -4  -2    5.05    0.37
  10   4  -2    4.51    0.48
  10   4  -2    4.36    0.52
  10   4  -2    4.19    0.57
 -10   4   2    3.51    0.43
  -8  -4   2   82.27    2.58
  -8  -4   2   80.09    2.36
   8  -4  -2   82.92    2.49
   8  -4  -2   70.63    2.27
   8  -4  -2   83.64    2.56
   8  -4  -2   79.87    2.23
   8  -4  -2   82.08    2.54
   8  -4  -2   79.30    2.46
   8   4  -2   74.36    2.45
   8   4  -2   75.36    2.36
  -8   4   2   73.80    2.35
   8   4  -2   77.72    2.42
   6  -4  -2   55.83    1.56
   6  -4  -2   54.36    1.84
   6  -4  -2   57.03    1.80
   6  -4  -2   53.45    1.75
   6  -4  -2   49.84    1.56
  -6  -4   2   56.79    1.89
  -6  -4   2   55.10    1.67
   6  -4  -2   50.99    1.83
  -6   4   2   76.67    2.34
   6   4  -2   75.51    2.38
   6   4  -2   74.87    2.42
   4  -4  -2    2.36    0.37
  -4  -4   2    2.34    0.27
  -4  -4   2    2.56    0.36
   4  -4  -2    2.51    0.38
   4  -4  -2    2.41    0.32
   4  -4  -2    2.90    0.23
   4  -4  -2    2.39    0.20
   4  -4  -2    1.99    0.32
  -4  -4   2    2.62    0.37
  -4   4   2    2.48    0.33
   4   4  -2    2.88    0.39
   4   4  -2    2.70    0.38
  -2  -4   2  104.17    2.88
   2  -4  -2  107.53    3.11
   2  -4  -2  101.59    2.90
  -2  -4   2  102.51    3.08
   2  -4  -2  101.74    2.76
   2  -4  -2  104.36    3.00
  -2  -4   2  101.60    2.94
   2   4  -2   98.87    3.03
   2   4  -2  103.19    3.05
  -2   4   2  105.44    3.00
   0  -4   2   96.80    2.69
   0  -4  -2   93.12    2.84
   0  -4  -2   94.60    2.78
   0  -4  -2   96.13    2.91
   0  -4   2   94.03    2.70
   0  -4  -2   95.88    2.58
   0  -4  -2   99.24    2.57
   0  -4  -2   95.46    2.66
   0   4  -2   98.14    2.73
   0   4  -2   97.24    2.95
   0   4  -2  101.65    2.99
   0   4   2  101.60    2.95
  -2  -4  -2   33.42    1.28
  -2  -4  -2   35.66    1.35
  -2  -4  -2   34.19    1.21
   2  -4   2   35.77    1.13
  -2  -4  -2   33.40    1.04
   2  -4   2   34.70    1.14
  -2  -4  -2   33.36    1.06
  -2  -4  -2   36.07    1.03
   2   4   2   34.05    0.94
  -2   4  -2   32.70    1.29
  -2   4  -2   33.85    1.08
  -2   4  -2   33.76    1.26
  -2   4  -2   32.95    1.30
  -4  -4  -2   26.25    0.87
   4  -4   2   26.32    0.89
  -4  -4  -2   26.02    0.81
  -4  -4  -2   26.54    0.99
  -4  -4  -2   26.80    1.09
  -4  -4  -2   27.46    1.15
  -4  -4  -2   26.88    0.84
   4  -4   2   28.07    0.96
  -4   4  -2   25.55    0.91
  -4   4  -2   25.37    1.09
  -4   4  -2   27.30    0.88
   4   4   2   26.48    0.82
  -6  -4  -2   31.97    1.30
  -6  -4  -2   30.43    0.88
  -6  -4  -2   30.38    1.23
   6  -4   2   31.12    0.98
  -6  -4  -2   31.27    1.12
  -6  -4  -2   30.15    0.97
  -6  -4  -2   30.75    1.01
   6  -4   2   30.91    1.07
   6  -4   2   31.08    1.10
   6   4   2   30.75    1.02
  -6   4  -2   30.46    1.04
  -6   4  -2   30.04    1.23
   6   4   2   30.20    0.97
  -6   4  -2   31.02    0.97
  -8  -4  -2   84.11    2.70
   8  -4   2   87.19    2.44
  -8  -4  -2   85.60    2.65
  -8  -4  -2   79.18    2.15
  -8  -4  -2   80.25    2.32
   8  -4   2   82.69    2.40
   8  -4   2   83.53    2.28
  -8  -4  -2   81.24    2.45
  -8  -4  -2   81.97    2.37
  -8   4  -2   83.93    2.41
   8   4   2   82.80    2.37
   8   4   2   83.47    2.36
  -8   4  -2   83.01    2.62
  -8   4  -2   81.75    2.30
  10  -4   2  225.30    5.97
  10  -4   2  223.52    5.96
 -10  -4  -2  222.17    6.28
 -10  -4  -2  217.37    5.99
 -10  -4  -2  220.80    5.70
 -10  -4  -2  218.88    6.23
 -10  -4  -2  225.40    5.89
 -10  -4  -2  221.51    5.93
  10   4   2  198.81    5.46
 -10   4  -2  204.98    5.73
 -10   4  -2  199.97    5.36
  10   4   2  203.96    5.45
 -10   4  -2  208.79    5.50
 -12  -4  -2   78.36    2.70
  12  -4   2   80.02    2.38
 -12  -4  -2   79.59    2.40
 -12  -4  -2   78.39    2.66
 -12  -4  -2   79.45    2.15
 -12  -4  -2   78.67    2.37
  12  -4   2   78.57    2.48
 -12  -4  -2   80.80    2.32
  12  -4   2   80.29    2.37
 -12   4  -2   61.62    1.93
  12   4   2   60.43    1.71
 -12   4  -2   61.54    1.82
 -12   4  -2   62.46    2.17
  12   4   2   60.96    1.89
  12   4   2   61.20    1.92
 -14  -4  -2   10.03    0.88
 -14  -4  -2    8.86    0.88
  14  -4   2    9.91    0.64
  14  -4   2   10.05    0.60
 -14  -4  -2   10.49    0.47
 -14  -4  -2   10.08    0.59
  14  -4   2   10.32    0.71
 -14  -4  -2    9.33    0.64
  14   4   2   10.27    0.62
  14   4   2   10.46    0.62
 -14   4  -2    8.25    0.52
  14   4   2    9.24    0.45
 -14   4  -2    9.95    0.64
 -14   4  -2    7.99    0.75
 -16  -4  -2   80.10    2.50
 -16  -4  -2   83.72    2.44
 -16  -4  -2   83.66    2.30
 -16  -4  -2   76.05    2.87
 -16  -4  -2   80.84    2.85
  16  -4   2   79.55    2.47
  16  -4   2   79.03    2.43
  16  -4   2   77.91    2.58
  16   4   2   71.73    2.37
 -16   4  -2   76.19    2.61
  16   4   2   72.60    2.14
 -16   4  -2   74.96    2.64
  16   4   2   75.63    2.30
  18  -4   2    2.35    0.39
 -18  -4  -2    1.65    0.36
 -18  -4  -2    2.63    0.67
 -18  -4  -2    2.92    0.48
  18  -4   2    2.44    0.42
  18  -4   2    2.19    0.47
 -18  -4  -2    2.96    0.74
  18   4   2    3.36    0.47
  18   4   2    3.63    0.55
  18   4   2    2.78    0.36
 -18   4  -2    3.15    0.60
 -20  -4  -2   26.40    1.56
 -20  -4  -2   27.31    1.24
  20  -4   2   26.00    1.17
  20  -4   2   27.18    1.12
  20  -4   2   25.58    1.30
 -20  -4  -2   26.57    1.53
  20   4   2   25.59    1.18
  20   4   2   29.48    1.09
  20   4   2   27.68    1.29
 -20   4  -2   25.26    1.44
  22  -4   2   38.89    1.46
  22  -4   2   37.92    1.53
  22  -4   2   41.08    1.71
 -22  -4  -2   38.15    1.60
 -22  -4  -2   38.31    1.97
 -22  -4  -2   38.27    2.01
  22   4   2   35.82    1.46
  22   4   2   37.42    1.60
  22   4   2   34.87    1.33
 -22   4  -2   34.96    1.81
  24  -4   2    9.66    0.96
  24  -4   2   10.62    0.80
 -24  -4  -2    9.57    0.86
 -24  -4  -2    8.38    1.10
 -24  -4  -2   11.94    1.31
  24  -4   2    9.68    0.83
  24   4   2   11.47    0.76
  24   4   2   11.99    1.03
 -24   4  -2   13.05    1.26
  24   4   2   12.12    0.91
  26  -4   2    8.25    0.78
  26  -4   2    9.01    0.93
  26  -4   2    7.68    0.90
 -26  -4  -2    7.35    0.82
 -26  -4  -2    6.42    1.11
 -26  -4  -2    8.05    1.12
  26   4   2    9.28    0.84
  26   4   2    8.72    0.99
 -26   4  -2    7.41    1.04
  28  -4   2   13.03    1.17
  28  -4   2    9.89    0.90
 -28  -4  -2   13.22    1.49
 -28  -4  -2   12.45    1.06
 -28  -4  -2    9.42    1.30
  28  -4   2   12.93    1.21
  28   4   2   12.89    1.26
 -28   4  -2   12.10    1.38
  28   4   2   16.45    1.11
  30  -4   2    6.62    0.98
  30  -4   2    5.64    0.79
  30  -4   2    6.54    0.94
 -30  -4  -2    5.34    0.82
 -30  -4  -2    5.82    1.22
 -30  -4  -2    3.68    1.18
  30   4   2    8.52    0.94
  30   4   2    6.23    1.01
 -32  -4  -2    3.14    0.73
  32  -4   2    3.09    0.66
  32  -4   2    0.92    0.69
 -32  -4  -2    3.46    1.09
  32  -4   2    3.02    0.91
  32   4   2    1.04    0.63
  32   4   2    2.11    0.78
 -34  -4  -2    2.15    0.71
  34  -4   2    1.51    0.87
 -34  -4  -2    0.59    0.90
  34  -4   2    3.67    0.74
  34  -4   2    2.00    0.82
  34   4   2    2.84    0.76
  34   4   2    4.21    1.06
 -36  -4  -2    3.25    0.82
 -36  -4  -2    3.35    1.20
  36  -4   2    3.90    0.96
  36  -4   2    4.05    1.01
  36  -4   2    3.01    0.75
  36   4   2    2.79    1.09
  38  -4   2    5.14    1.12
 -38  -4  -2    3.44    1.32
  37  -5  -2    9.71    1.50
 -37  -5   2    9.13    1.40
  37  -5  -2   11.86    1.00
  37  -5  -2   10.59    1.71
 -37  -5   2   13.14    1.96
  35  -5  -2   10.17    0.88
 -35  -5   2    9.54    1.22
 -35  -5   2    8.27    1.40
  35  -5  -2    6.99    1.24
  35  -5  -2    7.95    1.34
  35   5  -2    9.23    1.57
  33  -5  -2    1.09    0.90
 -33  -5   2    1.85    0.80
  33  -5  -2    0.15    0.47
 -33  -5   2    0.62    1.02
  33  -5  -2   -0.38    0.69
  33   5  -2    0.71    1.02
  31  -5  -2    1.51    0.87
  31  -5  -2    3.54    0.99
  31  -5  -2    2.57    0.77
 -31  -5   2    2.13    1.08
 -31  -5   2    2.40    0.81
  31  -5  -2    3.03    0.57
  31   5  -2    3.56    1.12
  29  -5  -2    3.36    0.58
  29  -5  -2    3.55    0.88
 -29  -5   2    4.67    1.05
  29  -5  -2    5.11    0.87
  29  -5  -2    6.40    1.01
  29   5  -2    5.41    1.12
  29   5  -2    4.98    0.86
  27  -5  -2   -0.31    0.62
  27  -5  -2    0.82    0.59
  27  -5  -2    0.01    0.57
 -27  -5   2    0.71    0.81
  27  -5  -2    0.60    0.40
  27   5  -2    0.72    0.72
  27   5  -2   -0.39    0.51
  25  -5  -2   35.17    1.41
  25  -5  -2   34.75    1.80
  25  -5  -2   36.95    1.81
  25  -5  -2   35.06    1.72
 -25  -5   2   32.21    1.93
  25   5  -2   34.86    1.69
  25   5  -2   34.36    2.03
  23  -5  -2   12.69    1.14
  23  -5  -2   13.08    1.12
  23  -5  -2   12.37    0.81
  23  -5  -2   11.99    1.07
  23   5  -2   12.70    1.06
  23   5  -2    9.70    1.14
  21  -5  -2    4.76    0.52
  21  -5  -2    4.95    0.75
  21  -5  -2    4.90    0.73
 -21  -5   2    3.88    0.84
  21  -5  -2    5.97    0.79
  21   5  -2    6.26    0.77
  21   5  -2    5.24    0.85
  19  -5  -2   26.77    1.38
 -19  -5   2   25.91    1.59
  19  -5  -2   27.93    1.48
  19  -5  -2   28.45    1.38
  19  -5  -2   28.36    1.12
 -19   5   2   32.51    1.57
  19   5  -2   29.02    1.59
  19   5  -2   28.22    1.40
  17  -5  -2   16.41    0.80
 -17  -5   2   16.04    1.29
  17  -5  -2   15.51    1.04
  17  -5  -2   16.64    0.98
  17  -5  -2   17.34    1.07
  17   5  -2    9.42    1.03
  17   5  -2   10.15    0.87
 -17   5   2    8.45    0.86
  15  -5  -2    7.01    0.73
  15  -5  -2    7.38    0.74
  15  -5  -2    7.07    0.80
  15  -5  -2    8.21    0.76
 -15  -5   2    7.24    0.69
  15  -5  -2    5.96    0.62
  15  -5  -2    6.25    0.49
 -15  -5   2    6.94    0.86
 -15   5   2    8.36    0.82
  15   5  -2    6.52    0.79
  15   5  -2    7.04    0.73
  13  -5  -2   45.87    1.44
  13  -5  -2   43.09    1.56
  13  -5  -2   44.58    1.72
 -13  -5   2   44.96    1.62
  13  -5  -2   44.23    1.71
 -13  -5   2   42.68    1.85
  13  -5  -2   45.31    1.85
  13  -5  -2   43.31    1.69
 -13  -5   2   40.47    1.78
  13   5  -2   39.59    1.54
  13   5  -2   37.32    1.66
 -13   5   2   38.97    1.60
 -11  -5   2   91.48    2.79
  11  -5  -2   87.46    3.01
  11  -5  -2   93.98    2.92
 -11  -5   2   96.07    3.03
  11  -5  -2   89.30    2.72
  11  -5  -2   89.59    2.93
 -11  -5   2   96.63    3.10
  11  -5  -2   97.08    2.93
  11  -5  -2   90.98    2.63
  11   5  -2  101.75    3.18
 -11   5   2  103.49    3.14
  11   5  -2   97.06    3.20
  11   5  -2   95.82    3.06
  -9  -5   2   60.44    2.18
   9  -5  -2   60.83    2.11
   9  -5  -2   57.63    2.03
   9  -5  -2   57.79    1.83
   9  -5  -2   59.87    1.79
   9  -5  -2   60.61    2.03
   9  -5  -2   59.35    2.16
  -9  -5   2   62.60    2.16
  -9  -5   2   62.37    1.95
   9   5  -2   67.60    2.33
  -9   5   2   65.08    2.21
   9   5  -2   67.19    2.29
  -7  -5   2   46.71    1.78
   7  -5  -2   45.32    1.62
   7  -5  -2   49.24    1.44
   7  -5  -2   46.33    1.43
   7  -5  -2   47.23    1.77
   7  -5  -2   47.49    1.75
   7  -5  -2   44.55    1.66
  -7  -5   2   48.05    1.73
  -7  -5   2   47.14    1.57
   7   5  -2   31.03    1.31
  -7   5   2   31.16    1.26
   7   5  -2   30.17    1.31
   5  -5  -2   32.29    1.05
   5  -5  -2   34.71    1.39
   5  -5  -2   28.92    0.98
   5  -5  -2   30.69    1.32
  -5  -5   2   34.58    1.40
  -5  -5   2   34.13    1.18
   5  -5  -2   33.71    1.22
  -5  -5   2   31.45    1.27
   5  -5  -2   34.75    1.30
   5   5  -2   40.26    1.53
  -5   5   2   39.98    1.48
   5   5  -2   37.08    1.50
   3  -5  -2   71.14    2.03
  -3  -5   2   73.97    2.27
   3  -5  -2   65.72    1.90
   3  -5  -2   73.67    2.38
  -3  -5   2   71.53    2.16
   3  -5  -2   71.44    2.18
  -3  -5   2   75.84    2.40
   3  -5  -2   71.57    2.26
   3  -5  -2   71.88    1.93
  -3   5   2   70.49    2.25
   3   5  -2   67.94    2.25
   3   5  -2   68.53    2.29
   1  -5  -2   68.35    2.10
   1  -5  -2   70.07    2.00
   1  -5  -2   70.79    2.24
  -1  -5   2   74.14    2.14
  -1  -5   2   71.03    2.18
   1  -5  -2   69.39    2.35
   1   5  -2   77.49    2.60
   1   5  -2   84.74    2.59
   1   5  -2   81.50    2.35
  -1   5   2   83.54    2.59
  -1  -5  -2    7.73    0.39
  -1  -5  -2    7.64    0.71
  -1  -5  -2    8.16    0.43
  -1  -5  -2    7.98    0.45
  -1  -5  -2    6.92    0.63
  -1  -5  -2    8.18    0.64
   1  -5   2    8.02    0.51
   1  -5   2    8.13    0.52
  -1   5  -2    5.35    0.40
  -1   5  -2    5.44    0.53
   1   5   2    5.87    0.58
  -1   5  -2    5.95    0.60
   3  -5   2   74.92    2.18
   3  -5   2   73.44    2.19
  -3  -5  -2   70.14    2.26
   3  -5   2   73.75    2.27
  -3  -5  -2   71.06    2.08
  -3  -5  -2   76.73    2.06
  -3  -5  -2   71.14    2.07
  -3  -5  -2   71.84    2.43
  -3  -5  -2   71.03    2.38
  -3   5  -2   85.91    2.81
  -3   5  -2   90.59    2.54
  -3   5  -2   87.62    2.53
   3   5   2   86.03    2.37
  -3   5  -2   89.21    2.82
   5  -5   2  124.80    3.62
   5  -5   2  125.86    3.68
  -5  -5  -2  132.31    3.74
  -5  -5  -2  130.36    3.93
  -5  -5  -2  131.38    3.88
  -5  -5  -2  129.39    3.50
   5  -5   2  128.70    3.58
  -5  -5  -2  132.84    3.56
  -5   5  -2  149.13    4.40
  -5   5  -2  153.53    4.09
   5   5   2  147.20    4.02
  -5   5  -2  150.29    4.12
   7  -5   2   42.29    1.39
   7  -5   2   40.07    1.29
  -7  -5  -2   39.53    1.63
  -7  -5  -2   38.96    1.26
  -7  -5  -2   40.36    1.32
  -7  -5  -2   39.81    1.17
   7  -5   2   41.77    1.42
  -7  -5  -2   39.22    1.45
  -7  -5  -2   38.98    1.59
  -7   5  -2   33.48    1.13
  -7   5  -2   34.19    1.44
  -7   5  -2   36.74    1.22
   7   5   2   33.00    1.14
  -9  -5  -2   51.80    1.39
  -9  -5  -2   50.06    1.72
  -9  -5  -2   49.03    1.60
   9  -5   2   50.91    1.64
   9  -5   2   47.94    1.65
  -9  -5  -2   50.78    1.54
  -9  -5  -2   48.64    1.94
   9  -5   2   50.25    1.54
  -9  -5  -2   47.55    1.90
  -9   5  -2   52.64    1.58
  -9   5  -2   49.22    1.89
  -9   5  -2   51.89    1.68
   9   5   2   50.73    1.63
 -11  -5  -2   46.38    1.86
 -11  -5  -2   44.78    1.27
 -11  -5  -2   45.33    1.62
  11  -5   2   46.05    1.55
 -11  -5  -2   45.56    1.46
  11  -5   2   45.62    1.42
  11  -5   2   45.62    1.58
 -11  -5  -2   45.66    1.53
 -11  -5  -2   44.38    1.87
 -11   5  -2   52.82    1.99
 -11   5  -2   54.71    1.76
 -11   5  -2   51.40    1.62
  11   5   2   52.37    1.73
 -13  -5  -2   33.76    1.56
 -13  -5  -2   33.62    1.19
 -13  -5  -2   30.49    1.30
  13  -5   2   34.28    1.39
 -13  -5  -2   33.33    0.99
 -13  -5  -2   33.57    1.27
  13  -5   2   34.61    1.29
 -13  -5  -2   34.55    1.65
  13  -5   2   32.85    1.26
  13   5   2   31.48    1.23
 -13   5  -2   31.90    1.28
  13   5   2   32.37    1.22
 -13   5  -2   31.51    1.12
 -13   5  -2   30.74    1.47
 -15  -5  -2   36.83    1.80
 -15  -5  -2   34.18    1.66
 -15  -5  -2   34.19    1.27
 -15  -5  -2   32.46    1.35
  15  -5   2   36.45    1.36
 -15  -5  -2   37.07    1.41
  15  -5   2   35.76    1.47
 -15  -5  -2   36.53    1.10
  15  -5   2   36.00    1.35
 -15   5  -2   25.43    1.38
 -15   5  -2   28.15    1.36
  15   5   2   26.14    1.16
  15   5   2   26.08    1.12
  17  -5   2   37.75    1.44
 -17  -5  -2   39.47    1.35
  17  -5   2   35.74    1.41
  17  -5   2   34.83    1.53
 -17  -5  -2   38.46    1.87
 -17  -5  -2   35.23    1.76
 -17  -5  -2   38.23    1.56
 -17  -5  -2   37.28    1.47
  17   5   2   33.39    1.39
 -17   5  -2   37.98    1.71
  17   5   2   37.46    1.50
  17   5   2   36.16    1.19
  19  -5   2    3.06    0.57
 -19  -5  -2    4.48    0.82
  19  -5   2    4.06    0.52
 -19  -5  -2    4.02    0.57
  19  -5   2    3.87    0.52
 -19  -5  -2    4.47    0.83
  19   5   2    4.82    0.65
 -19   5  -2    4.13    0.75
  19   5   2    4.91    0.45
  19   5   2    3.73    0.53
  21  -5   2   23.22    1.14
  21  -5   2   22.27    1.25
  21  -5   2   23.77    1.09
 -21  -5  -2   21.50    1.53
 -21  -5  -2   23.21    1.64
 -21  -5  -2   21.85    1.18
  21   5   2   19.12    1.07
  21   5   2   19.60    1.14
  21   5   2   19.76    0.89
  23  -5   2    7.30    0.71
 -23  -5  -2    5.77    0.96
  23  -5   2    3.68    0.67
 -23  -5  -2    5.23    0.68
  23  -5   2    5.51    0.64
 -23  -5  -2    6.98    1.12
 -23   5  -2    3.41    0.83
  23   5   2    3.13    0.55
  23   5   2    3.02    0.62
 -25  -5  -2   12.40    1.02
  25  -5   2   12.43    0.94
 -25  -5  -2   12.22    1.43
  25  -5   2   12.82    0.93
  25  -5   2   13.75    1.18
 -25  -5  -2   12.29    1.39
 -25   5  -2   18.57    1.55
  25   5   2   13.46    1.04
  25   5   2   14.07    1.22
  27  -5   2   27.74    1.61
 -27  -5  -2   25.07    1.96
 -27  -5  -2   29.91    1.54
 -27  -5  -2   29.20    2.06
  27  -5   2   30.81    1.44
  27  -5   2   28.75    1.59
 -27   5  -2   28.42    1.83
  27   5   2   32.03    1.54
  27   5   2   29.14    1.65
  29  -5   2    2.46    0.73
 -29  -5  -2    2.29    0.93
 -29  -5  -2    1.26    0.95
  29  -5   2    2.12    0.72
  29  -5   2    1.85    0.62
 -29  -5  -2    0.98    0.63
  29   5   2    1.01    0.65
  31  -5   2    2.61    0.80
  31  -5   2    3.10    0.70
 -31  -5  -2    3.15    0.77
 -31  -5  -2    2.54    1.00
  31  -5   2    3.01    0.90
  31   5   2    1.93    0.84
  33  -5   2    4.61    0.80
  33  -5   2    7.56    1.15
 -33  -5  -2    7.84    0.95
  33  -5   2    7.54    1.10
 -33  -5  -2    6.63    1.39
  33   5   2    8.59    1.34
  35  -5   2   10.94    1.36
  35  -5   2   10.28    1.37
 -35  -5  -2    9.78    1.11
 -35  -5  -2    8.02    1.45
  35  -5   2    9.22    1.00
  35   5   2    7.49    1.24
 -37  -5  -2    6.69    1.41
  37  -5   2    9.82    1.40
  37   5   2    9.00    1.44
 -36  -6   2    0.81    1.01
  36  -6  -2    3.24    0.62
  36  -6  -2    2.31    1.03
  36   6  -2    2.19    1.42
  34  -6  -2    1.81    0.55
 -34  -6   2    1.63    0.86
  34  -6  -2    2.23    0.97
  34  -6  -2    0.84    0.94
 -34  -6   2    3.27    1.31
  34   6  -2    0.02    1.06
  32  -6  -2    9.80    1.34
  32  -6  -2   12.06    0.92
  32  -6  -2   10.82    1.37
 -32  -6   2   11.46    1.25
 -32  -6   2   13.97    1.70
  32   6  -2   10.13    1.48
  30  -6  -2    0.49    0.70
 -30  -6   2    1.11    0.73
 -30  -6   2    0.17    0.99
  30  -6  -2    0.04    0.80
  30  -6  -2    0.19    0.64
  30  -6  -2   -0.01    0.44
  30   6  -2    0.07    0.85
 -28  -6   2   12.10    1.46
 -28  -6   2   11.09    1.13
  28  -6  -2   10.76    0.84
  28  -6  -2   11.77    1.28
  28  -6  -2   10.53    1.15
  28  -6  -2   13.99    1.32
  28   6  -2   10.79    1.46
 -26  -6   2   11.32    1.12
  26  -6  -2   11.14    0.81
 -26  -6   2   11.89    1.47
  26  -6  -2    9.92    1.10
  26  -6  -2   11.44    1.22
  26  -6  -2   12.34    1.17
  26   6  -2   13.71    1.21
  26   6  -2   11.10    1.34
  24  -6  -2    2.41    0.46
  24  -6  -2    2.97    0.77
 -24  -6   2    3.06    0.69
 -24  -6   2    4.20    1.01
  24  -6  -2    2.46    0.68
  24  -6  -2    2.04    0.61
  24   6  -2    1.39    0.60
  24   6  -2    1.56    0.73
  22  -6  -2   20.02    1.30
  22  -6  -2   20.61    1.35
 -22  -6   2   20.35    1.28
  22  -6  -2   20.30    1.00
 -22  -6   2   17.53    1.54
  22  -6  -2   18.99    1.25
  22   6  -2   19.80    1.62
  22   6  -2   16.32    1.14
  20  -6  -2    8.49    0.99
 -20  -6   2    7.02    0.98
  20  -6  -2    9.81    0.91
  20  -6  -2    7.53    0.90
  20  -6  -2    9.09    0.68
 -20  -6   2    7.79    1.04
 -20  -6   2   10.56    0.96
  20   6  -2    6.22    0.78
  20   6  -2    5.43    0.86
  18  -6  -2  104.76    3.36
  18  -6  -2  109.67    3.15
  18  -6  -2  110.24    3.55
 -18  -6   2  107.14    3.75
 -18  -6   2  106.74    3.40
  18  -6  -2  103.00    3.48
 -18  -6   2  108.09    3.81
  18   6  -2  103.72    3.59
  18   6  -2   96.52    3.25
 -18   6   2  101.60    3.41
  16  -6  -2   62.65    2.13
  16  -6  -2   58.51    2.26
 -16  -6   2   57.99    2.48
  16  -6  -2   62.89    1.95
  16  -6  -2   61.19    2.28
 -16  -6   2   56.90    2.14
 -16  -6   2   62.87    2.47
  16  -6  -2   62.09    2.27
  16   6  -2   69.05    2.41
  16   6  -2   66.70    2.65
 -16   6   2   69.60    2.54
  14  -6  -2   48.79    1.93
 -14  -6   2   44.65    2.00
  14  -6  -2   47.65    1.59
 -14  -6   2   49.05    1.81
 -14  -6   2   47.01    2.09
  14  -6  -2   51.22    1.94
  14  -6  -2   48.91    1.72
  14  -6  -2   49.17    1.92
  14   6  -2   56.36    2.32
  14   6  -2   60.69    2.17
 -14   6   2   63.37    2.28
  12  -6  -2   81.64    2.65
 -12  -6   2   78.74    2.78
  12  -6  -2   74.66    2.62
  12  -6  -2   78.71    2.32
  12  -6  -2   80.10    2.41
 -12  -6   2   76.86    2.82
  12  -6  -2   78.66    2.82
 -12  -6   2   75.67    2.50
  12  -6  -2   75.65    2.62
  12   6  -2   73.15    2.66
 -12   6   2   76.53    2.60
  10  -6  -2    1.86    0.43
 -10  -6   2    1.74    0.53
  10  -6  -2    1.70    0.50
  10  -6  -2    2.19    0.46
  10  -6  -2    2.53    0.51
 -10  -6   2    1.88    0.40
  10  -6  -2    2.06    0.30
 -10  -6   2    0.90    0.43
  10  -6  -2    2.26    0.35
  10   6  -2    2.45    0.53
 -10   6   2    3.27    0.55
  -8  -6   2   26.34    1.12
   8  -6  -2   28.34    0.99
   8  -6  -2   26.47    1.22
   8  -6  -2   24.96    1.25
   8  -6  -2   26.63    1.19
   8  -6  -2   25.52    0.96
  -8  -6   2   26.82    1.37
  -8  -6   2   26.49    1.28
   8  -6  -2   30.42    1.41
   8   6  -2   23.16    1.18
  -8   6   2   24.81    1.17
   6  -6  -2   89.57    2.53
  -6  -6   2   90.61    2.89
   6  -6  -2   91.06    2.85
   6  -6  -2   91.15    2.55
   6  -6  -2   88.78    2.76
   6  -6  -2   86.65    2.89
  -6  -6   2   88.64    2.98
   6  -6  -2   87.02    2.96
  -6  -6   2   88.98    2.70
   6   6  -2   96.98    3.14
  -6   6   2   97.11    3.07
   6   6  -2   96.52    3.09
  -4  -6   2    3.73    0.57
  -4  -6   2    3.80    0.43
   4  -6  -2    3.60    0.45
   4  -6  -2    3.91    0.29
   4  -6  -2    2.86    0.53
   4  -6  -2    3.41    0.33
  -4  -6   2    3.22    0.46
   4  -6  -2    3.93    0.50
  -4   6   2    2.53    0.45
   4   6  -2    3.09    0.53
   4   6  -2    2.93    0.49
   2  -6  -2   30.53    1.38
   2  -6  -2   29.96    1.28
   2  -6  -2   31.37    1.06
  -2  -6   2   29.40    1.22
  -2  -6   2   31.28    1.18
   2  -6  -2   31.30    1.18
   2  -6  -2   31.35    0.87
  -2   6   2   34.34    1.46
   2   6  -2   34.82    1.22
   2   6  -2   34.11    1.42
   2   6  -2   37.31    1.53
   0  -6  -2   62.11    2.19
   0  -6   2   61.85    1.96
   0  -6   2   61.05    2.01
   0  -6  -2   60.90    1.91
   0  -6  -2   61.34    2.07
   0  -6  -2   59.18    2.19
   0  -6  -2   61.29    1.83
   0  -6  -2   61.47    1.80
   0   6  -2   59.75    2.04
   0   6  -2   58.81    1.83
   0   6   2   59.92    2.11
   0   6  -2   57.12    2.12
  -2  -6  -2    8.55    0.76
   2  -6   2    8.66    0.59
  -2  -6  -2    8.98    0.51
  -2  -6  -2    8.40    0.51
  -2  -6  -2    8.56    0.46
  -2  -6  -2    7.74    0.75
   2  -6   2    8.72    0.61
   2  -6   2    8.79    0.70
  -2  -6  -2    9.91    0.77
  -2   6  -2    9.06    0.82
  -2   6  -2    8.68    0.56
  -2   6  -2    9.96    0.70
  -2   6  -2    8.83    0.83
   2   6   2    9.28    0.37
   2   6   2    9.77    0.82
   4  -6   2  102.71    3.00
  -4  -6  -2  103.84    3.29
  -4  -6  -2  103.46    3.13
  -4  -6  -2   97.35    2.85
   4  -6   2  104.27    3.01
  -4  -6  -2  102.04    3.31
   4  -6   2   99.54    3.08
  -4  -6  -2  104.61    2.91
  -4  -6  -2  102.28    2.84
  -4   6  -2  106.02    3.40
  -4   6  -2  106.99    3.05
  -4   6  -2  105.93    3.39
   4   6   2  104.12    2.90
   6  -6   2   14.54    0.70
   6  -6   2   12.99    0.73
  -6  -6  -2   14.07    0.62
  -6  -6  -2   14.75    1.03
  -6  -6  -2   12.70    0.82
  -6  -6  -2   13.83    0.68
  -6  -6  -2   12.73    0.59
  -6  -6  -2   13.69    0.96
   6  -6   2   13.98    0.82
  -6   6  -2    9.32    0.59
  -6   6  -2    6.92    0.72
   6   6   2    8.24    0.48
   8  -6   2   19.38    0.85
  -8  -6  -2   22.03    0.74
  -8  -6  -2   21.30    0.82
   8  -6   2   19.65    0.92
   8  -6   2   20.01    0.96
  -8  -6  -2   20.81    0.89
  -8  -6  -2   21.43    1.03
  -8  -6  -2   20.63    1.20
  -8  -6  -2   17.04    1.09
  -8   6  -2   22.08    1.19
  -8   6  -2   21.48    0.95
   8   6   2   21.59    0.89
 -10  -6  -2   56.07    2.02
 -10  -6  -2   58.17    2.32
 -10  -6  -2   60.16    2.25
 -10  -6  -2   57.00    1.88
 -10  -6  -2   57.32    1.63
  10  -6   2   57.91    1.82
  10  -6   2   56.83    1.97
  10  -6   2   58.16    1.91
 -10  -6  -2   59.59    1.80
 -10   6  -2   48.47    1.96
 -10   6  -2   50.72    1.96
  10   6   2   50.60    1.69
 -12  -6  -2   38.68    1.54
 -12  -6  -2   40.43    1.32
 -12  -6  -2   38.36    1.81
  12  -6   2   36.26    1.29
 -12  -6  -2   36.88    1.10
  12  -6   2   40.68    1.50
 -12  -6  -2   35.01    1.39
  12  -6   2   35.91    1.41
 -12  -6  -2   38.53    1.78
 -12   6  -2   36.65    1.64
  12   6   2   37.68    1.42
 -14  -6  -2   14.22    0.75
  14  -6   2   14.96    0.86
 -14  -6  -2   13.49    0.84
 -14  -6  -2   15.88    0.94
  14  -6   2   14.34    0.98
 -14  -6  -2   13.11    1.20
 -14  -6  -2   14.44    0.54
 -14  -6  -2   14.25    1.11
  14  -6   2   14.41    0.86
  14   6   2   10.78    0.76
 -14   6  -2    9.03    0.89
 -16  -6  -2    5.87    0.62
 -16  -6  -2    7.37    1.00
  16  -6   2    5.36    0.58
  16  -6   2    7.56    0.68
 -16  -6  -2    5.30    0.85
 -16  -6  -2    7.17    0.71
  16  -6   2    6.35    0.71
  16   6   2    3.59    0.55
 -16   6  -2    2.14    0.57
  18  -6   2   43.23    1.67
 -18  -6  -2   43.90    1.75
  18  -6   2   47.36    1.74
  18  -6   2   45.91    1.88
 -18  -6  -2   42.01    2.14
 -18  -6  -2   44.04    1.72
 -18  -6  -2   44.95    2.15
 -18   6  -2   44.59    2.04
  18   6   2   45.94    1.82
  20  -6   2    2.20    0.48
  20  -6   2    1.66    0.48
 -20  -6  -2    1.94    0.52
 -20  -6  -2    1.94    0.77
 -20  -6  -2    2.99    0.55
  20  -6   2    1.92    0.60
 -20  -6  -2    3.56    0.86
  20   6   2    2.61    0.60
 -20   6  -2    3.19    0.71
 -22  -6  -2   16.56    1.60
  22  -6   2   14.30    0.98
  22  -6   2   14.13    0.97
 -22  -6  -2   15.59    1.06
 -22  -6  -2   14.16    1.04
 -22  -6  -2   16.12    1.54
  22  -6   2   11.63    1.05
  22   6   2   15.71    1.17
 -22   6  -2   15.54    1.32
  24  -6   2    9.49    1.04
 -24  -6  -2    9.05    1.02
  24  -6   2    8.57    0.82
 -24  -6  -2    9.55    1.25
 -24  -6  -2    7.95    0.86
 -24  -6  -2    8.54    1.31
  24  -6   2    8.64    0.84
  24   6   2    7.81    0.92
 -24   6  -2   10.32    1.22
 -26  -6  -2    4.26    1.00
 -26  -6  -2    4.34    1.07
  26  -6   2    3.42    0.64
 -26  -6  -2    2.21    0.66
  26  -6   2    3.65    0.79
 -26   6  -2    3.21    1.09
  26   6   2    5.09    0.86
 -28  -6  -2   10.61    1.54
  28  -6   2    8.49    1.07
  28  -6   2    9.12    1.02
 -28  -6  -2   11.76    1.06
 -28  -6  -2    8.31    1.41
  28  -6   2    8.80    0.89
  28   6   2   11.92    1.23
  30  -6   2    3.62    0.87
 -30  -6  -2    1.77    0.70
  30  -6   2    1.80    0.63
 -30  -6  -2    1.29    0.93
  30  -6   2    2.71    0.84
  30   6   2    0.35    0.77
  32  -6   2    1.18    0.75
 -32  -6  -2    1.34    0.70
  32  -6   2    1.70    0.66
 -32  -6  -2    0.50    0.92
  32  -6   2    2.16    0.91
  32   6   2    1.57    0.89
  34  -6   2   23.88    1.69
 -34  -6  -2   19.46    1.48
 -34  -6  -2   24.27    2.24
  34  -6   2   21.06    1.44
  34  -6   2   21.87    1.81
  34   6   2   22.43    1.91
  36  -6   2    5.39    1.17
 -36  -6  -2    8.98    1.66
  36  -6   2    6.43    1.14
  36   6   2    5.60    1.27
  35  -7  -2    7.39    1.28
  35  -7  -2    5.95    0.72
  35   7  -2    3.01    1.21
  33  -7  -2    5.58    1.17
  33  -7  -2    4.28    1.10
 -33  -7   2    8.25    1.52
  33  -7  -2    6.17    0.71
 -33  -7   2    7.42    1.16
  33   7  -2    6.65    1.49
 -31  -7   2    0.99    0.81
  31  -7  -2    1.22    0.96
  31  -7  -2    1.56    0.88
  31  -7  -2    1.14    0.53
 -31  -7   2    3.18    1.23
  31  -7  -2    1.26    0.80
  31   7  -2    3.99    1.18
  29  -7  -2    8.45    1.25
 -29  -7   2    5.03    0.99
  29  -7  -2    6.90    1.06
 -29  -7   2    5.10    1.22
  29  -7  -2    4.08    0.95
  29  -7  -2    6.76    0.72
  29   7  -2    2.55    0.98
  27  -7  -2    1.52    0.75
  27  -7  -2    3.19    0.81
 -27  -7   2    1.41    0.94
 -27  -7   2    2.41    0.77
  27  -7  -2    1.80    0.49
  27  -7  -2    3.89    0.90
  27   7  -2    1.85    0.92
  25  -7  -2    9.48    1.03
  25  -7  -2    7.43    0.69
 -25  -7   2    7.24    1.20
  25  -7  -2    7.46    1.05
  25  -7  -2    6.05    0.94
 -25  -7   2    8.04    1.01
  25   7  -2    2.36    0.84
  25   7  -2    2.46    0.69
  23  -7  -2   13.60    1.24
  23  -7  -2   13.15    0.85
  23  -7  -2   10.52    1.14
  23  -7  -2   12.23    1.09
 -23  -7   2   10.10    1.30
 -23  -7   2   11.05    1.09
  23   7  -2   13.56    1.48
  23   7  -2   12.40    1.11
  21  -7  -2   15.88    0.91
  21  -7  -2   15.96    1.18
 -21  -7   2   14.03    1.40
  21  -7  -2   15.58    1.28
 -21  -7   2   17.71    1.28
  21  -7  -2   16.67    1.37
  21   7  -2   15.13    1.41
  21   7  -2   12.77    1.08
  19  -7  -2   15.53    1.12
  19  -7  -2   13.43    0.99
 -19  -7   2   16.84    1.21
  19  -7  -2   13.74    1.19
 -19  -7   2   15.42    1.41
  19  -7  -2   14.78    0.86
  19   7  -2   10.10    1.16
  19   7  -2    9.37    0.94
  17  -7  -2   37.27    1.68
 -17  -7   2   34.58    1.93
  17  -7  -2   34.37    1.69
 -17  -7   2   30.69    1.86
  17  -7  -2   37.56    1.37
  17  -7  -2   38.75    1.57
  17  -7  -2   34.95    1.69
 -17  -7   2   35.81    1.62
  17   7  -2   34.71    1.83
  15  -7  -2   20.48    1.24
 -15  -7   2   20.31    1.39
 -15  -7   2   21.21    1.41
  15  -7  -2   21.05    1.23
  15  -7  -2   19.40    1.04
  15  -7  -2   20.89    1.23
 -15  -7   2   20.80    1.20
  15  -7  -2   21.63    0.96
 -15   7   2   14.97    1.14
  15   7  -2   19.70    1.26
 -13  -7   2  154.31    4.52
  13  -7  -2  161.00    4.29
  13  -7  -2  150.04    4.64
  13  -7  -2  154.41    4.67
  13  -7  -2  156.66    4.36
 -13  -7   2  141.21    4.77
 -13  -7   2  153.20    4.91
  13  -7  -2  149.11    4.62
  13   7  -2  147.52    4.70
 -13   7   2  150.54    4.62
  11  -7  -2    0.84    0.42
 -11  -7   2    0.76    0.50
  11  -7  -2    0.66    0.44
 -11  -7   2    0.99    0.54
  11  -7  -2    0.52    0.30
 -11  -7   2    0.91    0.40
  11  -7  -2    0.95    0.29
  11  -7  -2    1.17    0.49
  11   7  -2    2.78    0.62
 -11   7   2    3.79    0.65
  -9  -7   2   65.16    2.23
   9  -7  -2   61.21    2.31
   9  -7  -2   67.65    2.01
   9  -7  -2   64.79    2.38
  -9  -7   2   66.00    2.49
  -9  -7   2   64.22    2.54
   9  -7  -2   66.98    2.56
   9  -7  -2   68.68    2.04
   9  -7  -2   66.57    2.32
   9   7  -2   65.92    2.47
  -9   7   2   69.78    2.46
   7  -7  -2   52.24    2.04
  -7  -7   2   50.23    2.09
  -7  -7   2   55.35    1.86
   7  -7  -2   52.16    1.90
   7  -7  -2   48.57    1.92
  -7  -7   2   49.79    2.01
   7  -7  -2   50.28    1.64
   7  -7  -2   53.39    1.66
  -7   7   2   63.59    2.23
   7   7  -2   55.33    2.17
  -5  -7   2    8.89    0.71
   5  -7  -2    9.08    0.47
  -5  -7   2    6.16    0.69
  -5  -7   2    7.88    0.86
   5  -7  -2    6.66    0.73
   5  -7  -2    6.99    0.72
   5  -7  -2    7.08    0.52
   5  -7  -2    8.16    0.69
  -5   7   2    4.17    0.62
   5   7  -2    4.71    0.63
  -3  -7   2   18.46    1.15
   3  -7  -2   20.01    0.82
  -3  -7   2   20.05    1.07
   3  -7  -2   19.79    1.17
   3  -7  -2   18.76    1.08
  -3  -7   2   20.42    0.99
   3  -7  -2   19.34    0.96
   3  -7  -2   18.89    0.65
   3   7  -2   15.64    0.96
   3   7  -2   15.63    0.79
  -3   7   2   18.28    1.07
   1  -7  -2   19.92    0.58
  -1  -7   2   18.88    1.05
   1  -7  -2   20.98    0.94
   1  -7  -2   18.32    1.13
  -1  -7   2   21.13    1.05
   1  -7  -2   19.31    1.09
  -1  -7   2   18.65    0.95
   1  -7  -2   20.23    0.84
  -1   7   2   20.76    1.14
   1   7  -2   20.99    0.91
   1   7  -2   19.19    1.05
   1  -7   2   14.39    0.85
  -1  -7  -2   13.27    1.01
   1  -7   2   16.48    0.85
  -1  -7  -2   14.85    0.72
  -1  -7  -2   15.50    0.78
  -1  -7  -2   14.54    0.95
  -1  -7  -2   12.36    0.97
  -1  -7  -2   14.05    0.47
  -1  -7  -2   15.74    0.67
  -1   7  -2   17.20    1.16
   1   7   2   17.82    1.10
  -1   7  -2   17.14    0.97
  -1   7  -2   17.74    0.84
  -3  -7  -2    2.26    0.34
   3  -7   2    1.11    0.42
  -3  -7  -2    1.62    0.55
   3  -7   2    1.88    0.38
  -3  -7  -2    1.88    0.50
   3  -7   2    2.46    0.40
  -3  -7  -2    1.44    0.32
  -3  -7  -2    1.99    0.47
  -3  -7  -2    1.83    0.28
  -3   7  -2    2.53    0.41
   3   7   2    2.66    0.26
  -3   7  -2    2.26    0.55
  -5  -7  -2   28.20    1.49
   5  -7   2   27.52    1.17
  -5  -7  -2   28.39    1.09
  -5  -7  -2   27.35    1.01
   5  -7   2   29.08    1.18
   5  -7   2   27.74    1.25
  -5  -7  -2   27.46    1.44
  -5  -7  -2   26.47    1.27
   5   7   2   26.47    0.97
  -5   7  -2   28.62    1.44
   7  -7   2   23.01    1.04
  -7  -7  -2   22.33    0.98
  -7  -7  -2   20.99    1.27
   7  -7   2   23.06    1.11
  -7  -7  -2   23.03    1.19
  -7  -7  -2   22.04    1.37
  -7  -7  -2   23.25    0.89
  -7  -7  -2   23.08    0.89
   7  -7   2   21.97    1.01
  -7   7  -2   26.12    1.38
   7   7   2   27.01    1.04
  -9  -7  -2   22.48    1.19
  -9  -7  -2   21.83    1.31
   9  -7   2   20.94    1.11
  -9  -7  -2   21.06    0.99
   9  -7   2   21.41    0.97
  -9  -7  -2   20.54    1.39
   9  -7   2   21.15    1.02
  -9  -7  -2   22.37    0.82
  -9  -7  -2   21.87    0.89
  -9   7  -2   20.16    1.24
   9   7   2   24.67    1.02
 -11  -7  -2   42.88    1.69
 -11  -7  -2   40.25    1.40
 -11  -7  -2   38.11    1.50
  11  -7   2   41.00    1.55
  11  -7   2   39.49    1.59
 -11  -7  -2   40.60    1.25
  11  -7   2   40.34    1.45
 -11  -7  -2   41.55    1.96
 -11  -7  -2   44.40    1.94
 -11   7  -2   49.23    2.07
  11   7   2   49.38    1.76
  13  -7   2    4.49    0.65
 -13  -7  -2    4.50    0.83
 -13  -7  -2    4.88    0.84
  13  -7   2    5.02    0.50
 -13  -7  -2    5.26    0.58
 -13  -7  -2    5.28    0.68
  13  -7   2    5.13    0.58
  13  -7   2    4.96    0.64
 -13   7  -2    3.17    0.64
  13   7   2    3.39    0.51
 -15  -7  -2   23.73    1.50
 -15  -7  -2   22.96    1.15
 -15  -7  -2   21.99    1.28
  15  -7   2   23.92    1.26
  15  -7   2   21.36    1.17
  15  -7   2   23.18    1.13
 -15  -7  -2   22.94    1.56
 -15   7  -2   29.59    1.56
  15   7   2   28.25    1.33
  17  -7   2   51.26    1.93
 -17  -7  -2   48.32    1.87
 -17  -7  -2   56.33    2.55
  17  -7   2   47.53    1.84
  17  -7   2   49.41    2.01
 -17  -7  -2   51.26    2.01
 -17  -7  -2   50.02    2.38
 -17   7  -2   60.48    2.45
  17   7   2   54.84    2.14
  19  -7   2    1.83    0.50
 -19  -7  -2    1.42    0.75
 -19  -7  -2    1.74    0.57
  19  -7   2    1.00    0.56
  19  -7   2    1.73    0.51
 -19  -7  -2    3.31    0.59
 -19  -7  -2    0.55    0.71
 -19   7  -2    1.74    0.62
  19   7   2    1.82    0.57
  21  -7   2   17.62    1.14
 -21  -7  -2   15.40    1.12
  21  -7   2   17.68    1.10
  21  -7   2   17.32    1.23
 -21  -7  -2   17.61    1.70
 -21  -7  -2   21.08    1.72
 -21  -7  -2   15.90    1.13
  21   7   2   17.63    1.27
 -21   7  -2   18.40    1.53
 -23  -7  -2    5.85    0.84
 -23  -7  -2    6.65    1.19
 -23  -7  -2    5.94    0.77
  23  -7   2    6.65    0.78
 -23  -7  -2    6.59    1.19
  23  -7   2    6.88    0.98
  23  -7   2    6.24    0.74
  23   7   2    8.45    1.01
 -23   7  -2    9.83    1.23
  25  -7   2   10.87    1.02
  25  -7   2    9.49    1.07
 -25  -7  -2    9.17    0.95
 -25  -7  -2   11.95    1.59
  25  -7   2   11.72    0.98
 -25  -7  -2   14.14    1.55
  25   7   2    7.46    0.97
  27  -7   2    1.85    0.61
 -27  -7  -2    1.61    0.94
  27  -7   2    1.43    0.72
 -27  -7  -2    1.60    0.62
  27   7   2    1.05    0.72
  29  -7   2    6.03    0.84
  29  -7   2    5.39    0.89
 -29  -7  -2    6.86    0.92
  29  -7   2    6.56    1.15
 -29  -7  -2    7.58    1.47
  29   7   2    5.76    1.08
  31  -7   2    0.32    0.61
  31  -7   2    1.30    0.88
  31  -7   2    0.93    0.79
 -31  -7  -2    0.67    1.00
 -31  -7  -2    0.78    0.67
  31   7   2    1.35    0.89
 -33  -7  -2    2.86    0.84
  33  -7   2    1.84    0.90
  33  -7   2    2.90    0.77
 -33  -7  -2    2.22    1.26
  33  -7   2    2.40    0.85
  33   7   2    3.71    1.12
 -35  -7  -2   19.02    2.18
  35  -7   2   17.43    1.59
  35   7   2   15.09    1.75
  34   8  -2   -0.08    1.01
  32  -8  -2    0.56    0.50
  32  -8  -2    0.55    0.92
 -32  -8   2    2.31    1.16
  32  -8  -2    1.74    1.08
 -32  -8   2    1.65    0.90
  32   8  -2    1.53    1.18
  30  -8  -2    4.67    1.13
  30  -8  -2    4.15    0.97
  30  -8  -2    4.73    0.65
 -30  -8   2    4.00    1.36
 -30  -8   2    3.91    1.00
  30  -8  -2    4.02    0.98
  30   8  -2    5.68    1.31
  28  -8  -2    0.76    0.72
  28  -8  -2    0.86    0.75
  28  -8  -2   -0.23    0.43
  28  -8  -2    1.02    0.80
 -28  -8   2    1.10    1.00
 -28  -8   2    1.05    0.76
  28   8  -2    2.33    1.03
  26  -8  -2    5.45    0.96
 -26  -8   2    6.36    1.23
 -26  -8   2    5.72    0.96
  26  -8  -2    5.66    0.65
  26  -8  -2    6.60    1.06
  26  -8  -2    5.18    1.01
  26   8  -2    6.96    1.28
 -24  -8   2   14.35    1.57
  24  -8  -2   12.82    1.33
 -24  -8   2   15.83    1.33
  24  -8  -2   13.12    1.30
  24  -8  -2   14.24    1.23
  24  -8  -2   13.74    0.93
  24   8  -2   24.60    1.86
  22  -8  -2    6.52    0.87
  22  -8  -2   10.59    1.20
  22  -8  -2    8.55    0.72
 -22  -8   2    8.09    1.23
  22  -8  -2    7.99    1.08
 -22  -8   2    6.96    0.96
  22   8  -2    5.73    1.02
  20  -8  -2    7.76    0.85
 -20  -8   2    8.34    1.20
 -20  -8   2    4.33    0.79
  20  -8  -2    6.25    0.63
  20  -8  -2    6.68    1.00
  20  -8  -2    4.80    0.82
  20   8  -2    6.45    1.06
  18  -8  -2   20.06    1.29
  18  -8  -2   17.58    0.96
  18  -8  -2   21.19    1.18
 -18  -8   2   17.27    1.26
  18  -8  -2   18.08    1.31
 -18  -8   2   20.95    1.57
  18  -8  -2   17.95    1.33
  18   8  -2   17.19    1.51
  16  -8  -2   30.98    1.63
  16  -8  -2   31.60    1.60
  16  -8  -2   30.00    1.23
 -16  -8   2   27.23    2.00
 -16  -8   2   30.57    1.89
  16  -8  -2   28.91    1.55
  16  -8  -2   29.72    1.35
 -16  -8   2   30.51    1.53
  16   8  -2   21.84    1.50
  14  -8  -2   43.38    1.95
  14  -8  -2   46.75    1.97
  14  -8  -2   46.36    1.61
  14  -8  -2   44.85    1.97
 -14  -8   2   44.65    1.88
 -14  -8   2   48.31    2.23
 -14  -8   2   47.18    2.29
  14  -8  -2   45.36    1.67
  14   8  -2   50.78    2.24
 -12  -8   2   58.85    2.22
  12  -8  -2   63.15    1.98
 -12  -8   2   60.59    2.57
  12  -8  -2   60.87    2.00
  12  -8  -2   60.67    2.36
  12  -8  -2   57.93    2.31
 -12  -8   2   62.34    2.56
  12  -8  -2   63.20    2.36
 -12   8   2   47.66    2.08
  12   8  -2   46.71    2.07
  10  -8  -2    0.63    0.44
  10  -8  -2    0.64    0.30
 -10  -8   2    0.72    0.44
  10  -8  -2    0.65    0.31
  10  -8  -2    1.51    0.49
 -10  -8   2    0.83    0.54
  10  -8  -2    0.85    0.49
 -10  -8   2    1.85    0.65
  10   8  -2    0.23    0.48
 -10   8   2   -0.15    0.45
  -8  -8   2   22.38    1.42
   8  -8  -2   18.15    1.24
  -8  -8   2   22.63    1.16
   8  -8  -2   21.66    0.94
   8  -8  -2   20.71    1.21
   8  -8  -2   17.74    1.08
  -8  -8   2   21.13    1.28
  -8   8   2   32.46    1.59
   8   8  -2   31.08    1.54
   6  -8  -2   16.63    1.07
   6  -8  -2   15.70    1.15
   6  -8  -2   16.82    0.81
  -6  -8   2   16.88    1.00
   6  -8  -2   16.18    0.81
  -6  -8   2   18.35    1.26
   6  -8  -2   17.99    1.05
  -6  -8   2   17.18    1.16
  -6   8   2   16.89    1.14
   6   8  -2   15.71    1.05
   4  -8  -2    3.26    0.29
   4  -8  -2    2.99    0.52
  -4  -8   2    2.81    0.63
   4  -8  -2    3.20    0.60
  -4  -8   2    3.16    0.62
  -4  -8   2    2.59    0.49
   4  -8  -2    2.95    0.40
   4  -8  -2    2.50    0.62
   4   8  -2    4.04    0.63
  -4   8   2    3.36    0.63
   2  -8  -2   13.76    0.73
  -2  -8   2   13.48    0.87
   2  -8  -2   15.03    1.08
   2  -8  -2   12.86    0.84
  -2  -8   2   14.00    0.93
   2  -8  -2   14.50    0.99
  -2  -8   2   12.90    0.95
   2  -8  -2   13.39    0.47
   2   8  -2   18.57    1.10
  -2   8   2   18.33    1.19
   0  -8  -2   65.16    2.04
   0  -8  -2   64.47    1.99
   0  -8   2   64.27    2.20
   0  -8   2   65.65    2.32
   0  -8  -2   64.96    1.74
   0  -8  -2   63.66    2.51
   0  -8   2   68.16    2.39
   0  -8  -2   65.18    2.36
   0  -8  -2   65.02    2.15
   0   8   2   68.17    2.61
   0   8  -2   71.88    2.73
   0   8  -2   73.29    2.48
  -2  -8  -2    1.88    0.51
   2  -8   2    2.49    0.50
  -2  -8  -2    2.60    0.39
   2  -8   2    2.68    0.58
   2  -8   2    2.14    0.46
  -2  -8  -2    3.16    0.36
  -2  -8  -2    2.15    0.61
  -2  -8  -2    2.28    0.62
  -2  -8  -2    2.83    0.23
  -2  -8  -2    1.75    0.39
  -2   8  -2    3.69    0.68
   2   8   2    3.41    0.62
   4  -8   2    6.55    0.71
   4  -8   2    4.37    0.56
  -4  -8  -2    5.79    0.54
  -4  -8  -2    6.84    0.56
   4  -8   2    6.60    0.68
  -4  -8  -2    6.42    0.49
  -4  -8  -2    5.97    0.81
  -4  -8  -2    5.73    0.83
  -4  -8  -2    5.58    0.76
  -4   8  -2   10.11    1.06
   4   8   2    8.72    0.48
   6  -8   2   14.24    0.90
  -6  -8  -2   14.12    0.81
   6  -8   2   14.48    0.88
  -6  -8  -2   12.20    1.14
  -6  -8  -2   14.59    1.11
  -6  -8  -2   15.50    0.74
  -6  -8  -2   13.26    1.21
   6  -8   2   15.03    1.02
   6   8   2   12.57    0.66
  -6   8  -2   12.88    1.11
   8  -8   2    6.26    0.71
   8  -8   2    6.24    0.62
  -8  -8  -2    6.42    0.59
   8  -8   2    4.41    0.57
  -8  -8  -2    5.45    0.87
  -8  -8  -2    5.67    0.88
  -8  -8  -2    6.28    0.79
  -8   8  -2    5.97    0.80
   8   8   2    6.48    0.58
 -10  -8  -2   16.28    1.43
 -10  -8  -2   20.14    1.44
 -10  -8  -2   19.66    1.22
 -10  -8  -2   19.13    0.99
  10  -8   2   19.01    0.99
  10  -8   2   19.59    1.04
  10  -8   2   19.35    1.10
  10   8   2   15.66    0.89
 -10   8  -2   16.62    1.23
 -12  -8  -2   17.45    1.46
  12  -8   2   14.19    0.95
 -12  -8  -2   14.53    0.93
  12  -8   2   15.53    0.87
  12  -8   2   16.62    1.07
  12  -8   2   16.75    1.13
 -12  -8  -2   12.47    1.28
 -12  -8  -2   15.06    1.06
  12   8   2   11.01    0.81
 -12   8  -2   11.74    1.08
  14  -8   2    4.78    0.54
  14  -8   2    4.61    0.69
 -14  -8  -2    6.55    1.05
  14  -8   2    4.74    0.61
  14  -8   2    4.41    0.74
 -14  -8  -2    6.24    0.78
 -14  -8  -2    4.59    0.92
 -14  -8  -2    5.54    0.63
  14   8   2    7.06    0.77
 -14   8  -2    7.69    0.99
 -16  -8  -2   35.45    1.98
  16  -8   2   30.13    1.49
 -16  -8  -2   32.61    2.07
  16  -8   2   30.09    1.40
  16  -8   2   28.49    1.52
 -16  -8  -2   32.03    1.61
 -16  -8  -2   31.02    1.43
  16   8   2   31.36    1.50
 -16   8  -2   31.18    1.72
 -18  -8  -2   11.85    1.41
  18  -8   2   10.34    0.87
 -18  -8  -2   10.80    1.33
 -18  -8  -2    9.60    0.89
  18  -8   2   11.21    1.00
  18  -8   2    9.59    1.03
 -18  -8  -2   11.41    1.08
  18   8   2    7.93    0.87
 -18   8  -2    5.71    0.97
 -20  -8  -2    1.55    0.62
  20  -8   2    0.50    0.48
 -20  -8  -2    0.86    0.76
 -20  -8  -2    0.82    0.90
 -20  -8  -2    0.44    0.50
  20  -8   2    0.58    0.57
  20  -8   2    0.52    0.54
 -20   8  -2    0.96    0.68
  20   8   2    0.46    0.53
 -22  -8  -2   12.22    1.47
  22  -8   2   11.92    1.16
 -22  -8  -2   12.58    1.58
  22  -8   2   14.66    1.16
  22  -8   2   12.40    1.01
 -22  -8  -2   12.45    1.04
 -22  -8  -2   10.76    1.12
  22   8   2   11.60    1.16
 -22   8  -2   13.61    1.73
  24  -8   2    5.86    0.76
 -24  -8  -2    5.28    0.80
 -24  -8  -2    6.58    1.23
  24  -8   2    7.34    1.02
  24  -8   2    6.97    0.89
 -24  -8  -2    6.71    1.31
  24   8   2    9.85    1.16
  26  -8   2    4.95    1.03
  26  -8   2    6.56    0.85
 -26  -8  -2    5.66    1.29
 -26  -8  -2    5.72    0.85
  26   8   2    3.97    0.94
 -28  -8  -2    4.87    1.32
  28  -8   2    7.90    1.11
 -28  -8  -2    6.38    0.93
  28  -8   2    5.38    0.94
  28  -8   2    6.16    0.85
  28   8   2    3.83    0.95
 -30  -8  -2    0.40    0.67
  30  -8   2   -0.27    0.61
  30  -8   2    0.89    0.81
  30  -8   2    1.36    0.83
 -30  -8  -2    0.38    1.03
  30   8   2    0.22    0.86
  32  -8   2    7.95    1.17
 -32  -8  -2   12.32    1.96
  32  -8   2    8.69    1.37
  32  -8   2   10.06    1.08
 -32  -8  -2   10.01    1.11
  32   8   2   10.80    1.43
  34  -8   2   16.13    1.59
  34   8   2    7.70    1.35
 -31  -9   2    0.16    0.83
 -31  -9   2    0.76    1.34
  31  -9  -2    0.68    1.04
  31  -9  -2    0.74    0.52
  31   9  -2    3.23    1.26
 -29  -9   2    6.68    1.10
  29  -9  -2    6.62    1.13
  29  -9  -2    5.05    1.13
 -29  -9   2   10.25    1.71
  29  -9  -2    6.52    0.72
  29   9  -2    5.61    1.33
 -27  -9   2    4.94    0.99
  27  -9  -2    5.72    1.09
 -27  -9   2    4.61    1.30
  27  -9  -2    4.37    1.13
  27  -9  -2    4.99    0.66
  27   9  -2    8.14    1.41
  25  -9  -2    0.11    0.82
  25  -9  -2    0.40    0.74
 -25  -9   2   -0.16    0.67
 -25  -9   2    1.04    1.09
  25  -9  -2    0.86    0.46
  25   9  -2   -0.34    0.85
  23  -9  -2   21.23    1.68
  23  -9  -2   16.43    1.46
 -23  -9   2   17.25    1.42
 -23  -9   2   17.02    1.80
  23  -9  -2   18.61    1.05
  23   9  -2   17.73    1.72
  21  -9  -2   13.10    0.91
 -21  -9   2   11.88    1.58
  21  -9  -2   10.96    1.18
  21  -9  -2   11.65    1.25
  21  -9  -2   13.31    1.52
 -21  -9   2   10.83    1.17
  21   9  -2   18.14    1.71
 -19  -9   2   10.10    1.33
  19  -9  -2   12.02    1.00
  19  -9  -2   12.83    0.87
  19  -9  -2   14.18    1.28
  19  -9  -2   12.72    1.23
  19  -9  -2    9.46    1.06
 -19  -9   2   13.19    1.16
  19   9  -2    9.99    1.26
  17  -9  -2    2.54    0.48
  17  -9  -2    1.53    0.66
 -17  -9   2    2.26    0.93
  17  -9  -2    1.86    0.52
 -17  -9   2    1.76    0.66
  17  -9  -2    1.89    0.65
  17  -9  -2    1.12    0.63
  17   9  -2    0.28    0.65
 -15  -9   2    2.54    0.82
  15  -9  -2    3.66    0.55
  15  -9  -2    2.82    0.71
  15  -9  -2    2.99    0.49
  15  -9  -2    2.34    0.67
  15  -9  -2    2.28    0.66
 -15  -9   2    2.85    0.66
  15   9  -2    2.24    0.77
 -13  -9   2   16.24    1.44
  13  -9  -2   18.35    1.23
 -13  -9   2   14.39    1.11
  13  -9  -2   16.43    0.90
  13  -9  -2   17.22    1.23
  13  -9  -2   16.69    0.92
  13  -9  -2   17.26    1.26
  13   9  -2   12.30    1.21
 -11  -9   2   13.49    1.37
 -11  -9   2   13.64    1.28
  11  -9  -2   11.55    1.14
  11  -9  -2   12.66    1.18
 -11  -9   2   16.04    1.11
  11  -9  -2   13.35    0.81
  11  -9  -2   13.69    0.79
  11  -9  -2   14.96    1.09
  11   9  -2   18.85    1.31
   9  -9  -2   23.34    1.40
   9  -9  -2   25.18    0.99
  -9  -9   2   24.01    1.31
  -9  -9   2   25.15    1.58
   9  -9  -2   25.65    1.09
   9  -9  -2   25.03    1.39
   9  -9  -2   24.15    1.41
  -9  -9   2   23.58    1.62
   9   9  -2   19.91    1.29
   7  -9  -2   60.76    2.26
  -7  -9   2   61.75    2.48
   7  -9  -2   63.75    1.98
  -7  -9   2   58.12    2.20
   7  -9  -2   56.18    2.31
  -7  -9   2   60.32    2.59
   7  -9  -2   56.01    2.40
   7   9  -2   56.17    2.26
   5  -9  -2    0.33    0.50
  -5  -9   2    0.69    0.55
   5  -9  -2    0.91    0.34
  -5  -9   2   -0.10    0.47
   5  -9  -2    0.90    0.48
   5  -9  -2    0.85    0.56
  -5  -9   2    0.98    0.46
   5   9  -2    1.65    0.54
  -5   9   2    1.30    0.51
   3  -9  -2    1.80    0.38
   3  -9  -2    1.75    0.48
   3  -9  -2    0.43    0.52
   3  -9  -2    1.28    0.57
  -3  -9   2    1.29    0.47
  -3  -9   2    1.66    0.57
  -3  -9   2    1.87    0.59
  -3   9   2    0.42    0.52
   3   9  -2    0.59    0.45
   1  -9  -2   29.81    1.19
   1  -9  -2   28.81    1.50
   1  -9  -2   27.84    1.58
  -1  -9   2   29.88    1.50
  -1  -9   2   26.88    1.33
   1  -9  -2   29.17    1.32
  -1  -9   2   30.93    1.51
  -1   9   2   29.63    1.59
   1   9  -2   27.20    1.70
   1   9  -2   29.75    1.43
   1  -9   2   25.75    1.38
   1  -9   2   26.13    1.36
  -1  -9  -2   24.82    1.09
  -1  -9  -2   24.29    1.56
  -1  -9  -2   27.64    1.47
  -1  -9  -2   24.94    1.19
   1  -9   2   24.09    1.23
  -1   9  -2   24.76    1.59
   1   9   2   27.45    1.56
  -3  -9  -2   51.52    1.73
   3  -9   2   48.08    1.95
  -3  -9  -2   50.47    2.10
  -3  -9  -2   48.67    2.21
   3  -9   2   50.89    1.87
   3  -9   2   46.97    1.97
  -3  -9  -2   46.52    2.19
  -3  -9  -2   47.79    1.75
  -3   9  -2   47.98    2.21
   3   9   2   44.56    2.12
  -5  -9  -2   10.51    1.15
  -5  -9  -2   10.39    0.76
   5  -9   2   10.98    0.86
  -5  -9  -2   11.48    0.78
   5  -9   2   11.53    0.90
  -5  -9  -2    8.82    1.12
   5  -9   2   10.03    0.99
  -5  -9  -2   10.96    1.01
   5   9   2   15.48    0.70
  -5   9  -2   16.21    1.36
   5   9   2   12.27    1.20
  -7  -9  -2   34.59    1.30
   7  -9   2   31.42    1.54
  -7  -9  -2   33.33    1.87
   7  -9   2   34.45    1.48
  -7  -9  -2   33.27    1.67
   7  -9   2   32.84    1.44
  -7  -9  -2   30.91    1.86
  -7  -9  -2   34.47    1.38
  -7   9  -2   34.05    1.83
   7   9   2   32.95    1.25
   9  -9   2   38.72    1.60
  -9  -9  -2   37.79    1.78
   9  -9   2   39.84    1.78
  -9  -9  -2   37.19    2.08
   9  -9   2   40.49    1.60
  -9  -9  -2   37.53    2.04
  -9  -9  -2   37.32    1.52
  -9   9  -2   36.84    1.93
   9   9   2   37.68    1.45
 -11  -9  -2   31.18    1.61
 -11  -9  -2   27.38    1.80
  11  -9   2   25.76    1.31
 -11  -9  -2   28.78    1.30
 -11  -9  -2   27.89    1.86
  11  -9   2   26.63    1.41
  11  -9   2   25.65    1.25
  11  -9   2   26.23    1.42
 -11   9  -2   40.15    2.02
  11   9   2   38.13    1.56
 -13  -9  -2   22.43    1.22
  13  -9   2   21.94    1.34
 -13  -9  -2   24.31    1.47
 -13  -9  -2   25.27    1.77
  13  -9   2   26.07    1.27
  13  -9   2   24.10    1.18
  13  -9   2   22.05    1.33
 -13  -9  -2   23.76    1.75
  13   9   2   21.00    1.17
 -13   9  -2   22.88    1.54
 -15  -9  -2    8.95    1.03
  15  -9   2    9.12    0.96
  15  -9   2   11.07    0.93
 -15  -9  -2    7.72    1.15
  15  -9   2    9.51    0.93
 -15  -9  -2    9.76    0.86
 -15  -9  -2    7.28    1.18
 -15   9  -2   11.80    1.25
  15   9   2   14.72    1.08
  17  -9   2    5.15    0.70
  17  -9   2    4.50    0.75
 -17  -9  -2    5.29    0.71
 -17  -9  -2    5.48    1.14
 -17  -9  -2    5.99    0.93
 -17  -9  -2    5.21    1.10
  17  -9   2    5.08    0.82
  17   9   2    9.06    0.96
 -17   9  -2    7.38    1.11
  19  -9   2    3.91    0.80
 -19  -9  -2    4.61    1.18
  19  -9   2    3.90    0.66
 -19  -9  -2    3.08    0.65
  19  -9   2    3.19    0.71
 -19  -9  -2    6.02    1.20
 -19  -9  -2    4.24    0.86
 -19   9  -2    4.07    1.02
  19   9   2    5.67    0.88
 -21  -9  -2    8.25    0.90
 -21  -9  -2    9.25    1.44
  21  -9   2    8.28    1.03
  21  -9   2    7.65    0.84
 -21  -9  -2    7.72    1.03
  21  -9   2   10.83    1.10
 -21  -9  -2    9.80    1.50
  21   9   2    8.68    1.06
 -23  -9  -2   17.95    1.93
  23  -9   2   15.23    1.30
  23  -9   2   16.23    1.46
 -23  -9  -2   13.21    1.68
 -23  -9  -2   16.47    1.26
  23  -9   2   16.94    1.20
  23   9   2   14.11    1.36
  25  -9   2    4.09    0.92
  25  -9   2    5.85    0.83
  25  -9   2    3.98    0.83
 -25  -9  -2    4.62    0.80
 -25  -9  -2    4.74    1.39
  25   9   2    2.12    0.88
  27  -9   2    1.69    0.82
 -27  -9  -2    0.89    1.05
 -27  -9  -2    1.26    0.67
  27  -9   2    1.97    0.68
  29  -9   2    9.83    1.03
 -29  -9  -2   11.56    1.93
  29  -9   2    7.92    1.14
 -29  -9  -2    8.53    1.05
  29  -9   2    9.00    1.25
  31  -9   2    5.57    1.02
 -31  -9  -2    1.70    1.26
  31  -9   2    3.82    1.27
  31  -9   2    5.56    1.05
 -31  -9  -2    4.78    0.93
  30 -10  -2    9.94    0.82
  30 -10  -2    7.53    1.28
  30  10  -2    8.45    1.55
  28 -10  -2    8.51    1.28
 -28 -10   2    6.37    1.14
  28 -10  -2    8.44    1.30
 -28 -10   2    7.83    1.61
  28 -10  -2    7.77    0.76
  28  10  -2    9.67    1.58
 -26 -10   2    0.62    0.81
  26 -10  -2    0.67    0.82
  26 -10  -2    3.57    1.00
 -26 -10   2    0.48    1.04
  26 -10  -2    0.83    0.49
  26  10  -2    1.21    1.02
  24 -10  -2   11.13    1.34
 -24 -10   2    9.42    1.21
 -24 -10   2   12.52    1.77
  24 -10  -2   11.48    1.40
  24 -10  -2   12.13    0.90
  24  10  -2    9.97    1.45
  22 -10  -2    0.89    0.78
 -22 -10   2   -0.58    0.64
 -22 -10   2    0.29    0.89
  22 -10  -2    1.30    0.83
  22 -10  -2    0.61    0.47
  22  10  -2   -0.51    0.77
  20 -10  -2    7.35    1.09
 -20 -10   2   10.02    1.44
  20 -10  -2   10.45    1.15
 -20 -10   2   10.74    1.18
  20 -10  -2   11.54    0.86
  20 -10  -2   10.15    1.23
  20  10  -2   10.71    1.39
 -18 -10   2   10.70    1.14
  18 -10  -2   10.92    1.22
  18 -10  -2   10.65    0.82
  18 -10  -2   10.31    1.15
 -18 -10   2    9.30    1.34
  18 -10  -2   10.27    1.18
  18  10  -2   14.20    1.49
  16 -10  -2    6.57    0.94
  16 -10  -2    4.05    0.91
 -16 -10   2    3.62    0.79
  16 -10  -2    5.38    0.61
  16 -10  -2    5.09    0.90
 -16 -10   2    4.52    1.03
  16  10  -2    5.50    0.99
  14 -10  -2    5.22    0.87
  14 -10  -2    4.80    0.85
  14 -10  -2    6.04    0.62
  14 -10  -2    5.47    0.91
 -14 -10   2    4.19    0.97
 -14 -10   2    5.72    0.83
  14  10  -2    4.56    0.91
  12 -10  -2   11.27    1.10
  12 -10  -2   10.66    1.12
  12 -10  -2   10.77    1.14
  12 -10  -2   12.05    0.84
 -12 -10   2   14.91    1.49
 -12 -10   2   10.46    1.02
  12  10  -2   14.02    1.31
  10 -10  -2    1.84    0.68
 -10 -10   2    2.49    0.63
  10 -10  -2    2.76    0.72
 -10 -10   2    2.19    0.81
 -10 -10   2    1.64    0.76
  10 -10  -2    2.00    0.45
  10 -10  -2    1.78    0.65
  10  10  -2    2.07    0.67
   8 -10  -2    5.28    0.89
  -8 -10   2    5.75    0.90
  -8 -10   2    6.79    0.85
  -8 -10   2    3.96    0.81
   8 -10  -2    4.10    0.77
   8 -10  -2    6.75    0.63
   8 -10  -2    4.89    0.82
   8  10  -2    3.27    0.72
   6 -10  -2   18.46    1.41
   6 -10  -2   17.78    1.21
  -6 -10   2   21.37    1.24
   6 -10  -2   19.08    0.98
  -6 -10   2   19.92    1.35
  -6 -10   2   18.72    1.40
   6 -10  -2   14.67    1.27
   6  10  -2   19.78    1.28
  -4 -10   2    9.14    0.90
   4 -10  -2    7.63    0.99
   4 -10  -2    8.59    1.08
  -4 -10   2    8.82    1.00
   4 -10  -2    7.47    0.66
  -4 -10   2   10.12    1.09
   4 -10  -2    7.37    0.82
   4  10  -2    6.87    1.14
   4  10  -2    8.86    0.93
   2 -10  -2   24.77    1.45
  -2 -10   2   22.64    1.41
   2 -10  -2   23.75    1.52
   2 -10  -2   22.67    1.26
  -2 -10   2   23.02    1.29
   2 -10  -2   23.38    1.09
  -2 -10   2   23.71    1.45
   2  10  -2   29.17    1.47
   2  10  -2   30.59    1.84
   0 -10   2   22.95    1.26
   0 -10  -2   20.98    1.05
   0 -10   2   21.03    1.41
   0 -10   2   21.97    1.37
   0 -10  -2   21.97    1.39
   0 -10  -2   21.96    1.19
   0 -10  -2   22.57    1.51
   0  10  -2   15.40    1.43
  -2 -10  -2    0.77    0.62
   2 -10   2   -0.28    0.41
   2 -10   2   -0.57    0.46
  -2 -10  -2    0.43    0.36
  -2 -10  -2   -0.23    0.55
   2 -10   2   -0.59    0.48
  -2 -10  -2    0.19    0.42
  -2  10  -2    0.61    0.61
  -4 -10  -2   15.63    1.48
  -4 -10  -2   13.90    1.22
  -4 -10  -2   13.86    1.38
  -4 -10  -2   12.98    0.86
  -4 -10  -2   14.36    0.93
   4 -10   2   12.93    1.02
   4 -10   2   12.60    0.98
   4 -10   2   14.38    1.18
  -4  10  -2   13.36    1.29
  -6 -10  -2    4.95    0.60
   6 -10   2    6.13    0.82
  -6 -10  -2    4.67    0.95
  -6 -10  -2    7.01    0.67
   6 -10   2    6.01    0.71
  -6 -10  -2    6.44    1.02
  -6 -10  -2    4.52    0.80
   6 -10   2    5.94    0.76
  -6  10  -2    4.98    0.92
   8 -10   2    2.32    0.71
  -8 -10  -2    2.54    0.82
  -8 -10  -2    1.79    0.79
  -8 -10  -2    2.58    0.52
  -8 -10  -2    2.97    0.79
   8 -10   2    2.87    0.60
   8 -10   2    1.64    0.56
  -8  10  -2    3.47    0.88
  10 -10   2   27.33    1.49
  10 -10   2   26.57    1.48
 -10 -10  -2   26.25    1.62
  10 -10   2   26.23    1.35
 -10 -10  -2   26.86    1.31
  10 -10   2   26.57    1.38
 -10 -10  -2   28.44    1.96
 -10 -10  -2   25.90    1.85
 -10  10  -2   28.36    1.80
 -12 -10  -2    7.77    1.04
 -12 -10  -2    8.77    1.26
 -12 -10  -2    7.17    0.76
  12 -10   2    6.11    0.86
  12 -10   2    6.57    0.93
  12 -10   2    7.63    0.82
 -12 -10  -2    5.29    1.09
 -12  10  -2    7.11    1.12
 -14 -10  -2    3.92    1.00
 -14 -10  -2    4.41    0.91
 -14 -10  -2    4.04    0.66
 -14 -10  -2    3.13    1.01
  14 -10   2    4.32    0.83
  14 -10   2    3.59    0.75
  14 -10   2    4.41    0.68
 -14  10  -2    2.55    0.79
 -16 -10  -2   10.73    1.42
 -16 -10  -2   16.01    1.40
 -16 -10  -2   13.01    1.65
  16 -10   2   12.42    1.21
 -16 -10  -2   13.13    1.05
  16 -10   2   11.67    1.00
  16 -10   2   11.38    1.13
  18 -10   2    1.45    0.59
 -18 -10  -2    2.52    0.79
  18 -10   2    1.44    0.68
 -18 -10  -2    0.68    0.90
  18 -10   2    0.69    0.64
 -18 -10  -2    1.01    0.56
 -18 -10  -2    3.64    1.10
 -20 -10  -2    5.50    0.82
 -20 -10  -2    7.46    1.10
  20 -10   2    7.36    0.87
  20 -10   2    4.94    0.93
  20 -10   2    7.50    0.99
 -20 -10  -2    7.91    1.45
 -20 -10  -2    8.28    1.53
  22 -10   2    1.60    0.77
 -22 -10  -2    1.71    0.67
  22 -10   2    2.96    0.71
 -22 -10  -2    3.11    1.23
  22 -10   2    1.84    0.86
 -22 -10  -2    0.37    0.77
 -24 -10  -2    1.65    0.68
 -24 -10  -2    1.49    1.20
  24 -10   2    1.29    0.64
  24 -10   2    1.36    0.72
  24 -10   2    1.19    0.82
 -26 -10  -2    0.86    0.67
  26 -10   2   -0.26    0.75
  26 -10   2    0.81    0.66
 -26 -10  -2    2.38    1.24
  28 -10   2    7.46    1.27
  28 -10   2    8.42    1.02
  28 -10   2    7.97    1.10
 -28 -10  -2    8.49    1.02
 -28 -10  -2    8.27    1.82
  30 -10   2    6.28    1.16
 -27 -11   2    1.91    1.04
  27 -11  -2    2.96    0.59
  27 -11  -2    4.68    1.15
  25 -11  -2    5.96    1.19
  25 -11  -2    5.44    1.18
 -25 -11   2    5.02    1.47
 -25 -11   2    4.73    1.03
  25 -11  -2    4.93    0.65
 -23 -11   2    0.48    1.14
  23 -11  -2    0.82    0.78
 -23 -11   2    0.24    0.76
  23 -11  -2    1.22    0.84
  23 -11  -2    0.17    0.46
  23  11  -2   -0.93    1.18
  21 -11  -2    2.41    0.55
 -21 -11   2    2.18    0.84
 -21 -11   2    2.26    1.18
  21 -11  -2    1.58    0.91
  21 -11  -2    3.14    0.92
  21  11  -2    1.12    0.96
  19 -11  -2    1.06    0.79
 -19 -11   2    0.28    0.68
 -19 -11   2    0.20    0.93
  19 -11  -2    1.27    0.78
  19 -11  -2    0.82    0.48
  19  11  -2    1.54    0.89
 -17 -11   2   13.61    1.53
  17 -11  -2   15.98    1.01
  17 -11  -2   13.88    1.41
 -17 -11   2   14.48    1.33
  17 -11  -2   16.78    1.45
  17 -11  -2   15.24    1.45
 -17 -11   2   14.26    1.65
  17  11  -2   15.01    1.54
  15 -11  -2    7.68    1.11
 -15 -11   2    7.81    1.01
 -15 -11   2    8.11    1.16
  15 -11  -2    7.65    1.15
 -15 -11   2   10.27    1.46
  15 -11  -2    8.75    1.13
  15 -11  -2    7.39    0.73
  15  11  -2   12.20    1.37
  13 -11  -2    7.63    1.09
 -13 -11   2    7.41    1.10
 -13 -11   2    8.34    1.05
  13 -11  -2    8.87    1.13
 -13 -11   2    6.12    1.11
  13 -11  -2    7.07    1.00
  13 -11  -2    8.33    0.74
  13  11  -2    5.20    0.94
  11 -11  -2   30.69    1.74
 -11 -11   2   31.18    1.90
  11 -11  -2   29.22    1.30
 -11 -11   2   28.36    1.89
  11 -11  -2   25.57    1.70
  11 -11  -2   31.49    1.82
 -11 -11   2   28.76    1.63
  11  11  -2   34.10    1.90
  -9 -11   2   15.84    1.47
   9 -11  -2   12.86    1.29
   9 -11  -2   13.14    1.33
  -9 -11   2   15.87    1.53
   9 -11  -2   14.40    1.24
  -9 -11   2   13.64    1.18
   9 -11  -2   12.55    0.89
   9  11  -2   13.81    1.30
  -7 -11   2    7.57    1.10
   7 -11  -2    6.90    0.99
  -7 -11   2    7.42    0.89
   7 -11  -2    8.28    1.06
   7 -11  -2    8.43    0.99
  -7 -11   2    7.44    1.04
   7 -11  -2    6.59    0.66
   7  11  -2    8.14    1.01
  -5 -11   2    6.27    1.02
   5 -11  -2    5.17    0.94
  -5 -11   2    4.92    0.95
   5 -11  -2    5.35    1.00
   5 -11  -2    4.04    0.72
  -5 -11   2    3.65    0.71
   5 -11  -2    4.85    0.60
   5  11  -2    5.16    1.10
   5  11  -2    3.44    0.73
  -3 -11   2    1.11    0.67
   3 -11  -2    0.86    0.55
  -3 -11   2    1.38    0.70
   3 -11  -2    0.69    0.73
   3 -11  -2    1.26    0.43
   3 -11  -2    0.52    0.69
  -3 -11   2    0.55    0.53
   3  11  -2    0.38    0.56
   3  11  -2    1.03    0.80
   1 -11  -2   11.93    0.87
  -1 -11   2   13.03    1.27
   1 -11  -2   14.07    1.11
  -1 -11   2   12.48    1.03
   1 -11  -2   12.58    1.23
   1 -11  -2   12.38    1.37
  -1 -11   2   12.90    1.25
   1  11  -2   10.92    1.30
   1 -11   2    7.57    1.00
  -1 -11  -2    3.93    0.97
   1 -11   2    4.90    0.86
  -1 -11  -2    3.71    0.67
   1 -11   2    4.99    0.75
  -1 -11  -2    4.26    0.89
  -1 -11  -2    5.20    0.60
  -1  11  -2    5.62    1.07
   3 -11   2    2.14    0.70
  -3 -11  -2    1.67    0.56
  -3 -11  -2    2.19    0.88
   3 -11   2    1.62    0.57
  -3 -11  -2    2.80    0.79
  -3 -11  -2    2.05    0.50
   3 -11   2    2.69    0.70
  -3  11  -2    3.86    0.94
  -5 -11  -2   26.98    1.30
   5 -11   2   26.90    1.66
   5 -11   2   26.72    1.43
  -5 -11  -2   30.87    1.81
  -5 -11  -2   27.61    1.86
   5 -11   2   29.04    1.53
  -5  11  -2   31.54    1.94
   7 -11   2    4.80    0.85
  -7 -11  -2    5.33    0.67
  -7 -11  -2    3.81    0.84
   7 -11   2    4.46    0.70
  -7 -11  -2    3.40    0.93
  -7 -11  -2    5.70    1.08
   7 -11   2    4.60    0.75
  -7  11  -2    3.77    0.99
  -9 -11  -2    8.93    1.11
  -9 -11  -2   10.60    1.43
  -9 -11  -2    8.50    1.32
  -9 -11  -2    8.53    0.82
   9 -11   2    9.62    1.06
   9 -11   2    9.13    0.90
   9 -11   2    7.71    0.97
  -9  11  -2    9.04    1.19
 -11 -11  -2   28.80    1.83
  11 -11   2   31.23    1.55
 -11 -11  -2   27.89    2.05
 -11 -11  -2   31.61    1.48
  11 -11   2   29.44    1.72
 -11 -11  -2   31.29    2.16
  11 -11   2   31.69    1.71
  13 -11   2    2.39    0.73
 -13 -11  -2    1.99    0.90
 -13 -11  -2    2.22    0.59
  13 -11   2    2.19    0.71
 -13 -11  -2    2.66    0.81
  13 -11   2    3.24    0.67
 -13 -11  -2    3.57    1.17
 -15 -11  -2    6.01    1.20
  15 -11   2    6.54    0.85
 -15 -11  -2    8.09    1.16
 -15 -11  -2    5.19    1.26
  15 -11   2    6.69    0.99
  15 -11   2    8.24    1.08
 -15 -11  -2    6.73    0.83
 -17 -11  -2    6.79    1.11
  17 -11   2    5.59    1.02
 -17 -11  -2    8.36    0.90
 -17 -11  -2    8.36    1.49
  17 -11   2    4.38    0.86
 -17 -11  -2    7.27    1.46
  17 -11   2    7.08    0.87
  19 -11   2    0.26    0.68
 -19 -11  -2   -0.75    0.70
  19 -11   2    0.36    0.59
 -19 -11  -2    0.90    1.15
  19 -11   2    0.70    0.71
 -19 -11  -2    0.67    0.59
  21 -11   2    3.57    0.91
 -21 -11  -2    1.96    1.37
  21 -11   2    3.25    0.89
  21 -11   2    2.42    0.70
 -21 -11  -2    2.43    0.94
 -21 -11  -2    3.53    0.75
 -23 -11  -2    1.48    0.69
  23 -11   2    0.98    0.67
 -23 -11  -2    0.81    1.11
  23 -11   2    1.89    0.84
  23 -11   2    1.07    0.77
  25 -11   2    2.78    0.94
 -25 -11  -2    4.71    1.50
 -25 -11  -2    2.39    0.75
  25 -11   2    3.69    0.82
 -27 -11  -2    0.37    0.74
  24 -12  -2    6.09    1.22
 -24 -12   2    6.68    1.33
  24 -12  -2    7.45    0.73
  24 -12  -2    9.71    1.58
 -24 -12   2    5.36    1.40
  22 -12  -2    3.87    0.62
 -22 -12   2    4.05    1.48
  22 -12  -2    4.22    1.12
  22 -12  -2    2.62    1.09
 -22 -12   2    4.79    1.07
 -22 -12   2    5.39    1.24
  20 -12  -2    1.80    0.54
 -20 -12   2    2.06    1.05
 -20 -12   2    2.16    1.23
  20 -12  -2    0.05    0.91
 -20 -12   2    1.41    0.80
  20 -12  -2    1.02    0.85
 -18 -12   2   15.84    1.94
  18 -12  -2   17.28    1.66
  18 -12  -2   15.82    1.05
 -18 -12   2   17.04    1.73
 -18 -12   2   13.70    1.42
  18 -12  -2   18.09    1.73
 -16 -12   2    1.82    1.04
  16 -12  -2    4.02    1.14
  16 -12  -2    2.77    0.88
  16 -12  -2    2.47    0.55
 -16 -12   2    2.59    0.84
 -16 -12   2    1.40    0.97
  16 -12  -2    2.42    0.99
  14 -12  -2    0.98    0.48
 -14 -12   2    0.65    0.71
  14 -12  -2    1.76    0.84
  14 -12  -2    0.83    0.80
 -14 -12   2    0.66    0.90
  14 -12  -2    0.95    0.76
 -14 -12   2    1.01    0.90
  12 -12  -2   18.34    1.07
  12 -12  -2   19.61    1.56
  12 -12  -2   17.56    1.58
 -12 -12   2   16.80    1.39
 -12 -12   2   16.77    1.79
 -12 -12   2   18.91    1.72
  12 -12  -2   15.81    1.51
  10 -12  -2    5.54    0.99
  10 -12  -2    6.13    0.67
  10 -12  -2    6.21    1.03
 -10 -12   2    4.24    0.85
 -10 -12   2    5.95    1.08
  10 -12  -2    4.40    0.98
 -10 -12   2    5.00    1.07
   8 -12  -2    1.70    0.51
  -8 -12   2    2.59    0.85
   8 -12  -2    3.06    0.95
   8 -12  -2    3.11    0.82
   8 -12  -2    4.17    0.92
  -8 -12   2    1.40    0.82
  -8 -12   2    2.00    0.68
   6 -12  -2    1.85    0.76
   6 -12  -2    3.07    0.80
   6 -12  -2    0.71    0.79
  -6 -12   2    2.81    0.85
  -6 -12   2    3.12    0.87
   6 -12  -2    1.69    0.50
  -6 -12   2    2.00    0.67
   4 -12  -2    5.29    0.63
  -4 -12   2    5.75    1.06
   4 -12  -2    5.15    0.85
   4 -12  -2    5.45    1.07
   4 -12  -2    4.46    0.94
  -4 -12   2    3.90    0.91
  -4 -12   2    5.22    0.82
   2 -12  -2   19.56    1.35
  -2 -12   2   21.12    1.59
  -2 -12   2   19.85    1.36
   2 -12  -2   21.00    1.68
   2 -12  -2   19.41    1.10
   2 -12  -2   19.76    1.70
  -2 -12   2   18.04    1.54
   0 -12  -2    2.12    0.51
   0 -12   2    1.88    0.65
   0 -12   2    1.37    0.77
   0 -12  -2    2.23    0.92
   0 -12   2    2.03    0.79
   0 -12  -2    2.27    0.87
   0 -12  -2    2.30    0.69
   2 -12   2    6.48    0.83
   2 -12   2    5.43    0.94
  -2 -12  -2    6.95    1.13
  -2 -12  -2    6.14    0.70
   2 -12   2    5.65    0.95
  -2 -12  -2    5.23    1.12
  -4 -12  -2    6.29    1.19
   4 -12   2    5.29    0.95
   4 -12   2    6.95    0.85
  -4 -12  -2    6.48    0.73
  -4 -12  -2    5.80    1.03
   4 -12   2    5.71    0.92
   6 -12   2    6.13    1.06
   6 -12   2    5.78    0.83
  -6 -12  -2    6.56    1.10
  -6 -12  -2    7.24    0.76
  -6 -12  -2    6.30    1.30
   6 -12   2    6.92    1.32
  -8 -12  -2    2.72    0.59
   8 -12   2    2.95    0.82
  -8 -12  -2    3.58    1.12
   8 -12   2    4.40    0.96
  -8 -12  -2    2.78    0.94
  -8 -12  -2    2.45    1.08
   8 -12   2    1.37    0.63
  10 -12   2    3.29    0.88
  10 -12   2    5.79    1.05
 -10 -12  -2    4.60    1.01
  10 -12   2    4.07    0.77
 -10 -12  -2    4.92    1.26
 -10 -12  -2    3.87    0.67
 -10 -12  -2    3.75    1.15
  12 -12   2   14.63    1.18
 -12 -12  -2   14.29    1.46
 -12 -12  -2   14.75    1.80
 -12 -12  -2   16.48    1.17
  12 -12   2   14.42    1.34
  12 -12   2   14.49    1.38
 -12 -12  -2   15.07    1.79
  14 -12   2    4.40    0.98
 -14 -12  -2    4.13    1.03
 -14 -12  -2    5.54    0.78
  14 -12   2    5.10    0.82
  14 -12   2    5.04    1.01
 -14 -12  -2    5.66    1.43
 -16 -12  -2    1.59    0.65
 -16 -12  -2    4.81    1.40
  16 -12   2    2.35    0.89
  16 -12   2    1.57    0.67
 -16 -12  -2    1.01    0.85
  16 -12   2    2.16    0.90
  18 -12   2   10.59    1.06
 -18 -12  -2   11.58    1.06
  18 -12   2   10.24    1.30
 -18 -12  -2   11.34    1.37
  18 -12   2   11.95    1.37
 -18 -12  -2   14.67    2.06
 -20 -12  -2    7.07    1.24
  20 -12   2    6.51    1.09
  20 -12   2    5.78    0.89
  20 -12   2    6.93    1.13
 -20 -12  -2    6.80    0.92
 -20 -12  -2    6.02    1.66
 -22 -12  -2    1.64    0.70
  22 -12   2    2.00    0.91
 -22 -12  -2   -2.52    1.12
  22 -12   2    1.08    0.69
  22 -12   2    2.63    0.93
 -24 -12  -2    0.73    0.68
  21 -13  -2    1.73    1.04
  21 -13  -2    1.37    1.15
 -21 -13   2    1.81    1.11
  21 -13  -2    1.07    0.52
  19 -13  -2    5.71    1.27
 -19 -13   2    6.99    1.41
 -19 -13   2    7.68    1.58
  19 -13  -2    6.41    0.72
 -19 -13   2    6.05    1.11
  19 -13  -2    6.13    1.25
  17 -13  -2    0.03    0.47
 -17 -13   2   -0.61    0.97
  17 -13  -2    0.36    0.88
  17 -13  -2    0.82    0.93
 -17 -13   2    0.56    0.80
 -17 -13   2   -1.29    1.04
 -15 -13   2    2.03    0.85
 -15 -13   2    2.24    1.23
  15 -13  -2    4.24    1.14
  15 -13  -2    3.63    0.97
  15 -13  -2    2.55    0.57
 -15 -13   2    2.82    1.12
 -13 -13   2    4.61    1.32
 -13 -13   2    3.43    1.08
  13 -13  -2    3.91    0.61
 -13 -13   2    2.75    0.87
  13 -13  -2    3.06    1.17
  13 -13  -2    2.71    0.93
  13 -13  -2    2.17    0.94
  11 -13  -2    2.25    0.92
  11 -13  -2    2.14    0.91
 -11 -13   2    2.15    0.80
 -11 -13   2    2.46    1.04
 -11 -13   2    0.87    1.05
  11 -13  -2    3.41    0.97
  11 -13  -2    0.90    0.49
   9 -13  -2   18.49    1.56
   9 -13  -2   16.61    1.06
   9 -13  -2   14.70    1.57
  -9 -13   2   16.18    1.38
  -9 -13   2   13.83    1.67
   9 -13  -2   16.06    1.57
  -9 -13   2   18.15    1.68
   7 -13  -2    7.40    1.20
  -7 -13   2    7.97    1.29
  -7 -13   2    8.74    1.38
  -7 -13   2    7.48    0.99
   7 -13  -2    7.71    1.12
   7 -13  -2    6.76    1.18
   7 -13  -2    7.88    0.77
  -5 -13   2    2.74    0.77
  -5 -13   2    1.93    0.87
   5 -13  -2    2.41    0.97
  -5 -13   2    2.32    0.98
   5 -13  -2    1.01    0.75
   5 -13  -2    2.23    0.55
   5 -13  -2    0.80    0.88
  -3 -13   2    9.92    1.09
   3 -13  -2    9.04    0.80
  -3 -13   2    8.81    1.31
   3 -13  -2    9.41    1.12
   3 -13  -2    7.66    1.30
  -3 -13   2    6.65    1.20
   3 -13  -2    8.63    1.28
   1 -13  -2    6.85    1.18
   1 -13  -2    5.92    1.16
  -1 -13   2    7.26    0.96
  -1 -13   2    6.52    1.15
   1 -13  -2    6.78    0.74
  -1 -13   2    5.61    1.11
  -1 -13  -2    6.92    0.76
   1 -13   2    5.92    1.05
   1 -13   2    7.80    0.96
  -1 -13  -2    6.58    1.23
   1 -13   2    7.33    1.19
  -1 -13  -2    7.56    1.25
  -3 -13  -2    1.72    0.56
  -3 -13  -2    0.77    1.00
   3 -13   2    2.31    1.35
   3 -13   2    1.26    0.66
   3 -13   2    0.88    0.76
  -3 -13  -2    1.73    0.85
   5 -13   2    6.19    0.89
   5 -13   2    5.60    0.93
  -5 -13  -2    5.68    0.74
  -5 -13  -2    3.40    1.15
  -5 -13  -2    5.86    1.11
   5 -13   2    7.17    1.10
   7 -13   2    3.53    1.00
  -7 -13  -2    7.92    1.25
  -7 -13  -2    5.28    1.21
   7 -13   2    3.83    0.79
   7 -13   2    3.50    0.94
  -7 -13  -2    4.54    0.70
  -9 -13  -2    5.44    1.28
  -9 -13  -2    5.45    0.75
   9 -13   2    4.76    0.86
   9 -13   2    4.96    0.94
  -9 -13  -2    4.00    1.07
   9 -13   2    4.57    1.00
  11 -13   2    1.21    0.66
 -11 -13  -2    2.08    0.64
 -11 -13  -2    2.22    1.12
 -11 -13  -2    0.25    0.94
  11 -13   2    3.17    0.94
  11 -13   2    1.91    0.89
 -13 -13  -2    0.93    1.08
  13 -13   2    0.49    0.82
  13 -13   2   -0.74    0.75
 -13 -13  -2    1.28    0.59
 -13 -13  -2    0.23    0.92
  13 -13   2    1.03    0.66
 -15 -13  -2    4.94    1.19
 -15 -13  -2    9.20    1.76
  15 -13   2    3.50    0.98
  15 -13   2    6.47    0.93
  15 -13   2    5.42    1.03
 -15 -13  -2    5.57    0.84
  17 -13   2    2.29    0.97
 -17 -13  -2    2.54    1.31
  17 -13   2    2.89    0.78
 -17 -13  -2    3.13    0.76
  17 -13   2    2.95    1.05
 -17 -13  -2    2.36    1.09
  19 -13   2    2.24    0.75
 -19 -13  -2    1.61    0.70
  19 -13   2    0.85    0.92
  19 -13   2    2.05    1.00
 -19 -13  -2    0.40    1.26
 -19 -13  -2    2.24    1.05
  21 -13   2    8.50    1.32
  16 -14  -2    2.83    0.60
  16 -14  -2    3.36    1.02
 -16 -14   2    4.57    1.31
 -16 -14   2    4.09    1.47
  14 -14  -2   10.20    0.83
 -14 -14   2    7.70    1.39
 -14 -14   2    7.23    1.13
 -14 -14   2    8.18    1.68
  14 -14  -2    6.97    1.28
  14 -14  -2    8.61    1.27
 -12 -14   2    2.54    1.06
  12 -14  -2    1.22    0.93
 -12 -14   2    2.03    1.10
 -12 -14   2    2.08    0.87
  12 -14  -2    1.83    0.55
  12 -14  -2    1.53    0.91
  10 -14  -2    1.83    0.95
 -10 -14   2    2.46    1.04
 -10 -14   2    1.49    1.12
 -10 -14   2    2.28    0.87
  10 -14  -2    3.38    1.02
  10 -14  -2    1.53    0.52
   8 -14  -2    5.60    1.10
   8 -14  -2    5.08    0.69
   8 -14  -2    3.24    1.09
   8 -14  -2    4.87    1.19
  -8 -14   2    6.00    1.29
  -8 -14   2    3.34    0.94
  -8 -14   2    6.20    1.28
  -6 -14   2    2.82    1.14
   6 -14  -2    2.52    0.60
  -6 -14   2    3.02    1.01
   6 -14  -2    3.56    1.08
   6 -14  -2    3.31    1.09
  -6 -14   2    4.60    0.91
   4 -14  -2    0.17    0.84
   4 -14  -2   -0.42    0.78
  -4 -14   2   -0.11    0.70
  -4 -14   2   -0.73    0.76
   4 -14  -2   -0.42    0.47
  -4 -14   2   -1.29    0.80
   2 -14  -2    0.34    0.92
   2 -14  -2    0.80    0.95
   2 -14  -2    0.04    0.50
  -2 -14   2    0.23    0.80
  -2 -14   2   -0.90    0.61
  -2 -14   2   -0.58    0.74
   0 -14  -2    3.61    1.05
   0 -14  -2    2.26    0.61
   0 -14   2    2.39    1.04
   0 -14  -2    1.29    1.04
   0 -14   2    1.78    0.75
  -2 -14  -2    7.26    1.32
  -2 -14  -2    6.92    0.79
   2 -14   2    8.50    1.37
  -2 -14  -2    4.93    1.31
   2 -14   2    6.68    0.97
  -4 -14  -2    2.76    1.10
   4 -14   2    2.04    0.73
   4 -14   2    1.59    0.89
  -4 -14  -2    2.24    0.60
  -4 -14  -2    1.62    1.12
   4 -14   2    1.91    0.88
   6 -14   2    9.04    1.06
   6 -14   2    7.58    1.25
  -6 -14  -2   12.11    1.60
  -6 -14  -2   10.64    1.61
  -6 -14  -2    9.78    0.92
   6 -14   2   11.19    1.32
   8 -14   2   -0.91    0.62
  -8 -14  -2    0.72    0.56
   8 -14   2    1.20    0.87
  -8 -14  -2   -0.81    0.88
   8 -14   2    0.29    0.79
  -8 -14  -2   -0.38    0.96
 -10 -14  -2    9.01    0.90
  10 -14   2    6.40    1.20
  10 -14   2    6.11    1.12
 -10 -14  -2    6.48    1.23
  10 -14   2    5.66    0.90
 -10 -14  -2    8.02    1.64
  12 -14   2    2.62    1.08
 -12 -14  -2    3.29    1.42
  12 -14   2    1.17    0.74
 -12 -14  -2    4.94    1.24
  12 -14   2    1.77    0.88
 -12 -14  -2    3.46    0.71
 -14 -14  -2    0.37    0.61
  14 -14   2    0.95    0.95
  14 -14   2    1.40    0.95
  14 -14   2    0.53    0.68
 -14 -14  -2    0.76    1.10
 -14 -14  -2    1.01    0.93
 -16 -14  -2   14.49    1.17
 -16 -14  -2   16.68    1.82
  16 -14   2   14.89    1.86
  16 -14   2   12.88    1.59
 -11 -15   2    2.83    1.31
  11 -15  -2    3.13    0.61
  -9 -15   2    0.08    1.06
   9 -15  -2   -0.40    0.47
  -7 -15   2    5.59    1.40
   7 -15  -2    6.13    0.76
   5 -15  -2    1.46    1.06
  -5 -15   2   -0.65    1.05
  -5 -15   2   -0.28    0.79
  -5 -15   2   -0.43    0.95
   5 -15  -2    0.13    1.03
   5 -15  -2    0.70    0.52
   3 -15  -2    1.18    0.56
   3 -15  -2    0.85    1.04
  -3 -15   2    0.59    0.75
   3 -15  -2    0.56    1.04
  -3 -15   2    0.66    1.06
   1 -15  -2    4.73    1.22
  -1 -15   2    5.98    1.24
  -1 -15   2    6.69    1.04
   1 -15  -2    5.48    1.34
   1 -15  -2    6.49    0.78
   1 -15   2    5.51    1.50
   1 -15   2    6.34    1.33
  -1 -15  -2    5.60    1.35
  -1 -15  -2    4.89    0.74
  -1 -15  -2    3.37    1.17
   1 -15   2    4.74    0.93
   3 -15   2    1.30    1.04
   3 -15   2    1.32    0.90
   3 -15   2   -0.16    0.67
  -3 -15  -2   -0.95    0.95
  -3 -15  -2   -0.46    0.51
  -3 -15  -2   -0.03    0.98
   5 -15   2    0.59    0.98
  -5 -15  -2   -0.03    0.89
   5 -15   2    1.86    0.84
   5 -15   2    0.69    0.79
  -5 -15  -2    0.54    1.17
  -5 -15  -2    0.57    0.54
  -7 -15  -2    4.57    1.49
   7 -15   2    6.07    1.17
  -7 -15  -2    4.76    1.36
  -7 -15  -2    5.54    0.77
  -9 -15  -2    1.86    1.21
  -9 -15  -2    1.57    1.39
   9 -15   2    0.51    0.93
  -9 -15  -2    1.94    0.66
  11 -15   2    5.86    1.24
  38   0  -3   10.07    1.68
  38   0  -3    6.73    1.30
  36   0  -3    0.83    1.06
  36   0  -3    2.06    0.98
  34   0  -3   30.16    1.97
  34   0  -3   26.99    2.07
  32   0  -3    3.12    0.98
  32   0  -3    2.64    0.91
  30   0  -3    1.40    0.69
  30   0  -3    1.47    0.86
  28   0  -3   28.78    1.82
  28   0  -3   28.14    1.68
  26   0  -3   22.41    1.27
  26   0  -3   21.12    1.53
  26   0  -3   20.39    1.41
  24   0  -3   25.15    1.40
  24   0  -3   26.88    1.60
  24   0  -3   23.52    1.27
 -22   0   3   36.07    1.71
  22   0  -3   35.59    1.80
  22   0  -3   38.09    1.70
  22   0  -3   34.25    1.53
  20   0  -3   51.27    1.86
  20   0  -3   48.53    2.09
  20   0  -3   50.68    1.98
  20   0  -3   46.06    1.90
 -20   0   3   48.78    1.96
 -18   0   3   32.31    1.49
  18   0  -3   33.99    1.43
  18   0  -3   35.02    1.62
  18   0  -3   36.26    1.52
  18   0  -3   35.46    1.50
  16   0  -3   87.94    3.00
  16   0  -3   91.08    2.90
  16   0  -3   89.86    2.83
 -16   0   3   92.63    2.92
  16   0  -3   92.84    2.90
  14   0  -3    5.95    0.60
 -14   0   3    6.65    0.61
  14   0  -3    5.29    0.62
  14   0  -3    5.49    0.54
  14   0  -3    6.52    0.59
  12   0  -3   89.83    2.72
  12   0  -3   87.49    2.83
  12   0  -3   90.43    2.78
  12   0  -3   91.50    2.75
 -12   0   3   91.52    2.73
  10   0  -3   24.77    1.03
  10   0  -3   24.75    0.97
  10   0  -3   25.38    1.09
  10   0  -3   24.47    1.01
 -10   0   3   24.69    0.96
   8   0  -3   21.46    0.83
  -8   0   3   22.16    0.83
   8   0  -3   21.06    0.93
   8   0  -3   23.28    0.93
   8   0  -3   21.52    0.89
   6   0  -3    1.25    0.26
  -6   0   3    1.19    0.18
   6   0  -3    1.40    0.25
   6   0  -3    1.16    0.23
   6   0  -3    1.24    0.19
   4   0  -3   34.57    1.24
  -4   0   3   38.56    1.27
  -4   0   3   38.01    1.31
   4   0  -3   37.89    1.09
  -4   0   3   37.02    1.22
  -4   0   3   38.93    1.23
   4   0  -3   37.66    1.24
  -4   0   3   37.52    1.06
   4   0  -3   33.97    1.20
   2   0  -3  700.59   17.83
  -2   0   3  711.70   17.81
   2   0  -3  700.42   17.79
   2   0  -3  699.76   17.76
  -2   0   3  693.47   17.76
  -2   0   3  672.96   17.75
   2   0  -3  684.56   17.57
   2   0  -3  672.24   17.77
   0   0   3   86.32    2.45
   0   0  -3   88.43    2.48
   0   0   3   89.11    2.49
   0   0   3   92.42    2.55
   0   0  -3   88.48    2.45
   0   0  -3   89.84    2.49
   0   0   3   87.53    2.48
   0   0  -3   88.54    2.54
   2   0   3  214.50    5.62
   2   0   3  218.95    5.69
  -2   0  -3  213.76    5.55
  -2   0  -3  213.78    5.63
  -2   0  -3  214.57    5.76
   2   0   3  220.14    5.78
   2   0   3  218.84    5.67
  -2   0  -3  211.90    5.67
  -4   0  -3   40.51    1.15
   4   0   3   40.99    1.22
   4   0   3   40.38    1.15
   4   0   3   40.94    1.34
   4   0   3   42.42    1.22
  -4   0  -3   40.63    1.20
  -4   0  -3   39.23    1.23
  -6   0  -3   30.23    0.99
   6   0   3   30.20    0.87
   6   0   3   31.02    0.95
  -6   0  -3   30.44    1.01
   6   0   3   30.78    0.84
  -8   0  -3  106.11    3.05
   8   0   3  113.30    2.96
   8   0   3  112.16    3.00
  -8   0  -3  111.62    3.13
  10   0   3    7.99    0.40
 -10   0  -3    7.10    0.33
 -10   0  -3    7.07    0.45
 -10   0  -3    6.35    0.54
 -10   0  -3    7.69    0.33
  12   0   3   39.88    1.25
 -12   0  -3   36.79    1.43
 -12   0  -3   38.27    1.35
  12   0   3   41.88    1.26
 -12   0  -3   38.74    1.20
 -14   0  -3   87.33    2.74
 -14   0  -3   83.34    2.59
  14   0   3   87.48    2.47
 -14   0  -3   83.01    2.42
  14   0   3   85.30    2.46
 -16   0  -3   55.66    1.72
 -16   0  -3   54.67    1.90
  16   0   3   56.86    1.74
 -16   0  -3   53.11    2.01
  16   0   3   53.94    1.73
 -18   0  -3  131.60    4.11
  18   0   3  133.54    3.74
 -18   0  -3  138.63    3.75
  18   0   3  128.76    3.74
 -18   0  -3  127.89    3.93
 -20   0  -3    4.97    0.76
 -20   0  -3    6.20    0.72
 -20   0  -3    6.29    0.55
  20   0   3    5.03    0.50
  20   0   3    5.81    0.54
 -20   0  -3    5.29    0.29
 -22   0  -3    8.63    0.86
 -22   0  -3    8.16    0.99
  22   0   3    9.13    0.71
  22   0   3    8.57    0.70
  24   0   3    2.13    0.57
  24   0   3    2.88    0.52
  24   0   3    3.24    0.50
 -24   0  -3    1.68    0.70
 -24   0  -3    4.05    0.70
  26   0   3   19.36    1.07
 -26   0  -3   17.42    1.26
  26   0   3   17.04    1.04
 -26   0  -3   18.60    1.55
  26   0   3   19.29    1.29
 -28   0  -3   10.32    1.24
 -28   0  -3   12.45    1.22
  28   0   3   12.42    0.98
  28   0   3   11.10    0.88
  28   0   3   11.26    1.09
 -30   0  -3    2.01    0.87
 -30   0  -3    3.83    0.85
  30   0   3    1.57    0.57
  30   0   3    1.45    0.64
  30   0   3    1.98    0.55
  32   0   3    1.90    0.75
 -32   0  -3    4.99    1.18
  32   0   3    0.82    0.56
  32   0   3    2.71    0.68
  34   0   3    0.85    0.78
 -34   0  -3    0.19    0.57
  34   0   3   -0.14    0.55
  36   0   3   13.35    1.15
 -36   0  -3   13.77    1.15
  36   0   3   13.47    1.43
  38   0   3    0.43    0.89
 -38   0  -3   -0.27    0.59
  38   0   3   -1.01    0.61
  39  -1  -3    1.96    1.05
  39   1  -3    3.00    1.08
  37  -1  -3    5.39    1.22
  37  -1  -3    4.60    1.33
  37   1  -3    2.95    1.19
  37   1  -3    6.25    1.19
  35  -1  -3   14.42    1.67
  35  -1  -3   13.49    1.53
  35   1  -3   10.40    1.52
  35   1  -3    9.21    1.32
  33  -1  -3    6.84    1.31
  33  -1  -3    7.26    1.13
  33   1  -3    3.57    0.89
  33   1  -3    5.06    1.23
  31  -1  -3    3.99    0.79
  31  -1  -3    4.81    1.13
  31  -1  -3    4.29    0.90
  31   1  -3    7.58    1.07
  31   1  -3    6.57    1.19
  29  -1  -3    3.63    0.93
  29  -1  -3    4.67    0.85
  29  -1  -3    5.12    0.80
  29   1  -3    6.16    0.99
  29   1  -3    4.40    1.07
  27  -1  -3   10.59    1.22
  27  -1  -3    7.52    0.85
  27  -1  -3   10.41    1.16
  27   1  -3   12.49    1.17
  27   1  -3   12.88    1.38
  25  -1  -3    6.20    0.86
  25  -1  -3    4.92    0.72
  25  -1  -3    4.92    0.89
  25   1  -3    6.22    0.86
  25   1  -3    5.98    0.95
  23  -1  -3   28.18    1.60
  23  -1  -3   27.79    1.47
  23  -1  -3   29.55    1.41
  23  -1  -3   25.93    1.12
  23   1  -3   38.21    1.77
  23   1  -3   39.27    1.98
  21  -1  -3   48.26    2.13
  21  -1  -3   52.00    1.95
  21  -1  -3   50.71    2.02
 -21  -1   3   55.06    2.16
  21  -1  -3   49.61    1.67
  21   1  -3   49.34    1.98
  21   1  -3   47.01    2.12
 -21   1   3   52.40    2.07
  19  -1  -3    2.00    0.33
  19  -1  -3    2.07    0.47
 -19  -1   3    2.88    0.57
  19  -1  -3    1.66    0.52
  19  -1  -3    2.46    0.53
  19  -1  -3    1.54    0.46
  19   1  -3    3.15    0.53
  19   1  -3    2.96    0.56
  19   1  -3    3.96    0.59
 -19   1   3    4.91    0.67
  19   1  -3    3.14    0.63
  17  -1  -3   59.10    2.09
  17  -1  -3   60.35    2.10
  17  -1  -3   57.48    1.75
  17  -1  -3   54.98    2.15
 -17  -1   3   57.24    2.09
  17  -1  -3   55.71    2.02
  17   1  -3   64.94    2.21
  17   1  -3   58.88    2.09
  17   1  -3   59.73    2.17
 -17   1   3   64.73    2.20
  17   1  -3   61.91    2.36
  15  -1  -3   13.35    0.91
  15  -1  -3   12.25    0.79
 -15  -1   3   15.20    0.88
  15  -1  -3   12.26    0.76
  15  -1  -3   12.85    0.85
  15   1  -3   14.86    0.85
  15   1  -3   14.16    0.80
  15   1  -3   14.55    0.96
 -15   1   3   14.99    0.85
  15   1  -3   14.18    0.88
 -13  -1   3    2.32    0.38
  13  -1  -3    2.44    0.39
  13  -1  -3    2.19    0.38
  13  -1  -3    2.32    0.40
  13  -1  -3    2.07    0.43
  13   1  -3    2.42    0.39
  13   1  -3    1.91    0.43
  13   1  -3    2.06    0.38
  13   1  -3    2.60    0.43
 -13   1   3    2.21    0.36
  11  -1  -3   77.67    2.45
  11  -1  -3   79.13    2.42
  11  -1  -3   78.51    2.49
  11  -1  -3   80.54    2.51
 -11  -1   3   83.19    2.47
  11   1  -3   81.02    2.42
  11   1  -3   77.65    2.46
  11   1  -3   78.25    2.55
  11   1  -3   79.05    2.42
 -11   1   3   77.17    2.38
   9  -1  -3  121.06    3.49
  -9  -1   3  121.84    3.44
   9  -1  -3  118.92    3.41
   9  -1  -3  120.11    3.49
   9  -1  -3  126.74    3.53
   9   1  -3  133.15    3.64
   9   1  -3  130.09    3.72
   9   1  -3  130.11    3.68
  -9   1   3  125.52    3.59
   9   1  -3  127.95    3.77
   7  -1  -3    8.44    0.50
   7  -1  -3    8.24    0.55
  -7  -1   3    6.92    0.43
   7  -1  -3    7.59    0.49
   7  -1  -3    7.67    0.49
   7  -1  -3    7.26    0.42
   7   1  -3    6.71    0.48
   7   1  -3    7.10    0.50
   7   1  -3    8.35    0.46
   7   1  -3    8.16    0.55
  -7   1   3    7.61    0.41
   5  -1  -3   78.82    2.27
   5  -1  -3   75.80    2.32
   5  -1  -3   77.04    2.28
  -5  -1   3   78.14    2.17
   5  -1  -3   76.06    2.25
   5  -1  -3   77.77    2.15
   5   1  -3   62.23    1.88
  -5   1   3   60.56    1.73
   5   1  -3   61.42    1.96
  -5   1   3   64.40    1.81
   5   1  -3   62.56    1.79
   5   1  -3   60.61    1.92
   3  -1  -3  417.82   10.85
  -3  -1   3  419.86   10.64
  -3  -1   3  407.45   10.77
   3  -1  -3  418.14   10.62
   3  -1  -3  414.51   10.78
   3  -1  -3  411.07   10.76
   3  -1  -3  411.67   10.76
  -3  -1   3  421.73   10.86
  -3  -1   3  409.80   10.90
   3   1  -3  431.75   11.50
  -3   1   3  437.70   11.41
  -3   1   3  457.67   11.62
   3   1  -3  443.21   11.67
  -3   1   3  465.62   11.58
  -3   1   3  452.35   11.70
   3   1  -3  435.13   11.72
  -3   1   3  468.22   11.43
  -3   1   3  440.19   11.57
   1  -1  -3  475.30   12.31
   1  -1  -3  484.75   12.41
   1  -1  -3  488.04   12.17
   1  -1  -3  480.47   12.33
   1  -1  -3  468.80   12.32
   1  -1  -3  489.62   12.16
  -1  -1   3  482.07   12.44
  -1  -1   3  457.76   12.32
  -1  -1   3  471.10   12.31
  -1   1   3  487.59   12.77
  -1   1   3  488.26   12.66
   1   1  -3  482.43   12.77
   1   1  -3  497.39   12.60
  -1   1   3  487.24   12.68
  -1   1   3  519.02   12.70
   1   1  -3  483.92   12.82
   1  -1   3  884.67   22.70
   1  -1   3  882.31   22.81
   1  -1   3  873.67   22.73
  -1  -1  -3  891.47   22.73
  -1  -1  -3  876.86   22.71
  -1  -1  -3  915.67   22.77
  -1  -1  -3  907.71   22.83
   1  -1   3  888.99   22.89
   1   1   3 1000.00   25.05
  -1   1  -3  975.58   25.16
   1   1   3  948.57   24.97
   1   1   3  986.23   25.09
   1   1   3  989.57   24.98
   3  -1   3  201.38    5.25
   3  -1   3  196.33    5.13
  -3  -1  -3  196.42    5.17
  -3  -1  -3  196.67    5.31
  -3  -1  -3  190.55    5.15
  -3  -1  -3  200.40    5.17
   3  -1   3  204.14    5.52
   3   1   3  218.20    5.70
  -3   1  -3  214.87    5.74
   3   1   3  224.02    5.83
   3   1   3  227.33    5.84
  -3   1  -3  218.29    5.68
   3   1   3  218.93    5.71
   3   1   3  214.85    5.66
  -5  -1  -3   12.02    0.52
  -5  -1  -3   11.64    0.58
  -5  -1  -3   12.78    0.44
   5  -1   3   12.89    0.42
   5  -1   3   12.56    0.41
  -5   1  -3   16.19    0.66
   5   1   3   17.64    0.55
   5   1   3   17.58    0.69
  -5   1  -3   17.24    0.55
   5   1   3   17.49    0.50
   5   1   3   17.76    0.50
   5   1   3   17.74    0.59
   7  -1   3   57.78    1.59
  -7  -1  -3   55.30    1.76
  -7  -1  -3   56.50    1.73
  -7  -1  -3   57.19    1.52
   7   1   3   69.26    1.92
  -7   1  -3   71.45    2.10
   7   1   3   71.90    2.07
   7   1   3   69.71    1.86
  -7   1  -3   72.14    1.93
   9  -1   3   80.83    2.22
   9  -1   3   79.69    2.10
  -9  -1  -3   80.24    2.09
  -9  -1  -3   80.95    2.40
  -9  -1  -3   77.02    2.09
  -9  -1  -3   78.42    2.39
  -9   1  -3   81.39    2.44
  -9   1  -3   81.68    2.19
   9   1   3   80.30    2.24
   9   1   3   82.07    2.21
  -9   1  -3   80.98    2.24
 -11  -1  -3   23.72    1.05
 -11  -1  -3   26.53    1.05
 -11  -1  -3   25.08    0.81
 -11  -1  -3   26.18    0.83
  11  -1   3   24.73    0.88
  11  -1   3   25.09    0.73
 -11   1  -3   34.40    1.11
 -11   1  -3   33.83    1.29
  11   1   3   33.65    1.08
  11   1   3   32.14    1.03
 -11   1  -3   34.94    1.06
 -13  -1  -3   80.98    2.30
  13  -1   3   84.36    2.37
 -13  -1  -3   81.48    2.61
 -13  -1  -3   78.71    2.31
  13  -1   3   82.64    2.41
 -13  -1  -3   82.74    2.57
  13  -1   3   81.73    2.16
  13   1   3   71.84    2.08
 -13   1  -3   71.96    2.06
  13   1   3   70.67    2.02
 -13   1  -3   70.14    2.32
 -13   1  -3   69.67    2.12
 -15  -1  -3   64.92    2.24
 -15  -1  -3   62.76    1.94
  15  -1   3   63.22    1.74
  15  -1   3   61.86    1.96
 -15  -1  -3   67.44    1.94
 -15  -1  -3   64.66    2.21
  15  -1   3   66.85    2.01
 -15   1  -3   54.27    1.81
 -15   1  -3   55.45    1.99
  15   1   3   55.37    1.69
 -15   1  -3   55.80    1.73
  15   1   3   58.87    1.76
 -17  -1  -3    6.41    0.74
 -17  -1  -3    6.45    0.71
  17  -1   3    6.79    0.53
 -17  -1  -3    7.12    0.51
  17  -1   3    6.82    0.32
 -17  -1  -3    7.22    0.54
  17  -1   3    6.94    0.56
 -17   1  -3    8.41    0.64
  17   1   3    7.33    0.49
  17   1   3    7.34    0.56
 -17   1  -3    8.12    0.80
 -17   1  -3    9.35    0.57
 -19  -1  -3  141.22    4.33
 -19  -1  -3  138.63    4.23
 -19  -1  -3  134.57    3.88
  19  -1   3  136.54    3.91
  19  -1   3  137.01    3.94
 -19   1  -3  117.95    3.75
  19   1   3  119.10    3.34
 -19   1  -3  112.08    3.13
 -19   1  -3  117.17    3.52
 -19   1  -3  118.80    3.39
  19   1   3  115.66    3.37
  21  -1   3   46.33    1.64
 -21  -1  -3   45.44    2.04
  21  -1   3   45.54    1.66
 -21  -1  -3   44.46    1.92
  21   1   3   52.05    1.79
 -21   1  -3   52.85    2.19
 -21   1  -3   50.91    1.94
  21   1   3   52.86    1.97
  21   1   3   51.59    1.75
 -23  -1  -3   72.64    2.82
  23  -1   3   74.53    2.45
 -23  -1  -3   73.61    2.75
  23  -1   3   74.22    2.40
  23   1   3   76.21    2.70
  23   1   3   77.47    2.52
 -23   1  -3   83.02    2.76
 -23   1  -3   82.92    3.03
  23   1   3   78.72    2.50
  25  -1   3   15.57    1.10
 -25  -1  -3   12.20    1.23
  25  -1   3   16.47    1.00
  25  -1   3   14.62    0.96
 -25  -1  -3   15.42    1.30
 -25   1  -3   17.31    1.18
  25   1   3   15.97    0.93
  25   1   3   16.34    0.99
  25   1   3   16.86    1.18
 -25   1  -3   19.04    1.43
 -27  -1  -3    4.94    0.68
  27  -1   3    5.09    0.79
  27  -1   3    6.27    0.71
 -27  -1  -3    3.83    0.85
  27  -1   3    4.74    0.69
 -27  -1  -3    3.90    0.87
 -27   1  -3    5.09    0.81
  27   1   3    3.94    0.60
  27   1   3    4.04    0.59
  27   1   3    5.23    0.78
 -27   1  -3    3.87    0.85
  29  -1   3    7.69    0.95
  29  -1   3    9.96    0.97
 -29  -1  -3    9.72    0.90
 -29  -1  -3    7.49    1.17
 -29  -1  -3    8.99    1.16
  29  -1   3    9.11    0.86
 -29   1  -3    9.42    1.31
  29   1   3    9.97    0.92
 -29   1  -3   11.49    1.12
  29   1   3    9.54    0.91
  29   1   3    9.25    1.06
 -31  -1  -3    8.24    1.17
 -31  -1  -3    6.86    0.81
  31  -1   3    6.40    0.94
  31  -1   3    8.05    0.95
 -31  -1  -3    7.48    1.20
  31  -1   3    5.54    0.76
 -31   1  -3    7.22    1.23
  31   1   3    6.31    0.96
  31   1   3    5.42    0.74
 -33  -1  -3    7.49    1.15
  33  -1   3    6.15    0.97
  33  -1   3    6.92    0.93
  33  -1   3    5.02    0.79
 -33  -1  -3    5.71    0.80
  33   1   3    5.02    0.79
  33   1   3    5.57    0.97
 -35  -1  -3   10.10    1.01
  35  -1   3   10.59    1.31
  35  -1   3   11.82    1.08
  35   1   3    7.78    1.16
  35   1   3    9.34    0.99
  37  -1   3    0.20    0.78
 -37  -1  -3    0.14    0.60
  37  -1   3   -0.30    0.63
  37   1   3   -0.82    0.83
  37   1   3    0.76    0.69
  38  -2  -3    4.88    1.23
  38  -2  -3    3.48    1.07
  38   2  -3    1.03    1.05
  36  -2  -3    1.87    1.09
  36  -2  -3    3.64    1.10
  36   2  -3    2.91    1.31
  36   2  -3    1.72    0.93
  34  -2  -3   18.58    1.80
  34  -2  -3   17.04    1.65
  34   2  -3   13.65    1.77
  34   2  -3   10.77    1.26
  32  -2  -3   10.39    1.10
  32  -2  -3    9.05    1.38
  32  -2  -3    8.70    1.23
  32   2  -3   12.53    1.34
  32   2  -3   11.51    1.50
  30  -2  -3    8.76    1.27
  30  -2  -3    6.41    0.89
  30  -2  -3    7.53    1.07
  30   2  -3    9.20    1.09
  30   2  -3    9.18    1.33
  28  -2  -3   15.44    1.24
  28  -2  -3   16.11    0.95
  28  -2  -3   17.24    1.58
  28  -2  -3   15.75    1.35
  28   2  -3    8.87    1.24
  28   2  -3   13.34    1.24
  26  -2  -3   48.02    2.29
  26  -2  -3   44.30    2.05
  26  -2  -3   46.24    1.65
  26  -2  -3   45.34    1.96
  26   2  -3   40.52    2.25
  26   2  -3   45.97    2.03
  24  -2  -3   22.04    1.01
  24  -2  -3   21.55    1.42
  24  -2  -3   22.87    1.38
  24  -2  -3   23.66    1.30
  24   2  -3   18.66    1.57
  24   2  -3   20.47    1.26
  22  -2  -3   29.10    1.12
  22  -2  -3   29.24    1.42
  22  -2  -3   25.80    1.43
  22  -2  -3   29.71    1.56
 -22  -2   3   27.46    1.58
  22   2  -3   28.57    1.46
  22   2  -3   30.09    1.69
 -22   2   3   33.37    2.39
  20  -2  -3   13.81    1.04
 -20  -2   3   14.69    1.10
  20  -2  -3   16.79    1.39
  20  -2  -3   14.54    1.02
  20  -2  -3   13.22    0.96
  20  -2  -3   13.29    0.71
 -20   2   3   11.49    1.00
  20   2  -3   12.04    1.00
  20   2  -3   11.37    1.10
  20   2  -3   11.03    1.10
  18  -2  -3   19.34    0.80
  18  -2  -3   19.19    1.07
 -18  -2   3   18.02    1.14
  18  -2  -3   21.01    1.15
  18  -2  -3   21.03    1.13
  18  -2  -3   19.44    1.14
  18   2  -3   14.95    0.95
  18   2  -3   13.71    1.07
 -18   2   3   16.73    1.01
  18   2  -3   16.44    1.01
 -16  -2   3   77.56    2.63
  16  -2  -3   73.14    2.60
  16  -2  -3   80.21    2.55
  16  -2  -3   80.12    2.62
  16  -2  -3   75.07    2.57
  16  -2  -3   78.12    2.22
  16   2  -3   76.45    2.56
  16   2  -3   76.11    2.73
  16   2  -3   75.74    2.56
 -16   2   3   78.08    2.55
  14  -2  -3   27.48    1.17
  14  -2  -3   27.97    1.21
  14  -2  -3   25.61    1.16
  14  -2  -3   24.54    1.17
 -14  -2   3   27.16    1.22
  14  -2  -3   25.66    0.87
  14   2  -3   33.41    1.34
  14   2  -3   31.20    1.44
  14   2  -3   29.80    1.31
 -14   2   3   31.07    1.28
  12  -2  -3   58.82    1.71
  12  -2  -3   61.72    2.05
 -12  -2   3   63.25    2.08
  12  -2  -3   66.09    2.07
  12  -2  -3   60.27    2.06
  12  -2  -3   64.10    2.09
  12   2  -3   51.82    1.81
  12   2  -3   52.50    1.85
  12   2  -3   56.13    2.00
 -12   2   3   53.41    1.79
  10  -2  -3  124.32    3.61
  10  -2  -3  125.63    3.56
  10  -2  -3  119.85    3.64
 -10  -2   3  130.63    3.61
  10  -2  -3  122.47    3.58
  10  -2  -3  121.82    3.60
 -10   2   3  122.37    3.54
  10   2  -3  125.31    3.60
  10   2  -3  124.90    3.66
  10   2  -3  128.73    3.78
  -8  -2   3   15.29    0.71
   8  -2  -3   13.83    0.75
   8  -2  -3   14.46    0.67
   8  -2  -3   14.20    0.72
   8  -2  -3   14.61    0.73
   8  -2  -3   14.53    0.68
   8   2  -3   18.51    0.81
   8   2  -3   20.21    0.94
   8   2  -3   18.29    0.88
  -8   2   3   18.57    0.76
   6  -2  -3  117.93    3.33
   6  -2  -3  116.61    3.41
   6  -2  -3  119.20    3.26
   6  -2  -3  120.03    3.27
   6  -2  -3  114.92    3.34
  -6  -2   3  115.73    3.29
   6   2  -3  134.53    3.69
   6   2  -3  129.60    3.85
   6   2  -3  133.36    3.80
  -6   2   3  132.57    3.57
  -6   2   3  135.48    3.62
   4  -2  -3  349.99    9.25
   4  -2  -3  359.26    9.30
   4  -2  -3  355.39    9.19
  -4  -2   3  355.60    9.23
   4  -2  -3  353.15    9.37
   4  -2  -3  348.93    9.18
  -4   2   3  323.14    8.40
  -4   2   3  332.91    8.55
   4   2  -3  332.07    8.65
   4   2  -3  325.45    8.77
   4   2  -3  335.93    8.84
  -4   2   3  334.51    8.54
   2  -2  -3   17.14    0.63
   2  -2  -3   16.71    0.77
   2  -2  -3   16.84    0.66
   2  -2  -3   18.40    0.72
   2  -2  -3   17.64    0.63
   2   2  -3   15.35    0.71
  -2   2   3   15.82    0.55
   2   2  -3   15.81    0.76
  -2   2   3   15.76    0.59
   2   2  -3   15.96    0.64
  -2   2   3   16.31    0.56
   0  -2  -3  361.97    9.46
   0  -2  -3  367.74    9.66
   0  -2  -3  357.80    9.46
   0  -2  -3  370.15    9.54
   0  -2  -3  373.71    9.44
   0   2   3  354.17    9.08
   0   2   3  356.64    9.09
   0   2  -3  347.58    9.36
   0   2   3  354.83    9.17
   0   2   3  351.77    9.11
   2  -2   3   34.05    0.95
   2  -2   3   33.39    0.97
  -2  -2  -3   31.66    1.06
  -2  -2  -3   34.13    0.99
  -2  -2  -3   33.05    1.05
  -2  -2  -3   34.56    1.23
  -2   2  -3   16.49    0.67
   2   2   3   16.14    0.61
   2   2   3   16.39    0.61
  -2   2  -3   16.25    0.77
   2   2   3   17.39    0.54
   4  -2   3  109.98    2.94
  -4  -2  -3  112.72    3.20
  -4  -2  -3  111.18    3.06
  -4  -2  -3  107.70    3.00
  -4  -2  -3  112.87    2.90
   4  -2   3  109.94    2.85
   4   2   3  115.14    3.06
   4   2   3  116.73    3.07
  -4   2  -3  117.57    3.29
   4   2   3  123.23    3.17
   6  -2   3   54.09    1.55
  -6  -2  -3   54.75    1.78
  -6  -2  -3   53.50    1.54
  -6  -2  -3   54.13    1.68
  -6   2  -3   57.67    1.55
   6   2   3   58.62    1.55
  -6   2  -3   57.69    1.81
   6   2   3   59.29    1.61
   6   2   3   60.02    1.64
  -8  -2  -3   91.85    2.47
  -8  -2  -3   89.78    2.70
   8  -2   3   93.05    2.53
   8  -2   3   90.20    2.48
  -8  -2  -3   90.85    2.75
   8   2   3   87.11    2.36
  -8   2  -3   84.45    2.33
  -8   2  -3   86.12    2.57
   8   2   3   87.25    2.25
 -10  -2  -3    4.26    0.27
 -10  -2  -3    4.80    0.27
 -10  -2  -3    4.35    0.50
 -10  -2  -3    4.31    0.28
 -10  -2  -3    4.39    0.46
  10  -2   3    5.00    0.28
  10  -2   3    3.69    0.33
 -10   2  -3    4.92    0.24
 -10   2  -3    5.12    0.26
  10   2   3    4.66    0.33
  10   2   3    5.21    0.24
 -10   2  -3    5.09    0.33
 -10   2  -3    3.98    0.44
 -12  -2  -3   41.43    1.26
 -12  -2  -3   40.58    1.23
  12  -2   3   40.35    1.20
 -12  -2  -3   39.19    1.17
 -12  -2  -3   39.50    1.54
 -12  -2  -3   41.93    1.55
  12  -2   3   38.94    1.31
 -12   2  -3   39.01    1.48
  12   2   3   38.55    1.13
  12   2   3   39.02    1.24
 -12   2  -3   38.04    1.24
 -12   2  -3   37.92    1.18
 -14  -2  -3   71.14    2.48
  14  -2   3   73.67    2.21
  14  -2   3   75.23    2.28
 -14  -2  -3   73.72    2.14
 -14  -2  -3   76.47    2.03
  14  -2   3   73.83    2.06
 -14  -2  -3   72.73    2.49
 -14  -2  -3   74.70    2.17
 -14  -2  -3   72.75    2.01
  14   2   3   73.04    2.14
 -14   2  -3   73.55    2.16
 -14   2  -3   74.35    2.44
  14   2   3   72.01    2.04
 -14   2  -3   70.60    2.12
 -16  -2  -3   18.52    1.08
  16  -2   3   17.51    0.82
 -16  -2  -3   17.59    0.77
  16  -2   3   17.76    0.85
 -16  -2  -3   17.22    0.79
 -16  -2  -3   17.42    0.60
  16  -2   3   17.00    0.65
 -16  -2  -3   16.69    0.62
 -16  -2  -3   19.00    1.07
  16   2   3   18.45    0.81
 -16   2  -3   17.98    0.81
  16   2   3   17.55    0.71
 -16   2  -3   18.78    1.04
  16   2   3   17.30    0.88
  18  -2   3   27.66    0.93
 -18  -2  -3   25.46    0.88
  18  -2   3   28.99    1.12
 -18  -2  -3   29.40    1.42
 -18  -2  -3   26.20    1.06
 -18  -2  -3   27.44    0.86
 -18  -2  -3   27.07    1.10
 -18  -2  -3   26.48    1.42
 -18   2  -3   20.91    1.21
 -18   2  -3   19.09    0.90
  18   2   3   19.91    0.81
  18   2   3   19.62    0.89
  18   2   3   18.06    0.96
  20  -2   3   45.01    1.36
 -20  -2  -3   44.19    1.58
 -20  -2  -3   39.86    1.89
  20  -2   3   42.95    1.65
 -20  -2  -3   47.16    2.00
 -20  -2  -3   45.26    1.56
 -20  -2  -3   40.00    1.48
  20  -2   3   44.82    1.58
  20   2   3   41.79    1.68
 -20   2  -3   43.64    1.92
  20   2   3   44.28    1.57
  20   2   3   43.10    1.48
 -20   2  -3   47.09    1.86
 -22  -2  -3    0.31    0.54
 -22  -2  -3    0.22    0.49
  22  -2   3    0.22    0.36
  22  -2   3    0.11    0.21
  22  -2   3   -0.13    0.32
 -22  -2  -3    0.22    0.35
  22   2   3   -0.36    0.36
  22   2   3    0.01    0.28
 -22   2  -3   -0.15    0.49
  22   2   3   -0.06    0.31
 -24  -2  -3    6.60    0.95
  24  -2   3    9.20    0.82
 -24  -2  -3    6.27    0.67
 -24  -2  -3    7.78    1.01
  24  -2   3    7.06    0.68
 -24   2  -3    3.04    0.58
 -24   2  -3    3.60    0.81
  24   2   3    3.66    0.68
  24   2   3    3.63    0.50
  24   2   3    3.66    0.55
  26  -2   3   17.44    1.05
 -26  -2  -3   17.27    1.48
 -26  -2  -3   15.31    1.43
  26  -2   3   15.62    1.02
 -26  -2  -3   13.97    1.02
  26   2   3   19.88    1.09
  26   2   3   16.37    1.22
 -26   2  -3   18.45    1.21
  26   2   3   18.76    1.01
  28  -2   3    5.11    0.85
  28  -2   3    6.10    0.80
 -28  -2  -3    6.84    1.08
 -28  -2  -3    7.62    0.79
 -28  -2  -3    6.88    1.08
  28  -2   3    8.05    0.83
  28   2   3    4.93    0.80
  28   2   3    5.06    0.67
 -28   2  -3    3.18    0.83
  30  -2   3    2.75    0.72
 -30  -2  -3    1.61    0.96
  30  -2   3    1.79    0.59
 -30  -2  -3    1.96    0.87
 -30  -2  -3    3.11    0.63
  30  -2   3    1.81    0.73
  30   2   3    2.00    0.60
 -30   2  -3    1.46    0.83
  30   2   3    1.83    0.68
  32  -2   3    0.19    0.69
 -32  -2  -3    0.44    0.54
 -32  -2  -3    0.19    0.82
 -32  -2  -3    0.96    0.91
  32  -2   3   -0.40    0.59
  32  -2   3    0.22    0.53
  32   2   3    0.78    0.59
  32   2   3   -0.05    0.74
  34  -2   3    0.81    0.69
  34  -2   3    0.63    0.56
 -34  -2  -3   -0.78    0.52
  34  -2   3   -0.17    0.78
 -34  -2  -3   -0.31    0.84
  34   2   3    0.85    0.83
  34   2   3   -0.61    0.56
  36  -2   3    8.26    1.02
 -36  -2  -3    6.34    0.88
  36  -2   3    6.37    1.04
  36  -2   3    6.45    1.16
  36   2   3   10.06    1.10
  36   2   3    7.62    1.27
 -38  -2  -3   -0.03    0.61
  38  -2   3   -0.31    0.62
  38   2   3    0.77    0.69
  38   2   3   -0.29    1.02
  37  -3  -3    4.87    1.30
  37  -3  -3    3.05    1.05
  37   3  -3    5.60    1.41
  35  -3  -3    6.04    1.33
  35  -3  -3    4.86    1.16
  35   3  -3    6.91    1.49
  35   3  -3    3.67    1.05
  33  -3  -3   12.62    1.23
  33  -3  -3   10.21    1.30
  33  -3  -3   13.90    1.54
  33   3  -3   10.54    1.30
  33   3  -3   10.36    1.52
  31  -3  -3    1.53    0.92
  31  -3  -3    1.66    0.48
  31  -3  -3    1.78    0.73
  31  -3  -3    1.91    0.77
  31   3  -3    2.80    0.82
  31   3  -3    2.37    0.99
  29  -3  -3    8.89    1.23
  29  -3  -3    8.24    0.99
  29  -3  -3    9.03    0.74
  29  -3  -3   11.16    1.22
  29   3  -3   10.02    1.37
  29   3  -3   10.63    1.16
  27  -3  -3    0.81    0.70
  27  -3  -3    0.98    0.60
  27  -3  -3    1.63    0.71
  27  -3  -3    1.61    0.41
  27   3  -3    0.13    0.56
  27   3  -3    0.42    0.71
  25  -3  -3   10.53    1.15
  25  -3  -3    9.07    0.69
  25  -3  -3    8.42    0.93
  25  -3  -3   10.18    1.11
  25   3  -3    9.73    1.23
  25   3  -3    9.38    0.99
  23  -3  -3   36.64    1.85
  23  -3  -3   35.62    1.33
  23  -3  -3   35.51    1.66
  23  -3  -3   37.70    1.77
  23   3  -3   28.48    1.51
  23   3  -3   28.16    1.72
  21  -3  -3    2.42    0.64
  21  -3  -3    3.22    0.68
  21  -3  -3    3.04    0.40
  21  -3  -3    2.18    0.52
 -21  -3   3    2.76    0.67
  21   3  -3    5.42    0.90
  21   3  -3    4.36    0.71
 -21   3   3    4.20    0.78
  19  -3  -3   49.58    2.06
 -19  -3   3   51.12    2.11
  19  -3  -3   53.83    1.63
  19  -3  -3   50.18    1.97
  19  -3  -3   51.60    2.03
  19  -3  -3   48.40    2.05
 -19   3   3   51.31    2.02
  19   3  -3   52.20    2.23
  19   3  -3   49.70    2.14
  19   3  -3   52.23    2.02
  17  -3  -3   33.28    1.14
  17  -3  -3   34.49    1.46
 -17  -3   3   32.99    1.55
  17  -3  -3   30.55    1.49
  17  -3  -3   37.66    1.55
  17  -3  -3   35.36    1.55
  17   3  -3   25.81    1.30
  17   3  -3   28.97    1.33
 -17   3   3   26.08    1.28
  17   3  -3   28.77    1.48
  15  -3  -3   26.45    0.91
  15  -3  -3   26.58    1.26
  15  -3  -3   25.71    1.21
 -15  -3   3   26.83    1.31
  15  -3  -3   25.59    1.26
  15  -3  -3   27.84    1.27
  15   3  -3   34.93    1.63
 -15   3   3   36.03    1.46
  15   3  -3   38.99    1.55
  15   3  -3   35.08    1.51
  13  -3  -3   20.73    1.03
  13  -3  -3   18.08    0.97
 -13  -3   3   20.65    1.06
  13  -3  -3   19.79    0.97
  13  -3  -3   20.21    1.05
  13  -3  -3   20.14    0.71
  13  -3  -3   21.06    1.04
  13   3  -3   18.52    1.13
 -13   3   3   19.72    0.96
  13   3  -3   19.16    1.00
  13   3  -3   20.29    1.01
  11  -3  -3  129.10    3.72
 -11  -3   3  126.14    3.69
  11  -3  -3  121.02    3.64
  11  -3  -3  121.69    3.57
  11  -3  -3  122.65    3.65
  11  -3  -3  123.79    3.64
  11  -3  -3  120.36    3.26
  11   3  -3  137.24    3.97
  11   3  -3  136.58    4.10
 -11   3   3  130.73    3.85
  11   3  -3  134.90    3.93
   9  -3  -3   90.91    2.64
  -9  -3   3   91.21    2.77
   9  -3  -3   85.00    2.32
   9  -3  -3   89.75    2.72
   9  -3  -3   95.70    2.76
   9  -3  -3   87.71    2.79
   9  -3  -3   88.49    2.74
   9   3  -3   96.39    3.00
   9   3  -3   96.41    2.86
   9   3  -3   93.19    2.89
  -9   3   3   91.78    2.77
   7  -3  -3   11.90    0.56
  -7  -3   3   12.63    0.68
   7  -3  -3   12.86    0.66
   7  -3  -3   12.26    0.67
   7  -3  -3   11.68    0.73
   7  -3  -3   11.51    0.67
   7   3  -3   11.95    0.70
   7   3  -3   11.87    0.65
  -7   3   3   11.63    0.60
   7   3  -3   12.03    0.77
  -7   3   3   11.65    0.49
   5  -3  -3  153.39    4.31
  -5  -3   3  162.20    4.37
   5  -3  -3  155.07    4.16
   5  -3  -3  155.97    4.45
   5  -3  -3  150.35    4.35
   5  -3  -3  159.90    4.32
   5   3  -3  183.84    5.15
  -5   3   3  182.26    4.75
   5   3  -3  178.38    4.99
  -5   3   3  184.77    4.90
   5   3  -3  179.99    5.06
  -3  -3   3   80.09    2.31
   3  -3  -3   75.32    2.27
   3  -3  -3   75.60    2.10
   3  -3  -3   77.80    2.42
   3  -3  -3   77.64    2.24
   3  -3  -3   74.47    2.30
  -3   3   3   66.03    1.82
   3   3  -3   68.72    2.09
   3   3  -3   69.90    2.22
  -3   3   3   68.02    1.98
   1  -3  -3   10.25    0.38
  -1  -3   3   11.68    0.45
   1  -3  -3   10.44    0.64
   1  -3  -3    9.93    0.55
   1  -3  -3   11.62    0.56
   1  -3  -3   10.62    0.49
  -1   3   3    7.92    0.28
  -1   3   3    8.42    0.31
   1   3  -3    7.31    0.48
  -1   3   3    7.69    0.38
  -1   3   3    8.11    0.43
   1   3  -3    7.98    0.59
  -1  -3  -3   43.06    1.57
  -1  -3  -3   44.27    1.43
  -1  -3  -3   44.82    1.31
   1  -3   3   45.78    1.31
  -1  -3  -3   44.95    1.43
   1   3   3   41.15    1.16
   1   3   3   42.25    1.18
  -1   3  -3   41.68    1.51
   1   3   3   42.56    1.35
   1   3   3   43.00    1.21
  -3  -3  -3   43.98    1.20
  -3  -3  -3   40.81    1.52
   3  -3   3   41.77    1.28
  -3  -3  -3   43.79    1.38
   3  -3   3   42.90    1.21
  -3  -3  -3   43.89    1.42
   3   3   3   48.92    1.37
   3   3   3   49.29    1.34
  -3   3  -3   48.98    1.63
  -3   3  -3   50.85    1.72
  -5  -3  -3   29.93    1.23
  -5  -3  -3   30.89    1.04
  -5  -3  -3   32.95    1.16
   5  -3   3   30.34    1.00
   5   3   3   30.45    0.90
  -5   3  -3   27.57    1.12
   5   3   3   29.94    0.98
  -5   3  -3   29.88    0.89
  -7  -3  -3   71.20    2.36
  -7  -3  -3   74.60    1.92
   7  -3   3   74.53    2.12
  -7  -3  -3   74.61    1.92
  -7  -3  -3   74.69    2.29
   7  -3   3   70.73    2.10
  -7  -3  -3   71.80    2.12
  -7   3  -3  105.81    2.83
   7   3   3  103.36    2.82
  -7   3  -3  102.97    3.07
   9  -3   3   51.21    1.52
  -9  -3  -3   49.28    1.39
  -9  -3  -3   47.30    1.49
  -9  -3  -3   49.29    1.38
  -9  -3  -3   48.73    1.77
  -9  -3  -3   45.23    1.68
   9  -3   3   48.37    1.48
   9   3   3   36.65    1.18
  -9   3  -3   38.93    1.20
  -9   3  -3   38.30    1.43
 -11  -3  -3    6.41    0.37
 -11  -3  -3    6.64    0.39
 -11  -3  -3    6.09    0.40
  11  -3   3    6.51    0.47
 -11  -3  -3    5.85    0.63
  11  -3   3    6.19    0.40
 -11  -3  -3    7.42    0.67
  11   3   3    5.95    0.45
 -11   3  -3    5.67    0.26
 -11   3  -3    5.68    0.57
 -11   3  -3    6.31    0.42
  11   3   3    5.81    0.41
 -13  -3  -3   91.22    2.93
 -13  -3  -3   88.01    2.88
 -13  -3  -3   89.14    2.54
  13  -3   3   91.72    2.52
  13  -3   3   88.83    2.60
 -13  -3  -3   84.13    2.51
 -13  -3  -3   89.20    2.51
  13   3   3   98.18    2.82
  13   3   3   96.90    2.74
 -13   3  -3   96.30    3.03
  13   3   3   93.48    2.56
 -13   3  -3   96.50    2.77
 -13   3  -3   95.24    2.61
  15  -3   3   30.51    1.16
 -15  -3  -3   32.50    1.47
 -15  -3  -3   29.57    1.07
 -15  -3  -3   30.45    1.12
  15  -3   3   30.25    1.05
 -15  -3  -3   29.90    1.44
 -15  -3  -3   28.68    1.04
  15  -3   3   31.63    1.24
 -15   3  -3   34.32    1.12
  15   3   3   33.91    1.22
 -15   3  -3   34.24    1.25
 -15   3  -3   36.54    1.53
  15   3   3   34.34    1.07
  15   3   3   33.64    1.28
 -17  -3  -3   44.38    1.92
  17  -3   3   44.99    1.66
  17  -3   3   47.36    1.47
 -17  -3  -3   46.33    1.53
 -17  -3  -3   44.58    1.44
 -17  -3  -3   46.02    1.40
 -17  -3  -3   43.01    1.90
 -17  -3  -3   47.69    1.57
  17  -3   3   44.24    1.57
  17   3   3   45.28    1.57
  17   3   3   45.55    1.64
 -17   3  -3   49.23    1.92
  17   3   3   45.73    1.43
 -17   3  -3   46.69    1.61
 -17   3  -3   46.71    1.49
 -19  -3  -3   18.99    0.81
  19  -3   3   23.45    1.08
 -19  -3  -3   21.09    0.89
 -19  -3  -3   17.08    0.93
 -19  -3  -3   20.15    0.92
 -19  -3  -3   20.91    1.34
 -19  -3  -3   17.92    1.27
  19  -3   3   19.74    0.82
  19  -3   3   20.44    1.00
  19   3   3   24.48    1.07
 -19   3  -3   27.38    1.17
  19   3   3   24.57    1.16
 -19   3  -3   26.30    1.42
  19   3   3   24.92    0.95
  21  -3   3   17.22    1.02
 -21  -3  -3   16.36    1.35
  21  -3   3   15.80    0.74
  21  -3   3   14.62    0.90
 -21  -3  -3   14.07    0.88
 -21  -3  -3   17.91    1.31
 -21  -3  -3   14.61    0.71
  21   3   3   13.57    0.95
  21   3   3   14.29    0.71
  21   3   3   12.53    0.82
 -21   3  -3   14.60    1.21
  23  -3   3   53.13    1.89
 -23  -3  -3   51.58    1.89
  23  -3   3   53.85    1.99
 -23  -3  -3   54.10    2.41
 -23  -3  -3   48.47    2.34
  23  -3   3   51.29    1.68
  23   3   3   49.82    1.81
  23   3   3   50.31    1.95
 -23   3  -3   49.39    2.23
  23   3   3   49.79    1.69
  25  -3   3   14.36    1.11
 -25  -3  -3   12.53    0.95
 -25  -3  -3   13.25    1.36
  25  -3   3   13.23    0.95
 -25  -3  -3   13.32    1.36
 -25   3  -3   13.92    1.32
  25   3   3   14.72    0.95
  25   3   3   14.34    0.98
  25   3   3   16.70    1.17
 -27  -3  -3    1.40    0.76
 -27  -3  -3    0.63    0.77
  27  -3   3    1.02    0.58
 -27  -3  -3    1.55    0.53
  27  -3   3    2.21    0.56
 -27   3  -3    0.67    0.72
  27   3   3    0.41    0.45
  27   3   3    1.47    0.58
 -29  -3  -3   10.76    0.95
  29  -3   3    9.65    1.07
 -29  -3  -3   14.91    1.62
  29  -3   3   11.36    0.97
 -29  -3  -3   12.16    1.41
  29  -3   3   11.73    1.13
 -29   3  -3    9.68    1.31
  29   3   3    9.66    0.91
  29   3   3   10.59    1.13
 -31  -3  -3    5.21    0.76
  31  -3   3    5.78    0.99
  31  -3   3    4.90    0.83
  31  -3   3    4.93    0.76
 -31  -3  -3    5.51    1.16
 -31  -3  -3    6.72    1.31
  31   3   3    6.87    0.83
  31   3   3    7.21    1.01
 -31   3  -3    8.69    2.11
  33  -3   3    1.51    0.81
  33  -3   3    1.65    0.77
 -33  -3  -3    1.73    0.62
 -33  -3  -3    0.80    0.93
  33  -3   3    1.40    0.62
  33   3   3    2.01    0.80
  33   3   3    1.89    0.66
  35  -3   3    6.04    1.05
 -35  -3  -3    4.86    0.81
 -35  -3  -3    4.11    1.17
  35  -3   3    5.51    1.02
  35  -3   3    3.73    0.79
  35   3   3    4.45    0.85
  35   3   3    4.25    1.07
  37  -3   3    8.55    1.21
  37  -3   3   10.69    1.08
 -37  -3  -3   10.43    1.04
  37  -3   3   10.99    1.37
  37   3   3   10.71    1.16
  37   3   3   14.28    1.52
  38  -4  -3    9.33    2.31
  36  -4  -3    1.73    1.10
 -36  -4   3    0.37    0.95
  36  -4  -3    1.03    0.91
  36   4  -3    3.98    1.26
  34  -4  -3    1.21    1.00
  34  -4  -3   -0.82    0.83
  34   4  -3    1.81    1.06
  34   4  -3    0.24    0.92
  32  -4  -3   15.29    1.37
  32  -4  -3   14.50    1.55
  32  -4  -3   15.26    1.59
  32  -4  -3   15.41    0.98
  32   4  -3   15.76    1.75
  32   4  -3   12.60    1.36
  30  -4  -3    8.02    0.70
  30  -4  -3    7.11    1.00
  30  -4  -3    6.41    1.17
  30  -4  -3    7.78    1.12
  30   4  -3    7.07    1.05
  30   4  -3    7.17    1.25
  28  -4  -3    9.20    1.14
  28  -4  -3    9.67    1.08
  28  -4  -3    7.76    1.17
  28  -4  -3    9.38    0.73
  28   4  -3   12.82    1.24
  28   4  -3   12.32    1.47
  26  -4  -3   13.44    1.21
  26  -4  -3   13.98    1.30
  26  -4  -3   15.03    0.86
  26  -4  -3   14.95    1.37
  26   4  -3   11.36    1.32
  26   4  -3   14.54    1.26
  24  -4  -3    2.27    0.41
  24  -4  -3    2.46    0.74
  24  -4  -3    2.11    0.68
  24  -4  -3    2.07    0.59
  24   4  -3    2.97    0.64
  24   4  -3    2.38    0.78
  22  -4  -3   17.45    1.22
  22  -4  -3   16.61    1.12
  22  -4  -3   18.04    0.86
  22  -4  -3   19.85    1.26
  22   4  -3   22.62    1.55
  22   4  -3   23.88    1.37
  20  -4  -3   21.82    1.32
 -20  -4   3   23.03    1.41
  20  -4  -3   23.04    1.26
  20  -4  -3   26.28    1.00
  20  -4  -3   24.78    1.39
  20   4  -3   24.81    1.35
  20   4  -3   25.66    1.55
  18  -4  -3   21.33    1.72
  18  -4  -3   19.87    0.83
 -18  -4   3   21.19    1.30
  18  -4  -3   17.72    1.14
  18  -4  -3   20.38    1.19
  18  -4  -3   19.11    1.11
  18   4  -3   20.13    1.34
 -18   4   3   22.05    1.21
  18   4  -3   21.64    1.18
  16  -4  -3   46.19    1.84
  16  -4  -3   49.69    1.98
  16  -4  -3   48.55    1.89
 -16  -4   3   49.02    2.02
  16  -4  -3   55.59    2.00
  16  -4  -3   50.89    1.55
  16   4  -3   47.22    1.85
  16   4  -3   45.14    1.78
 -16   4   3   41.81    1.73
  16   4  -3   43.64    1.97
  14  -4  -3   24.31    1.22
  14  -4  -3   22.05    1.11
  14  -4  -3   25.10    1.19
 -14  -4   3   25.00    1.28
  14  -4  -3   25.75    1.25
  14  -4  -3   25.23    1.22
  14  -4  -3   23.70    0.86
  14   4  -3   27.58    1.44
  14   4  -3   29.00    1.34
  14   4  -3   29.63    1.32
 -14   4   3   28.11    1.26
  12  -4  -3   18.14    0.96
  12  -4  -3   14.77    0.84
  12  -4  -3   15.46    0.93
  12  -4  -3   15.04    0.92
  12  -4  -3   15.27    0.61
 -12  -4   3   16.86    0.99
  12  -4  -3   17.83    0.97
  12   4  -3   22.16    1.09
  12   4  -3   23.17    1.13
  12   4  -3   22.27    1.25
 -12   4   3   22.34    1.04
  10  -4  -3  208.63    5.62
  10  -4  -3  215.45    6.04
  10  -4  -3  216.99    6.10
  10  -4  -3  215.22    6.06
  10  -4  -3  212.24    5.88
  10  -4  -3  226.50    6.06
 -10  -4   3  222.21    6.13
 -10   4   3  223.28    6.19
  10   4  -3  224.50    6.42
  10   4  -3  226.60    6.31
  10   4  -3  226.89    6.29
   8  -4  -3   12.41    0.74
   8  -4  -3   11.40    0.57
   8  -4  -3   10.64    0.70
   8  -4  -3   10.11    0.38
   8  -4  -3   10.80    0.71
  -8  -4   3   11.23    0.73
   8  -4  -3    9.50    0.70
   8   4  -3   10.70    0.68
   8   4  -3   10.78    0.71
  -8   4   3   11.94    0.67
   8   4  -3   10.83    0.81
   6  -4  -3   87.39    2.67
   6  -4  -3   84.77    2.60
   6  -4  -3   83.83    2.65
   6  -4  -3   89.32    2.40
  -6  -4   3   86.12    2.69
   6  -4  -3   84.12    2.73
  -6   4   3   74.62    2.28
   6   4  -3   74.79    2.38
   6   4  -3   73.06    2.40
   6   4  -3   76.77    2.50
   4  -4  -3  196.04    5.19
   4  -4  -3  205.95    5.52
   4  -4  -3  198.01    5.63
   4  -4  -3  199.15    5.52
   4  -4  -3  201.45    5.44
  -4  -4   3  200.25    5.55
  -4  -4   3  197.79    5.33
  -4   4   3  229.08    6.16
   4   4  -3  232.02    6.28
   4   4  -3  224.32    6.37
   2  -4  -3   47.05    1.50
   2  -4  -3   44.82    1.58
   2  -4  -3   47.86    1.73
  -2  -4   3   47.94    1.45
   2   4  -3   40.35    1.50
  -2   4   3   42.39    1.42
   2   4  -3   42.90    1.58
   0  -4   3   28.22    0.99
   0  -4  -3   29.16    1.14
   0  -4   3   29.94    1.01
   0  -4  -3   31.57    1.27
   0  -4  -3   29.58    0.99
   0  -4  -3   28.11    1.12
   0   4   3   26.32    0.84
   0   4   3   24.69    0.99
   0   4  -3   26.04    1.14
   0   4  -3   25.50    1.08
   2  -4   3   88.27    2.37
  -2  -4  -3   83.05    2.52
  -2  -4  -3   86.11    2.72
  -2  -4  -3   83.23    2.58
   2  -4   3   85.06    2.41
  -2  -4  -3   82.19    2.32
   2   4   3  111.73    2.84
  -2   4  -3  106.82    3.25
  -2   4  -3  108.70    3.30
  -2   4  -3  109.05    3.27
   2   4   3  109.13    2.82
   4  -4   3   28.86    0.89
  -4  -4  -3   29.19    1.25
  -4  -4  -3   26.88    1.04
   4  -4   3   28.46    0.99
  -4  -4  -3   28.55    0.83
  -4  -4  -3   26.19    1.12
   4   4   3   25.64    0.76
  -4   4  -3   25.05    0.83
   4   4   3   24.78    0.83
  -4   4  -3   24.26    1.08
  -6  -4  -3   42.57    1.55
  -6  -4  -3   41.72    1.18
  -6  -4  -3   42.42    1.19
   6  -4   3   41.96    1.20
   6  -4   3   41.01    1.36
  -6  -4  -3   44.09    1.44
   6  -4   3   43.12    1.40
  -6  -4  -3   41.98    1.64
  -6   4  -3   38.49    1.45
   6   4   3   37.84    1.13
   6   4   3   36.77    1.17
  -6   4  -3   37.59    1.18
   8  -4   3   82.78    2.38
  -8  -4  -3   80.12    2.22
  -8  -4  -3   76.87    2.39
  -8  -4  -3   83.34    2.60
   8  -4   3   80.04    2.37
  -8  -4  -3   87.14    2.74
  -8  -4  -3   77.07    2.20
  -8   4  -3   86.02    2.47
   8   4   3   86.42    2.44
   8   4   3   87.57    2.46
  -8   4  -3   88.92    2.76
 -10  -4  -3   16.97    0.65
  10  -4   3   17.19    0.78
 -10  -4  -3   17.53    0.97
 -10  -4  -3   17.76    0.79
 -10  -4  -3   17.28    0.68
 -10  -4  -3   17.94    1.03
  10  -4   3   17.47    0.76
  10   4   3   19.59    0.76
 -10   4  -3   19.04    1.00
 -10   4  -3   19.44    0.78
  10   4   3   16.59    0.74
  12  -4   3   51.95    1.67
 -12  -4  -3   48.47    1.64
 -12  -4  -3   50.86    2.01
 -12  -4  -3   50.34    1.58
 -12  -4  -3   50.66    1.55
 -12  -4  -3   50.56    1.92
  12  -4   3   52.46    1.63
  12   4   3   69.76    2.06
 -12   4  -3   68.16    2.36
 -12   4  -3   66.35    1.85
 -12   4  -3   68.59    2.08
  12   4   3   68.32    2.08
 -14  -4  -3   60.56    2.32
  14  -4   3   61.18    2.05
 -14  -4  -3   58.50    1.91
 -14  -4  -3   59.62    2.26
 -14  -4  -3   60.38    1.84
  14  -4   3   62.55    1.95
  14  -4   3   62.23    1.89
 -14  -4  -3   57.67    1.86
 -14   4  -3   57.71    2.12
 -14   4  -3   60.12    1.87
  14   4   3   55.44    1.82
 -14   4  -3   57.27    1.65
  14   4   3   57.96    1.87
 -16  -4  -3   25.02    1.05
 -16  -4  -3   25.32    1.04
 -16  -4  -3   26.12    1.44
  16  -4   3   26.33    1.22
  16  -4   3   25.77    1.09
  16  -4   3   26.05    1.02
 -16  -4  -3   26.67    1.43
 -16  -4  -3   26.23    1.01
  16   4   3   25.71    0.82
 -16   4  -3   25.66    0.91
  16   4   3   24.55    1.04
  16   4   3   23.78    1.10
 -16   4  -3   26.34    1.33
 -16   4  -3   27.53    1.10
 -18  -4  -3   18.60    0.87
  18  -4   3   18.03    1.06
 -18  -4  -3   19.78    1.32
 -18  -4  -3   18.87    0.93
 -18  -4  -3   18.04    0.87
 -18  -4  -3   17.65    1.34
  18  -4   3   18.40    0.95
  18  -4   3   19.01    0.85
 -18   4  -3   17.84    1.15
  18   4   3   18.32    0.71
  18   4   3   18.83    0.92
  18   4   3   18.55    0.96
 -20  -4  -3   36.84    1.91
 -20  -4  -3   33.03    1.29
  20  -4   3   35.22    1.41
  20  -4   3   34.55    1.50
 -20  -4  -3   35.17    1.40
 -20  -4  -3   35.24    1.79
  20  -4   3   33.74    1.27
  20   4   3   26.73    1.29
 -20   4  -3   27.98    1.55
  20   4   3   28.34    1.22
  20   4   3   28.32    1.01
 -22  -4  -3   10.27    1.19
 -22  -4  -3   10.64    1.22
 -22  -4  -3    9.50    0.70
  22  -4   3   10.91    0.84
  22  -4   3    9.75    0.67
 -22  -4  -3   10.81    0.82
  22  -4   3   11.57    0.97
  22   4   3    9.23    0.84
  22   4   3    7.55    0.69
 -22   4  -3    6.18    0.86
  22   4   3    8.95    0.86
 -24  -4  -3   19.75    1.63
  24  -4   3   19.80    1.11
 -24  -4  -3   16.81    1.06
 -24  -4  -3   17.40    1.55
  24  -4   3   18.44    1.15
 -24   4  -3   22.29    1.51
  24   4   3   24.64    1.22
  24   4   3   25.12    1.32
 -26  -4  -3    1.42    0.84
 -26  -4  -3    0.92    0.48
  26  -4   3    0.15    0.50
  26  -4   3    1.16    0.49
 -26  -4  -3    1.42    0.83
  26   4   3   -0.16    0.47
  26   4   3   -0.48    0.43
 -26   4  -3    0.25    0.67
 -28  -4  -3   11.05    1.41
 -28  -4  -3    9.13    1.37
  28  -4   3    7.90    0.83
  28  -4   3   11.23    1.08
 -28  -4  -3    9.63    0.90
 -28   4  -3   12.03    1.40
  28   4   3   12.19    1.02
  28   4   3   11.29    1.12
  30  -4   3   31.17    1.75
 -30  -4  -3   31.48    1.56
  30  -4   3   27.97    1.69
  30  -4   3   28.52    1.54
 -30  -4  -3   34.07    2.29
 -30  -4  -3   32.61    2.18
 -30   4  -3   30.85    2.52
  30   4   3   24.88    1.44
  30   4   3   25.88    1.60
 -32  -4  -3    2.66    0.67
  32  -4   3    3.11    0.92
  32  -4   3    1.67    0.64
 -32  -4  -3    2.82    1.05
  32  -4   3    1.36    0.72
  32   4   3    4.15    0.77
  32   4   3    5.07    0.96
 -34  -4  -3   13.04    1.67
 -34  -4  -3   11.15    1.07
  34  -4   3   15.11    1.41
  34  -4   3   15.18    1.44
  34  -4   3   13.14    1.14
  34   4   3   18.05    1.37
  34   4   3   13.47    1.46
 -36  -4  -3    0.53    0.62
  36  -4   3    0.28    0.65
  36  -4   3    0.28    0.85
  36  -4   3    0.15    0.79
 -36  -4  -3    1.60    1.09
  36   4   3    2.32    0.98
  36   4   3    0.09    0.69
  38  -4   3    3.27    1.02
 -37  -5   3    3.50    1.07
  37  -5  -3    2.57    1.23
  35  -5  -3    2.21    1.08
  35  -5  -3    2.20    1.01
 -35  -5   3    4.03    1.02
 -35  -5   3    4.72    1.26
  35   5  -3    3.80    1.24
  33  -5  -3    8.59    0.74
  33  -5  -3    9.09    1.33
  33  -5  -3    9.25    1.32
 -33  -5   3    7.13    1.33
  33  -5  -3    9.66    1.20
  33   5  -3    6.68    1.42
  31  -5  -3    4.70    1.04
  31  -5  -3    2.79    0.96
  31  -5  -3    3.55    0.85
  31  -5  -3    4.52    0.57
 -31  -5   3    6.13    1.28
  31   5  -3    4.36    1.23
  31   5  -3    5.52    0.99
  29  -5  -3    4.88    1.07
  29  -5  -3    4.48    0.56
  29  -5  -3    3.00    0.77
  29  -5  -3    3.75    0.94
  29   5  -3    2.95    1.10
  29   5  -3    5.22    0.93
  27  -5  -3    6.93    1.04
  27  -5  -3    7.68    1.05
  27  -5  -3    9.65    0.72
  27  -5  -3    9.00    1.00
  27   5  -3    6.44    1.15
  27   5  -3    5.73    0.90
  25  -5  -3    0.50    0.68
  25  -5  -3    1.58    0.41
  25  -5  -3    1.00    0.58
  25  -5  -3    2.02    0.72
  25   5  -3    1.50    0.63
  25   5  -3   -0.15    0.76
  23  -5  -3   19.68    0.93
  23  -5  -3   18.75    1.33
  23  -5  -3   17.56    1.21
  23  -5  -3   17.20    1.38
  23   5  -3    9.13    1.17
  23   5  -3   10.34    1.05
  21  -5  -3   29.40    1.12
  21  -5  -3   28.43    1.47
  21  -5  -3   29.24    1.54
  21  -5  -3   25.83    1.50
  21   5  -3   28.39    1.73
  21   5  -3   29.43    1.53
  19  -5  -3    7.89    0.91
  19  -5  -3   10.51    0.95
  19  -5  -3   10.40    0.95
  19  -5  -3   10.08    0.63
 -19  -5   3    8.97    1.05
  19   5  -3   11.74    1.26
  19   5  -3    8.95    0.91
 -17  -5   3   31.80    1.65
  17  -5  -3   34.39    1.57
  17  -5  -3   31.20    1.12
  17  -5  -3   31.34    1.51
  17  -5  -3   29.08    1.42
 -17   5   3   20.79    1.18
  17   5  -3   20.49    1.20
  17   5  -3   18.01    1.30
  15  -5  -3   75.31    2.60
  15  -5  -3   70.15    2.45
  15  -5  -3   74.46    2.16
  15  -5  -3   72.46    2.59
 -15  -5   3   72.58    2.72
  15  -5  -3   81.32    2.67
  15  -5  -3   73.98    2.68
 -15   5   3   79.67    2.64
  15   5  -3   77.08    2.71
  15   5  -3   75.66    2.65
  15   5  -3   74.75    2.83
  13  -5  -3    0.21    0.37
  13  -5  -3    0.27    0.37
  13  -5  -3    0.10    0.31
 -13  -5   3   -0.40    0.32
  13  -5  -3    0.21    0.38
  13  -5  -3    0.26    0.36
  13  -5  -3    0.50    0.20
  13   5  -3    0.61    0.45
 -13   5   3   -0.06    0.31
  13   5  -3    0.85    0.43
  13   5  -3    1.04    0.43
  11  -5  -3   37.64    1.54
  11  -5  -3   37.58    1.59
  11  -5  -3   33.10    1.31
  11  -5  -3   37.12    1.15
 -11  -5   3   38.27    1.39
 -11  -5   3   35.40    1.59
  11  -5  -3   35.85    1.54
  11  -5  -3   37.41    1.54
  11   5  -3   31.55    1.44
  11   5  -3   35.10    1.57
  11   5  -3   31.90    1.41
 -11   5   3   34.22    1.38
  -9  -5   3    9.81    0.64
   9  -5  -3    9.61    0.83
   9  -5  -3    8.92    0.82
  -9  -5   3    9.13    0.81
   9  -5  -3   10.10    0.45
   9  -5  -3    8.37    0.73
   9  -5  -3    9.85    0.58
   9  -5  -3    9.95    0.78
   9   5  -3    5.09    0.69
   9   5  -3    7.01    0.66
  -9   5   3    5.32    0.55
   9   5  -3    7.97    0.70
   7  -5  -3    7.13    0.43
   7  -5  -3    6.94    0.67
  -7  -5   3    8.64    0.60
   7  -5  -3    9.07    0.76
   7  -5  -3    6.41    0.67
  -7  -5   3    6.71    0.67
   7  -5  -3    6.92    0.35
   7  -5  -3    7.14    0.62
   7   5  -3    6.52    0.63
  -7   5   3    6.13    0.57
   7   5  -3    6.61    0.71
   5  -5  -3   65.00    2.11
  -5  -5   3   66.50    2.16
  -5  -5   3   64.40    2.01
   5  -5  -3   65.05    1.79
   5  -5  -3   65.66    2.19
   5  -5  -3   63.82    2.23
   5  -5  -3   64.68    2.28
   5  -5  -3   66.64    1.81
   5  -5  -3   66.80    1.79
  -5  -5   3   65.76    2.25
  -5   5   3   72.85    2.30
   5   5  -3   73.50    2.47
   5   5  -3   70.41    2.39
   3  -5  -3   50.46    1.88
   3  -5  -3   48.80    1.38
   3  -5  -3   48.82    1.66
  -3  -5   3   50.13    1.61
   3  -5  -3   48.28    1.37
   3  -5  -3   51.72    1.77
  -3  -5   3   52.66    1.70
  -3  -5   3   53.86    1.86
  -3   5   3   41.96    1.49
   3   5  -3   40.67    1.57
   3   5  -3   39.81    1.59
   1  -5  -3   23.43    1.13
   1  -5  -3   21.45    0.65
   1  -5  -3   21.92    0.66
   1  -5  -3   20.70    0.97
   1  -5  -3   22.35    1.05
   1  -5  -3   19.77    0.85
  -1  -5   3   21.68    0.88
  -1  -5   3   23.50    0.93
   1   5  -3   19.33    1.00
  -1   5   3   19.02    0.92
   1   5  -3   20.72    1.03
  -1  -5  -3   42.90    1.53
   1  -5   3   43.32    1.41
  -1  -5  -3   42.43    1.70
  -1  -5  -3   41.53    1.19
  -1  -5  -3   43.47    1.61
   1  -5   3   44.22    1.42
  -1  -5  -3   42.06    1.19
  -1  -5  -3   42.62    1.36
  -1   5  -3   50.84    1.86
  -1   5  -3   47.63    1.80
   1   5   3   48.70    1.74
  -1   5  -3   52.40    1.85
  -3  -5  -3   43.31    1.71
   3  -5   3   42.63    1.36
   3  -5   3   43.48    1.42
  -3  -5  -3   45.71    1.56
  -3  -5  -3   43.59    1.62
  -3  -5  -3   41.54    1.21
  -3  -5  -3   40.63    1.29
  -3  -5  -3   41.42    1.21
  -3   5  -3   40.19    1.28
  -3   5  -3   38.21    1.57
  -3   5  -3   39.78    1.55
   3   5   3   41.01    1.10
  -3   5  -3   41.88    1.61
  -5  -5  -3   28.05    1.34
   5  -5   3   29.22    1.09
  -5  -5  -3   29.39    1.17
   5  -5   3   29.94    1.16
  -5  -5  -3   29.49    1.28
  -5  -5  -3   29.28    0.89
   5  -5   3   29.91    0.99
  -5  -5  -3   29.33    0.91
  -5  -5  -3   28.34    0.90
  -5   5  -3   31.51    1.35
  -5   5  -3   30.84    1.06
   5   5   3   30.74    0.95
   7  -5   3   61.60    1.95
  -7  -5  -3   59.59    1.98
  -7  -5  -3   59.18    2.11
  -7  -5  -3   60.23    1.73
  -7  -5  -3   60.10    1.72
  -7  -5  -3   57.16    2.22
   7  -5   3   58.36    1.89
   7  -5   3   62.98    1.74
  -7   5  -3   48.25    1.48
   7   5   3   44.78    1.38
  -7   5  -3   45.03    1.74
   7   5   3   44.32    1.45
   9  -5   3   29.97    1.14
  -9  -5  -3   29.51    0.99
  -9  -5  -3   29.51    1.01
  -9  -5  -3   28.55    1.36
   9  -5   3   30.41    0.92
   9  -5   3   28.05    1.13
  -9  -5  -3   29.96    1.19
  -9  -5  -3   29.03    1.43
  -9   5  -3   32.44    1.45
  -9   5  -3   33.75    1.02
   9   5   3   31.98    1.12
   9   5   3   34.81    1.19
  -9   5  -3   33.09    1.18
 -11  -5  -3   54.43    2.11
 -11  -5  -3   55.60    1.68
 -11  -5  -3   53.46    1.86
 -11  -5  -3   53.90    1.71
  11  -5   3   57.46    1.83
  11  -5   3   55.37    1.82
 -11  -5  -3   59.29    2.24
 -11   5  -3   69.20    1.86
 -11   5  -3   62.11    2.33
  11   5   3   64.98    2.04
  11   5   3   66.89    2.04
 -11   5  -3   68.01    2.08
 -13  -5  -3   70.89    2.10
  13  -5   3   69.14    2.22
  13  -5   3   68.08    2.19
 -13  -5  -3   72.33    2.28
 -13  -5  -3   70.20    2.15
 -13  -5  -3   72.38    2.71
 -13  -5  -3   68.75    2.56
  13   5   3   55.72    1.85
 -13   5  -3   58.59    1.65
 -13   5  -3   58.70    2.18
 -13   5  -3   58.19    1.89
  13   5   3   57.01    1.86
 -15  -5  -3    8.61    0.69
  15  -5   3    7.50    0.73
  15  -5   3    8.40    0.64
 -15  -5  -3    8.04    0.60
  15  -5   3    6.82    0.59
 -15  -5  -3    8.03    0.55
 -15  -5  -3    6.97    0.88
 -15  -5  -3    8.21    0.96
 -15   5  -3    8.53    0.66
 -15   5  -3    7.63    0.84
  15   5   3    7.14    0.61
 -15   5  -3    7.32    0.42
  15   5   3    5.64    0.53
 -17  -5  -3   20.74    1.11
 -17  -5  -3   18.75    0.98
  17  -5   3   20.08    1.10
  17  -5   3   22.37    0.98
 -17  -5  -3   19.53    1.29
 -17  -5  -3   20.77    1.40
  17  -5   3   20.04    1.01
 -17  -5  -3   20.30    0.98
  17   5   3   20.29    1.04
 -17   5  -3   22.80    1.29
  17   5   3   19.06    0.97
  19  -5   3   43.53    1.56
 -19  -5  -3   44.37    2.08
 -19  -5  -3   42.65    2.10
  19  -5   3   41.68    1.74
 -19  -5  -3   39.32    1.58
 -19  -5  -3   44.74    1.62
  19  -5   3   44.45    1.64
  19   5   3   44.25    1.62
 -19   5  -3   38.82    1.88
  19   5   3   43.27    1.69
  21  -5   3    6.92    0.82
 -21  -5  -3    6.74    0.69
 -21  -5  -3    7.94    0.71
 -21  -5  -3    7.58    1.08
  21  -5   3    7.07    0.69
 -21  -5  -3    7.06    1.05
  21  -5   3    8.06    0.69
  21   5   3    7.42    0.69
 -21   5  -3    7.29    0.95
  21   5   3    5.66    0.72
 -23  -5  -3    6.30    1.07
  23  -5   3    6.75    0.65
 -23  -5  -3    7.60    1.11
 -23  -5  -3    6.82    0.75
  23  -5   3    9.20    0.91
  23  -5   3    8.34    0.79
  23   5   3    5.92    0.75
 -23   5  -3    6.31    0.97
  23   5   3    5.72    0.67
  25  -5   3   13.50    1.00
 -25  -5  -3   11.69    0.97
 -25  -5  -3   12.30    1.41
 -25  -5  -3   12.81    1.40
  25  -5   3   11.65    1.07
  25   5   3   12.30    0.96
  25   5   3   11.95    1.07
 -25   5  -3   12.75    1.29
 -27  -5  -3    1.13    0.53
 -27  -5  -3    0.78    0.80
  27  -5   3    1.04    0.68
  27  -5   3    0.68    0.53
 -27  -5  -3    1.45    0.88
  27   5   3    0.62    0.54
 -27   5  -3   -0.05    0.73
  27   5   3    0.05    0.60
  29  -5   3    1.57    0.61
 -29  -5  -3    2.24    0.99
  29  -5   3    1.89    0.71
 -29  -5  -3    2.30    0.63
 -29  -5  -3    1.99    1.01
  29   5   3    0.98    0.59
  29   5   3    1.60    0.72
  31  -5   3    3.81    0.93
 -31  -5  -3    5.26    1.18
  31  -5   3    3.62    0.88
  31  -5   3    3.07    0.72
 -31  -5  -3    3.06    0.71
  31   5   3    2.81    0.89
  31   5   3    2.86    0.72
  33  -5   3    4.54    1.02
 -33  -5  -3    6.11    1.28
 -33  -5  -3    4.94    0.81
  33  -5   3    3.68    0.77
  33  -5   3    5.34    1.02
  33   5   3    4.34    0.85
  33   5   3    5.92    1.08
 -35  -5  -3   16.04    1.24
  35  -5   3   15.57    1.49
  35  -5   3   17.62    1.36
  35  -5   3   15.88    1.52
 -35  -5  -3   15.43    1.93
  35   5   3   14.09    1.56
 -37  -5  -3    1.27    1.18
  37  -5   3    1.99    0.89
  37   5   3    0.48    0.96
 -36  -6   3    1.85    1.01
  36  -6  -3    2.71    1.16
 -34  -6   3    4.97    1.06
  34  -6  -3    2.52    1.12
  34  -6  -3    5.20    1.16
 -34  -6   3    3.55    1.18
  34  -6  -3    3.24    0.53
  34   6  -3    3.98    1.26
  32  -6  -3    2.32    0.96
  32  -6  -3    3.45    1.11
  32  -6  -3    1.81    0.47
 -32  -6   3    2.40    0.89
 -32  -6   3    2.51    1.09
  32  -6  -3    1.53    0.84
  32   6  -3    0.88    1.10
  30  -6  -3   10.15    1.35
 -30  -6   3    8.25    1.13
  30  -6  -3    7.69    1.14
  30  -6  -3    7.84    0.69
 -30  -6   3    6.57    1.28
  30  -6  -3    8.33    1.12
  30   6  -3    7.87    1.45
  28  -6  -3   27.36    1.19
 -28  -6   3   25.66    1.67
 -28  -6   3   27.85    1.98
  28  -6  -3   25.27    1.77
  28  -6  -3   28.25    1.81
  28  -6  -3   27.03    1.70
  28   6  -3   31.26    1.82
  28   6  -3   36.65    2.36
 -26  -6   3    0.05    0.60
 -26  -6   3   -0.24    0.80
  26  -6  -3    0.02    0.35
  26  -6  -3   -0.32    0.65
  26  -6  -3    0.23    0.64
  26  -6  -3    0.27    0.65
  26   6  -3   -0.58    0.78
  26   6  -3    0.60    0.62
 -24  -6   3    5.95    0.86
  24  -6  -3    4.06    0.85
  24  -6  -3    4.95    0.89
 -24  -6   3    5.30    1.04
  24  -6  -3    5.04    0.54
  24  -6  -3    5.06    0.87
  24   6  -3    4.29    0.79
  24   6  -3    4.81    0.99
  22  -6  -3   20.70    0.95
  22  -6  -3   19.65    1.39
 -22  -6   3   23.83    1.68
 -22  -6   3   17.34    1.25
  22  -6  -3   20.91    1.36
  22  -6  -3   20.96    1.40
  22   6  -3   18.33    1.28
  22   6  -3   20.32    1.56
  20  -6  -3    5.15    0.50
 -20  -6   3    4.74    0.74
  20  -6  -3    5.81    0.80
 -20  -6   3    5.38    0.92
  20  -6  -3    6.39    0.87
  20  -6  -3    4.77    0.79
  20   6  -3    5.59    0.81
  20   6  -3    7.29    1.09
 -18  -6   3    2.61    0.57
  18  -6  -3    1.88    0.60
  18  -6  -3    1.34    0.52
  18  -6  -3    2.52    0.37
  18  -6  -3    2.09    0.61
  18  -6  -3    2.79    0.65
 -18  -6   3    2.11    0.69
  18   6  -3    1.56    0.53
  18   6  -3    2.69    0.71
  16  -6  -3    8.31    0.87
  16  -6  -3   10.44    0.60
 -16  -6   3   10.02    1.08
  16  -6  -3   10.33    0.85
 -16  -6   3    9.22    0.84
  16  -6  -3   10.54    0.98
  16  -6  -3    8.48    0.87
 -16  -6   3   10.74    1.08
 -16   6   3    6.77    0.87
  16   6  -3    6.99    0.81
  16   6  -3    9.37    1.08
  14  -6  -3   84.98    3.78
  14  -6  -3   82.66    2.83
 -14  -6   3   77.30    2.91
  14  -6  -3   81.51    2.62
 -14  -6   3   80.95    2.99
  14  -6  -3   81.03    2.81
  14  -6  -3   83.71    2.37
 -14  -6   3   81.41    2.66
  14  -6  -3   82.38    2.86
 -14   6   3   79.10    2.74
  14   6  -3   79.75    2.96
  14   6  -3   79.32    2.74
  12  -6  -3   86.34    3.00
  12  -6  -3   87.40    2.43
  12  -6  -3   80.98    2.59
  12  -6  -3   82.81    2.85
  12  -6  -3   82.43    2.90
 -12  -6   3   85.41    2.69
 -12  -6   3   85.16    3.00
  12  -6  -3   86.71    2.86
 -12  -6   3   86.66    2.97
  12   6  -3   83.86    3.08
  12   6  -3   80.47    2.94
 -12   6   3   79.77    2.71
  10  -6  -3    5.83    0.51
 -10  -6   3    6.62    0.78
 -10  -6   3    6.59    0.79
  10  -6  -3    8.17    0.82
 -10  -6   3    6.11    0.61
  10  -6  -3    6.19    0.74
  10  -6  -3    5.93    0.42
  10  -6  -3    6.09    0.74
  10  -6  -3    6.35    0.72
  10   6  -3   13.42    1.05
 -10   6   3   14.87    0.93
  10   6  -3   16.20    1.02
  -8  -6   3   68.35    2.17
   8  -6  -3   66.34    1.92
   8  -6  -3   65.19    2.41
  -8  -6   3   66.48    2.44
   8  -6  -3   68.59    2.30
  -8  -6   3   67.45    2.35
   8  -6  -3   68.07    2.43
   8  -6  -3   64.70    1.96
   8  -6  -3   66.70    2.33
   8   6  -3   71.60    2.45
  -8   6   3   68.54    2.35
   8   6  -3   67.33    2.50
   6  -6  -3   79.36    2.67
  -6  -6   3   87.35    2.60
  -6  -6   3   84.84    2.75
   6  -6  -3   85.90    2.89
   6  -6  -3   86.31    2.35
   6  -6  -3   83.84    2.76
   6  -6  -3   86.45    2.33
  -6  -6   3   83.94    2.87
   6  -6  -3   83.25    2.85
  -6   6   3   98.46    3.12
   6   6  -3   98.19    3.26
   6   6  -3  105.28    3.26
   4  -6  -3  108.27    2.86
   4  -6  -3  102.80    3.16
   4  -6  -3   99.31    3.39
  -4  -6   3  106.44    3.11
   4  -6  -3  105.48    2.86
  -4  -6   3  110.77    3.42
  -4  -6   3  104.87    3.22
   4  -6  -3  106.14    3.28
  -4   6   3   92.99    2.97
   4   6  -3   96.05    3.10
   4   6  -3   94.35    3.07
  -2  -6   3   17.68    0.89
  -2  -6   3   17.19    0.83
   2  -6  -3   16.87    0.84
   2  -6  -3   18.82    0.98
   2  -6  -3   17.83    1.06
   2  -6  -3   18.18    0.62
   2  -6  -3   16.57    0.63
   2   6  -3   20.72    1.12
   2   6  -3   20.24    1.09
  -2   6   3   21.30    1.05
   0  -6   3   22.12    0.94
   0  -6  -3   21.70    0.73
   0  -6  -3   18.51    1.05
   0  -6   3   20.58    0.94
   0  -6  -3   22.02    0.72
   0  -6  -3   21.51    1.04
   0  -6  -3   18.73    1.13
   0  -6  -3   20.55    0.90
   0   6   3   25.32    1.16
   0   6  -3   22.20    1.17
   0   6  -3   23.62    1.22
  -2  -6  -3   62.42    1.98
  -2  -6  -3   68.16    1.88
   2  -6   3   67.23    2.10
  -2  -6  -3   67.38    1.87
  -2  -6  -3   63.38    2.32
  -2  -6  -3   66.16    2.42
   2  -6   3   67.98    2.08
  -2  -6  -3   65.69    2.22
  -2   6  -3   51.44    2.03
  -2   6  -3   53.44    2.07
  -2   6  -3   53.38    1.69
  -2   6  -3   57.28    2.02
   2   6   3   56.04    2.00
  -4  -6  -3   19.09    0.70
   4  -6   3   19.25    0.82
  -4  -6  -3   18.35    1.07
   4  -6   3   18.74    0.96
   4  -6   3   18.97    0.88
  -4  -6  -3   18.73    0.68
  -4  -6  -3   18.01    0.98
  -4  -6  -3   18.61    1.13
  -4  -6  -3   16.56    0.71
  -4   6  -3   22.42    0.87
   4   6   3   19.78    0.65
  -4   6  -3   21.32    1.18
  -4   6  -3   21.07    1.17
   6  -6   3    2.69    0.43
  -6  -6  -3    2.73    0.55
  -6  -6  -3    2.72    0.28
   6  -6   3    2.51    0.32
  -6  -6  -3    2.92    0.54
  -6  -6  -3    2.20    0.24
   6  -6   3    2.62    0.40
  -6  -6  -3    2.56    0.29
  -6  -6  -3    2.35    0.45
  -6   6  -3    7.43    0.51
   6   6   3    6.61    0.40
  -6   6  -3    7.52    0.79
  -8  -6  -3   49.52    1.81
  -8  -6  -3   48.97    1.51
   8  -6   3   50.45    1.54
  -8  -6  -3   48.41    2.05
   8  -6   3   50.29    1.76
  -8  -6  -3   49.30    1.35
  -8  -6  -3   49.68    1.55
  -8  -6  -3   48.67    1.35
   8  -6   3   50.50    1.70
  -8  -6  -3   48.07    1.97
  -8   6  -3   52.69    2.06
   8   6   3   53.11    1.67
  -8   6  -3   55.30    1.67
  -8   6  -3   54.67    1.76
 -10  -6  -3    2.81    0.36
 -10  -6  -3    2.77    0.64
 -10  -6  -3    2.70    0.32
 -10  -6  -3    2.57    0.48
 -10  -6  -3    3.77    0.66
  10  -6   3    3.73    0.48
  10  -6   3    2.23    0.40
  10  -6   3    2.99    0.31
 -10   6  -3    2.38    0.52
 -10   6  -3    3.42    0.34
  10   6   3    2.93    0.37
 -10   6  -3    2.92    0.41
 -12  -6  -3   36.61    1.76
  12  -6   3   39.89    1.47
  12  -6   3   37.43    1.43
 -12  -6  -3   34.54    1.78
 -12  -6  -3   37.12    1.34
 -12  -6  -3   38.74    1.53
 -12  -6  -3   38.72    1.30
 -12   6  -3   39.66    1.46
  12   6   3   40.93    1.45
 -12   6  -3   38.13    1.75
 -12   6  -3   40.89    1.28
 -14  -6  -3    1.68    0.32
 -14  -6  -3    1.61    0.45
 -14  -6  -3    1.37    0.51
 -14  -6  -3    1.11    0.34
  14  -6   3    1.57    0.41
 -14  -6  -3    1.58    0.68
  14  -6   3    2.36    0.46
  14   6   3    4.11    0.51
 -14   6  -3    3.59    0.68
  16  -6   3   18.14    1.08
 -16  -6  -3   17.43    1.33
  16  -6   3   17.43    0.94
 -16  -6  -3   18.62    1.56
 -16  -6  -3   18.25    0.94
  16  -6   3   17.59    0.97
 -16  -6  -3   15.01    0.97
  16   6   3   17.46    0.98
  16   6   3   15.90    0.92
 -16   6  -3   16.57    1.30
  18  -6   3   30.33    1.35
 -18  -6  -3   30.41    1.31
 -18  -6  -3   29.21    1.76
  18  -6   3   33.13    1.54
  18  -6   3   32.22    1.34
 -18  -6  -3   31.77    1.41
 -18  -6  -3   30.55    1.84
 -18   6  -3   31.10    1.67
  18   6   3   31.55    1.35
  18   6   3   29.34    1.36
 -20  -6  -3    0.79    0.68
  20  -6   3    0.38    0.40
  20  -6   3    0.59    0.40
 -20  -6  -3   -0.08    0.38
  20  -6   3    0.62    0.51
 -20  -6  -3    1.07    0.47
 -20  -6  -3    1.51    0.74
 -20   6  -3    2.78    0.75
  20   6   3    2.89    0.58
  20   6   3    2.88    0.53
  22  -6   3   -0.29    0.48
  22  -6   3    0.37    0.44
 -22  -6  -3    0.15    0.42
  22  -6   3    0.11    0.39
 -22  -6  -3    0.14    0.70
 -22  -6  -3    0.21    0.41
 -22  -6  -3    1.25    0.73
  22   6   3    0.56    0.50
  22   6   3    0.13    0.45
 -22   6  -3    0.93    0.69
  24  -6   3   13.34    1.02
 -24  -6  -3   16.43    1.63
 -24  -6  -3   12.93    1.51
  24  -6   3   11.52    1.10
  24  -6   3   16.18    1.51
 -24  -6  -3   14.86    1.05
 -24   6  -3   11.23    1.23
  24   6   3   12.61    1.13
  24   6   3   11.39    0.98
  26  -6   3   14.94    1.11
 -26  -6  -3   16.03    1.13
  26  -6   3   14.08    1.29
 -26  -6  -3   14.87    1.71
 -26  -6  -3   18.30    1.82
  26   6   3   15.61    1.30
 -26   6  -3   14.59    1.44
 -28  -6  -3    6.74    1.30
 -28  -6  -3    6.12    1.29
 -28  -6  -3    5.56    0.77
  28  -6   3    5.20    0.80
  28  -6   3    4.86    0.88
  28   6   3    4.20    0.89
 -30  -6  -3    0.70    0.57
  30  -6   3   -0.25    0.63
 -30  -6  -3    1.93    1.14
  30  -6   3    0.13    0.57
  30  -6   3    0.80    0.68
  30   6   3    0.76    0.78
  32  -6   3    2.37    0.93
 -32  -6  -3    2.12    1.19
 -32  -6  -3    4.48    0.78
  32  -6   3    3.40    0.96
  32  -6   3    2.93    0.75
  32   6   3    2.89    0.94
  34  -6   3    6.15    1.09
 -34  -6  -3    6.90    1.54
  34  -6   3    6.59    0.92
 -34  -6  -3    7.89    0.93
  34  -6   3    6.70    1.17
  34   6   3    6.43    1.17
  36  -6   3    4.08    1.14
 -36  -6  -3    2.78    1.36
  36   6   3    4.95    1.15
  35  -7  -3   -0.97    0.95
  33  -7  -3    2.60    0.50
  33  -7  -3    2.36    1.04
 -33  -7   3    3.16    1.01
  33  -7  -3    3.25    1.06
 -33  -7   3    3.49    1.24
  33   7  -3    6.29    1.47
  31  -7  -3    5.01    0.59
  31  -7  -3    2.81    1.08
  31  -7  -3    4.84    0.99
 -31  -7   3    3.37    0.96
 -31  -7   3    1.22    1.02
  31  -7  -3    2.57    0.95
  31   7  -3    3.12    1.26
 -29  -7   3    8.42    1.48
  29  -7  -3    6.51    1.24
 -29  -7   3    9.14    1.17
  29  -7  -3    6.96    1.13
  29  -7  -3    9.05    1.23
  29  -7  -3    9.05    0.71
  29   7  -3    8.01    1.48
  27  -7  -3    7.25    1.13
 -27  -7   3    5.95    1.19
  27  -7  -3    7.56    1.09
 -27  -7   3    5.59    0.95
  27  -7  -3    6.81    0.62
  27  -7  -3    7.20    1.11
  27   7  -3    9.62    1.47
  27   7  -3    8.09    1.62
 -25  -7   3    8.01    1.04
 -25  -7   3    6.46    1.14
  25  -7  -3    6.03    1.02
  25  -7  -3    6.05    0.61
  25  -7  -3    9.15    1.11
  25  -7  -3    8.25    1.14
  25   7  -3    8.11    1.28
  25   7  -3   10.19    1.11
  23  -7  -3   12.27    1.26
 -23  -7   3   11.74    1.10
  23  -7  -3   11.85    1.22
  23  -7  -3   11.46    1.15
  23  -7  -3   11.47    0.78
 -23  -7   3   10.98    1.39
  23   7  -3   13.80    1.23
  23   7  -3   14.12    1.49
  21  -7  -3   23.94    1.03
 -21  -7   3   26.56    1.47
  21  -7  -3   24.48    1.45
  21  -7  -3   22.28    1.50
  21  -7  -3   21.54    1.49
 -21  -7   3   23.24    1.76
  21   7  -3   16.35    1.22
  21   7  -3   16.70    1.58
 -19  -7   3    3.40    0.88
  19  -7  -3    2.91    0.74
  19  -7  -3    2.66    0.65
  19  -7  -3    2.82    0.43
  19  -7  -3    3.53    0.67
 -19  -7   3    4.09    0.72
  19  -7  -3    3.60    0.76
  19   7  -3    2.39    0.77
  19   7  -3    3.03    0.68
  17  -7  -3    4.66    0.66
  17  -7  -3    3.34    0.73
 -17  -7   3    5.01    0.70
  17  -7  -3    4.17    0.74
 -17  -7   3    3.93    0.87
  17  -7  -3    5.15    0.48
  17  -7  -3    5.99    0.88
  17   7  -3    3.85    0.84
  15  -7  -3   15.94    1.13
 -15  -7   3   14.78    1.26
 -15  -7   3   15.61    1.33
  15  -7  -3   14.51    0.74
 -15  -7   3   15.26    1.05
  15  -7  -3   14.87    1.13
  15  -7  -3   14.28    0.93
  15  -7  -3   15.65    1.10
  15   7  -3   22.31    1.50
  13  -7  -3   59.05    2.04
 -13  -7   3   63.16    2.55
  13  -7  -3   60.88    2.38
  13  -7  -3   60.08    2.32
  13  -7  -3   57.90    2.28
 -13  -7   3   64.38    2.21
 -13  -7   3   59.14    2.40
  13  -7  -3   62.82    1.88
 -13   7   3   54.50    2.38
  13   7  -3   56.98    2.38
 -11  -7   3   31.59    1.60
  11  -7  -3   34.99    1.62
  11  -7  -3   35.44    1.28
 -11  -7   3   31.88    1.70
  11  -7  -3   34.39    1.17
  11  -7  -3   36.41    1.61
  11  -7  -3   33.60    1.58
 -11  -7   3   30.94    1.43
 -11   7   3   30.28    1.46
  11   7  -3   32.10    1.66
   9  -7  -3   23.16    1.36
  -9  -7   3   21.11    1.09
   9  -7  -3   22.65    0.85
   9  -7  -3   19.28    1.20
   9  -7  -3   21.76    0.87
   9  -7  -3   22.27    1.22
  -9  -7   3   20.42    1.30
  -9  -7   3   21.32    1.24
   9  -7  -3   21.15    1.15
  -9   7   3   25.78    1.31
   9   7  -3   26.46    1.42
   7  -7  -3    7.11    0.41
  -7  -7   3    9.01    0.73
   7  -7  -3    7.25    0.70
   7  -7  -3    8.27    0.48
   7  -7  -3    7.88    0.80
   7  -7  -3    7.00    0.81
   7  -7  -3    7.65    0.46
  -7  -7   3    6.07    0.74
  -7  -7   3    6.81    0.84
   7   7  -3    9.44    0.93
  -7   7   3    7.07    0.74
   5  -7  -3   89.89    3.20
  -5  -7   3   91.79    2.91
   5  -7  -3   95.89    2.66
  -5  -7   3   97.32    3.09
   5  -7  -3   93.91    3.00
  -5  -7   3   97.96    3.26
   5  -7  -3   97.99    3.13
   5  -7  -3   95.19    2.65
  -5   7   3   89.98    2.99
   5   7  -3   98.44    3.18
   5   7  -3   86.30    3.06
   3  -7  -3   13.86    0.94
  -3  -7   3   16.53    0.88
   3  -7  -3   15.81    0.63
  -3  -7   3   14.14    0.91
   3  -7  -3   14.76    0.64
   3  -7  -3   15.14    0.87
   3  -7  -3   15.70    1.13
   3   7  -3   24.01    1.27
   3   7  -3   22.40    1.28
  -3   7   3   23.45    1.21
  -1  -7   3    2.06    0.42
   1  -7  -3    1.69    0.24
   1  -7  -3    1.56    0.55
   1  -7  -3    1.22    0.46
   1  -7  -3    1.49    0.38
  -1  -7   3    1.07    0.36
   1  -7  -3    1.33    0.24
   1   7  -3    1.15    0.46
  -1   7   3    2.57    0.51
   1   7  -3    1.88    0.51
  -1  -7  -3   79.45    2.51
  -1  -7  -3   84.21    2.34
  -1  -7  -3   84.34    2.89
  -1  -7  -3   81.11    2.35
  -1  -7  -3   81.54    2.93
   1  -7   3   87.55    2.64
   1  -7   3   79.79    2.57
  -1  -7  -3   84.31    2.78
   1   7   3   84.00    2.83
  -1   7  -3   82.84    2.81
  -1   7  -3   83.55    2.50
  -1   7  -3   79.67    2.92
  -1   7  -3   87.83    2.96
  -3  -7  -3   54.70    2.20
   3  -7   3   55.09    1.92
  -3  -7  -3   59.47    2.31
   3  -7   3   59.30    1.93
  -3  -7  -3   59.05    1.73
  -3  -7  -3   55.00    1.81
  -3  -7  -3   55.49    1.69
  -3  -7  -3   58.19    2.12
   3  -7   3   56.96    2.03
  -3   7  -3   59.32    2.30
   3   7   3   59.00    2.22
  -3   7  -3   57.17    1.86
  -3   7  -3   58.80    2.28
   5  -7   3   35.53    1.37
  -5  -7  -3   36.17    1.76
  -5  -7  -3   32.10    1.62
  -5  -7  -3   33.83    1.18
   5  -7   3   33.53    1.29
  -5  -7  -3   34.17    1.48
  -5  -7  -3   34.42    1.17
  -5  -7  -3   35.05    1.14
   5  -7   3   34.99    1.47
  -5   7  -3   31.57    1.57
  -5   7  -3   32.52    1.21
   5   7   3   31.05    0.98
  -7  -7  -3   94.10    3.33
  -7  -7  -3   95.22    3.06
  -7  -7  -3   92.68    3.25
  -7  -7  -3   97.06    2.62
   7  -7   3   92.02    2.96
   7  -7   3   92.38    2.77
  -7  -7  -3   91.70    2.61
  -7  -7  -3   95.14    2.67
  -7  -7  -3   93.46    2.71
   7  -7   3   96.01    2.90
  -7   7  -3  107.81    3.19
   7   7   3  108.87    3.05
  -7   7  -3  110.18    3.62
  -9  -7  -3   49.89    1.39
  -9  -7  -3   45.20    2.03
   9  -7   3   49.48    1.61
  -9  -7  -3   51.11    1.93
   9  -7   3   49.10    1.83
   9  -7   3   47.58    1.74
  -9  -7  -3   51.61    2.21
  -9  -7  -3   47.86    1.60
  -9  -7  -3   49.55    1.56
  -9  -7  -3   49.51    1.40
  -9   7  -3   40.98    1.85
   9   7   3   41.22    1.42
  -9   7  -3   41.71    1.51
 -11  -7  -3    9.07    0.84
 -11  -7  -3    9.06    1.00
  11  -7   3    9.10    0.55
  11  -7   3    7.87    0.72
 -11  -7  -3    9.73    0.58
 -11  -7  -3    6.55    0.95
 -11  -7  -3    8.34    0.62
  11  -7   3    9.60    0.77
 -11   7  -3    7.58    0.85
  11   7   3    7.85    0.63
 -13  -7  -3    8.90    0.87
 -13  -7  -3    7.85    0.98
  13  -7   3    8.95    0.52
  13  -7   3    8.13    0.71
 -13  -7  -3    7.46    1.02
  13  -7   3    7.56    0.73
 -13  -7  -3    8.14    0.65
  13   7   3   12.07    0.78
 -13   7  -3   10.71    1.07
  15  -7   3   18.42    1.02
 -15  -7  -3   17.30    0.94
 -15  -7  -3   17.04    1.32
 -15  -7  -3   16.39    1.51
  15  -7   3   18.41    1.13
 -15  -7  -3   17.02    1.09
  15  -7   3   16.54    1.00
  15   7   3   18.14    1.00
 -15   7  -3   16.35    1.28
  17  -7   3    5.65    0.67
  17  -7   3    4.99    0.63
  17  -7   3    6.89    0.81
 -17  -7  -3    7.05    1.10
 -17  -7  -3    6.95    0.67
 -17  -7  -3    6.80    1.03
 -17  -7  -3    6.35    0.78
 -17   7  -3    7.90    0.96
  17   7   3    9.54    0.83
  19  -7   3    8.11    0.79
 -19  -7  -3    9.79    1.35
  19  -7   3    7.72    0.77
  19  -7   3    7.86    0.93
 -19  -7  -3    7.70    0.87
 -19  -7  -3    6.90    1.05
 -19  -7  -3    7.83    0.74
 -19   7  -3    6.36    0.95
  19   7   3    6.06    0.73
 -21  -7  -3    5.83    0.72
 -21  -7  -3    6.17    1.09
 -21  -7  -3    7.75    0.85
  21  -7   3    7.52    0.79
  21  -7   3    7.21    0.78
  21  -7   3    5.94    0.84
 -21  -7  -3    8.48    1.36
 -21   7  -3    5.75    0.94
  21   7   3    6.09    0.81
 -23  -7  -3    2.09    0.56
  23  -7   3    2.79    0.73
 -23  -7  -3    1.39    0.81
  23  -7   3    2.53    0.61
 -23  -7  -3    2.08    0.95
  23  -7   3    3.37    0.62
 -23   7  -3    5.34    0.96
  23   7   3    5.42    0.81
 -25  -7  -3   16.01    1.79
 -25  -7  -3   14.21    1.09
  25  -7   3   16.01    1.39
 -25  -7  -3   16.65    1.78
  25  -7   3   17.18    1.19
 -25   7  -3   18.92    1.70
  25   7   3   18.32    1.35
 -27  -7  -3    0.42    0.54
  27  -7   3    0.20    0.66
  27  -7   3   -0.13    0.55
 -27  -7  -3    1.16    1.01
 -27  -7  -3    1.12    1.06
  27   7   3    0.32    0.63
 -29  -7  -3    4.73    1.38
  29  -7   3    5.96    0.99
  29  -7   3    5.19    0.84
 -29  -7  -3    5.15    0.79
  29   7   3    6.45    1.06
 -31  -7  -3   13.17    1.12
  31  -7   3   14.02    1.20
  31  -7   3   10.19    1.21
 -31  -7  -3   12.80    1.85
  31  -7   3   12.09    1.36
  31   7   3   11.40    1.36
  33  -7   3    2.27    0.93
 -33  -7  -3    2.43    1.35
  33  -7   3    2.11    0.73
  33  -7   3   -0.10    0.82
 -33  -7  -3    1.81    0.68
  33   7   3   -0.24    0.84
 -35  -7  -3    2.36    1.40
  35   7   3   -0.90    0.87
  32  -8  -3    5.72    1.23
 -32  -8   3    6.14    1.42
  32  -8  -3    5.30    0.56
  32  -8  -3    4.82    1.07
 -32  -8   3    5.78    1.12
  32   8  -3    5.68    1.47
  30  -8  -3    3.61    0.51
  30  -8  -3    4.41    1.06
 -30  -8   3    4.83    1.44
  30  -8  -3    2.45    0.97
 -30  -8   3    3.23    0.99
  30   8  -3    4.74    1.36
  28  -8  -3    5.45    1.19
  28  -8  -3    6.42    1.13
 -28  -8   3    8.34    1.53
  28  -8  -3    6.35    0.62
  28  -8  -3    6.05    1.66
 -28  -8   3    6.85    1.06
  28   8  -3    4.52    1.27
 -26  -8   3    6.75    1.03
  26  -8  -3    6.46    1.11
  26  -8  -3    7.70    0.67
  26  -8  -3    9.92    1.33
  26  -8  -3    7.40    1.08
 -26  -8   3    7.74    1.37
  26   8  -3    7.88    1.32
 -24  -8   3    0.84    0.70
  24  -8  -3    2.25    0.82
  24  -8  -3    0.84    0.71
 -24  -8   3    1.05    0.95
  24  -8  -3    1.55    0.43
  24  -8  -3    0.85    0.74
  24   8  -3    0.17    0.74
  22  -8  -3   10.99    1.08
  22  -8  -3   10.17    1.13
 -22  -8   3    9.11    1.02
  22  -8  -3    8.26    1.11
 -22  -8   3   11.29    1.39
  22  -8  -3   10.86    0.75
  22   8  -3   15.38    1.64
  20  -8  -3    0.63    0.55
  20  -8  -3    1.77    0.40
 -20  -8   3    1.57    0.92
  20  -8  -3    0.92    0.62
  20  -8  -3    1.07    0.62
 -20  -8   3    2.43    0.68
  20  -8  -3    2.06    0.77
  20   8  -3    5.80    1.02
  18  -8  -3    2.32    0.68
  18  -8  -3    2.00    0.57
  18  -8  -3    1.28    0.68
 -18  -8   3    0.93    0.58
 -18  -8   3    1.53    0.84
  18  -8  -3    3.68    0.77
  18  -8  -3    2.25    0.40
  18   8  -3    0.45    0.70
  16  -8  -3   22.43    1.38
  16  -8  -3   22.40    0.99
 -16  -8   3   21.97    1.33
 -16  -8   3   24.27    1.62
  16  -8  -3   23.81    1.20
  16  -8  -3   22.75    1.49
  16  -8  -3   25.65    1.53
  16   8  -3   28.15    1.77
 -14  -8   3   20.79    1.23
  14  -8  -3   19.89    1.31
  14  -8  -3   20.08    1.04
  14  -8  -3   20.30    1.35
 -14  -8   3   19.56    1.42
  14  -8  -3   22.10    1.33
  14  -8  -3   19.72    0.90
  14   8  -3   15.77    1.43
 -12  -8   3   50.44    2.20
  12  -8  -3   51.43    1.73
  12  -8  -3   51.41    1.64
  12  -8  -3   51.00    2.11
  12  -8  -3   46.96    2.09
  12  -8  -3   48.58    2.14
 -12  -8   3   51.22    2.36
 -12  -8   3   49.75    1.97
  12   8  -3   40.05    1.93
 -10  -8   3   44.53    2.09
  10  -8  -3   52.40    2.08
  10  -8  -3   51.84    2.19
 -10  -8   3   52.27    1.96
 -10  -8   3   50.63    2.27
  10  -8  -3   47.49    2.05
  10  -8  -3   51.54    1.63
  10  -8  -3   52.67    1.65
  10   8  -3   46.00    2.08
   8  -8  -3   25.67    1.38
  -8  -8   3   23.26    1.22
  -8  -8   3   21.37    1.40
   8  -8  -3   23.37    0.94
  -8  -8   3   24.71    1.41
   8  -8  -3   23.74    1.30
   8  -8  -3   24.83    1.47
   8  -8  -3   24.95    0.87
   8   8  -3   23.66    1.41
  -8   8   3   22.12    1.32
   6  -8  -3   91.89    2.95
  -6  -8   3   82.16    2.97
  -6  -8   3   87.16    3.17
  -6  -8   3   91.02    2.87
   6  -8  -3   86.26    2.54
   6  -8  -3   89.33    3.05
   6  -8  -3   91.49    3.19
   6   8  -3   84.48    3.01
  -6   8   3   85.41    2.94
  -4  -8   3   57.85    2.05
  -4  -8   3   56.56    2.16
   4  -8  -3   58.97    1.76
   4  -8  -3   55.45    2.06
   4  -8  -3   56.76    1.74
   4  -8  -3   59.47    2.39
   4  -8  -3   56.04    2.19
   4   8  -3   47.34    1.95
  -4   8   3   42.53    1.86
  -2  -8   3   15.68    0.94
   2  -8  -3   14.85    1.09
   2  -8  -3   15.18    0.70
  -2  -8   3   16.05    1.01
   2  -8  -3   14.28    0.65
   2  -8  -3   13.96    0.90
   2  -8  -3   13.57    1.17
   2   8  -3   17.84    1.15
  -2   8   3   19.41    1.18
   0  -8   3    7.26    0.72
   0  -8  -3    6.40    0.65
   0  -8   3    7.10    0.77
   0  -8  -3    7.76    0.81
   0  -8   3    7.25    0.70
   0  -8  -3    6.76    0.46
   0  -8  -3    6.74    0.49
   0  -8  -3    6.54    0.88
   0   8  -3    9.33    0.90
   0   8   3    9.96    0.99
   0   8  -3    9.04    1.01
   0   8  -3    9.31    0.69
  -2  -8  -3    5.12    0.75
  -2  -8  -3    5.32    0.81
   2  -8   3    4.08    0.63
   2  -8   3    5.75    0.63
  -2  -8  -3    5.72    0.43
  -2  -8  -3    4.37    0.77
  -2  -8  -3    5.11    0.44
   2  -8   3    5.75    0.60
  -2  -8  -3    6.10    0.58
  -2   8  -3    2.69    0.43
   2   8   3    2.34    0.58
  -2   8  -3    3.04    0.68
   4  -8   3    2.66    0.48
  -4  -8  -3    2.82    0.33
   4  -8   3    2.61    0.48
  -4  -8  -3    2.40    0.59
  -4  -8  -3    4.15    0.78
  -4  -8  -3    3.64    0.73
   4  -8   3    3.60    0.63
  -4  -8  -3    2.70    0.36
  -4  -8  -3    2.56    0.40
   4   8   3    3.33    0.68
  -4   8  -3    1.79    0.62
  -6  -8  -3    8.50    0.58
  -6  -8  -3    8.69    1.03
   6  -8   3    8.08    0.68
  -6  -8  -3    9.50    0.96
  -6  -8  -3    9.23    0.55
   6  -8   3    8.27    0.80
  -6  -8  -3    8.49    0.57
  -6  -8  -3    8.58    0.96
   6  -8   3    8.45    0.72
  -6   8  -3    5.04    0.77
   6   8   3    6.56    0.40
   8  -8   3   51.83    1.87
  -8  -8  -3   51.32    1.70
  -8  -8  -3   47.64    1.56
   8  -8   3   50.03    1.96
  -8  -8  -3   51.18    2.27
  -8  -8  -3   53.08    2.10
  -8  -8  -3   55.59    2.42
   8  -8   3   52.00    1.77
  -8   8  -3   52.97    2.25
   8   8   3   50.98    1.66
  10  -8   3    6.80    0.69
 -10  -8  -3    7.85    1.10
  10  -8   3    8.16    0.63
 -10  -8  -3    7.23    0.59
 -10  -8  -3    6.69    0.84
  10  -8   3    7.64    0.79
 -10  -8  -3    7.23    0.97
 -10   8  -3    8.21    0.99
  10   8   3    8.53    0.63
 -12  -8  -3    2.49    0.69
  12  -8   3    2.82    0.59
  12  -8   3    3.22    0.56
  12  -8   3    3.52    0.43
 -12  -8  -3    3.13    0.85
 -12  -8  -3    3.84    0.69
 -12  -8  -3    3.48    0.47
  12   8   3    6.01    0.62
 -12   8  -3    5.81    0.89
  14  -8   3   23.82    1.38
  14  -8   3   22.90    1.21
 -14  -8  -3   22.49    1.10
 -14  -8  -3   24.18    1.37
 -14  -8  -3   22.94    1.55
  14  -8   3   22.76    1.26
 -14  -8  -3   24.26    1.71
 -14   8  -3   24.31    1.53
  14   8   3   21.28    1.14
  16  -8   3    7.33    0.76
 -16  -8  -3    9.51    1.28
 -16  -8  -3    8.85    0.95
 -16  -8  -3    5.49    0.95
  16  -8   3    7.86    0.93
  16  -8   3    8.03    0.84
 -16  -8  -3    6.89    0.68
 -16   8  -3    4.22    0.84
  16   8   3    6.49    0.73
  18  -8   3    8.52    0.86
 -18  -8  -3    7.35    1.15
 -18  -8  -3   10.14    1.40
 -18  -8  -3   10.70    1.04
  18  -8   3    7.11    0.89
 -18  -8  -3    8.28    0.76
  18  -8   3    8.16    0.83
 -18   8  -3    4.87    0.93
  18   8   3    5.08    0.72
 -20  -8  -3    5.00    0.67
  20  -8   3    4.31    0.80
 -20  -8  -3    6.41    1.22
 -20  -8  -3    6.93    1.22
 -20  -8  -3    6.01    0.87
  20  -8   3    6.84    0.79
  20  -8   3    5.35    0.75
 -20   8  -3    6.82    1.08
  20   8   3    7.81    0.92
  22  -8   3    2.34    0.72
 -22  -8  -3    2.34    0.58
  22  -8   3    3.03    0.66
 -22  -8  -3    2.44    1.05
 -22  -8  -3    5.26    1.15
  22  -8   3    2.25    0.60
 -22   8  -3    1.76    0.87
  22   8   3    2.26    0.69
 -24  -8  -3    8.06    0.86
  24  -8   3    7.29    1.10
 -24  -8  -3    8.52    1.46
  24  -8   3    9.61    0.96
 -24  -8  -3    9.95    1.49
  24   8   3    8.41    1.07
 -26  -8  -3    1.21    1.09
  26  -8   3    1.34    0.61
 -26  -8  -3    0.32    0.88
  26  -8   3    0.25    0.76
 -26  -8  -3    0.17    0.52
  26   8   3    0.01    0.65
 -28  -8  -3    1.09    1.25
 -28  -8  -3   -0.37    0.54
  28  -8   3    0.26    0.61
  28  -8   3    0.06    0.80
  28   8   3    0.41    0.77
 -30  -8  -3   15.30    1.18
  30  -8   3   15.40    1.40
  30  -8   3   14.53    1.24
  30  -8   3   18.52    1.67
 -30  -8  -3   15.70    2.11
  30   8   3   15.44    1.56
 -32  -8  -3    0.98    0.62
 -32  -8  -3    0.18    1.14
  32  -8   3    0.45    0.72
  32  -8   3   -0.25    0.92
  32  -8   3   -0.27    0.81
 -31  -9   3    1.11    0.90
  31  -9  -3    0.11    0.88
  31  -9  -3    0.71    0.42
  31   9  -3   -0.05    1.09
 -29  -9   3    5.40    1.49
  29  -9  -3    6.15    0.60
  29  -9  -3    6.37    1.29
 -29  -9   3    6.22    1.09
  29  -9  -3    7.44    1.25
  29   9  -3    5.80    1.38
  27  -9  -3   17.68    0.96
  27  -9  -3   18.46    1.69
 -27  -9   3   19.51    1.97
  27  -9  -3   16.29    1.63
 -27  -9   3   17.78    1.53
  27   9  -3   20.84    2.12
  25  -9  -3    1.84    0.78
 -25  -9   3   -0.08    0.71
 -25  -9   3    1.96    1.13
  25  -9  -3    0.29    0.38
  25  -9  -3    1.62    0.86
  25   9  -3    0.72    0.90
 -23  -9   3    5.13    1.28
  23  -9  -3    2.65    0.99
  23  -9  -3    5.28    0.56
  23  -9  -3    4.63    1.01
 -23  -9   3    5.43    0.96
  23   9  -3   10.02    1.40
  21  -9  -3    0.45    0.75
 -21  -9   3    1.77    0.92
  21  -9  -3    1.92    0.80
  21  -9  -3    0.83    0.38
  21  -9  -3    0.91    0.67
 -21  -9   3    1.01    0.67
  21   9  -3    1.48    0.91
  19  -9  -3   11.53    1.23
 -19  -9   3   12.46    1.21
  19  -9  -3   12.97    0.79
 -19  -9   3    9.17    1.29
  19  -9  -3   12.66    1.32
  19  -9  -3   10.54    1.15
  19   9  -3   10.78    1.39
  17  -9  -3   20.37    0.95
  17  -9  -3   17.75    1.46
  17  -9  -3   22.30    1.54
 -17  -9   3   19.62    1.78
  17  -9  -3   17.84    1.38
 -17  -9   3   20.81    1.39
  17   9  -3   29.81    1.90
  15  -9  -3   17.02    1.39
 -15  -9   3   16.49    1.58
  15  -9  -3   16.15    1.36
 -15  -9   3   16.36    1.26
  15  -9  -3   19.33    1.48
  15  -9  -3   17.56    0.88
  15   9  -3   15.15    1.45
  13  -9  -3    3.27    0.74
  13  -9  -3    3.17    0.77
  13  -9  -3    3.42    0.73
 -13  -9   3    1.43    0.79
  13  -9  -3    4.32    0.47
 -13  -9   3    3.21    0.67
  13   9  -3    4.41    0.80
 -11  -9   3   13.51    1.27
  11  -9  -3   17.11    0.81
  11  -9  -3   13.01    1.20
 -11  -9   3   16.18    1.14
  11  -9  -3   18.12    1.21
  11  -9  -3   13.45    1.23
  11   9  -3   15.16    1.32
  -9  -9   3   34.86    1.66
   9  -9  -3   40.64    1.87
   9  -9  -3   36.09    1.90
   9  -9  -3   42.19    1.85
   9  -9  -3   40.45    1.38
  -9  -9   3   41.39    1.98
   9   9  -3   31.58    1.70
   7  -9  -3   26.54    1.43
   7  -9  -3   24.84    1.44
   7  -9  -3   24.40    1.51
  -7  -9   3   26.57    1.36
   7  -9  -3   26.10    1.04
  -7  -9   3   26.52    1.51
  -7  -9   3   28.88    1.83
   7   9  -3   28.27    1.58
  -5  -9   3    1.44    0.52
   5  -9  -3    0.56    0.50
   5  -9  -3    1.32    0.64
   5  -9  -3    0.76    0.49
   5  -9  -3    1.27    0.32
  -5  -9   3    0.61    0.47
   5   9  -3   -0.40    0.46
   3  -9  -3   53.00    2.13
  -3  -9   3   47.38    2.05
  -3  -9   3   49.58    2.04
   3  -9  -3   48.53    1.93
  -3  -9   3   50.86    1.93
   3  -9  -3   49.43    1.61
   3  -9  -3   48.16    2.21
   3   9  -3   58.26    2.33
  -1  -9   3    3.76    0.59
  -1  -9   3    3.51    0.63
   1  -9  -3    3.87    0.74
   1  -9  -3    3.08    0.81
   1  -9  -3    4.12    0.61
  -1  -9   3    2.88    0.64
   1  -9  -3    3.49    0.41
   1   9  -3    3.78    0.71
   1   9  -3    2.91    0.75
   1  -9   3   21.07    1.27
  -1  -9  -3   22.13    0.93
  -1  -9  -3   24.49    1.42
  -1  -9  -3   22.17    1.47
   1  -9   3   19.60    1.15
  -1  -9  -3   21.44    1.09
   1  -9   3   22.53    1.22
  -1   9  -3   21.21    1.50
  -3  -9  -3    6.71    0.54
  -3  -9  -3    5.97    0.93
   3  -9   3    6.68    0.86
  -3  -9  -3    5.49    0.91
   3  -9   3    5.49    0.68
   3  -9   3    5.74    0.70
  -3  -9  -3    5.92    0.61
  -3  -9  -3    4.22    0.73
  -3   9  -3   11.45    1.21
  -5  -9  -3    6.96    0.61
   5  -9   3    6.70    0.71
  -5  -9  -3    4.52    0.88
   5  -9   3    4.72    0.76
  -5  -9  -3    6.15    0.54
  -5  -9  -3    6.76    1.03
  -5  -9  -3    7.48    0.92
   5  -9   3    7.33    0.73
  -5   9  -3    6.32    0.93
   7  -9   3   15.25    1.02
   7  -9   3   12.56    1.05
   7  -9   3   16.20    0.94
  -7  -9  -3   16.39    0.81
  -7  -9  -3   14.46    1.33
  -7  -9  -3   14.39    1.25
  -7  -9  -3   15.62    1.45
  -7  -9  -3   17.02    0.84
  -7   9  -3   18.95    1.37
  -9  -9  -3   14.81    1.38
   9  -9   3   18.03    0.98
  -9  -9  -3   17.50    1.54
  -9  -9  -3   17.28    0.91
   9  -9   3   16.93    1.17
   9  -9   3   18.07    1.09
  -9  -9  -3   19.62    1.27
  -9   9  -3   18.14    1.41
  11  -9   3    5.18    0.68
 -11  -9  -3    2.79    0.80
 -11  -9  -3    2.27    0.64
 -11  -9  -3    3.71    0.50
 -11  -9  -3    3.75    0.90
  11  -9   3    4.30    0.73
 -11   9  -3    3.23    0.79
 -13  -9  -3   48.77    2.19
  13  -9   3   52.13    2.10
 -13  -9  -3   50.10    2.46
 -13  -9  -3   53.27    2.62
 -13  -9  -3   50.62    1.83
  13  -9   3   51.76    1.99
 -13   9  -3   48.03    2.29
 -15  -9  -3    1.84    0.47
  15  -9   3    2.19    0.64
 -15  -9  -3    1.93    0.95
  15  -9   3    1.90    0.56
 -15  -9  -3    3.62    0.94
  15  -9   3    1.58    0.58
 -15  -9  -3    2.02    0.67
 -15   9  -3    2.31    0.79
  17  -9   3    2.72    0.64
 -17  -9  -3    1.65    0.80
  17  -9   3    2.82    0.71
  17  -9   3    2.16    0.62
 -17  -9  -3    3.05    0.75
 -17  -9  -3    2.18    0.53
 -17  -9  -3    1.93    0.93
 -17   9  -3    1.89    0.81
  19  -9   3   11.88    1.01
 -19  -9  -3   16.64    1.86
 -19  -9  -3   13.35    1.25
  19  -9   3   11.81    1.10
 -19  -9  -3   14.17    1.01
 -19  -9  -3   10.45    1.42
  19  -9   3   12.92    1.23
 -19   9  -3   21.47    1.78
  21  -9   3   13.47    1.33
 -21  -9  -3   13.39    1.81
  21  -9   3   14.09    1.20
 -21  -9  -3   13.43    1.58
 -21  -9  -3   11.63    0.98
  21  -9   3   15.80    1.19
 -21  -9  -3   13.60    1.29
 -21   9  -3   13.47    1.72
  23  -9   3    8.90    1.18
  23  -9   3    8.77    1.02
  23  -9   3    8.45    0.93
 -23  -9  -3   12.63    1.67
 -23  -9  -3    7.71    1.44
 -23  -9  -3    8.31    0.87
 -25  -9  -3    0.01    1.12
  25  -9   3    0.93    0.83
 -25  -9  -3    1.14    1.03
 -25  -9  -3    0.45    0.55
  25  -9   3    0.27    0.59
  27  -9   3    4.03    0.80
  27  -9   3    4.86    1.08
 -27  -9  -3    3.98    1.34
 -27  -9  -3    5.11    0.77
 -29  -9  -3    5.55    1.59
  29  -9   3    2.31    0.90
  29  -9   3    3.59    0.83
 -29  -9  -3    3.50    0.73
  31  -9   3    0.98    0.91
 -31  -9  -3    0.54    0.61
  31  -9   3   -0.55    0.78
 -31  -9  -3    1.04    1.33
  30 -10  -3    2.84    1.05
  30  10  -3    3.15    1.28
  28 -10  -3    2.60    0.45
  28 -10  -3    1.47    0.95
  28 -10  -3    1.62    0.98
 -28 -10   3    2.47    0.99
 -28 -10   3    0.81    1.28
  28  10  -3    3.15    1.19
  26 -10  -3    0.82    0.41
  26 -10  -3    1.02    0.87
  26 -10  -3    1.32    0.82
 -26 -10   3    0.83    0.85
 -26 -10   3   -0.71    1.10
  26  10  -3    1.70    1.04
 -24 -10   3    9.54    1.63
 -24 -10   3    7.02    1.13
  24 -10  -3   12.00    1.51
  24 -10  -3    9.60    0.71
  24 -10  -3   12.21    1.47
  24  10  -3   11.13    1.60
  22 -10  -3    4.73    0.99
  22 -10  -3    5.27    1.06
 -22 -10   3    5.09    1.22
 -22 -10   3    4.67    0.96
  22 -10  -3    6.27    0.59
  22  10  -3    5.91    1.25
 -20 -10   3   10.17    1.44
  20 -10  -3    9.56    1.20
 -20 -10   3   10.49    1.20
  20 -10  -3   11.60    1.34
  20 -10  -3   12.38    1.36
  20 -10  -3   10.45    0.73
  20  10  -3   14.36    1.65
 -18 -10   3    2.83    0.77
  18 -10  -3    5.52    0.57
  18 -10  -3    4.62    0.93
 -18 -10   3    5.37    1.24
  18 -10  -3    4.02    0.96
  18 -10  -3    4.11    0.92
  18  10  -3    8.98    1.30
  16 -10  -3   20.45    1.61
  16 -10  -3   19.81    1.60
 -16 -10   3   18.53    1.41
 -16 -10   3   21.78    1.86
  16 -10  -3   20.47    1.50
  16 -10  -3   18.55    0.95
  16  10  -3   15.49    1.55
 -14 -10   3    3.26    0.78
  14 -10  -3    3.66    0.88
 -14 -10   3    1.96    0.82
  14 -10  -3    2.72    0.45
  14 -10  -3    1.94    0.74
  14 -10  -3    1.91    0.76
  14  10  -3    4.80    1.02
  12 -10  -3    4.00    0.48
 -12 -10   3    2.17    0.68
  12 -10  -3    4.36    0.89
  12 -10  -3    4.63    0.93
  12 -10  -3    3.80    0.77
 -12 -10   3    4.26    0.95
  12  10  -3    3.35    0.85
  10 -10  -3   21.48    1.45
 -10 -10   3   20.36    1.57
 -10 -10   3   22.50    1.38
  10 -10  -3   23.82    1.42
  10 -10  -3   21.57    0.98
  10 -10  -3   21.13    1.52
  10  10  -3   27.39    1.67
   8 -10  -3   10.02    0.68
   8 -10  -3    9.24    1.06
  -8 -10   3   10.21    0.96
   8 -10  -3   10.47    1.06
   8 -10  -3    9.22    1.17
  -8 -10   3   10.94    1.19
   8  10  -3   10.38    1.15
  -6 -10   3    2.14    0.66
   6 -10  -3    2.46    0.74
   6 -10  -3    3.63    0.73
   6 -10  -3    4.12    0.79
  -6 -10   3    3.49    0.77
   6 -10  -3    2.71    0.41
  -6 -10   3    3.12    0.64
   6  10  -3    4.56    0.81
  -4 -10   3   30.76    1.66
   4 -10  -3   33.16    1.71
   4 -10  -3   29.74    1.51
  -4 -10   3   27.92    1.62
   4 -10  -3   31.32    1.19
  -4 -10   3   28.50    1.49
   4 -10  -3   31.30    1.84
   4  10  -3   31.04    1.89
   4  10  -3   29.00    1.64
  -2 -10   3   12.67    1.01
  -2 -10   3   12.88    1.13
   2 -10  -3   12.21    1.16
   2 -10  -3   12.98    1.04
   2 -10  -3   13.10    1.30
  -2 -10   3   11.34    1.10
   2 -10  -3   12.73    0.75
   2  10  -3   12.14    1.14
   2  10  -3   10.81    1.31
   0 -10  -3   24.59    1.04
   0 -10   3   23.25    1.44
   0 -10  -3   26.11    1.29
   0 -10  -3   25.71    1.50
   0 -10   3   22.65    1.40
   0 -10  -3   24.44    1.70
   0 -10   3   22.81    1.31
   0  10  -3   19.20    1.47
   2 -10   3   19.00    1.18
  -2 -10  -3   19.64    1.12
  -2 -10  -3   19.20    1.32
   2 -10   3   18.04    1.22
  -2 -10  -3   20.17    1.69
   2 -10   3   18.56    1.28
  -2 -10  -3   19.03    0.92
  -2  10  -3   18.45    1.55
   4 -10   3   14.35    1.20
   4 -10   3   15.66    1.07
  -4 -10  -3   16.05    0.86
  -4 -10  -3   17.07    1.54
  -4 -10  -3   14.64    0.96
  -4 -10  -3   15.85    1.53
   4 -10   3   17.08    1.12
  -4 -10  -3   13.93    1.30
  -4  10  -3   15.73    1.46
  -6 -10  -3    9.38    1.23
   6 -10   3    8.13    0.93
  -6 -10  -3    8.38    1.01
  -6 -10  -3    7.05    0.63
  -6 -10  -3    7.56    1.11
   6 -10   3    8.39    0.81
   6 -10   3    8.79    0.86
  -6  10  -3    4.14    0.92
   8 -10   3    8.48    0.81
  -8 -10  -3    6.57    0.63
  -8 -10  -3    7.83    1.17
   8 -10   3    8.38    0.85
   8 -10   3    8.07    0.91
  -8 -10  -3    7.18    1.07
  -8 -10  -3    7.34    1.01
  -8  10  -3    5.53    1.02
 -10 -10  -3   11.24    1.38
 -10 -10  -3    9.35    1.32
  10 -10   3   13.96    1.08
  10 -10   3   10.67    1.11
 -10 -10  -3   13.52    0.86
 -10 -10  -3   15.22    1.38
 -10  10  -3   12.64    1.37
  12 -10   3   16.29    1.18
 -12 -10  -3   14.31    1.52
 -12 -10  -3   15.45    1.36
 -12 -10  -3   16.11    1.71
 -12 -10  -3   16.18    0.98
  12 -10   3   17.74    1.29
 -12  10  -3   21.11    1.70
  14 -10   3   23.78    1.48
 -14 -10  -3   21.41    1.96
 -14 -10  -3   24.15    2.10
  14 -10   3   22.89    1.45
 -14 -10  -3   24.36    1.59
 -14 -10  -3   22.22    1.16
  14 -10   3   22.61    1.34
 -14  10  -3   18.76    1.60
  16 -10   3    0.86    0.65
 -16 -10  -3    0.81    0.88
 -16 -10  -3    1.29    0.71
  16 -10   3   -0.28    0.58
 -16 -10  -3    0.94    0.49
 -16 -10  -3    0.48    0.86
  16 -10   3    1.08    0.58
 -16  10  -3    0.71    0.76
 -18 -10  -3   24.04    1.26
  18 -10   3   21.15    1.44
 -18 -10  -3   22.43    1.57
 -18 -10  -3   22.21    2.05
 -18 -10  -3   23.82    2.16
  18 -10   3   19.70    1.33
  18 -10   3   20.15    1.46
 -20 -10  -3   15.36    1.75
 -20 -10  -3   10.41    0.92
  20 -10   3   11.68    1.24
  20 -10   3   12.96    1.24
 -20 -10  -3   15.58    1.39
 -20 -10  -3   11.65    1.69
  20 -10   3   11.72    1.04
 -22 -10  -3    1.30    0.99
  22 -10   3    1.32    0.69
 -22 -10  -3    0.11    0.99
 -22 -10  -3    0.33    0.51
  22 -10   3    0.73    0.81
  22 -10   3   -0.35    0.55
  24 -10   3   16.35    1.29
  24 -10   3   15.41    1.46
 -24 -10  -3   16.64    1.19
 -24 -10  -3   18.01    2.20
  26 -10   3    2.47    0.79
 -26 -10  -3    2.22    0.63
  26 -10   3    1.87    0.88
 -26 -10  -3    3.60    1.53
  28 -10   3    1.12    0.73
 -28 -10  -3    1.53    0.63
  28 -10   3    1.56    0.98
 -28 -10  -3   -0.10    1.20
  30 -10   3    3.15    0.95
 -30 -10  -3    2.82    0.75
 -27 -11   3    5.95    1.36
  27 -11  -3    4.73    1.16
  27  11  -3    6.86    1.56
 -25 -11   3    2.25    1.20
  25 -11  -3    1.89    0.97
  25 -11  -3    1.20    0.40
  25 -11  -3    1.03    0.96
 -25 -11   3    0.60    0.91
  25  11  -3    1.54    1.07
 -23 -11   3   12.17    1.35
 -23 -11   3   11.12    1.75
  23 -11  -3   13.09    0.82
  23 -11  -3   14.55    1.61
  23 -11  -3   13.01    1.51
  23  11  -3   11.71    1.64
 -21 -11   3    7.89    1.17
 -21 -11   3    8.18    1.53
  21 -11  -3    8.17    0.64
  21 -11  -3    6.01    1.14
  21 -11  -3   11.56    1.39
  21  11  -3    8.38    1.39
  19 -11  -3    2.25    0.88
  19 -11  -3    2.14    0.94
  19 -11  -3    1.68    0.78
 -19 -11   3    2.21    0.80
 -19 -11   3    1.49    0.91
  19 -11  -3    1.83    0.44
  19  11  -3    0.15    0.84
  17 -11  -3    7.13    1.15
 -17 -11   3    8.68    1.11
 -17 -11   3    8.45    1.34
  17 -11  -3   13.09    1.42
  17 -11  -3    9.92    1.23
  17 -11  -3    9.20    0.70
  17  11  -3    6.92    1.26
  15 -11  -3   10.06    1.21
 -15 -11   3    6.95    1.30
  15 -11  -3    8.83    0.68
 -15 -11   3    7.98    1.05
  15 -11  -3    6.32    1.06
  15 -11  -3    9.18    1.20
  15  11  -3   10.44    1.36
  13 -11  -3    2.59    0.83
  13 -11  -3    2.37    0.88
  13 -11  -3    3.21    0.48
  13 -11  -3    1.96    0.83
 -13 -11   3    2.44    0.99
 -13 -11   3    2.20    0.74
  13  11  -3    2.20    0.85
 -11 -11   3    7.41    1.12
 -11 -11   3    7.72    1.23
 -11 -11   3    6.04    0.91
  11 -11  -3    7.92    1.14
  11 -11  -3    6.32    1.00
  11 -11  -3   10.18    0.70
  11 -11  -3   11.02    1.20
  11  11  -3   12.01    1.31
   9 -11  -3    3.83    0.91
   9 -11  -3    4.73    0.92
   9 -11  -3    4.99    0.53
  -9 -11   3    5.18    0.87
  -9 -11   3    4.19    0.92
   9 -11  -3    3.90    0.85
  -9 -11   3    3.75    0.90
   9  11  -3    1.65    0.74
   7 -11  -3    3.15    0.82
  -7 -11   3    4.50    0.78
  -7 -11   3    5.24    0.96
   7 -11  -3    3.08    0.90
   7 -11  -3    3.75    0.79
   7 -11  -3    3.55    0.48
  -7 -11   3    3.59    0.83
   7  11  -3    5.06    0.91
   5 -11  -3   23.31    1.58
  -5 -11   3   24.17    1.59
  -5 -11   3   21.53    1.40
   5 -11  -3   25.16    1.77
   5 -11  -3   23.89    1.46
  -5 -11   3   24.28    1.63
   5 -11  -3   23.91    1.06
   5  11  -3   20.74    1.44
   5  11  -3   23.87    2.00
  -3 -11   3    0.84    0.56
  -3 -11   3    0.97    0.64
   3 -11  -3    1.08    0.72
  -3 -11   3    0.18    0.63
   3 -11  -3    0.86    0.37
   3 -11  -3    1.61    0.63
   3 -11  -3    0.30    0.63
   3  11  -3    3.11    0.73
   3  11  -3    0.85    0.80
  -1 -11   3    2.41    0.70
   1 -11  -3    2.58    0.45
  -1 -11   3    4.29    0.84
   1 -11  -3    1.85    0.80
  -1 -11   3    1.48    0.60
   1 -11  -3    3.05    0.79
   1 -11  -3    2.89    0.66
   1  11  -3    2.50    0.91
   1 -11   3   12.15    1.04
  -1 -11  -3   14.53    1.12
   1 -11   3   13.21    1.25
  -1 -11  -3   16.32    0.88
   1 -11   3   14.14    1.22
  -1 -11  -3   12.89    1.48
  -1 -11  -3   17.24    1.49
  -1  11  -3   10.67    1.37
   3 -11   3    9.54    0.99
  -3 -11  -3    9.44    1.32
  -3 -11  -3   11.40    1.21
   3 -11   3   10.57    0.99
   3 -11   3    6.63    1.00
  -3 -11  -3   10.09    0.73
  -3  11  -3   10.45    1.28
   5 -11   3   12.91    1.22
  -5 -11  -3    9.16    1.18
  -5 -11  -3   12.79    0.84
   5 -11   3   15.06    1.14
   5 -11   3   11.82    1.06
  -5 -11  -3   13.49    1.48
  -5  11  -3   14.60    1.52
  -7 -11  -3    5.33    1.04
  -7 -11  -3    6.00    0.98
  -7 -11  -3    7.36    1.29
   7 -11   3    7.40    0.86
  -7 -11  -3    5.87    0.62
   7 -11   3    7.17    1.01
  -7  11  -3    5.85    1.09
   9 -11   3    3.24    0.79
  -9 -11  -3    5.92    0.62
   9 -11   3    3.33    0.68
  -9 -11  -3    3.73    1.06
  -9 -11  -3    4.06    1.12
  -9 -11  -3    4.69    0.97
  -9  11  -3    8.11    1.20
 -11 -11  -3    3.17    0.54
  11 -11   3    2.62    0.73
 -11 -11  -3    4.28    1.11
 -11 -11  -3    3.85    0.94
  11 -11   3    2.25    0.65
 -11 -11  -3    4.08    1.19
 -11  11  -3    5.20    1.11
 -13 -11  -3    6.41    1.38
 -13 -11  -3    4.28    0.61
  13 -11   3    5.54    0.81
  13 -11   3    4.98    0.89
 -13 -11  -3    8.43    1.35
 -13 -11  -3    7.70    1.15
  13 -11   3    6.56    0.99
 -13  11  -3    2.72    1.02
 -15 -11  -3   11.84    1.60
 -15 -11  -3   14.06    1.72
  15 -11   3    9.44    1.08
 -15 -11  -3   11.14    1.31
  15 -11   3   14.30    1.36
 -15 -11  -3   11.58    0.91
  15 -11   3    9.47    0.98
 -17 -11  -3    1.53    0.53
 -17 -11  -3    1.16    1.07
  17 -11   3    0.83    0.60
 -17 -11  -3    2.65    0.91
  17 -11   3    1.64    0.77
  17 -11   3    0.97    0.64
 -17 -11  -3    2.42    1.11
  19 -11   3   22.94    1.59
 -19 -11  -3   26.46    2.34
 -19 -11  -3   25.23    1.34
  19 -11   3   23.70    1.49
  19 -11   3   23.75    1.66
 -19 -11  -3   28.49    2.54
 -19 -11  -3   24.26    1.77
  21 -11   3   15.72    1.28
  21 -11   3   18.31    1.50
 -21 -11  -3   17.11    1.16
  21 -11   3   13.76    1.40
 -21 -11  -3   12.98    1.90
 -23 -11  -3    1.71    0.62
  23 -11   3    1.53    0.94
 -23 -11  -3    2.08    1.38
  23 -11   3    0.82    0.68
 -25 -11  -3    0.85    1.40
  25 -11   3    1.53    0.73
 -25 -11  -3    1.55    0.61
  25 -11   3    2.55    0.94
 -27 -11  -3    2.76    0.68
  24 -12  -3    3.77    1.17
 -24 -12   3    3.21    1.23
 -24 -12   3    1.61    1.10
 -22 -12   3    4.37    1.24
  22 -12  -3    2.04    0.43
 -22 -12   3    3.10    0.99
  22 -12  -3    2.93    1.08
  22 -12  -3    1.61    1.01
 -22 -12   3    3.19    1.25
  20 -12  -3    3.64    0.48
  20 -12  -3    3.30    1.03
 -20 -12   3    3.17    0.99
 -20 -12   3    3.05    1.30
  20 -12  -3    3.17    1.00
 -20 -12   3    2.40    1.16
 -18 -12   3    3.50    0.97
  18 -12  -3    6.27    1.14
  18 -12  -3    3.01    1.00
 -18 -12   3    3.23    1.16
  18 -12  -3    3.43    0.49
  18 -12  -3    2.99    1.08
 -18 -12   3    4.62    1.20
  16 -12  -3    3.04    1.05
 -16 -12   3    2.01    1.03
  16 -12  -3    1.10    0.82
 -16 -12   3    0.81    1.02
  16 -12  -3    0.17    0.81
 -16 -12   3    1.78    0.82
  16 -12  -3    1.47    0.43
 -14 -12   3    2.96    1.15
 -14 -12   3    4.07    1.11
 -14 -12   3    3.35    0.85
  14 -12  -3    3.94    0.99
  14 -12  -3    3.06    0.95
  14 -12  -3    5.58    1.07
  14 -12  -3    3.11    0.49
  12 -12  -3    4.93    1.07
 -12 -12   3    4.64    1.06
 -12 -12   3    5.56    1.16
  12 -12  -3    5.70    0.58
 -12 -12   3    5.86    0.96
  12 -12  -3    6.07    1.09
  12 -12  -3    4.33    0.96
 -10 -12   3   10.17    1.37
  10 -12  -3    9.37    0.71
 -10 -12   3   11.58    1.17
  10 -12  -3    9.74    1.25
  10 -12  -3    8.52    1.15
  10 -12  -3   11.01    1.37
 -10 -12   3    9.10    1.22
  -8 -12   3    3.76    0.81
   8 -12  -3    4.56    1.07
  -8 -12   3    3.66    1.02
   8 -12  -3    3.12    0.92
   8 -12  -3    4.39    0.92
  -8 -12   3    4.20    0.98
   8 -12  -3    3.96    0.51
   6 -12  -3    2.04    0.45
  -6 -12   3    2.11    0.73
   6 -12  -3    1.38    0.71
  -6 -12   3    2.59    0.89
   6 -12  -3    1.53    0.85
  -6 -12   3    2.38    0.84
   6 -12  -3    1.38    0.87
   6  12  -3    1.47    0.88
   4 -12  -3   10.95    1.41
  -4 -12   3   12.17    1.36
  -4 -12   3   11.70    1.32
  -4 -12   3   11.01    1.09
   4 -12  -3   11.31    1.30
   4 -12  -3   12.79    0.82
   4 -12  -3   12.31    1.20
   4  12  -3   10.80    1.52
  -2 -12   3    6.38    1.03
  -2 -12   3    6.09    1.05
   2 -12  -3    7.20    1.25
   2 -12  -3    7.00    0.64
  -2 -12   3    7.41    0.92
   2 -12  -3    7.53    0.96
   2 -12  -3    6.70    1.07
   2  12  -3    7.51    1.29
   0 -12   3    5.17    0.97
   0 -12  -3    6.16    1.04
   0 -12   3    5.50    0.87
   0 -12  -3    6.72    1.20
   0 -12  -3    6.84    0.63
   0 -12   3    5.88    0.96
   0  12  -3    5.85    1.16
   2 -12   3   14.40    1.35
  -2 -12  -3   14.28    1.42
  -2 -12  -3   19.15    1.82
   2 -12   3   14.26    1.31
   2 -12   3   13.43    1.16
  -2 -12  -3   15.85    0.93
  -2  12  -3   12.78    1.58
  -4 -12  -3    0.84    0.78
   4 -12   3    2.74    0.80
  -4 -12  -3    3.38    1.10
   4 -12   3    3.41    0.72
  -4 -12  -3    2.30    0.48
  -4  12  -3    2.56    0.99
   6 -12   3    3.46    0.77
  -6 -12  -3    3.84    1.04
  -6 -12  -3    2.77    1.10
   6 -12   3    4.50    0.89
  -6 -12  -3    4.32    0.58
  -8 -12  -3    9.73    0.79
   8 -12   3   10.02    1.01
  -8 -12  -3    9.70    1.47
  -8 -12  -3    9.37    1.52
  -8 -12  -3   10.34    1.26
   8 -12   3    8.09    1.10
  10 -12   3    2.44    0.84
 -10 -12  -3    2.16    0.93
 -10 -12  -3    1.73    1.00
  10 -12   3    1.00    0.70
  10 -12   3    2.80    0.72
 -10 -12  -3    0.98    0.49
 -10 -12  -3    0.82    1.04
  12 -12   3   22.15    1.72
 -12 -12  -3   30.08    2.47
 -12 -12  -3   26.79    1.89
  12 -12   3   24.10    1.52
  12 -12   3   25.39    1.65
 -12 -12  -3   25.95    2.31
 -12 -12  -3   24.91    1.26
 -14 -12  -3    3.41    1.27
  14 -12   3    3.01    0.88
 -14 -12  -3    3.40    0.60
 -14 -12  -3    1.88    0.94
  14 -12   3    5.23    0.85
 -14 -12  -3    4.21    1.28
  14 -12   3    3.44    0.88
  16 -12   3    3.61    0.79
  16 -12   3    3.08    0.90
 -16 -12  -3    5.81    1.17
 -16 -12  -3    4.38    0.66
 -16 -12  -3    8.09    1.65
 -16 -12  -3    3.09    1.18
  16 -12   3    3.34    0.92
  18 -12   3    9.64    1.29
 -18 -12  -3    9.69    0.87
  18 -12   3    8.65    1.04
 -18 -12  -3    9.20    1.71
  18 -12   3    6.87    1.10
 -18 -12  -3    9.11    1.34
  20 -12   3    2.34    0.99
  20 -12   3    2.90    0.89
  20 -12   3    3.81    0.84
 -20 -12  -3    2.03    0.60
 -20 -12  -3    0.85    1.28
 -22 -12  -3   -1.72    1.05
 -22 -12  -3    2.55    0.64
  22 -12   3    1.99    0.89
  22 -12   3    1.68    0.78
  22 -12   3    2.03    0.86
 -24 -12  -3    7.82    0.83
  21 -13  -3    6.00    1.44
 -21 -13   3    5.11    1.25
  19 -13  -3    3.77    1.12
 -19 -13   3    2.38    1.22
 -19 -13   3    3.24    0.99
  19 -13  -3    4.52    1.18
 -19 -13   3    5.76    1.37
 -17 -13   3    6.60    1.15
 -17 -13   3    7.24    1.51
  17 -13  -3    8.65    1.39
 -17 -13   3    5.61    1.32
  17 -13  -3    6.21    1.23
  17 -13  -3    5.94    0.55
  15 -13  -3    2.10    1.04
  15 -13  -3    2.59    0.94
 -15 -13   3    4.38    1.02
  15 -13  -3    2.33    0.46
  15 -13  -3    1.81    0.93
 -15 -13   3    2.95    1.04
 -15 -13   3    4.11    1.18
 -13 -13   3    1.11    1.01
  13 -13  -3   -0.11    0.83
 -13 -13   3   -0.15    0.73
  13 -13  -3    0.89    0.89
 -13 -13   3    0.44    1.02
  13 -13  -3   -0.32    0.81
  13 -13  -3    0.44    0.39
 -11 -13   3    6.74    1.04
 -11 -13   3    5.56    1.26
 -11 -13   3    6.35    1.26
  11 -13  -3    7.45    1.23
  11 -13  -3    6.45    1.18
  11 -13  -3    5.89    0.59
  11 -13  -3    5.32    1.11
   9 -13  -3    0.95    0.80
  -9 -13   3    0.61    0.89
   9 -13  -3    0.82    0.93
  -9 -13   3    1.28    0.74
   9 -13  -3    0.06    0.84
  -9 -13   3   -0.15    0.80
   9 -13  -3    1.07    0.42
  -7 -13   3    2.23    0.98
   7 -13  -3    2.08    0.46
   7 -13  -3    2.06    0.89
  -7 -13   3    2.49    0.82
   7 -13  -3    1.33    0.93
  -7 -13   3    1.63    0.86
   7 -13  -3    0.36    0.73
   5 -13  -3    1.67    0.85
   5 -13  -3    1.90    0.85
  -5 -13   3    1.60    0.92
   5 -13  -3    1.27    0.95
  -5 -13   3    2.39    0.88
  -5 -13   3    1.45    0.74
   5 -13  -3    2.16    0.47
  -3 -13   3    7.65    1.19
  -3 -13   3    9.90    1.30
   3 -13  -3    8.68    0.71
   3 -13  -3    9.26    1.29
   3 -13  -3    8.81    1.42
  -3 -13   3    9.96    1.13
  -1 -13   3    2.42    0.88
   1 -13  -3    2.57    0.94
   1 -13  -3    3.85    0.55
  -1 -13   3    2.50    0.88
   1 -13  -3    3.88    1.18
  -1 -13   3    2.28    0.78
  -1 -13  -3    5.01    1.15
  -1 -13  -3    3.92    1.15
  -1 -13  -3    5.48    0.62
   1 -13   3    4.25    0.98
   1 -13   3    4.93    0.90
  -3 -13  -3    4.57    1.01
  -3 -13  -3    4.89    1.26
   3 -13   3    5.12    0.87
   3 -13   3    4.53    1.06
  -3 -13  -3    5.09    0.61
  -5 -13  -3    5.07    1.28
   5 -13   3    1.54    0.89
  -5 -13  -3    4.27    1.08
   5 -13   3    2.27    0.75
  -5 -13  -3    2.11    0.51
   7 -13   3    2.94    0.77
  -7 -13  -3    5.02    1.35
  -7 -13  -3    3.78    0.58
  -7 -13  -3    5.82    1.19
   7 -13   3    3.72    0.96
  -9 -13  -3    8.13    0.76
   9 -13   3    9.19    1.22
  -9 -13  -3   12.06    1.70
   9 -13   3    7.10    1.20
  -9 -13  -3    8.55    1.36
   9 -13   3    6.77    0.95
 -11 -13  -3    1.00    1.23
  11 -13   3    1.44    0.85
  11 -13   3    1.45    0.73
 -11 -13  -3    1.65    1.02
 -11 -13  -3    2.11    0.54
 -11 -13  -3    2.13    1.23
  11 -13   3    2.04    0.93
 -13 -13  -3    6.69    1.30
 -13 -13  -3    4.97    1.43
  13 -13   3    7.56    1.12
 -13 -13  -3    7.35    0.75
  13 -13   3    5.59    1.02
  13 -13   3    7.49    0.99
 -15 -13  -3    1.31    1.02
  15 -13   3    0.28    0.85
 -15 -13  -3    3.83    0.63
  15 -13   3    4.42    0.88
 -15 -13  -3    4.94    1.56
  15 -13   3    3.08    0.93
  17 -13   3    1.21    0.92
  17 -13   3   -0.84    0.65
 -17 -13  -3   -0.71    0.87
 -17 -13  -3    0.62    0.50
 -17 -13  -3   -0.93    1.22
  17 -13   3   -0.02    0.80
  19 -13   3    0.77    0.93
  19 -13   3    2.95    0.82
 -19 -13  -3    1.48    0.56
  19 -13   3    1.62    0.94
 -21 -13  -3    1.15    0.54
  21 -13   3    1.73    0.91
 -16 -14   3    5.23    1.51
  16 -14  -3    6.75    1.31
  14 -14  -3   -0.52    1.53
 -14 -14   3    0.40    0.84
 -14 -14   3   -0.14    1.12
 -14 -14   3    0.60    1.04
  14 -14  -3    2.72    1.09
  12 -14  -3    1.32    1.13
 -12 -14   3    4.00    0.97
 -12 -14   3    2.37    1.18
  12 -14  -3    1.90    0.99
 -12 -14   3    2.16    1.20
  12 -14  -3    3.47    1.07
  12 -14  -3    3.96    0.60
 -10 -14   3   -0.04    0.97
  10 -14  -3    0.52    0.95
  10 -14  -3    0.62    0.89
 -10 -14   3    0.51    0.99
  10 -14  -3    0.25    0.37
 -10 -14   3    0.79    0.78
  10 -14  -3    0.14    0.95
   8 -14  -3    0.88    0.92
  -8 -14   3    2.84    1.07
  -8 -14   3    1.17    0.81
  -8 -14   3    1.79    1.06
   8 -14  -3    3.79    1.17
   8 -14  -3    2.25    0.45
   6 -14  -3    0.41    0.87
  -6 -14   3    0.65    0.83
  -6 -14   3    1.70    1.00
   6 -14  -3    1.15    0.42
   6 -14  -3   -0.27    0.89
  -6 -14   3    0.92    0.79
   4 -14  -3    1.99    0.97
   4 -14  -3    1.45    0.43
  -4 -14   3    2.76    1.13
  -4 -14   3    0.83    0.89
   4 -14  -3    2.13    1.09
  -4 -14   3    1.34    0.83
  -2 -14   3    1.84    1.02
  -2 -14   3    2.54    0.85
   2 -14  -3    2.09    0.48
   2 -14  -3    2.89    1.16
   2 -14  -3    1.70    1.09
   0 -14   3    4.40    0.93
   0 -14  -3    2.50    0.99
   0 -14  -3    4.05    1.22
   0 -14   3    3.67    1.11
   0 -14  -3    3.34    0.52
  -2 -14  -3    0.97    1.08
  -2 -14  -3    2.70    0.51
   2 -14   3    2.34    1.03
   2 -14   3    1.64    0.78
  -2 -14  -3    1.96    0.96
   4 -14   3    4.19    0.91
  -4 -14  -3    4.07    1.24
   4 -14   3    4.72    1.07
  -4 -14  -3    4.57    1.13
  -4 -14  -3    4.74    0.60
  -6 -14  -3    7.22    1.35
   6 -14   3    4.60    1.04
   6 -14   3    3.45    1.01
  -6 -14  -3    3.87    0.59
   6 -14   3    3.65    0.86
  -6 -14  -3    6.93    1.50
   8 -14   3    0.27    0.74
   8 -14   3    0.55    0.69
  -8 -14  -3    0.08    1.03
  -8 -14  -3    0.75    0.86
   8 -14   3   -0.24    0.76
  -8 -14  -3    0.63    0.47
  10 -14   3   -0.89    0.86
 -10 -14  -3    1.21    1.29
  10 -14   3    0.02    0.86
 -10 -14  -3   -0.70    0.93
 -10 -14  -3    0.78    0.46
  10 -14   3    0.26    0.69
  12 -14   3   -0.15    0.76
 -12 -14  -3   -0.03    0.45
 -12 -14  -3   -0.59    0.95
 -12 -14  -3    1.31    1.13
  12 -14   3    0.06    0.77
  12 -14   3    0.39    0.71
 -14 -14  -3    3.05    1.20
 -14 -14  -3    2.96    0.58
 -14 -14  -3    3.99    1.75
  14 -14   3    4.50    1.16
  14 -14   3    3.97    1.08
  14 -14   3    2.20    0.81
  16 -14   3    2.88    1.07
 -16 -14  -3    4.36    1.27
 -16 -14  -3    3.02    0.58
  -9 -15   3    2.30    1.24
   7 -15  -3    2.25    1.15
   5 -15  -3    0.57    1.05
  -5 -15   3    0.59    0.90
   3 -15  -3    8.08    1.54
  -3 -15   3    4.11    0.98
  -1 -15   3    6.45    1.07
   1 -15  -3    5.55    1.33
   1 -15  -3    5.98    1.54
  -1 -15  -3    1.46    1.08
  -1 -15  -3    1.59    0.68
   1 -15   3    2.27    0.87
  -1 -15  -3    2.17    1.20
  -3 -15  -3    5.52    1.49
   3 -15   3    5.06    0.99
  -3 -15  -3    4.45    1.32
   3 -15   3    6.09    1.15
  -3 -15  -3    5.32    0.71
  -5 -15  -3    4.64    1.32
  -5 -15  -3    4.99    0.83
   5 -15   3    4.32    1.06
  -5 -15  -3    5.02    1.32
   5 -15   3    4.33    1.11
   7 -15   3    5.14    1.17
  -7 -15  -3    7.75    1.43
  -7 -15  -3    4.21    1.60
   9 -15   3    2.73    1.06
  -9 -15  -3    6.07    1.44
  38   0  -4   -0.07    0.97
  36   0  -4    2.44    1.08
  36   0  -4    6.46    1.41
  34   0  -4    3.21    0.96
  34   0  -4    4.70    1.27
  32   0  -4    0.61    0.86
  32   0  -4    0.25    0.81
  30   0  -4   33.18    2.27
  30   0  -4   31.69    1.95
  28   0  -4    0.50    0.68
  28   0  -4    0.02    0.81
  26   0  -4   13.16    1.24
  26   0  -4   13.00    1.12
  26   0  -4   11.99    1.37
  24   0  -4    1.12    0.65
  24   0  -4    0.53    0.51
  24   0  -4    2.19    0.74
  22   0  -4    1.33    0.71
  22   0  -4    1.16    0.51
  22   0  -4    1.79    0.63
  20   0  -4   36.53    1.54
 -20   0   4   30.50    1.52
  20   0  -4   32.28    1.79
  20   0  -4   37.11    1.65
  18   0  -4    2.83    0.57
  18   0  -4    2.45    0.49
 -18   0   4    3.73    0.58
  18   0  -4    2.38    0.61
  18   0  -4    3.51    0.53
  16   0  -4   19.23    1.03
  16   0  -4   20.68    1.06
  16   0  -4   22.05    1.14
  16   0  -4   17.58    1.16
 -16   0   4   22.01    1.08
  14   0  -4   31.89    1.43
  14   0  -4   34.09    1.35
  14   0  -4   36.87    1.58
 -14   0   4   36.17    1.37
  14   0  -4   33.49    1.40
  12   0  -4   34.40    1.47
  12   0  -4   34.12    1.37
  12   0  -4   35.64    1.42
  12   0  -4   36.42    1.32
 -12   0   4   34.99    1.30
  10   0  -4   11.78    0.62
  10   0  -4   13.51    0.82
  10   0  -4   12.62    0.75
  10   0  -4   11.13    0.70
 -10   0   4   12.01    0.62
   8   0  -4    2.19    0.38
   8   0  -4    1.72    0.25
   8   0  -4    0.99    0.29
  -8   0   4    1.63    0.24
   8   0  -4    1.70    0.34
   6   0  -4   76.96    2.32
   6   0  -4   71.79    2.23
  -6   0   4   72.53    2.01
   6   0  -4   72.37    2.27
   6   0  -4   71.25    2.06
   4   0  -4  102.56    2.90
   4   0  -4  102.75    2.93
   4   0  -4   97.65    2.91
   4   0  -4   99.26    2.68
   4   0  -4   98.71    2.96
   2   0  -4   17.93    0.79
   2   0  -4   18.52    0.83
   2   0  -4   17.76    0.75
   2   0  -4   17.21    0.75
   2   0  -4   18.73    0.53
   0   0  -4  248.85    6.63
   0   0   4  255.21    6.77
   0   0  -4  243.57    6.67
   0   0  -4  246.61    6.66
   0   0   4  256.32    6.68
   0   0  -4  253.77    6.76
   0   0   4  252.31    6.63
  -2   0  -4    5.07    0.36
  -2   0  -4    4.76    0.32
  -2   0  -4    4.94    0.37
   2   0   4    4.84    0.36
   2   0   4    4.74    0.32
  -2   0  -4    4.72    0.44
  -2   0  -4    4.69    0.23
   2   0   4    5.19    0.36
  -4   0  -4   10.78    0.44
   4   0   4   10.52    0.44
   4   0   4   10.86    0.49
   4   0   4    9.46    0.51
  -4   0  -4   10.53    0.52
  -4   0  -4   10.85    0.45
   6   0   4    3.28    0.30
   6   0   4    3.40    0.21
  -6   0  -4    3.05    0.30
  -6   0  -4    2.73    0.30
  -8   0  -4   50.49    1.60
   8   0   4   51.01    1.37
   8   0   4   52.59    1.54
  -8   0  -4   51.34    1.63
   8   0   4   51.72    1.44
 -10   0  -4    2.48    0.31
 -10   0  -4    1.86    0.32
  10   0   4    2.41    0.24
  12   0   4    5.57    0.39
 -12   0  -4    5.26    0.54
 -12   0  -4    4.92    0.46
  14   0   4    3.86    0.37
 -14   0  -4    4.17    0.47
 -14   0  -4    4.26    0.54
  14   0   4    4.37    0.39
 -14   0  -4    4.10    0.28
 -14   0  -4    4.49    0.29
 -16   0  -4   95.25    2.91
  16   0   4   91.88    2.71
 -16   0  -4   96.17    3.05
 -16   0  -4   90.67    2.61
 -16   0  -4   92.19    2.61
  16   0   4   96.17    2.73
  18   0   4    6.10    0.55
 -18   0  -4    5.94    0.71
 -18   0  -4    6.03    0.47
 -18   0  -4    6.13    0.67
 -18   0  -4    6.53    0.48
  18   0   4    6.92    0.54
  20   0   4   21.51    0.99
 -20   0  -4   23.80    0.97
  20   0   4   22.47    1.02
 -20   0  -4   23.76    1.37
 -20   0  -4   22.00    0.96
 -20   0  -4   21.97    1.18
  22   0   4  267.80    7.34
 -22   0  -4  266.72    7.27
  22   0   4  271.94    7.33
 -22   0  -4  279.87    7.87
 -22   0  -4  263.81    7.65
 -24   0  -4    8.95    0.98
 -24   0  -4    8.41    0.68
  24   0   4    8.52    0.72
 -24   0  -4    8.69    1.12
  24   0   4    6.31    0.66
  26   0   4   47.02    1.76
 -26   0  -4   46.27    2.11
 -26   0  -4   47.31    2.30
  26   0   4   46.17    1.78
  26   0   4   45.99    2.00
 -26   0  -4   42.92    1.70
  28   0   4   16.14    1.09
 -28   0  -4   15.21    1.37
 -28   0  -4   12.46    1.41
  28   0   4   16.46    1.23
 -28   0  -4   15.66    1.02
  28   0   4   17.36    1.06
 -30   0  -4    1.01    0.49
  30   0   4    1.05    0.52
  30   0   4    0.05    0.48
 -30   0  -4    0.54    0.78
  30   0   4    0.00    0.59
 -32   0  -4    4.88    1.18
  32   0   4    3.85    0.74
 -32   0  -4    4.60    0.68
  32   0   4    5.32    0.92
 -34   0  -4    0.90    0.54
  34   0   4   -0.03    0.68
  34   0   4    0.27    0.61
  36   0   4   -0.80    0.83
 -36   0  -4   -0.22    0.52
  36   0   4    0.17    0.60
  38   0   4    1.46    0.72
 -38   0  -4    1.52    0.61
  37  -1  -4    3.41    1.05
  37  -1  -4    5.48    1.35
  37   1  -4    6.62    1.61
  37   1  -4    6.31    1.19
  35  -1  -4    4.17    1.22
  35  -1  -4    4.79    1.09
  35   1  -4    4.62    1.11
  35   1  -4    4.66    1.31
  33  -1  -4    4.72    1.05
  33  -1  -4    5.06    1.21
  33   1  -4    8.56    1.53
  33   1  -4    7.67    1.20
  31  -1  -4   14.19    1.48
  31  -1  -4   14.51    1.29
  31  -1  -4   15.47    1.73
  31   1  -4   15.01    1.46
  31   1  -4   17.12    1.81
  29  -1  -4   23.43    1.60
  29  -1  -4   22.45    1.45
  29  -1  -4   25.04    1.93
  29   1  -4   19.19    1.61
  29   1  -4   21.66    1.98
  27  -1  -4   44.83    2.38
  27  -1  -4   41.65    1.93
  27  -1  -4   43.74    2.10
  27   1  -4   40.57    2.27
  27   1  -4   37.07    1.92
  25  -1  -4   37.49    1.74
  25  -1  -4   37.88    2.04
  25  -1  -4   35.14    1.82
  25   1  -4   38.71    2.16
  25   1  -4   42.28    1.96
  23  -1  -4   25.42    1.45
  23  -1  -4   24.44    1.65
  23  -1  -4   24.01    1.31
  23   1  -4   21.92    1.40
  23   1  -4   19.49    1.49
  21  -1  -4   41.03    1.83
  21  -1  -4   44.87    1.82
  21  -1  -4   38.08    1.94
  21   1  -4   36.43    1.90
  21   1  -4   34.18    1.69
  19  -1  -4   41.31    1.88
  19  -1  -4   40.45    1.66
  19  -1  -4   41.49    1.75
  19  -1  -4   36.83    1.61
 -19  -1   4   36.09    1.66
  19   1  -4   35.94    1.79
  19   1  -4   33.21    1.49
 -19   1   4   32.77    1.51
  19   1  -4   32.59    1.52
  19   1  -4   35.44    1.60
  17  -1  -4   14.93    0.96
  17  -1  -4   13.03    1.02
  17  -1  -4   14.27    0.91
 -17  -1   4   13.64    0.95
  17  -1  -4   15.83    1.01
  17   1  -4   10.97    1.05
 -17   1   4   11.26    0.83
  17   1  -4   12.54    0.85
  17   1  -4   12.23    1.01
  17   1  -4   13.31    0.85
  15  -1  -4   22.07    1.05
 -15  -1   4   21.30    1.08
  15  -1  -4   20.66    1.07
  15  -1  -4   22.42    1.14
  15  -1  -4   20.54    1.18
  15   1  -4   14.06    0.85
  15   1  -4   15.80    1.09
  15   1  -4   13.19    0.89
  15   1  -4   14.36    0.86
 -15   1   4   15.68    0.85
  13  -1  -4  139.26    4.06
  13  -1  -4  136.32    3.93
  13  -1  -4  134.79    4.12
 -13  -1   4  134.04    3.95
  13  -1  -4  135.49    4.01
  13   1  -4  150.46    4.46
  13   1  -4  144.21    4.32
  13   1  -4  148.71    4.26
 -13   1   4  140.53    4.15
  13   1  -4  147.80    4.21
  11  -1  -4   15.85    0.76
 -11  -1   4   14.32    0.75
  11  -1  -4   15.68    0.88
  11  -1  -4   15.41    0.88
  11  -1  -4   14.61    0.82
  11   1  -4   17.34    0.88
  11   1  -4   17.10    0.98
 -11   1   4   18.83    0.81
  11   1  -4   16.64    0.83
  11   1  -4   17.85    0.93
   9  -1  -4  126.15    3.51
   9  -1  -4  125.79    3.67
   9  -1  -4  122.89    3.64
   9  -1  -4  124.93    3.67
  -9  -1   4  126.84    3.52
   9   1  -4  122.13    3.67
   9   1  -4  129.61    3.53
  -9   1   4  127.21    3.47
   9   1  -4  123.85    3.62
   9   1  -4  120.62    3.73
   7  -1  -4   81.22    2.26
   7  -1  -4   77.80    2.42
  -7  -1   4   79.68    2.27
   7  -1  -4   80.25    2.44
   7  -1  -4   76.98    2.46
   7  -1  -4   76.58    2.41
   7   1  -4   81.40    2.48
   7   1  -4   82.23    2.54
  -7   1   4   81.70    2.28
   7   1  -4   81.97    2.60
   7   1  -4   80.93    2.36
   5  -1  -4    2.99    0.41
   5  -1  -4    3.06    0.25
   5  -1  -4    2.60    0.36
  -5  -1   4    3.10    0.25
   5  -1  -4    2.21    0.34
   5  -1  -4    2.90    0.35
   5   1  -4    3.60    0.39
   5   1  -4    3.19    0.42
  -5   1   4    3.64    0.22
   5   1  -4    2.85    0.39
   5   1  -4    3.78    0.31
   3  -1  -4  245.43    6.53
   3  -1  -4  241.14    6.21
   3  -1  -4  237.05    6.44
   3  -1  -4  240.29    6.46
   3  -1  -4  240.87    6.47
   3   1  -4  254.60    6.73
   3   1  -4  266.22    7.06
  -3   1   4  262.55    6.88
   3   1  -4  260.83    6.90
   3   1  -4  251.15    6.97
   1  -1  -4  111.66    2.84
   1  -1  -4  107.21    3.08
   1  -1  -4  108.28    2.85
   1  -1  -4  109.69    3.12
  -1  -1   4  111.86    3.08
   1  -1  -4  107.21    3.16
   1  -1  -4  111.65    3.09
  -1   1   4   89.38    2.54
  -1   1   4   90.88    2.60
   1   1  -4   88.74    2.42
   1   1  -4   90.99    2.73
   1   1  -4   88.72    2.65
   1  -1   4   86.25    2.44
  -1  -1  -4   83.43    2.53
  -1  -1  -4   84.10    2.49
  -1  -1  -4   84.17    2.43
  -1  -1  -4   85.80    2.25
   1  -1   4   88.90    2.43
  -1  -1  -4   85.94    2.44
   1   1   4   87.18    2.51
  -1   1  -4   85.80    2.62
   1   1   4   86.24    2.43
  -1   1  -4   84.75    2.41
   1   1   4   86.29    2.42
  -3  -1  -4  181.82    4.87
  -3  -1  -4  187.89    5.10
  -3  -1  -4  189.29    4.97
  -3  -1  -4  187.15    4.95
   3  -1   4  190.11    4.93
   3  -1   4  183.48    4.96
  -3   1  -4  179.56    4.77
  -3   1  -4  176.54    4.76
   3   1   4  177.56    4.80
  -3   1  -4  179.70    5.02
   3   1   4  182.96    5.02
   3   1   4  186.89    4.95
   3   1   4  180.49    4.77
   5  -1   4  152.03    3.95
  -5  -1  -4  147.31    3.93
   5  -1   4  149.19    3.92
  -5  -1  -4  147.10    4.13
  -5  -1  -4  144.61    3.97
  -5   1  -4  119.49    3.21
   5   1   4  122.95    3.47
  -5   1  -4  116.93    3.29
   5   1   4  120.08    3.19
   5   1   4  121.02    3.27
   7  -1   4   36.41    1.05
  -7  -1  -4   34.08    1.03
  -7  -1  -4   36.12    1.20
   7  -1   4   36.80    1.06
   7  -1   4   35.27    1.04
  -7  -1  -4   34.39    1.27
   7   1   4   36.44    1.04
  -7   1  -4   37.04    1.11
   7   1   4   36.65    1.16
  -7   1  -4   36.75    1.24
   7   1   4   36.46    1.03
   9  -1   4  181.92    4.69
   9  -1   4  180.95    4.77
   9  -1   4  184.56    4.68
  -9  -1  -4  180.25    5.01
  -9  -1  -4  178.96    4.97
  -9  -1  -4  177.85    4.64
   9   1   4  185.05    4.73
  -9   1  -4  177.87    4.95
  -9   1  -4  177.40    4.76
 -11  -1  -4   34.71    1.31
  11  -1   4   34.97    0.93
  11  -1   4   34.92    1.11
  11  -1   4   32.84    0.92
 -11  -1  -4   32.15    1.28
 -11   1  -4   46.76    1.62
 -11   1  -4   45.08    1.42
  11   1   4   47.06    1.40
 -13  -1  -4    1.98    0.40
  13  -1   4    1.56    0.26
 -13  -1  -4    1.96    0.39
  13   1   4    2.64    0.31
 -13   1  -4    2.44    0.31
 -13   1  -4    2.45    0.42
  13   1   4    2.92    0.28
 -13   1  -4    2.27    0.21
 -13   1  -4    2.67    0.22
 -15  -1  -4   41.31    1.64
  15  -1   4   42.76    1.41
 -15  -1  -4   43.91    1.70
 -15  -1  -4   41.88    1.26
 -15  -1  -4   41.94    1.26
  15  -1   4   42.12    1.45
 -15   1  -4   53.12    1.56
 -15   1  -4   52.42    1.70
  15   1   4   51.81    1.59
  15   1   4   52.10    1.64
 -15   1  -4   50.10    1.91
 -17  -1  -4   33.03    1.43
  17  -1   4   31.17    1.19
  17  -1   4   31.99    1.22
 -17  -1  -4   31.06    1.06
 -17  -1  -4   31.14    1.47
 -17  -1  -4   30.70    1.08
 -17   1  -4   38.15    1.45
  17   1   4   41.23    1.31
  17   1   4   39.23    1.37
 -17   1  -4   40.04    1.30
 -17   1  -4   35.85    1.61
 -19  -1  -4   34.42    1.22
  19  -1   4   35.52    1.35
 -19  -1  -4   34.17    1.66
 -19  -1  -4   37.70    1.26
 -19  -1  -4   35.31    1.63
  19  -1   4   34.15    1.32
 -19   1  -4   38.22    1.35
 -19   1  -4   37.47    1.53
 -19   1  -4   38.08    1.71
  19   1   4   40.09    1.35
  19   1   4   39.47    1.42
 -21  -1  -4   18.04    1.27
 -21  -1  -4   20.36    0.95
 -21  -1  -4   20.93    1.29
  21  -1   4   21.16    1.01
 -21  -1  -4   23.30    1.18
  21  -1   4   21.79    1.04
  21   1   4   23.04    1.05
 -21   1  -4   21.37    1.37
 -21   1  -4   21.43    1.19
  21   1   4   21.77    0.97
 -23  -1  -4   30.71    1.69
 -23  -1  -4   31.81    1.72
  23  -1   4   33.87    1.37
 -23  -1  -4   32.80    1.31
  23  -1   4   31.65    1.36
 -23   1  -4   22.81    1.31
  23   1   4   27.32    1.12
  23   1   4   24.56    1.29
 -23   1  -4   23.33    1.54
  23   1   4   27.78    1.20
 -25  -1  -4   10.91    0.81
  25  -1   4   11.27    0.89
  25  -1   4   11.61    0.91
 -25  -1  -4   10.98    1.13
 -25  -1  -4    9.88    1.12
  25   1   4    8.99    0.78
  25   1   4    9.02    0.74
 -25   1  -4    7.50    1.05
 -25   1  -4    9.37    0.98
  25   1   4    9.65    0.93
  27  -1   4   13.67    1.15
 -27  -1  -4   14.97    0.97
 -27  -1  -4   12.20    1.32
  27  -1   4   16.03    1.08
  27  -1   4   14.10    1.01
 -27  -1  -4   17.40    1.44
 -27   1  -4   11.28    1.12
  27   1   4   11.27    1.05
 -27   1  -4    9.90    1.20
  27   1   4   11.86    0.88
  27   1   4   12.57    0.94
  29  -1   4    1.76    0.59
  29  -1   4    1.26    0.54
 -29  -1  -4    0.41    0.76
 -29  -1  -4    0.89    0.49
 -29  -1  -4    0.39    0.74
  29  -1   4    0.61    0.69
  29   1   4    0.89    0.52
  29   1   4   -0.05    0.55
 -29   1  -4   -0.49    0.75
  31  -1   4   16.32    1.20
  31  -1   4   15.24    1.33
 -31  -1  -4   17.70    1.64
 -31  -1  -4   15.77    1.65
 -31  -1  -4   17.01    1.12
  31  -1   4   15.74    1.17
 -31   1  -4   16.82    1.67
 -31   1  -4   17.22    1.13
  31   1   4   17.00    1.21
  31   1   4   15.23    1.33
 -33  -1  -4    4.82    0.71
  33  -1   4    3.54    0.86
 -33  -1  -4    6.28    1.34
  33  -1   4    5.14    0.79
 -33   1  -4    4.45    0.70
 -33   1  -4    4.00    1.21
  33   1   4    3.46    0.72
  33   1   4    3.77    0.97
  35  -1   4    3.67    0.94
 -35  -1  -4    2.46    0.63
  35  -1   4    1.81    0.71
 -35   1  -4    3.01    0.66
  35   1   4    4.18    0.80
  35   1   4    2.82    0.89
 -37  -1  -4    2.84    0.68
  37  -1   4    3.55    0.99
  37  -1   4    1.45    0.72
  37   1   4    3.25    0.81
 -37   1  -4    3.65    0.69
  37   1   4    3.62    1.08
  38  -2  -4    0.75    0.92
  38   2  -4    1.64    0.95
  36  -2  -4   10.23    1.41
  36  -2  -4   10.49    1.70
  36   2  -4    7.59    1.27
  36   2  -4   10.30    1.71
  34  -2  -4    1.41    0.71
  34  -2  -4    1.19    0.94
  34  -2  -4    1.34    1.05
  34   2  -4    1.25    0.91
  34   2  -4    1.27    1.02
  32  -2  -4    4.10    0.99
  32  -2  -4    4.90    1.25
  32  -2  -4    3.79    0.84
  32   2  -4    5.47    1.11
  32   2  -4    3.46    1.16
  30  -2  -4    6.98    1.17
  30  -2  -4    8.77    1.07
  30  -2  -4    7.73    1.11
  30   2  -4    5.59    1.25
  30   2  -4    4.80    0.92
  28  -2  -4    3.52    0.90
  28  -2  -4    3.31    0.73
  28  -2  -4    4.68    1.07
  28   2  -4    4.00    0.84
  28   2  -4    2.80    0.97
  26  -2  -4    2.13    0.69
  26  -2  -4    3.63    0.94
  26  -2  -4    3.07    0.77
  26   2  -4    3.07    0.80
  26   2  -4    3.20    0.90
  24  -2  -4   11.87    1.03
  24  -2  -4   14.37    1.25
  24  -2  -4   11.55    1.24
  24   2  -4    9.90    1.27
  24   2  -4   10.11    1.04
  22  -2  -4    1.14    0.65
  22  -2  -4    0.86    0.51
  22  -2  -4    1.33    0.57
  22   2  -4    0.48    0.52
  22   2  -4    2.09    0.76
  20  -2  -4   34.13    1.57
 -20  -2   4   32.19    1.61
  20  -2  -4   32.87    1.59
  20  -2  -4   31.25    1.66
  20   2  -4   34.02    1.80
  20   2  -4   33.22    1.64
  18  -2  -4   24.34    1.41
  18  -2  -4   28.69    1.41
  18  -2  -4   30.69    1.38
  18  -2  -4   28.28    1.37
 -18  -2   4   28.84    1.41
  18   2  -4   27.05    1.33
  18   2  -4   29.25    1.42
 -18   2   4   28.76    1.34
  18   2  -4   27.90    1.56
  16  -2  -4   28.14    1.35
 -16  -2   4   29.22    1.33
  16  -2  -4   29.24    1.31
  16  -2  -4   28.30    1.42
  16  -2  -4   27.74    1.30
  16   2  -4   30.86    1.60
  16   2  -4   35.44    1.44
  16   2  -4   32.38    1.47
 -16   2   4   32.04    1.39
  14  -2  -4   16.86    0.95
  14  -2  -4   15.07    0.88
 -14  -2   4   17.55    0.93
  14  -2  -4   15.75    0.95
  14  -2  -4   15.74    1.00
 -14   2   4   17.25    0.88
  14   2  -4   17.75    1.12
  14   2  -4   16.04    0.91
  14   2  -4   17.31    1.03
 -12  -2   4   43.83    1.61
  12  -2  -4   44.19    1.66
  12  -2  -4   44.78    1.59
  12  -2  -4   45.32    1.70
  12  -2  -4   43.91    1.67
  12   2  -4   35.52    1.51
  12   2  -4   37.84    1.42
 -12   2   4   37.28    1.36
  12   2  -4   38.26    1.63
 -10  -2   4   31.50    1.22
  10  -2  -4   31.39    1.27
  10  -2  -4   30.32    1.31
  10  -2  -4   34.88    1.32
  10  -2  -4   31.65    1.19
  10  -2  -4   30.00    1.27
 -10   2   4   25.68    0.99
  10   2  -4   24.27    1.04
  10   2  -4   26.45    1.25
  10   2  -4   26.87    1.18
   8  -2  -4   89.68    2.68
   8  -2  -4   85.36    2.78
  -8  -2   4   90.21    2.64
   8  -2  -4   85.76    2.73
   8  -2  -4   92.95    2.62
   8  -2  -4   91.21    2.74
   8   2  -4   95.04    2.76
   8   2  -4   92.73    2.91
   8   2  -4   94.23    3.00
  -8   2   4   94.10    2.67
   6  -2  -4   97.61    2.98
   6  -2  -4   97.40    2.75
   6  -2  -4   98.79    2.89
  -6  -2   4   96.80    2.78
   6  -2  -4   97.70    2.90
   6  -2  -4   95.79    2.81
   6   2  -4  119.86    3.37
  -6   2   4  119.88    3.38
  -6   2   4  119.23    3.25
   6   2  -4  123.69    3.57
   6   2  -4  119.54    3.63
   4  -2  -4    2.11    0.35
   4  -2  -4    2.02    0.28
   4  -2  -4    1.34    0.28
  -4  -2   4    1.66    0.23
   4  -2  -4    2.15    0.24
   4  -2  -4    2.11    0.30
   4   2  -4    0.92    0.31
   4   2  -4    0.92    0.28
  -4   2   4    1.16    0.15
   4   2  -4    1.01    0.21
  -4   2   4    0.68    0.18
   2  -2  -4  104.97    2.95
   2  -2  -4  106.50    2.97
   2  -2  -4  105.02    2.86
   2  -2  -4  102.25    3.12
   2  -2  -4  107.18    3.03
   2   2  -4  124.91    3.48
  -2   2   4  128.20    3.29
   2   2  -4  124.81    3.66
   2   2  -4  129.92    3.75
  -2   2   4  127.14    3.47
   0  -2  -4    2.10    0.28
   0  -2  -4    2.08    0.21
   0  -2   4    2.49    0.27
   0  -2  -4    2.44    0.35
   0  -2  -4    2.14    0.26
   0  -2  -4    2.62    0.28
   0   2   4    5.06    0.32
   0   2   4    5.51    0.36
   0   2  -4    5.56    0.55
   0   2   4    5.81    0.21
   2  -2   4    1.67    0.20
  -2  -2  -4    1.54    0.21
  -2  -2  -4    1.62    0.31
  -2  -2  -4    2.73    0.30
  -2  -2  -4    1.89    0.23
   2   2   4    3.99    0.33
   2   2   4    2.86    0.20
   2   2   4    2.47    0.23
  -2   2  -4    2.91    0.43
   2   2   4    3.21    0.32
  -2   2  -4    2.77    0.29
  -4  -2  -4  179.37    4.88
   4  -2   4  182.17    4.75
   4  -2   4  182.22    4.72
  -4  -2  -4  180.76    5.09
  -4  -2  -4  186.42    4.88
  -4  -2  -4  183.40    4.80
   4   2   4  208.39    5.47
   4   2   4  207.02    5.41
   4   2   4  209.52    5.58
  -4   2  -4  205.36    5.57
  -6  -2  -4   42.26    1.31
  -6  -2  -4   46.89    1.45
   6  -2   4   43.07    1.27
  -6  -2  -4   42.92    1.55
   6   2   4   34.64    1.00
   6   2   4   37.65    1.09
  -6   2  -4   34.98    1.24
   6   2   4   35.30    1.04
  -8  -2  -4   31.03    1.25
  -8  -2  -4   30.82    0.96
   8  -2   4   30.94    1.00
  -8  -2  -4   30.59    1.15
   8   2   4   29.68    0.91
   8   2   4   29.26    0.90
  -8   2  -4   31.60    1.15
   8   2   4   28.38    0.89
  10  -2   4   73.89    2.13
 -10  -2  -4   76.77    2.49
 -10  -2  -4   79.29    2.11
 -10  -2  -4   79.93    2.44
  10  -2   4   78.29    2.23
 -10   2  -4   72.72    2.32
  10   2   4   73.58    1.97
  10   2   4   73.61    2.07
  12  -2   4    9.23    0.40
 -12  -2  -4    9.35    0.72
 -12  -2  -4    9.26    0.35
 -12  -2  -4   10.04    0.72
  12  -2   4    9.50    0.53
  12   2   4   11.07    0.54
 -12   2  -4    8.85    0.69
 -12   2  -4   10.99    0.44
  12   2   4   11.22    0.43
 -12   2  -4   10.40    0.43
 -14  -2  -4   47.53    1.36
 -14  -2  -4   48.04    1.87
 -14  -2  -4   46.42    1.35
 -14  -2  -4   49.23    1.85
  14  -2   4   49.69    1.38
  14  -2   4   48.46    1.56
 -14   2  -4   50.02    1.52
 -14   2  -4   48.73    1.84
  14   2   4   50.83    1.47
 -14   2  -4   52.29    1.53
  14   2   4   51.43    1.60
 -16  -2  -4   25.05    1.29
  16  -2   4   24.36    0.77
  16  -2   4   25.56    1.01
 -16  -2  -4   23.80    1.28
  16  -2   4   23.34    1.06
 -16  -2  -4   23.89    0.86
 -16  -2  -4   23.49    0.84
  16   2   4   19.29    0.85
 -16   2  -4   20.85    1.14
 -16   2  -4   21.17    0.82
 -16   2  -4   18.95    0.81
  16   2   4   18.64    0.73
  18  -2   4   20.48    1.00
  18  -2   4   19.66    0.93
 -18  -2  -4   19.09    1.22
  18  -2   4   19.73    0.66
 -18  -2  -4   20.40    0.84
 -18  -2  -4   21.78    1.25
 -18  -2  -4   19.16    0.80
 -18   2  -4   19.22    0.91
  18   2   4   19.27    0.90
 -18   2  -4   20.99    0.88
  18   2   4   20.38    0.80
 -18   2  -4   18.62    1.20
  20  -2   4   42.18    1.19
 -20  -2  -4   40.93    1.41
  20  -2   4   40.64    1.52
 -20  -2  -4   39.75    1.42
 -20  -2  -4   40.14    1.91
 -20  -2  -4   41.47    1.89
  20  -2   4   43.51    1.61
  20   2   4   38.76    1.44
  20   2   4   37.59    1.55
 -20   2  -4   36.61    1.48
 -20   2  -4   43.15    1.67
 -20   2  -4   39.32    1.81
  20   2   4   39.13    1.32
  22  -2   4   45.64    1.76
 -22  -2  -4   48.80    2.18
  22  -2   4   46.02    1.70
 -22  -2  -4   45.65    2.11
 -22  -2  -4   45.01    1.62
  22   2   4   50.96    1.76
  22   2   4   49.26    1.89
 -22   2  -4   48.30    1.82
 -22   2  -4   48.14    2.15
  22   2   4   46.85    1.61
  24  -2   4    4.47    0.60
  24  -2   4    3.44    0.57
 -24  -2  -4    3.83    0.53
 -24  -2  -4    3.08    0.81
 -24  -2  -4    4.25    0.85
  24   2   4    4.12    0.58
  24   2   4    2.14    0.58
 -24   2  -4    3.66    0.81
 -24   2  -4    3.20    0.59
  24   2   4    3.32    0.48
  26  -2   4   19.96    1.15
  26  -2   4   20.85    1.19
 -26  -2  -4   18.14    1.58
 -26  -2  -4   18.62    1.05
 -26  -2  -4   18.87    1.57
  26   2   4   17.90    1.24
 -26   2  -4   17.05    1.48
  26   2   4   17.07    1.06
  28  -2   4   18.86    1.17
 -28  -2  -4   16.92    1.08
  28  -2   4   19.08    1.21
 -28  -2  -4   16.90    1.57
 -28  -2  -4   16.06    1.55
  28   2   4   19.77    1.19
 -28   2  -4   18.95    1.64
  28   2   4   20.57    1.33
 -30  -2  -4    1.46    0.92
  30  -2   4    0.05    0.55
  30  -2   4    0.39    0.53
 -30  -2  -4    0.17    0.48
 -30  -2  -4    1.26    0.84
  30  -2   4    0.89    0.68
  30   2   4    0.29    0.50
 -30   2  -4    1.25    0.82
  30   2   4    0.26    0.67
 -32  -2  -4    5.78    0.76
 -32  -2  -4    7.14    1.25
 -32  -2  -4    5.00    1.17
  32  -2   4    8.65    1.10
  32  -2   4    8.63    0.95
  32  -2   4    7.53    0.98
  32   2   4    7.53    1.02
  32   2   4    7.85    0.88
 -32   2  -4    8.96    1.35
  34  -2   4    8.58    1.00
  34  -2   4    8.89    1.09
  34  -2   4    7.49    1.07
 -34  -2  -4    7.24    0.83
  34   2   4    6.57    0.92
  34   2   4    7.19    1.07
  36  -2   4    0.80    0.68
 -36  -2  -4    0.42    0.55
  36  -2   4    0.27    0.78
  36   2   4   -0.19    0.63
 -36   2  -4    0.30    0.55
  36   2   4    0.36    0.87
  38  -2   4    1.74    0.76
 -38  -2  -4    1.20    0.59
  38   2   4    0.45    0.71
 -38   2  -4    0.63    0.59
  37  -3  -4    2.56    1.03
  37  -3  -4    6.86    1.48
  37   3  -4    2.67    1.02
  35  -3  -4    2.69    1.07
  35  -3  -4    4.39    1.28
  35   3  -4    1.14    0.90
  35   3  -4    0.55    1.15
  33  -3  -4    4.08    1.02
  33  -3  -4    5.47    0.96
  33  -3  -4    4.51    1.13
  33   3  -4    6.00    1.12
  33   3  -4    2.56    1.22
  31  -3  -4    4.80    1.14
  31  -3  -4    3.66    0.86
  31  -3  -4    2.71    0.90
  31   3  -4    4.15    1.24
  31   3  -4    2.32    0.86
  29  -3  -4    0.92    0.71
  29  -3  -4    1.02    0.69
  29  -3  -4    1.05    0.85
  29   3  -4   -1.38    0.70
  29   3  -4    1.10    0.72
  27  -3  -4    0.71    0.68
  27  -3  -4    0.71    0.64
  27  -3  -4    0.53    0.71
  27   3  -4   -0.18    0.55
  27   3  -4    2.73    0.96
  25  -3  -4   67.68    2.89
  25  -3  -4   73.05    2.70
  25  -3  -4   66.76    2.74
  25   3  -4   69.31    3.02
  25   3  -4   65.13    2.63
  23  -3  -4   13.33    1.20
  23  -3  -4   12.18    1.08
  23  -3  -4   13.09    1.33
  23   3  -4   18.07    1.58
  23   3  -4   17.88    1.38
  21  -3  -4    3.61    0.71
  21  -3  -4    3.67    0.66
  21  -3  -4    2.47    0.73
  21   3  -4    6.96    1.07
  21   3  -4    4.06    0.72
  19  -3  -4   27.12    1.53
  19  -3  -4   28.00    1.45
 -19  -3   4   25.14    1.43
  19  -3  -4   27.99    1.42
  19   3  -4   27.99    1.42
 -19   3   4   24.47    1.80
  19   3  -4   27.08    1.62
  17  -3  -4   11.07    0.96
  17  -3  -4   10.61    0.93
  17  -3  -4    8.60    0.87
 -17  -3   4    9.07    0.90
  17  -3  -4    9.89    0.92
  17   3  -4   12.52    0.92
  17   3  -4   11.79    1.20
  17   3  -4   13.92    1.10
 -17   3   4   12.31    0.86
 -15  -3   4    7.80    0.74
  15  -3  -4    9.84    0.84
  15  -3  -4    7.84    0.77
  15  -3  -4    8.20    0.80
  15  -3  -4    8.10    0.79
  15   3  -4    8.51    0.93
  15   3  -4    9.05    0.86
 -15   3   4    9.45    0.76
  15   3  -4    7.61    0.75
  13  -3  -4   59.42    2.16
  13  -3  -4   64.97    2.22
  13  -3  -4   59.95    2.24
  13  -3  -4   63.98    2.24
 -13  -3   4   67.30    2.23
  13  -3  -4   63.56    2.17
  13   3  -4   51.50    2.02
  13   3  -4   45.70    1.82
 -13   3   4   45.90    1.67
  13   3  -4   49.25    1.78
 -11  -3   4   48.58    1.78
  11  -3  -4   46.17    1.78
  11  -3  -4   52.57    1.86
  11  -3  -4   49.83    1.75
  11  -3  -4   49.87    1.74
  11  -3  -4   48.75    1.85
  11   3  -4   47.66    1.81
  11   3  -4   45.42    1.91
  11   3  -4   48.81    1.72
 -11   3   4   48.75    1.63
   9  -3  -4  102.07    3.29
   9  -3  -4  110.26    3.14
   9  -3  -4  105.01    3.15
   9  -3  -4  112.87    3.26
   9  -3  -4  102.53    3.22
  -9  -3   4  107.14    3.19
  -9   3   4   96.27    2.79
   9   3  -4   89.93    3.09
   9   3  -4   99.37    3.05
   9   3  -4   97.80    2.91
   7  -3  -4   21.52    0.90
  -7  -3   4   20.31    0.91
   7  -3  -4   20.88    0.85
   7  -3  -4   21.23    0.97
   7  -3  -4   19.82    0.93
  -7   3   4    9.77    0.46
  -7   3   4    9.42    0.52
   7   3  -4   10.40    0.61
   7   3  -4    8.76    0.78
   7   3  -4    9.88    0.70
  -5  -3   4  222.75    5.96
   5  -3  -4  225.49    5.99
   5  -3  -4  215.61    5.84
   5  -3  -4  215.32    6.13
   5  -3  -4  222.83    5.92
   5  -3  -4  214.92    6.02
   5   3  -4  209.07    5.93
  -5   3   4  211.14    5.65
  -5   3   4  218.86    5.59
   5   3  -4  215.17    5.80
   5   3  -4  210.98    6.04
   3  -3  -4  362.82    9.76
   3  -3  -4  375.38   10.00
   3  -3  -4  373.27    9.75
   3  -3  -4  374.41    9.86
   3  -3  -4  375.18    9.67
  -3   3   4  373.24    9.61
   3   3  -4  373.23   10.06
   3   3  -4  368.76    9.82
  -3   3   4  375.89    9.49
  -3   3   4  375.68    9.66
   3   3  -4  370.24    9.98
   1  -3  -4   84.27    2.64
   1  -3  -4   82.44    2.40
   1  -3  -4   79.74    2.37
   1  -3  -4   82.25    2.48
   1  -3  -4   84.52    2.30
   1   3  -4   90.14    2.94
   1   3  -4   93.03    2.76
  -1   3   4   96.68    2.61
  -1   3   4   95.08    2.58
  -1   3   4   96.91    2.63
  -1  -3  -4   15.39    0.63
   1  -3   4   17.00    0.58
  -1  -3  -4   16.33    0.71
  -1  -3  -4   16.80    0.74
  -1  -3  -4   16.33    0.89
  -1   3  -4   16.02    0.89
   1   3   4   17.02    0.63
   1   3   4   16.48    0.65
   1   3   4   17.67    0.61
  -3  -3  -4  128.98    3.53
   3  -3   4  123.16    3.34
  -3  -3  -4  123.55    3.52
  -3  -3  -4  127.39    3.36
   3  -3   4  127.52    3.37
  -3  -3  -4  124.32    3.74
  -3   3  -4  153.37    4.13
   3   3   4  143.23    3.78
  -3   3  -4  146.51    4.28
   3   3   4  143.41    3.83
   3   3   4  145.75    3.96
  -5  -3  -4  107.73    2.99
  -5  -3  -4  102.92    3.04
  -5  -3  -4  104.57    3.24
  -5  -3  -4  106.86    2.79
   5  -3   4  106.23    2.90
   5   3   4   96.56    2.52
  -5   3  -4   97.67    2.88
   5   3   4   96.13    2.57
  -7  -3  -4   41.55    1.60
   7  -3   4   40.13    1.28
  -7  -3  -4   41.63    1.46
  -7  -3  -4   40.15    1.31
   7   3   4   38.47    1.14
   7   3   4   38.60    1.20
  -7   3  -4   37.16    1.39
  -9  -3  -4   19.33    0.95
  -9  -3  -4   19.42    1.03
   9  -3   4   19.98    0.79
   9  -3   4   20.10    0.76
  -9  -3  -4   21.10    0.78
  -9   3  -4   31.52    1.28
  -9   3  -4   32.76    0.93
   9   3   4   32.23    1.03
 -11  -3  -4   73.82    2.62
  11  -3   4   81.48    2.31
 -11  -3  -4   81.16    2.24
  11  -3   4   76.04    2.22
 -11  -3  -4   77.57    2.54
  11   3   4   85.33    2.40
 -11   3  -4   84.65    2.70
 -11   3  -4   83.79    2.33
 -13  -3  -4   20.76    0.62
 -13  -3  -4   20.16    1.10
 -13  -3  -4   19.40    1.14
 -13  -3  -4   20.07    0.75
  13  -3   4   20.58    0.76
  13  -3   4   22.38    0.89
 -13  -3  -4   20.05    0.61
 -13   3  -4   24.07    0.85
 -13   3  -4   24.31    1.18
  13   3   4   23.76    0.68
  13   3   4   22.59    0.89
 -15  -3  -4   30.13    0.97
  15  -3   4   30.29    1.03
 -15  -3  -4   30.72    0.99
  15  -3   4   33.62    1.20
 -15  -3  -4   29.54    1.51
 -15  -3  -4   30.70    0.99
 -15  -3  -4   28.79    1.43
 -15   3  -4   23.69    1.24
 -15   3  -4   24.64    0.93
  15   3   4   24.12    0.76
 -15   3  -4   23.94    0.77
 -15   3  -4   24.37    0.76
  15   3   4   23.43    0.96
 -17  -3  -4    5.41    0.77
  17  -3   4    7.60    0.60
  17  -3   4    6.69    0.65
 -17  -3  -4    7.25    0.37
 -17  -3  -4    7.54    0.49
 -17  -3  -4    7.02    0.88
 -17  -3  -4    6.67    0.46
  17  -3   4    7.96    0.45
 -17  -3  -4    7.29    0.40
 -17   3  -4    7.95    0.56
  17   3   4    6.69    0.65
 -17   3  -4    6.79    0.79
 -17   3  -4    7.24    0.42
  17   3   4    7.59    0.40
 -17   3  -4    7.63    0.47
  17   3   4    6.69    0.55
  19  -3   4    4.36    0.58
 -19  -3  -4    4.77    0.76
  19  -3   4    6.01    0.44
 -19  -3  -4    5.91    0.48
 -19  -3  -4    6.18    0.35
 -19  -3  -4    6.36    0.51
  19  -3   4    6.31    0.59
 -19  -3  -4    6.92    0.88
 -19   3  -4    7.37    0.88
  19   3   4    7.27    0.71
 -19   3  -4    7.07    0.55
  19   3   4    7.09    0.45
 -19   3  -4    8.33    0.72
  19   3   4    6.60    0.58
 -21  -3  -4   19.59    1.33
  21  -3   4   19.01    0.77
 -21  -3  -4   17.44    1.36
  21  -3   4   19.36    1.05
  21  -3   4   22.15    1.07
 -21  -3  -4   18.33    0.92
  21   3   4   17.25    1.01
 -21   3  -4   18.23    1.30
  21   3   4   17.15    0.75
  21   3   4   17.86    0.95
 -21   3  -4   16.53    0.88
  23  -3   4    1.47    0.45
  23  -3   4    1.55    0.52
 -23  -3  -4    1.63    0.73
 -23  -3  -4    2.13    0.77
 -23  -3  -4    1.59    0.42
  23   3   4    1.51    0.44
  23   3   4    2.09    0.52
 -23   3  -4    1.23    0.65
  25  -3   4   14.50    0.99
 -25  -3  -4   14.26    1.44
  25  -3   4   14.38    1.07
 -25  -3  -4   15.14    1.49
 -25  -3  -4   14.38    0.92
  25   3   4   14.92    0.98
 -25   3  -4   14.96    1.36
  25   3   4   15.34    1.14
  27  -3   4   17.26    1.12
 -27  -3  -4   14.75    1.51
  27  -3   4   17.57    1.20
 -27  -3  -4   15.43    1.02
 -27  -3  -4   18.13    1.66
  27   3   4   20.01    1.18
  27   3   4   19.53    1.36
 -27   3  -4   21.58    1.65
 -29  -3  -4    0.70    0.91
 -29  -3  -4   -0.32    0.43
  29  -3   4    0.84    0.61
  29  -3   4    0.59    0.53
 -29  -3  -4    0.18    0.80
  29   3   4    0.21    0.62
  29   3   4    0.76    0.53
 -29   3  -4    0.16    0.75
  31  -3   4    1.28    0.60
  31  -3   4    2.97    0.82
  31  -3   4    2.53    0.77
 -31  -3  -4    0.89    0.52
 -31  -3  -4    1.39    0.95
 -31  -3  -4    3.45    1.14
  31   3   4    1.46    0.75
  31   3   4    2.31    0.69
 -31   3  -4    1.34    0.96
 -33  -3  -4    1.64    0.56
  33  -3   4    1.09    0.74
 -33  -3  -4    0.02    0.92
 -33  -3  -4    1.59    1.13
  33  -3   4    0.69    0.61
  33  -3   4    0.99    0.76
  33   3   4    2.22    0.87
  33   3   4    1.84    0.69
 -35  -3  -4    0.28    0.53
  35  -3   4   -0.10    0.61
  35  -3   4    0.77    0.74
  35  -3   4    2.18    0.94
  35   3   4   -0.86    0.76
  35   3   4    2.17    0.71
  37  -3   4   -0.70    0.63
 -37  -3  -4    0.71    0.57
  37   3   4    2.45    0.81
  37   3   4    0.84    0.86
  36  -4  -4    5.17    1.24
  36  -4  -4    4.80    1.16
  36   4  -4   11.48    1.81
  34  -4  -4   10.97    1.56
  34  -4  -4    8.51    1.41
  34  -4  -4    8.60    1.20
  34   4  -4    6.74    1.16
  34   4  -4    4.26    1.35
  32  -4  -4   16.22    1.75
  32  -4  -4   13.61    1.39
  32  -4  -4   12.19    1.51
  32   4  -4   12.64    1.72
  32   4  -4   11.65    1.36
  30  -4  -4    8.46    1.15
  30  -4  -4   10.19    1.27
  30  -4  -4   10.99    1.45
  30   4  -4    9.16    1.17
  30   4  -4    8.78    1.45
  28  -4  -4    0.42    0.82
  28  -4  -4   -0.29    0.53
  28  -4  -4    0.01    0.67
  28   4  -4    1.38    0.88
  28   4  -4    0.30    0.67
  26  -4  -4   23.01    1.76
  26  -4  -4   28.69    1.71
  26  -4  -4   25.98    1.58
  26   4  -4   20.42    1.90
  26   4  -4   20.21    1.40
  24  -4  -4   26.71    1.62
  24  -4  -4   29.71    1.61
  24  -4  -4   25.05    1.70
  24   4  -4   33.95    1.79
  24   4  -4   33.08    2.13
  22  -4  -4    1.86    0.72
  22  -4  -4    1.45    0.63
  22  -4  -4    1.80    0.64
  22   4  -4    2.84    0.70
  22   4  -4    2.30    0.81
  20  -4  -4   23.22    1.48
  20  -4  -4   25.94    1.45
  20  -4  -4   29.94    1.54
  20   4  -4   19.56    1.46
  20   4  -4   21.68    1.34
  18  -4  -4   65.52    2.43
 -18  -4   4   66.61    2.54
  18  -4  -4   62.85    2.46
  18  -4  -4   70.08    2.54
  18   4  -4   61.42    2.36
  18   4  -4   59.23    2.56
  16  -4  -4   36.34    1.63
 -16  -4   4   38.88    1.74
  16  -4  -4   38.66    1.68
  16  -4  -4   37.06    1.67
  16  -4  -4   40.99    1.73
 -16   4   4   41.10    1.65
  16   4  -4   41.71    1.75
  16   4  -4   43.05    1.98
  16   4  -4   40.03    1.78
 -14  -4   4   64.62    2.38
  14  -4  -4   64.51    2.38
  14  -4  -4   65.54    2.38
  14  -4  -4   66.20    2.33
  14  -4  -4   63.92    2.26
  14  -4  -4   66.10    2.33
  14   4  -4   87.16    3.12
  14   4  -4   88.99    2.88
 -14   4   4   81.07    2.74
  14   4  -4   89.33    2.96
  12  -4  -4   36.40    1.44
  12  -4  -4   38.38    1.58
  12  -4  -4   34.62    1.50
  12  -4  -4   38.48    1.56
  12  -4  -4   35.67    1.59
 -12  -4   4   36.88    1.54
  12   4  -4   28.12    1.28
  12   4  -4   28.20    1.34
  12   4  -4   29.62    1.50
 -12   4   4   27.21    1.17
  10  -4  -4    1.26    0.36
  10  -4  -4    0.68    0.37
  10  -4  -4    0.80    0.37
 -10  -4   4    0.34    0.30
  10  -4  -4    1.21    0.33
  10  -4  -4    1.54    0.43
 -10   4   4    0.60    0.26
  10   4  -4   -0.06    0.31
  10   4  -4    0.48    0.37
  10   4  -4    0.34    0.31
  -8  -4   4   68.88    2.32
   8  -4  -4   69.66    2.30
   8  -4  -4   68.86    2.42
   8  -4  -4   72.50    2.36
   8  -4  -4   69.73    2.31
   8  -4  -4   72.77    2.13
   8   4  -4   77.47    2.59
  -8   4   4   77.22    2.37
   8   4  -4   78.74    2.49
   8   4  -4   79.49    2.71
   6  -4  -4   32.82    1.08
  -6  -4   4   33.21    1.30
   6  -4  -4   32.04    1.26
   6  -4  -4   33.68    1.27
   6  -4  -4   32.16    1.31
   6  -4  -4   26.80    1.33
   6   4  -4   27.51    1.15
   6   4  -4   26.50    1.29
   6   4  -4   26.55    1.21
  -6   4   4   26.33    1.02
  -4  -4   4   74.53    2.34
   4  -4  -4   73.39    2.49
   4  -4  -4   74.81    2.36
   4  -4  -4   74.56    2.06
   4  -4  -4   71.32    2.25
   4  -4  -4   71.10    2.29
  -4   4   4   76.18    2.32
  -4   4   4   81.69    2.12
   4   4  -4   79.73    2.49
   4   4  -4   78.17    2.65
  -2  -4   4   73.97    2.12
   2  -4  -4   73.64    2.48
   2  -4  -4   74.45    2.22
   2  -4  -4   73.52    1.99
   2  -4  -4   72.88    2.33
   2   4  -4   52.63    1.96
   2   4  -4   52.02    1.81
  -2   4   4   54.43    1.43
  -2   4   4   53.57    1.67
   0  -4  -4  121.86    3.59
   0  -4  -4  125.52    3.78
   0  -4   4  128.18    3.40
   0  -4  -4  122.03    3.42
   0  -4  -4  122.25    3.57
   0   4  -4  131.92    4.05
   0   4   4  137.72    3.58
   0   4   4  139.08    3.51
   0   4   4  132.70    3.76
   0   4   4  134.84    3.63
   0   4  -4  133.05    3.91
   2  -4   4   18.53    0.68
  -2  -4  -4   17.82    0.83
  -2  -4  -4   17.52    0.67
  -2  -4  -4   18.14    0.86
  -2  -4  -4   18.28    1.00
   2  -4   4   18.58    0.72
   2   4   4   22.77    0.73
   2   4   4   21.62    0.92
   2   4   4   22.63    0.73
   2   4   4   23.70    0.73
  -2   4  -4   21.27    1.03
  -2   4  -4   22.13    1.13
  -4  -4  -4  166.32    4.69
  -4  -4  -4  163.83    4.74
   4  -4   4  173.85    4.58
   4  -4   4  166.40    4.44
  -4  -4  -4  176.81    4.99
  -4  -4  -4  169.94    4.43
   4   4   4  138.61    3.74
  -4   4  -4  138.93    4.05
   4   4   4  139.01    3.69
  -6  -4  -4    7.73    0.64
   6  -4   4    6.52    0.46
  -6  -4  -4    6.14    0.52
  -6  -4  -4    8.66    0.80
   6   4   4    8.63    0.43
  -6   4  -4    9.71    0.68
  -8  -4  -4    0.22    0.29
  -8  -4  -4    0.34    0.23
   8  -4   4   -0.08    0.19
  -8  -4  -4    0.51    0.38
   8  -4   4    0.33    0.24
  -8   4  -4    2.70    0.44
   8   4   4    2.86    0.28
  -8   4  -4    3.05    0.25
 -10  -4  -4   73.29    2.52
  10  -4   4   71.60    2.10
  10  -4   4   67.41    2.10
 -10  -4  -4   67.46    2.11
 -10  -4  -4   67.34    2.34
 -10   4  -4   65.97    1.93
 -10   4  -4   69.39    2.32
  10   4   4   67.19    1.98
  10   4   4   67.47    2.00
 -12  -4  -4   17.03    0.78
  12  -4   4   16.62    0.80
 -12  -4  -4   15.75    1.02
 -12  -4  -4   17.07    1.14
  12  -4   4   17.16    0.74
 -12   4  -4   13.52    0.92
  12   4   4   13.28    0.67
  12   4   4   13.97    0.66
 -12   4  -4   12.76    0.61
 -14  -4  -4   50.27    1.61
  14  -4   4   49.76    1.67
 -14  -4  -4   49.78    2.10
 -14  -4  -4   50.27    2.00
  14  -4   4   50.30    1.59
 -14  -4  -4   45.93    1.42
 -14  -4  -4   49.19    1.44
 -14   4  -4   42.98    1.77
  14   4   4   44.83    1.53
 -14   4  -4   46.22    1.47
  14   4   4   43.15    1.47
  16  -4   4   22.25    0.88
  16  -4   4   21.07    0.98
 -16  -4  -4   20.28    1.28
 -16  -4  -4   21.18    0.82
 -16  -4  -4   19.12    0.86
 -16  -4  -4   21.15    0.80
  16  -4   4   21.91    1.12
 -16  -4  -4   20.65    1.33
 -16   4  -4   23.92    1.32
 -16   4  -4   26.58    1.06
  16   4   4   28.44    1.09
  16   4   4   25.64    1.12
 -18  -4  -4   29.78    1.58
 -18  -4  -4   27.36    1.04
  18  -4   4   26.75    1.26
 -18  -4  -4   27.62    1.59
 -18  -4  -4   25.59    0.99
  18  -4   4   26.56    1.17
  18  -4   4   27.97    1.03
 -18  -4  -4   24.65    1.02
  18   4   4   23.29    1.06
 -18   4  -4   26.89    1.44
 -18   4  -4   24.68    0.83
  18   4   4   26.40    1.15
  20  -4   4   18.91    1.14
 -20  -4  -4   19.69    1.40
 -20  -4  -4   20.99    1.45
  20  -4   4   21.16    1.05
  20  -4   4   19.52    0.85
 -20  -4  -4   18.56    0.90
 -20  -4  -4   18.87    0.84
 -20   4  -4   27.24    1.52
  20   4   4   26.19    1.24
  20   4   4   23.90    1.13
 -22  -4  -4   50.92    2.43
 -22  -4  -4   53.17    2.49
 -22  -4  -4   52.75    1.84
  22  -4   4   56.42    1.99
  22  -4   4   56.23    2.08
  22   4   4   53.62    1.92
  22   4   4   52.31    1.99
 -22   4  -4   53.83    2.30
 -24  -4  -4   -0.12    0.69
  24  -4   4    0.78    0.47
 -24  -4  -4    0.02    0.72
  24  -4   4    0.26    0.46
 -24  -4  -4   -0.04    0.36
  24   4   4    0.00    0.41
  24   4   4    1.42    0.57
 -24   4  -4    1.76    0.69
 -26  -4  -4   22.72    1.15
  26  -4   4   21.15    1.24
 -26  -4  -4   23.45    1.88
 -26  -4  -4   18.33    1.73
  26  -4   4   24.01    1.39
  26   4   4   23.15    1.27
 -26   4  -4   25.59    1.75
  26   4   4   22.16    1.32
 -28  -4  -4   12.91    1.56
  28  -4   4   12.10    1.00
 -28  -4  -4   10.28    1.44
 -28  -4  -4    9.39    0.84
  28  -4   4   11.11    1.06
 -28   4  -4    7.47    1.14
  28   4   4    6.48    0.81
  28   4   4    8.03    0.99
 -30  -4  -4    1.72    0.98
 -30  -4  -4    3.54    1.14
  30  -4   4    1.22    0.66
 -30  -4  -4    2.57    0.59
  30  -4   4    1.60    0.68
  30   4   4    2.20    0.73
 -30   4  -4    1.53    0.92
  30   4   4    2.06    0.67
  32  -4   4    1.79    0.69
  32  -4   4    1.24    0.76
 -32  -4  -4    1.26    1.04
 -32  -4  -4    1.02    0.54
 -32  -4  -4    1.38    1.04
  32  -4   4    1.83    0.79
  32   4   4    2.83    0.89
  32   4   4    3.97    0.80
 -34  -4  -4   13.82    1.76
  34  -4   4   14.49    1.19
  34  -4   4   17.91    1.54
  34  -4   4   14.36    1.48
 -34  -4  -4   14.15    1.05
  34   4   4   16.69    1.33
  34   4   4   11.15    1.33
  36  -4   4    4.69    1.04
  36  -4   4    3.52    0.86
  36  -4   4    3.86    0.90
 -36  -4  -4    4.68    0.71
  36   4   4    2.33    1.03
  36   4   4    4.33    0.89
 -35  -5   4    1.92    1.12
  35  -5  -4    5.28    1.19
  35  -5  -4    4.43    1.24
  35   5  -4    1.88    1.31
  33  -5  -4    1.90    0.82
  33  -5  -4    0.95    1.01
  33  -5  -4    1.10    0.96
  33   5  -4    1.06    1.08
  33   5  -4   -0.24    0.79
  31  -5  -4   10.13    1.47
  31  -5  -4   11.00    1.39
  31  -5  -4   10.68    1.27
  31   5  -4    9.77    1.24
  31   5  -4    6.04    1.38
  29  -5  -4    5.17    1.08
  29  -5  -4    4.35    1.10
  29  -5  -4    4.76    0.96
  29   5  -4    4.62    1.19
  29   5  -4    4.94    0.96
  27  -5  -4    0.90    0.74
  27  -5  -4    1.12    0.72
  27  -5  -4    0.50    0.78
  27   5  -4    3.85    1.14
  27   5  -4    2.51    0.81
  25  -5  -4   34.11    1.86
  25  -5  -4   32.76    1.93
  25  -5  -4   28.66    1.66
  25   5  -4   27.79    1.68
  25   5  -4   27.80    2.06
  23  -5  -4    7.09    0.50
  23  -5  -4    8.43    1.04
  23  -5  -4    5.39    0.91
  23  -5  -4    6.49    0.98
  23   5  -4    5.91    0.91
  23   5  -4    7.41    1.18
  21  -5  -4   26.74    1.60
  21  -5  -4   27.09    0.95
  21  -5  -4   28.27    1.61
  21  -5  -4   30.01    1.59
  21   5  -4   30.24    1.95
  21   5  -4   27.90    1.54
  19  -5  -4    7.51    0.86
  19  -5  -4    6.73    0.40
  19  -5  -4    8.24    0.95
  19  -5  -4    7.79    0.92
  19   5  -4    5.92    1.00
  19   5  -4    5.51    0.78
 -17  -5   4   42.78    2.50
  17  -5  -4   43.35    1.83
  17  -5  -4   44.74    1.92
  17  -5  -4   40.90    1.21
  17  -5  -4   43.03    1.88
  17  -5  -4   44.14    1.91
  17   5  -4   40.72    2.10
  17   5  -4   45.71    1.91
  15  -5  -4   22.20    1.26
  15  -5  -4   21.15    1.25
  15  -5  -4   21.72    1.16
  15  -5  -4   23.03    1.30
  15  -5  -4   22.10    1.23
 -15  -5   4   17.98    1.22
  15   5  -4   15.40    1.33
 -15   5   4   15.89    1.00
  15   5  -4   16.88    1.31
  15   5  -4   18.56    1.13
  13  -5  -4   71.36    2.47
  13  -5  -4   67.94    2.44
  13  -5  -4   69.23    2.47
  13  -5  -4   66.34    2.27
 -13  -5   4   67.75    2.49
  13  -5  -4   64.85    2.47
  13   5  -4   61.79    2.41
  13   5  -4   70.05    2.64
  13   5  -4   67.15    2.38
 -13   5   4   67.66    2.28
  11  -5  -4   12.07    0.88
  11  -5  -4   14.41    0.77
  11  -5  -4   13.10    0.99
 -11  -5   4   12.00    0.93
  11  -5  -4   13.35    0.92
  11  -5  -4   13.60    0.95
  11   5  -4   14.70    1.13
  11   5  -4   15.47    0.97
 -11   5   4   13.99    0.85
  11   5  -4   15.02    1.02
   9  -5  -4   42.05    1.40
   9  -5  -4   40.32    1.64
   9  -5  -4   39.22    1.60
   9  -5  -4   39.98    1.63
  -9  -5   4   40.54    1.66
   9  -5  -4   40.09    1.73
   9   5  -4   30.27    1.32
   9   5  -4   26.21    1.41
   9   5  -4   28.10    1.37
  -9   5   4   29.59    1.21
   7  -5  -4  213.34    6.04
   7  -5  -4  215.49    5.67
   7  -5  -4  208.35    5.98
   7  -5  -4  210.31    6.16
  -7  -5   4  213.66    6.06
   7  -5  -4  214.24    6.05
  -7  -5   4  218.63    5.81
   7   5  -4  232.37    6.60
  -7   5   4  240.37    6.46
   7   5  -4  234.49    6.80
   5  -5  -4   15.13    0.87
   5  -5  -4   13.53    0.52
   5  -5  -4   12.73    0.91
  -5  -5   4   13.06    0.67
   5  -5  -4   13.07    0.79
   5  -5  -4   12.60    0.82
  -5  -5   4   13.75    0.85
  -5   5   4   13.83    0.74
   5   5  -4   12.86    0.84
   5   5  -4   13.01    0.92
   3  -5  -4   47.90    1.76
   3  -5  -4   48.67    1.90
  -3  -5   4   47.87    1.63
  -3  -5   4   46.70    1.53
   3  -5  -4   46.24    1.62
   3   5  -4   43.36    1.63
   3   5  -4   42.67    1.75
  -3   5   4   39.84    1.46
   1  -5  -4   64.64    2.03
   1  -5  -4   65.06    2.36
   1  -5  -4   66.58    2.19
   1  -5  -4   64.30    2.19
  -1  -5   4   68.18    2.05
  -1  -5   4   66.06    2.00
   1   5  -4   79.75    2.64
   1   5  -4   75.68    2.49
  -1   5   4   71.72    2.33
  -1  -5  -4    2.19    0.40
  -1  -5  -4    1.89    0.27
   1  -5   4    1.80    0.28
   1  -5   4    1.72    0.28
  -1  -5  -4    2.17    0.49
  -1  -5  -4    2.23    0.43
  -1   5  -4    1.51    0.44
  -1   5  -4    2.06    0.42
   1   5   4    2.10    0.36
  -1   5  -4    1.77    0.43
  -3  -5  -4  114.02    2.99
   3  -5   4  111.73    3.12
  -3  -5  -4  105.45    3.26
  -3  -5  -4  106.67    3.32
  -3  -5  -4  107.94    3.50
   3  -5   4  107.68    3.02
  -3   5  -4  107.75    3.44
  -3   5  -4  110.11    3.45
   3   5   4  112.12    2.92
   3   5   4  113.80    3.34
  -3   5  -4  113.79    3.53
  -5  -5  -4   30.77    0.92
  -5  -5  -4   30.98    1.47
   5  -5   4   33.88    1.17
  -5  -5  -4   30.98    1.34
  -5  -5  -4   29.34    1.24
   5  -5   4   31.66    1.00
   5   5   4   34.52    1.02
  -5   5  -4   33.92    1.44
   5   5   4   35.16    1.15
  -7  -5  -4    6.60    0.79
   7  -5   4    5.77    0.53
   7  -5   4    6.20    0.50
  -7  -5  -4    5.63    0.56
   7  -5   4    6.15    0.29
  -7  -5  -4    5.13    0.63
   7   5   4    6.17    0.44
  -7   5  -4    5.09    0.37
   7   5   4    5.45    0.34
  -7   5  -4    6.52    0.72
   9  -5   4   88.05    2.64
   9  -5   4   94.42    2.69
  -9  -5  -4   87.84    3.06
  -9  -5  -4   82.52    2.69
  -9  -5  -4   88.93    2.92
   9   5   4   94.62    2.66
  -9   5  -4   95.21    2.67
   9   5   4   94.34    2.72
  -9   5  -4   94.06    3.06
 -11  -5  -4    7.84    0.81
 -11  -5  -4    7.59    0.64
  11  -5   4    6.87    0.57
 -11  -5  -4    7.87    0.30
 -11  -5  -4    6.83    0.83
  11  -5   4    6.75    0.56
  11   5   4   14.01    0.67
 -11   5  -4   13.15    0.91
 -11   5  -4   13.86    0.67
  11   5   4   13.73    0.70
 -13  -5  -4    5.99    0.37
  13  -5   4    8.44    0.60
  13  -5   4    5.82    0.55
 -13  -5  -4    5.81    0.78
 -13  -5  -4    5.97    0.37
 -13  -5  -4    5.94    0.60
 -13  -5  -4    5.07    0.80
 -13   5  -4    4.83    0.45
 -13   5  -4    3.17    0.60
  13   5   4    5.24    0.48
  13   5   4    6.14    0.52
 -15  -5  -4   35.40    1.38
 -15  -5  -4   37.27    1.19
  15  -5   4   36.00    1.32
 -15  -5  -4   33.55    1.15
 -15  -5  -4   35.39    1.82
  15  -5   4   38.87    1.42
 -15  -5  -4   33.03    1.70
 -15   5  -4   48.31    1.66
  15   5   4   49.20    1.69
  15   5   4   52.91    1.73
 -15   5  -4   47.87    2.03
 -17  -5  -4   23.34    1.52
 -17  -5  -4   21.97    0.90
  17  -5   4   23.42    1.10
 -17  -5  -4   21.53    0.92
 -17  -5  -4   23.03    1.06
 -17  -5  -4   22.27    1.43
  17  -5   4   25.80    1.03
  17  -5   4   23.44    1.25
  17   5   4   24.21    1.10
 -17   5  -4   23.27    1.40
  17   5   4   23.19    1.07
  19  -5   4   12.58    0.75
 -19  -5  -4   12.34    0.72
  19  -5   4   11.35    0.93
 -19  -5  -4   11.86    1.28
 -19  -5  -4   10.62    0.76
  19  -5   4   12.29    0.86
 -19  -5  -4   12.04    1.19
  19   5   4   12.70    0.86
 -19   5  -4   10.90    1.09
  19   5   4   12.00    0.83
  21  -5   4    1.65    0.47
 -21  -5  -4    3.13    0.46
 -21  -5  -4    2.59    0.90
  21  -5   4    2.67    0.60
  21  -5   4    2.96    0.45
 -21  -5  -4    1.85    0.77
  21   5   4    1.27    0.49
  21   5   4    2.35    0.50
 -21   5  -4    1.88    0.69
 -23  -5  -4   10.56    1.30
  23  -5   4   10.06    0.97
 -23  -5  -4   12.18    1.40
  23  -5   4   10.12    0.88
 -23  -5  -4   11.51    0.81
  23   5   4   10.77    0.96
 -23   5  -4    8.21    1.06
  23   5   4   11.17    0.89
 -25  -5  -4   18.56    1.04
 -25  -5  -4   18.97    1.82
  25  -5   4   17.88    1.31
 -25  -5  -4   15.62    1.54
  25  -5   4   19.81    1.20
  25   5   4   17.12    1.13
  25   5   4   17.23    1.23
 -25   5  -4   17.26    1.50
 -27  -5  -4   11.53    1.53
 -27  -5  -4   11.70    1.40
  27  -5   4    9.69    1.10
 -27  -5  -4   12.35    0.90
  27  -5   4   13.36    1.07
 -27   5  -4    8.18    1.20
  27   5   4    7.31    0.92
  27   5   4    7.87    0.87
 -29  -5  -4   11.18    1.57
  29  -5   4   12.80    1.27
 -29  -5  -4   15.11    1.76
 -29  -5  -4   14.84    1.03
  29  -5   4   14.92    1.17
  29   5   4   17.42    1.27
  29   5   4   16.13    1.40
 -29   5  -4   13.84    1.57
 -31  -5  -4   10.22    1.65
 -31  -5  -4    9.52    0.87
  31  -5   4   11.21    1.25
 -31  -5  -4   12.86    1.70
  31  -5   4   11.51    1.11
  31   5   4    7.74    1.12
  31   5   4    8.64    0.98
  33  -5   4    4.47    0.97
  33  -5   4    2.47    0.86
 -33  -5  -4    2.79    0.62
  33  -5   4    3.78    0.83
 -33  -5  -4    3.51    1.29
  33   5   4    6.09    0.93
  33   5   4    5.38    1.08
  35  -5   4    2.08    0.99
  35  -5   4    2.68    0.97
  35  -5   4    1.66    0.75
 -35  -5  -4    1.70    1.21
 -35  -5  -4    1.17    0.54
  35   5   4    1.91    0.78
  35   5   4    1.69    0.84
 -34  -6   4    2.44    0.94
  34  -6  -4    1.69    1.12
  34  -6  -4    2.33    0.92
 -34  -6   4    1.68    1.23
  34  -6  -4    3.06    1.14
  34   6  -4    3.43    1.31
  32  -6  -4    2.67    1.00
 -32  -6   4    2.65    1.09
 -32  -6   4    2.05    0.88
  32  -6  -4    3.02    0.95
  32  -6  -4    2.98    1.05
  32   6  -4    1.10    1.09
 -30  -6   4    7.93    1.10
 -30  -6   4    8.59    1.38
  30  -6  -4    9.86    1.44
  30  -6  -4    8.83    1.24
  30  -6  -4   10.55    1.44
  30   6  -4    5.76    1.10
  30   6  -4    6.36    1.40
 -28  -6   4    7.04    1.24
  28  -6  -4    7.87    1.20
  28  -6  -4    7.83    1.13
  28  -6  -4    8.16    1.25
  28   6  -4    9.15    1.18
  28   6  -4    8.36    1.47
  26  -6  -4    3.47    0.88
  26  -6  -4    2.49    0.86
  26  -6  -4    3.21    0.88
  26   6  -4    1.87    0.94
  26   6  -4    1.65    0.75
  24  -6  -4   13.83    1.38
  24  -6  -4   14.78    1.35
  24  -6  -4   15.40    1.40
  24  -6  -4   15.79    0.70
  24   6  -4   17.41    1.75
  24   6  -4   14.53    1.35
  22  -6  -4    7.63    1.03
  22  -6  -4    6.28    0.91
  22  -6  -4    6.88    0.47
  22  -6  -4    8.06    1.04
  22   6  -4    7.13    1.20
  22   6  -4    8.08    1.03
  20  -6  -4   24.80    1.51
  20  -6  -4   30.47    1.66
  20  -6  -4   27.43    0.93
  20  -6  -4   30.30    1.65
  20   6  -4   36.77    1.82
  20   6  -4   34.61    2.08
  18  -6  -4    0.38    0.50
  18  -6  -4   -0.37    0.54
  18  -6  -4   -0.43    0.49
  18  -6  -4    0.20    0.49
  18  -6  -4    0.07    0.18
  18   6  -4   -0.32    0.66
  18   6  -4    0.68    0.55
  16  -6  -4    3.35    0.61
 -16  -6   4    4.55    0.65
  16  -6  -4    4.27    0.74
  16  -6  -4    3.79    0.27
  16  -6  -4    4.72    0.75
  16  -6  -4    3.24    0.67
  16   6  -4    3.43    0.67
  16   6  -4    2.45    0.71
  14  -6  -4   35.72    1.67
  14  -6  -4   32.42    1.41
  14  -6  -4   30.16    1.56
  14  -6  -4   34.75    1.65
 -14  -6   4   34.18    1.43
 -14  -6   4   32.01    1.67
  14   6  -4   44.23    1.91
  14   6  -4   44.23    2.08
  12  -6  -4   31.55    1.56
 -12  -6   4   34.61    1.64
  12  -6  -4   29.05    1.49
 -12  -6   4   31.14    1.34
  12  -6  -4   35.03    1.32
  12  -6  -4   31.61    1.55
  12  -6  -4   32.12    1.55
  12   6  -4   28.86    1.45
 -12   6   4   24.74    1.25
  12   6  -4   26.39    1.51
  12   6  -4   25.65    1.38
  10  -6  -4    6.50    0.53
  10  -6  -4    5.61    0.73
  10  -6  -4    7.40    0.80
  10  -6  -4    5.01    0.72
  10  -6  -4    7.64    0.79
 -10  -6   4    5.17    0.69
 -10  -6   4    6.29    0.60
 -10   6   4    4.76    0.58
  10   6  -4    5.83    0.71
  10   6  -4    5.58    0.79
  -8  -6   4   81.12    2.52
   8  -6  -4   80.13    2.78
  -8  -6   4   79.16    2.79
   8  -6  -4   79.84    2.74
  -8  -6   4   83.50    2.72
   8  -6  -4   80.49    2.86
   8  -6  -4   82.11    2.31
   8  -6  -4   76.87    2.66
   8   6  -4   81.85    2.91
  -8   6   4   76.95    2.59
   8   6  -4   84.88    2.79
   6  -6  -4   42.19    1.83
   6  -6  -4   43.26    1.73
   6  -6  -4   40.53    1.23
  -6  -6   4   41.86    1.52
   6  -6  -4   42.53    1.66
   6  -6  -4   43.63    1.77
  -6  -6   4   44.38    1.77
  -6  -6   4   44.67    1.69
   6   6  -4   43.67    1.73
   6   6  -4   35.80    1.72
  -6   6   4   41.32    1.56
   4  -6  -4    8.01    0.88
  -4  -6   4    8.30    0.62
   4  -6  -4    8.45    0.70
  -4  -6   4    7.83    0.66
   4  -6  -4    8.19    0.76
   4   6  -4    5.33    0.68
  -4   6   4    6.49    0.61
   4   6  -4    5.78    0.71
   2  -6  -4   17.01    0.87
   2  -6  -4   17.89    1.00
  -2  -6   4   18.96    0.87
  -2  -6   4   18.08    0.90
   2  -6  -4   17.47    1.12
   2   6  -4   25.77    1.25
  -2   6   4   23.74    1.11
   2   6  -4   24.43    1.32
   0  -6  -4   88.81    2.85
   0  -6   4   91.31    2.67
   0  -6  -4   90.13    2.92
   0  -6  -4   85.93    3.04
   0  -6   4   88.15    2.66
   0  -6  -4   87.15    2.63
   0   6  -4   87.74    2.98
   0   6   4   93.07    2.87
   0   6  -4   89.26    3.04
  -2  -6  -4   70.60    2.42
  -2  -6  -4   70.34    2.35
  -2  -6  -4   69.12    2.07
  -2  -6  -4   68.07    2.55
   2  -6   4   68.58    2.12
   2  -6   4   67.99    2.17
  -2   6  -4   66.55    2.46
  -2   6  -4   70.44    2.47
  -2   6  -4   66.76    2.44
   2   6   4   71.79    2.35
  -4  -6  -4   16.91    1.05
  -4  -6  -4   15.69    0.96
  -4  -6  -4   17.32    1.15
  -4  -6  -4   16.99    0.67
   4  -6   4   18.78    0.87
   4  -6   4   17.33    0.75
  -4   6  -4   14.13    0.95
  -4   6  -4   12.90    0.97
   4   6   4   14.22    0.89
   6  -6   4   26.20    1.09
  -6  -6  -4   25.80    0.78
   6  -6   4   27.08    0.93
  -6  -6  -4   25.60    1.46
   6  -6   4   24.18    1.11
  -6  -6  -4   25.31    1.20
  -6  -6  -4   26.73    1.33
  -6   6  -4   31.61    1.50
  -6   6  -4   31.72    1.10
   6   6   4   32.49    1.01
   8  -6   4    8.69    0.42
  -8  -6  -4    8.03    0.84
   8  -6   4    8.07    0.64
   8  -6   4    8.24    0.70
  -8  -6  -4    7.20    0.92
  -8  -6  -4    7.83    0.74
  -8   6  -4   13.11    0.65
   8   6   4   13.57    0.61
  -8   6  -4   13.17    0.99
 -10  -6  -4   60.28    2.44
 -10  -6  -4   56.35    2.08
  10  -6   4   61.00    2.01
  10  -6   4   61.23    1.98
 -10  -6  -4   62.19    2.33
 -10  -6  -4   59.25    1.62
 -10  -6  -4   55.92    1.62
  10   6   4   54.65    1.70
  10   6   4   53.68    1.79
 -10   6  -4   53.55    2.14
 -10   6  -4   56.07    1.75
 -12  -6  -4    8.59    1.03
 -12  -6  -4    9.06    0.45
  12  -6   4   10.47    0.77
 -12  -6  -4    8.57    0.76
 -12  -6  -4    7.09    0.85
  12  -6   4    7.78    0.67
 -12  -6  -4    8.16    0.44
 -12   6  -4    7.40    0.57
  12   6   4    7.71    0.58
  12   6   4    7.07    0.59
 -12   6  -4    6.09    0.76
 -14  -6  -4    6.62    0.83
 -14  -6  -4    6.35    0.44
  14  -6   4    5.41    0.58
 -14  -6  -4    5.66    0.96
 -14  -6  -4    5.16    0.40
 -14  -6  -4    4.90    0.63
  14  -6   4    5.68    0.59
 -14   6  -4    7.44    0.85
  14   6   4    8.80    0.65
  14   6   4    6.76    0.61
  16  -6   4   47.27    1.75
 -16  -6  -4   48.74    2.19
 -16  -6  -4   50.06    1.54
  16  -6   4   45.67    1.67
 -16  -6  -4   45.61    1.50
 -16  -6  -4   43.99    1.77
 -16  -6  -4   46.33    2.33
  16   6   4   50.17    1.76
 -16   6  -4   47.07    2.09
  16   6   4   47.09    1.74
  18  -6   4   11.30    0.97
 -18  -6  -4   12.02    0.71
 -18  -6  -4   12.00    0.91
 -18  -6  -4   11.38    1.24
  18  -6   4   12.22    0.81
  18  -6   4   10.46    0.82
 -18  -6  -4   10.02    1.24
 -18   6  -4   10.20    1.05
  18   6   4   10.57    0.80
  18   6   4   11.43    0.86
  20  -6   4    0.82    0.40
 -20  -6  -4    0.71    0.44
  20  -6   4   -0.23    0.47
  20  -6   4   -0.31    0.37
 -20  -6  -4    0.92    0.73
 -20  -6  -4    0.26    0.34
 -20  -6  -4   -0.22    0.74
 -20   6  -4    2.45    0.75
  20   6   4    1.75    0.52
  20   6   4    1.82    0.49
 -22  -6  -4    9.12    1.40
 -22  -6  -4   14.37    1.42
  22  -6   4   11.51    0.94
  22  -6   4   14.14    0.90
 -22  -6  -4   12.79    0.84
  22  -6   4   11.19    1.09
  22   6   4    8.11    0.78
 -22   6  -4    8.67    1.11
  22   6   4    8.62    0.88
  24  -6   4    0.51    0.51
 -24  -6  -4    1.37    0.88
 -24  -6  -4    1.48    0.46
  24  -6   4    1.09    0.68
 -24  -6  -4    0.68    0.83
 -24   6  -4    1.61    0.75
  24   6   4    0.63    0.52
  24   6   4    1.70    0.60
  26  -6   4    4.78    0.90
 -26  -6  -4    5.16    0.65
 -26  -6  -4    6.07    1.20
  26  -6   4    5.51    0.78
 -26  -6  -4    3.36    1.06
 -26   6  -4    9.50    1.30
  26   6   4    6.06    0.82
  26   6   4    7.26    0.95
 -28  -6  -4    1.97    1.07
 -28  -6  -4    2.80    1.17
  28  -6   4    1.78    0.65
 -28  -6  -4    0.54    0.48
  28  -6   4    0.98    0.76
  28   6   4    1.84    0.73
  28   6   4    2.34    0.70
 -28   6  -4    2.34    0.89
  30  -6   4    3.45    0.79
  30  -6   4    3.41    0.86
 -30  -6  -4    2.26    0.59
 -30  -6  -4    7.10    1.53
 -30  -6  -4    2.49    1.17
  30   6   4    3.78    0.92
  30   6   4    3.31    0.80
  32  -6   4   17.83    1.57
  32  -6   4   13.81    1.23
  32  -6   4   13.96    1.46
 -32  -6  -4   14.61    1.88
 -32  -6  -4   13.97    1.00
  32   6   4   11.08    1.35
  34  -6   4    1.09    0.92
  34  -6   4    1.71    0.84
  34  -6   4    0.08    0.70
 -34  -6  -4    3.44    1.37
 -34  -6  -4    1.02    0.52
  34   6   4    0.51    0.89
 -33  -7   4   -0.30    1.24
 -33  -7   4    1.36    0.90
  33  -7  -4    0.18    0.88
  33  -7  -4    0.83    0.85
  33   7  -4    0.35    1.14
  31  -7  -4   24.95    2.08
 -31  -7   4   22.68    1.73
  31  -7  -4   26.49    2.12
  31  -7  -4   24.78    1.81
 -31  -7   4   26.01    2.30
  31   7  -4   23.90    2.40
  29  -7  -4    3.61    1.00
 -29  -7   4    3.59    1.15
 -29  -7   4    4.42    0.99
  29  -7  -4    5.66    1.14
  29  -7  -4    4.63    1.16
  29   7  -4    5.69    1.29
  27  -7  -4    1.92    0.86
 -27  -7   4    2.33    1.03
 -27  -7   4    3.51    0.85
  27  -7  -4    1.39    0.89
  27  -7  -4    0.18    0.86
  27   7  -4    2.49    1.01
  27   7  -4    2.62    0.82
  25  -7  -4    5.46    0.94
 -25  -7   4    6.21    0.95
  25  -7  -4    5.63    0.41
 -25  -7   4    5.59    1.14
  25  -7  -4    6.77    1.08
  25  -7  -4    5.80    1.05
  25   7  -4    9.21    1.40
  25   7  -4   10.40    1.18
  23  -7  -4    5.19    0.95
  23  -7  -4    4.89    0.94
  23  -7  -4    5.34    0.96
 -23  -7   4    4.77    1.04
  23  -7  -4    5.81    0.40
 -23  -7   4    6.65    0.91
  23   7  -4    3.12    0.82
  23   7  -4    4.19    1.03
 -21  -7   4   17.05    1.27
 -21  -7   4   17.84    1.59
  21  -7  -4   18.96    1.51
  21  -7  -4   17.54    1.46
  21  -7  -4   18.54    0.71
  21  -7  -4   17.72    1.35
  21   7  -4   15.46    1.57
  21   7  -4   15.65    1.35
 -19  -7   4    7.07    1.05
  19  -7  -4    6.66    0.95
  19  -7  -4    6.98    0.95
  19  -7  -4    7.07    0.88
 -19  -7   4    7.74    0.87
  19  -7  -4    6.75    0.43
  19  -7  -4    6.58    0.96
  19   7  -4   13.08    1.19
  19   7  -4   12.70    1.47
  17  -7  -4    4.75    0.84
  17  -7  -4    6.52    0.79
 -17  -7   4    5.90    0.94
  17  -7  -4    5.73    0.36
 -17  -7   4    6.08    0.74
  17  -7  -4    5.20    0.84
  17  -7  -4    5.98    0.88
  17   7  -4    6.05    0.87
  17   7  -4    4.48    0.91
  15  -7  -4   43.81    1.97
  15  -7  -4   40.45    1.90
  15  -7  -4   43.88    1.70
 -15  -7   4   40.48    1.72
  15  -7  -4   41.50    1.93
  15  -7  -4   38.49    1.17
 -15  -7   4   41.84    1.99
  15   7  -4   39.78    2.04
  13  -7  -4   15.22    0.88
  13  -7  -4   13.01    1.13
  13  -7  -4   14.85    1.10
 -13  -7   4   12.08    0.94
  13  -7  -4   15.92    1.15
 -13  -7   4   15.81    1.18
  13   7  -4   11.74    1.23
  11  -7  -4   29.44    1.59
  11  -7  -4   29.12    1.13
  11  -7  -4   29.86    1.51
 -11  -7   4   28.22    1.53
 -11  -7   4   30.45    1.60
  11  -7  -4   28.33    1.45
 -11  -7   4   27.99    1.31
  11   7  -4   28.57    1.65
  -9  -7   4    0.54    0.37
   9  -7  -4    0.63    0.24
   9  -7  -4    0.92    0.50
   9  -7  -4    0.86    0.83
   9  -7  -4    0.59    0.45
   9  -7  -4    0.13    0.39
  -9  -7   4    1.34    0.49
  -9  -7   4   -0.40    0.39
  -9   7   4    2.03    0.49
   9   7  -4    1.33    0.58
  -7  -7   4  175.55    4.97
   7  -7  -4  173.97    5.22
  -7  -7   4  175.96    5.31
   7  -7  -4  173.28    4.56
   7  -7  -4  172.77    4.55
   7  -7  -4  167.69    5.11
  -7  -7   4  180.30    5.17
   7  -7  -4  175.49    5.35
   7   7  -4  158.13    4.87
  -7   7   4  163.25    4.73
   7   7  -4  157.29    4.97
   5  -7  -4   14.33    0.99
  -5  -7   4   14.30    0.87
   5  -7  -4   15.18    1.13
  -5  -7   4   15.37    0.97
   5  -7  -4   15.96    0.97
   5   7  -4   17.17    1.14
  -5   7   4   14.10    0.95
   5   7  -4   17.05    1.13
  -3  -7   4   24.76    1.19
   3  -7  -4   24.92    1.18
  -3  -7   4   23.71    1.11
   3  -7  -4   25.14    1.46
   3  -7  -4   25.19    1.30
   3   7  -4   25.66    1.41
  -3   7   4   27.75    1.31
   3   7  -4   28.15    1.44
  -1  -7   4   53.90    1.89
   1  -7  -4   52.05    1.86
  -1  -7   4   55.33    1.87
   1  -7  -4   55.15    2.06
   1  -7  -4   53.78    2.26
   1   7  -4   49.58    2.08
   1   7  -4   54.96    2.14
  -1   7   4   52.59    1.97
  -1  -7  -4    3.82    0.60
  -1  -7  -4    3.09    0.42
   1  -7   4    2.91    0.45
  -1  -7  -4    2.17    0.58
  -1  -7  -4    2.67    0.62
   1  -7   4    3.12    0.46
  -1   7  -4    2.70    0.56
  -1   7  -4    2.76    0.62
   1   7   4    2.44    0.53
  -1   7  -4    2.16    0.53
  -3  -7  -4   84.80    3.03
   3  -7   4   82.32    2.51
  -3  -7  -4   84.03    2.78
   3  -7   4   80.33    2.57
  -3  -7  -4   77.73    2.41
  -3  -7  -4   83.96    2.90
  -3   7  -4   81.58    2.92
   3   7   4   86.84    2.84
  -3   7  -4   78.22    2.91
   5  -7   4   11.22    0.88
  -5  -7  -4   10.03    0.96
  -5  -7  -4    9.80    0.53
  -5  -7  -4    9.43    1.03
   5  -7   4    9.94    0.63
   5  -7   4   10.40    0.74
  -5  -7  -4    9.57    0.88
  -5   7  -4   17.14    1.18
  -5   7  -4   17.05    0.77
  -5   7  -4   15.57    1.24
   7  -7   4    7.12    0.69
   7  -7   4    7.94    0.68
  -7  -7  -4    6.40    0.90
   7  -7   4    7.44    0.51
  -7  -7  -4    7.21    0.32
  -7  -7  -4    7.33    0.90
  -7  -7  -4    8.04    0.35
  -7  -7  -4    7.70    0.36
  -7  -7  -4    5.15    0.70
  -7   7  -4    9.63    0.99
  -7   7  -4    7.86    0.57
   7   7   4    9.03    0.46
  -9  -7  -4   99.54    2.75
  -9  -7  -4  101.45    3.31
   9  -7   4  105.72    2.86
  -9  -7  -4  102.60    3.51
   9  -7   4  104.66    3.14
  -9  -7  -4  105.86    3.68
   9  -7   4  105.81    3.21
  -9  -7  -4   96.28    2.75
  -9   7  -4   90.94    2.72
   9   7   4   91.48    2.63
  -9   7  -4   90.96    3.19
 -11  -7  -4   25.76    1.52
 -11  -7  -4   27.45    1.64
  11  -7   4   25.44    1.22
  11  -7   4   25.13    0.82
 -11  -7  -4   23.48    1.28
 -11  -7  -4   25.75    0.88
  11  -7   4   29.50    1.23
 -11  -7  -4   23.60    0.87
  11   7   4   36.24    1.32
 -11   7  -4   35.78    1.75
 -13  -7  -4    2.35    0.72
 -13  -7  -4    4.10    0.37
  13  -7   4    4.28    0.60
 -13  -7  -4    3.94    0.38
  13  -7   4    4.20    0.57
 -13  -7  -4    5.55    0.93
 -13  -7  -4    4.17    0.67
  13   7   4    5.34    0.54
 -13   7  -4    3.67    0.69
  15  -7   4   87.39    2.83
 -15  -7  -4   89.02    2.97
 -15  -7  -4   86.53    3.45
 -15  -7  -4   87.27    3.29
  15  -7   4   85.84    2.82
 -15  -7  -4   87.92    2.55
 -15   7  -4   83.48    3.11
  15   7   4   87.25    2.72
 -17  -7  -4    8.33    0.87
 -17  -7  -4    6.67    1.10
  17  -7   4    8.26    0.77
  17  -7   4    7.84    0.91
 -17  -7  -4    6.74    1.05
 -17  -7  -4    6.64    0.55
  17  -7   4    6.09    0.70
  17   7   4    5.72    0.67
 -17   7  -4    4.99    0.88
 -19  -7  -4   12.04    1.02
 -19  -7  -4   12.17    0.77
 -19  -7  -4   11.30    1.26
  19  -7   4   13.72    1.12
  19  -7   4   11.20    0.90
 -19  -7  -4   13.79    1.52
  19  -7   4   12.84    0.93
  19   7   4   12.32    0.97
 -19   7  -4    8.67    1.06
  21  -7   4   13.69    1.07
 -21  -7  -4   14.72    0.90
  21  -7   4   14.81    1.00
 -21  -7  -4   17.39    1.64
  21  -7   4   16.52    1.21
 -21  -7  -4   15.24    1.66
  21   7   4   13.63    1.11
 -21   7  -4   16.49    1.47
 -23  -7  -4    3.95    1.02
  23  -7   4    1.91    0.59
  23  -7   4    2.50    0.73
 -23  -7  -4    2.43    0.97
 -23  -7  -4    2.37    0.49
  23   7   4    1.76    0.63
 -23   7  -4    1.68    0.81
  25  -7   4    6.41    0.85
  25  -7   4    5.30    0.89
 -25  -7  -4    5.96    0.66
 -25  -7  -4    6.42    1.24
 -25  -7  -4    6.70    1.31
 -25   7  -4    3.98    1.00
  25   7   4    3.15    0.77
 -27  -7  -4    3.37    0.59
  27  -7   4    3.42    0.91
 -27  -7  -4    3.84    1.30
  27  -7   4    2.67    0.74
 -27  -7  -4    4.65    1.19
 -27   7  -4    5.23    1.22
  27   7   4    4.95    0.93
 -29  -7  -4    0.37    1.08
  29  -7   4    0.51    0.63
 -29  -7  -4    0.91    0.51
 -29  -7  -4    1.27    1.09
  29  -7   4    1.53    0.77
  29   7   4    1.41    0.78
 -31  -7  -4    0.51    0.48
  31  -7   4   -0.67    0.63
  31  -7   4    0.10    0.75
 -31  -7  -4    0.59    1.08
  31   7   4    0.74    0.75
 -33  -7  -4    4.06    0.63
  33  -7   4    4.53    1.00
  33  -7   4    5.99    1.19
 -33  -7  -4    6.20    1.60
  33  -7   4    5.63    0.94
  33   7   4    7.97    1.24
 -32  -8   4    4.01    1.07
  32  -8  -4    3.10    1.02
  32   8  -4    5.84    1.52
 -30  -8   4    1.26    1.07
  30  -8  -4    3.36    1.06
 -30  -8   4    1.08    0.88
  30  -8  -4   -0.12    0.84
  30   8  -4    5.44    1.43
  28  -8  -4   11.71    1.42
 -28  -8   4   11.92    1.33
 -28  -8   4   12.78    1.64
  28  -8  -4   12.83    1.52
  28   8  -4   12.88    1.72
  26  -8  -4    9.80    1.26
 -26  -8   4    7.60    1.34
  26  -8  -4   11.21    1.39
 -26  -8   4   10.87    1.24
  26   8  -4   14.98    1.84
  26   8  -4   13.56    1.90
 -24  -8   4    5.28    1.12
 -24  -8   4    6.26    0.98
  24  -8  -4    8.48    1.15
  24  -8  -4    7.42    1.16
  24   8  -4    5.67    1.30
  22  -8  -4    6.46    1.06
 -22  -8   4    4.76    0.88
  22  -8  -4    5.58    0.39
  22  -8  -4    4.67    0.98
 -22  -8   4    5.50    1.10
  22   8  -4    5.40    1.18
 -20  -8   4   16.84    1.55
  20  -8  -4   17.25    1.49
  20  -8  -4   17.04    0.65
  20  -8  -4   16.08    1.42
  20  -8  -4   20.04    2.15
 -20  -8   4   17.94    1.34
  20  -8  -4   16.88    1.43
  20   8  -4   19.34    1.82
 -18  -8   4   17.69    1.32
  18  -8  -4   17.61    1.46
  18  -8  -4   15.71    1.38
  18  -8  -4   14.95    1.32
  18  -8  -4   16.58    0.62
  18  -8  -4   12.82    1.24
 -18  -8   4   17.98    1.52
  18   8  -4   16.54    1.58
 -16  -8   4    4.77    0.89
  16  -8  -4    6.03    0.72
  16  -8  -4    6.57    0.91
  16  -8  -4    7.26    0.98
  16  -8  -4    5.99    0.38
 -16  -8   4    7.44    0.87
  16  -8  -4    6.14    0.92
  16   8  -4   10.18    1.24
 -14  -8   4    2.65    0.62
  14  -8  -4    2.72    0.73
  14  -8  -4    2.43    0.74
  14  -8  -4    2.68    0.24
  14  -8  -4    1.70    0.63
  14  -8  -4    2.63    0.51
  14  -8  -4    3.37    0.26
 -14  -8   4    2.71    0.72
  14   8  -4    3.74    0.83
  12  -8  -4   44.69    2.08
  12  -8  -4   48.91    2.06
  12  -8  -4   45.47    1.79
 -12  -8   4   48.92    2.17
 -12  -8   4   46.74    1.88
  12  -8  -4   43.49    2.02
  12   8  -4   53.39    2.39
  10  -8  -4   22.02    1.42
 -10  -8   4   24.78    1.30
  10  -8  -4   26.74    1.46
 -10  -8   4   24.69    1.43
  10  -8  -4   23.87    1.36
  10   8  -4   28.61    1.64
  -8  -8   4   12.73    0.93
   8  -8  -4    8.95    0.98
   8  -8  -4    9.82    0.93
   8  -8  -4   10.50    1.10
  -8  -8   4   13.06    1.14
   8   8  -4   15.49    1.19
  -6  -8   4   37.07    1.67
   6  -8  -4   33.74    1.60
  -6  -8   4   34.73    1.51
   6  -8  -4   38.26    1.72
   6  -8  -4   37.56    1.87
   6   8  -4   32.11    1.66
  -4  -8   4    2.90    0.50
   4  -8  -4    3.05    0.76
   4  -8  -4    3.48    0.59
  -4  -8   4    3.20    0.59
   4  -8  -4    4.32    0.71
   4   8  -4    3.09    0.67
   2  -8  -4   81.85    2.69
   2  -8  -4   78.75    3.05
   2  -8  -4   82.56    2.90
  -2  -8   4   83.98    2.69
  -2  -8   4   83.61    2.75
   2   8  -4   82.23    2.99
   0  -8   4   10.68    0.83
   0  -8   4   11.25    0.82
   0  -8  -4    8.65    1.02
   0  -8  -4    9.22    0.92
   0  -8  -4    8.84    0.74
   0   8  -4    6.21    0.80
   0   8  -4    8.11    1.00
   2  -8   4   36.64    1.46
  -2  -8  -4   33.61    1.75
  -2  -8  -4   38.13    1.69
   2  -8   4   36.66    1.49
  -2  -8  -4   34.86    1.37
  -2  -8  -4   38.80    1.91
   2  -8   4   35.05    1.59
  -2   8  -4   29.59    1.65
  -2   8  -4   29.89    1.55
  -4  -8  -4   49.60    2.10
   4  -8   4   45.61    1.84
   4  -8   4   46.79    1.67
  -4  -8  -4   47.02    1.96
  -4  -8  -4   44.73    1.28
  -4  -8  -4   43.65    1.28
  -4  -8  -4   48.74    1.56
   4  -8   4   43.84    1.72
  -4  -8  -4   46.10    2.16
  -4   8  -4   47.03    2.13
   6  -8   4   13.79    0.78
  -6  -8  -4   12.76    0.52
  -6  -8  -4   13.51    1.13
  -6  -8  -4   14.36    1.30
   6  -8   4   12.72    0.94
  -6  -8  -4   13.16    1.14
  -6  -8  -4   13.26    0.52
   6  -8   4   13.82    0.91
  -6  -8  -4   13.00    0.63
  -6   8  -4   16.38    1.32
  -8  -8  -4   17.72    1.21
   8  -8   4   17.27    1.01
  -8  -8  -4   16.91    0.65
  -8  -8  -4   16.32    0.64
   8  -8   4   16.04    1.02
  -8  -8  -4   17.94    1.53
   8  -8   4   16.93    0.82
  -8  -8  -4   16.16    1.24
  -8   8  -4   17.65    1.32
 -10  -8  -4   10.32    0.52
 -10  -8  -4    9.32    1.06
  10  -8   4   10.62    0.85
 -10  -8  -4    9.29    0.52
  10  -8   4    8.89    0.85
 -10  -8  -4    9.60    0.98
 -10  -8  -4   10.92    1.23
  10   8   4    6.33    0.52
 -10   8  -4    4.88    0.77
 -12  -8  -4    5.09    0.86
 -12  -8  -4    4.64    1.00
 -12  -8  -4    5.30    0.79
  12  -8   4    5.34    0.68
  12  -8   4    4.08    0.59
 -12  -8  -4    5.72    0.44
  12   8   4    6.07    0.59
 -12   8  -4    6.45    0.91
 -14  -8  -4   28.28    1.75
 -14  -8  -4   22.44    0.96
 -14  -8  -4   25.34    1.45
  14  -8   4   24.90    1.27
  14  -8   4   24.22    1.28
 -14  -8  -4   23.65    1.74
 -14   8  -4   19.81    1.39
  14   8   4   21.05    1.06
  16  -8   4    3.11    0.61
  16  -8   4    3.37    0.60
 -16  -8  -4    3.79    0.45
  16  -8   4    4.36    0.74
 -16  -8  -4    3.49    0.72
 -16  -8  -4    4.13    0.90
 -16  -8  -4    4.69    1.09
 -16   8  -4    0.70    0.60
  16   8   4    1.02    0.46
 -18  -8  -4   22.05    1.00
 -18  -8  -4   22.03    1.40
 -18  -8  -4   22.15    1.66
  18  -8   4   22.13    1.24
  18  -8   4   21.90    1.26
 -18  -8  -4   22.33    1.93
  18  -8   4   21.47    1.38
  18   8   4   23.93    1.31
 -18   8  -4   24.39    1.66
  20  -8   4    8.10    0.99
  20  -8   4    9.38    0.90
 -20  -8  -4   11.36    1.44
 -20  -8  -4    8.96    0.69
  20  -8   4    7.69    0.84
 -20  -8  -4    9.37    1.50
 -20   8  -4   11.14    1.28
  20   8   4   11.85    1.05
 -22  -8  -4    8.92    0.72
  22  -8   4    7.75    1.08
  22  -8   4   10.55    1.08
  22  -8   4   10.01    0.98
 -22  -8  -4   11.45    1.67
 -22  -8  -4    7.75    1.28
 -22   8  -4   10.68    1.29
  22   8   4   11.51    1.09
 -24  -8  -4    0.90    0.99
 -24  -8  -4    1.06    0.44
  24  -8   4    2.40    0.78
  24  -8   4    1.51    0.62
 -24  -8  -4    2.10    1.01
 -24   8  -4    1.05    0.89
  24   8   4    0.44    0.61
 -26  -8  -4   -0.54    0.92
  26  -8   4    1.12    0.81
 -26  -8  -4    0.76    1.02
 -26  -8  -4    0.76    0.46
  26  -8   4   -0.10    0.58
 -28  -8  -4    5.29    0.65
 -28  -8  -4    5.17    1.38
  28  -8   4    5.74    1.12
  28  -8   4    5.15    0.89
 -28  -8  -4    6.76    1.55
  30  -8   4    8.01    1.00
  30  -8   4    8.52    1.20
 -30  -8  -4    9.09    1.80
 -30  -8  -4    7.72    0.72
  32  -8   4    0.51    0.71
  32  -8   4   -0.29    0.73
 -32  -8  -4    0.44    0.57
  32  -8   4    0.57    0.81
 -32  -8  -4   -1.47    1.20
  31  -9  -4    0.47    0.89
 -31  -9   4   -0.07    0.85
  31   9  -4    1.75    1.26
 -29  -9   4    3.65    1.24
  29  -9  -4    3.92    1.09
 -29  -9   4    3.00    1.02
  29  -9  -4    1.50    0.98
  29   9  -4    1.87    1.26
 -27  -9   4    0.21    1.07
 -27  -9   4   -0.15    0.80
  27  -9  -4    0.68    0.97
  27  -9  -4   -0.33    0.82
  27   9  -4    3.00    1.25
 -25  -9   4   12.51    1.35
  25  -9  -4   11.90    1.44
  25  -9  -4   14.43    1.53
 -25  -9   4    9.03    1.49
  25   9  -4   12.30    1.71
  23  -9  -4    3.80    0.98
 -23  -9   4    1.97    1.11
  23  -9  -4    1.40    0.88
 -23  -9   4    1.38    0.79
  23   9  -4    2.83    1.01
  21  -9  -4    7.16    1.15
 -21  -9   4    6.10    0.94
  21  -9  -4    7.23    1.15
 -21  -9   4    5.79    1.17
  21  -9  -4    4.88    0.97
  21   9  -4    5.96    1.22
 -19  -9   4   16.61    1.67
 -19  -9   4   15.50    1.30
  19  -9  -4   19.71    1.61
  19  -9  -4   15.60    1.49
  19  -9  -4   17.68    1.52
  19   9  -4   13.25    1.56
 -17  -9   4    8.71    1.19
  17  -9  -4   10.71    1.24
 -17  -9   4    8.81    1.01
  17  -9  -4    9.62    1.15
  17  -9  -4    8.30    1.08
  17   9  -4    7.84    1.19
  15  -9  -4    5.84    0.99
  15  -9  -4    6.58    1.00
  15  -9  -4    5.54    0.92
 -15  -9   4    6.38    0.91
 -15  -9   4    5.89    1.01
  15   9  -4    6.27    1.08
  13  -9  -4   10.32    1.19
  13  -9  -4   12.58    1.23
  13  -9  -4   12.97    1.27
 -13  -9   4   12.07    1.32
 -13  -9   4   11.97    1.07
  13   9  -4   13.05    1.34
  11  -9  -4    1.44    0.64
 -11  -9   4    1.87    0.73
  11  -9  -4    1.22    0.71
  11  -9  -4    2.05    0.70
  11  -9  -4    2.02    0.22
 -11  -9   4    2.12    0.58
  11   9  -4    1.89    0.77
  -9  -9   4   24.12    1.45
   9  -9  -4   24.02    1.48
   9  -9  -4   23.05    1.44
   9  -9  -4   22.90    1.51
  -9  -9   4   24.49    1.34
   9   9  -4   25.73    1.65
   7  -9  -4    1.97    0.70
   7  -9  -4    0.77    0.54
  -7  -9   4    2.95    0.70
  -7  -9   4    1.33    0.51
   7  -9  -4    1.45    0.59
   7   9  -4    5.62    0.86
   5  -9  -4    1.25    0.59
   5  -9  -4    0.35    0.50
   5  -9  -4    0.79    0.61
  -5  -9   4    1.85    0.56
  -5  -9   4    1.05    0.48
   5   9  -4    0.80    0.58
   3  -9  -4   17.51    1.24
  -3  -9   4   18.69    1.14
  -3  -9   4   17.19    1.16
   3  -9  -4   18.94    0.60
   3  -9  -4   20.64    1.44
   3  -9  -4   17.88    1.12
   3   9  -4   12.71    1.20
   1  -9  -4   34.68    1.02
   1  -9  -4   33.85    1.51
   1  -9  -4   37.10    1.93
   1  -9  -4   34.97    1.78
  -1  -9   4   36.23    1.56
   1  -9  -4   33.97    1.02
  -1  -9   4   35.70    1.58
   1   9  -4   31.57    1.65
   1   9  -4   27.64    1.70
  -1  -9  -4    0.49    0.40
   1  -9   4    0.56    0.51
  -1  -9  -4    0.55    0.17
  -1  -9  -4    0.27    0.59
  -1  -9  -4    0.32    0.16
   1  -9   4    0.09    0.38
  -1  -9  -4    0.82    0.54
   1  -9   4    0.62    0.45
  -1   9  -4    0.08    0.57
  -1   9  -4    0.61    0.54
   3  -9   4    2.23    0.50
   3  -9   4    2.19    0.51
  -3  -9  -4    2.29    0.25
  -3  -9  -4    1.47    0.40
  -3  -9  -4    0.93    0.64
  -3  -9  -4    2.14    0.25
   3  -9   4    2.08    0.67
  -3  -9  -4    1.86    0.67
  -3  -9  -4    2.30    0.74
  -3   9  -4    0.62    0.62
  -5  -9  -4   45.23    2.26
  -5  -9  -4   45.28    2.17
   5  -9   4   46.35    1.80
   5  -9   4   45.34    1.69
  -5  -9  -4   42.72    1.33
  -5  -9  -4   44.41    1.33
  -5  -9  -4   44.13    2.02
  -5  -9  -4   43.78    1.54
   5  -9   4   45.45    1.94
  -5   9  -4   46.45    2.21
  -7  -9  -4    6.69    0.88
  -7  -9  -4    8.29    1.05
   7  -9   4    5.90    0.69
  -7  -9  -4    7.05    0.46
   7  -9   4    6.76    0.83
   7  -9   4    7.40    0.65
  -7  -9  -4    7.75    1.11
  -7  -9  -4    7.06    0.45
  -7   9  -4    8.22    1.06
   9  -9   4    1.34    0.48
   9  -9   4    1.95    0.61
  -9  -9  -4    2.06    0.79
  -9  -9  -4    1.05    0.72
  -9  -9  -4    1.64    0.60
  -9  -9  -4    1.49    0.29
  -9   9  -4    0.55    0.63
 -11  -9  -4   17.14    0.76
 -11  -9  -4   14.13    1.52
  11  -9   4   18.60    1.15
 -11  -9  -4   17.74    1.59
 -11  -9  -4   18.89    1.35
  11  -9   4   17.37    1.12
 -11   9  -4   21.33    1.48
 -13  -9  -4    1.35    0.34
 -13  -9  -4    1.33    0.65
  13  -9   4    1.99    0.55
 -13  -9  -4    0.74    0.76
 -13  -9  -4   -0.36    0.75
  13  -9   4    0.96    0.54
 -13   9  -4   -0.20    0.61
 -15  -9  -4    8.02    1.18
  15  -9   4    9.33    0.90
 -15  -9  -4    8.14    0.60
  15  -9   4    8.04    0.92
 -15  -9  -4    7.80    1.01
 -15  -9  -4    7.74    1.35
 -15   9  -4    8.44    1.11
 -17  -9  -4    6.65    1.33
 -17  -9  -4    6.10    1.18
 -17  -9  -4    6.12    0.56
  17  -9   4    3.77    0.80
  17  -9   4    6.18    0.79
  17  -9   4    6.65    0.85
 -17  -9  -4    6.59    0.96
 -17   9  -4    6.05    1.04
 -19  -9  -4    0.86    1.04
  19  -9   4    1.76    0.63
  19  -9   4    1.56    0.61
 -19  -9  -4    2.82    1.02
 -19  -9  -4    2.24    0.44
 -19  -9  -4    1.89    0.73
  19  -9   4    1.54    0.75
 -19   9  -4    1.07    0.74
  21  -9   4   12.65    1.10
  21  -9   4   11.50    1.03
  21  -9   4   10.48    1.19
 -21  -9  -4   13.93    0.88
 -21  -9  -4   13.33    1.65
 -21  -9  -4   13.30    1.83
 -21   9  -4   13.70    1.46
 -23  -9  -4    2.26    0.48
  23  -9   4    3.46    0.84
 -23  -9  -4    2.00    1.06
  23  -9   4    2.16    0.69
 -23  -9  -4    1.19    1.20
  25  -9   4    2.14    0.69
  25  -9   4    1.18    0.76
 -25  -9  -4   -0.49    0.95
 -25  -9  -4    2.10    1.29
 -25  -9  -4    3.01    0.52
  27  -9   4    7.73    0.95
 -27  -9  -4   11.20    2.63
 -27  -9  -4    8.94    1.84
  27  -9   4   11.61    1.38
 -27  -9  -4    8.43    0.71
  29  -9   4   11.22    1.16
 -29  -9  -4   12.02    1.91
  29  -9   4   13.48    1.47
 -29  -9  -4   10.68    0.86
  28 -10  -4    2.02    0.92
  28 -10  -4    2.49    1.19
 -28 -10   4    3.62    1.02
  28  10  -4    1.98    1.28
  26 -10  -4    6.84    1.36
 -26 -10   4    6.43    1.43
 -26 -10   4    5.35    1.08
  26 -10  -4    7.29    1.34
  26  10  -4    9.25    1.68
  24 -10  -4    9.81    1.43
  24 -10  -4   10.60    1.42
 -24 -10   4   10.98    1.59
 -24 -10   4    8.08    1.16
  24  10  -4    8.12    1.49
  22 -10  -4    3.29    1.04
 -22 -10   4    2.90    1.21
 -22 -10   4    2.52    0.88
  22 -10  -4    2.45    1.00
  22 -10  -4    1.42    0.84
  22  10  -4    1.99    1.00
 -20 -10   4    3.99    1.12
  20 -10  -4    6.37    1.07
  20 -10  -4    4.91    1.10
  20 -10  -4    5.00    1.10
 -20 -10   4    3.69    0.88
  20  10  -4    6.40    1.29
  18 -10  -4   14.48    1.46
 -18 -10   4   16.72    1.75
  18 -10  -4   16.64    1.59
 -18 -10   4   16.43    1.40
  18 -10  -4   16.24    1.50
  18  10  -4   17.21    1.77
  16 -10  -4    5.36    1.05
 -16 -10   4    6.75    0.95
  16 -10  -4    5.21    0.97
 -16 -10   4    7.57    1.26
  16 -10  -4    7.02    1.09
  16  10  -4    7.69    1.28
  14 -10  -4   10.27    1.24
 -14 -10   4    6.30    1.12
 -14 -10   4    8.04    1.01
  14 -10  -4    8.67    1.19
  14 -10  -4    8.51    1.08
  14  10  -4   13.06    1.45
 -12 -10   4   20.01    1.40
  12 -10  -4   23.30    1.58
  12 -10  -4   20.86    1.52
 -12 -10   4   21.09    1.56
  12 -10  -4   23.26    1.59
  12  10  -4   19.79    1.70
  10 -10  -4   10.13    1.14
  10 -10  -4    7.08    1.02
 -10 -10   4    7.59    0.90
  10 -10  -4    8.19    1.18
 -10 -10   4    8.54    1.04
  10  10  -4    9.28    1.19
  -8 -10   4   17.66    1.31
   8 -10  -4   17.42    1.56
   8 -10  -4   14.40    1.35
  -8 -10   4   14.99    1.16
   8 -10  -4   18.08    1.32
   8  10  -4   14.03    1.38
   6 -10  -4    2.29    0.35
  -6 -10   4    2.17    0.69
   6 -10  -4    2.74    0.72
   6 -10  -4    1.65    0.80
   6 -10  -4    2.37    0.67
  -6 -10   4    2.54    0.64
   6  10  -4    0.81    0.63
  -4 -10   4   18.77    1.24
   4 -10  -4   21.52    1.31
   4 -10  -4   17.25    1.42
   4 -10  -4   19.32    0.68
   4 -10  -4   20.76    0.79
  -4 -10   4   22.71    1.39
   4 -10  -4   22.43    1.59
   4  10  -4   21.86    1.80
   4  10  -4   19.38    1.42
  -2 -10   4   14.70    1.12
   2 -10  -4   13.20    1.30
   2 -10  -4   15.07    0.66
   2 -10  -4   15.50    1.17
   2 -10  -4   13.60    0.56
  -2 -10   4   14.39    1.12
   2 -10  -4   15.67    1.54
  -2 -10   4   12.03    1.15
   2  10  -4   16.19    1.58
   2  10  -4   17.49    1.32
   0 -10   4    0.67    0.52
   0 -10  -4    0.66    0.48
   0 -10   4    0.65    0.58
   0 -10   4    1.68    0.58
   0 -10  -4    0.69    0.74
   0 -10  -4    1.13    0.22
   0 -10  -4    1.11    0.61
   0  10  -4    2.64    0.71
   0  10  -4    2.06    0.75
  -2 -10  -4    2.26    0.27
  -2 -10  -4    2.17    0.53
  -2 -10  -4    1.88    0.68
   2 -10   4    2.07    0.58
   2 -10   4    3.71    0.80
   2 -10   4    2.30    0.60
  -2 -10  -4    2.51    0.92
  -2  10  -4    0.49    0.60
  -4 -10  -4   31.53    1.76
   4 -10   4   27.49    1.39
  -4 -10  -4   31.23    2.00
  -4 -10  -4   32.10    1.91
   4 -10   4   30.57    1.60
   4 -10   4   31.01    1.50
  -4 -10  -4   28.35    0.98
  -4  10  -4   32.57    1.94
  -6 -10  -4    1.05    0.27
  -6 -10  -4    1.62    0.74
   6 -10   4    0.52    0.60
  -6 -10  -4    1.24    0.81
  -6 -10  -4    0.50    0.55
   6 -10   4    1.22    0.52
  -6  10  -4    0.31    0.67
  -8 -10  -4    7.78    1.00
   8 -10   4    6.44    0.92
  -8 -10  -4    8.93    1.34
  -8 -10  -4    6.92    1.13
  -8 -10  -4    8.06    0.53
   8 -10   4    7.46    0.82
  -8  10  -4    8.29    1.19
  10 -10   4   23.59    1.36
 -10 -10  -4   24.32    1.64
 -10 -10  -4   23.38    1.88
 -10 -10  -4   26.33    1.99
 -10 -10  -4   23.37    0.93
  10 -10   4   21.61    1.42
 -10  10  -4   26.45    1.79
 -12 -10  -4    4.90    1.15
 -12 -10  -4    5.95    0.49
 -12 -10  -4    5.27    0.94
  12 -10   4    6.49    0.90
  12 -10   4    4.66    0.72
 -12 -10  -4    6.78    1.22
 -12  10  -4    3.96    0.90
  14 -10   4    9.67    1.07
 -14 -10  -4   10.52    1.49
 -14 -10  -4    9.53    0.66
 -14 -10  -4   12.11    1.28
  14 -10   4   10.83    1.03
 -14 -10  -4   10.45    1.34
 -14  10  -4    9.83    1.28
  16 -10   4    6.78    0.97
  16 -10   4    9.51    1.05
 -16 -10  -4    9.30    1.43
  16 -10   4    7.94    0.90
 -16 -10  -4    9.64    1.54
 -16 -10  -4    7.68    0.60
 -16 -10  -4    8.14    1.11
 -16  10  -4    6.95    1.11
 -18 -10  -4    0.20    0.83
  18 -10   4   -1.25    0.55
 -18 -10  -4    0.08    0.34
  18 -10   4   -0.31    0.60
 -18 -10  -4    2.82    1.20
 -18 -10  -4    0.46    0.75
  18 -10   4    0.79    0.62
 -18  10  -4   -0.70    0.67
  20 -10   4   12.55    1.18
  20 -10   4   10.58    1.18
 -20 -10  -4   11.66    0.79
 -20 -10  -4   10.67    1.66
 -20 -10  -4   11.70    1.65
  20 -10   4   12.55    1.11
  22 -10   4    1.99    0.68
 -22 -10  -4    2.67    0.48
 -22 -10  -4   -0.01    1.05
 -22 -10  -4    1.69    1.23
  22 -10   4    3.49    0.90
 -24 -10  -4    1.39    1.17
  24 -10   4    1.43    0.70
 -24 -10  -4    1.62    1.15
 -24 -10  -4    1.10    0.42
  24 -10   4    1.37    0.85
 -26 -10  -4   17.44    2.28
  26 -10   4   19.21    1.67
 -26 -10  -4   19.52    1.29
  26 -10   4   18.13    1.41
  28 -10   4    1.04    0.75
 -28 -10  -4    3.24    1.56
 -27 -11   4    8.06    1.60
  27 -11  -4    4.09    1.39
  27  11  -4    6.20    1.53
 -25 -11   4    2.52    0.99
 -25 -11   4    1.84    1.14
  25 -11  -4    1.97    1.14
  25 -11  -4    1.57    1.01
  25  11  -4    0.35    1.04
 -23 -11   4    3.81    1.01
  23 -11  -4    3.05    1.11
  23 -11  -4    4.84    1.23
 -23 -11   4    4.32    1.36
  23  11  -4    5.60    1.30
 -21 -11   4    3.04    0.95
 -21 -11   4    2.77    1.10
  21 -11  -4    1.55    0.88
  21 -11  -4    2.94    1.06
  21 -11  -4    2.40    1.01
  21  11  -4    3.77    1.20
  19 -11  -4    3.82    1.11
 -19 -11   4    2.61    1.16
 -19 -11   4    4.75    0.98
  19 -11  -4    2.85    0.95
  19 -11  -4    4.30    1.03
  19  11  -4    5.92    1.28
  17 -11  -4    6.39    1.11
 -17 -11   4    7.98    1.12
 -17 -11   4    5.38    1.23
  17 -11  -4    3.59    0.97
  17 -11  -4    5.23    1.06
  17  11  -4    9.10    1.36
  15 -11  -4    2.25    0.82
  15 -11  -4    2.89    0.93
  15 -11  -4    2.06    0.86
 -15 -11   4    2.54    0.79
 -15 -11   4    2.25    0.94
  15  11  -4    1.92    0.95
 -13 -11   4    6.38    1.19
  13 -11  -4    8.76    1.22
  13 -11  -4   11.12    1.38
  13 -11  -4    9.90    1.22
 -13 -11   4   10.24    1.15
  13  11  -4    9.67    1.29
  11 -11  -4    0.65    0.76
  11 -11  -4    1.35    0.84
 -11 -11   4    0.95    0.78
  11 -11  -4    0.51    0.74
 -11 -11   4    0.96    0.66
  11  11  -4    1.55    0.81
   9 -11  -4    5.17    1.00
  -9 -11   4    3.90    0.81
   9 -11  -4    4.57    0.92
   9 -11  -4    5.38    1.04
  -9 -11   4    3.90    0.88
   9  11  -4    3.19    0.94
  -7 -11   4    8.29    1.13
  -7 -11   4    8.22    0.97
  -7 -11   4    9.67    1.23
   7 -11  -4   10.26    1.21
   7 -11  -4    7.17    0.98
   7 -11  -4    7.96    1.24
   7  11  -4   10.85    1.25
   5 -11  -4    7.23    1.09
   5 -11  -4    6.52    0.92
   5 -11  -4    6.13    1.06
  -5 -11   4    5.87    0.98
  -5 -11   4    8.29    0.98
  -5 -11   4    6.66    0.98
   5  11  -4    7.40    1.04
   5  11  -4    4.91    1.15
  -3 -11   4    4.01    0.76
   3 -11  -4    3.18    0.90
   3 -11  -4    6.00    0.84
   3 -11  -4    3.93    0.86
  -3 -11   4    2.80    0.87
  -3 -11   4    4.68    0.85
   3  11  -4    4.95    0.89
   3  11  -4    3.62    0.96
  -1 -11   4   22.77    1.41
   1 -11  -4   23.13    1.94
   1 -11  -4   23.61    0.80
  -1 -11   4   21.85    1.52
   1 -11  -4   21.88    1.36
   1 -11  -4   22.30    1.58
  -1 -11   4   27.34    1.56
   1  11  -4   27.79    1.96
  -1 -11  -4    0.27    0.21
  -1 -11  -4    0.90    0.84
   1 -11   4    0.62    0.65
   1 -11   4    0.06    0.55
  -1 -11  -4    1.04    0.70
   1 -11   4    0.58    0.55
  -1  11  -4   -0.67    0.67
  -3 -11  -4   11.24    1.31
   3 -11   4   11.81    1.06
   3 -11   4   12.17    1.25
  -3 -11  -4    9.95    1.36
  -3 -11  -4   10.36    0.54
   3 -11   4   10.09    1.16
  -3  11  -4   11.92    1.36
  -5 -11  -4    0.99    0.27
   5 -11   4    1.24    0.71
  -5 -11  -4    0.30    0.74
  -5 -11  -4   -0.02    0.86
  -5 -11  -4    0.75    0.75
   5 -11   4    0.35    0.55
  -5  11  -4    2.24    0.84
  -7 -11  -4    5.58    1.03
  -7 -11  -4    5.76    0.44
  -7 -11  -4    6.86    1.21
  -7 -11  -4    5.25    1.15
   7 -11   4    6.02    0.82
   7 -11   4    3.38    0.78
  -7  11  -4    9.07    1.30
   9 -11   4   21.17    1.49
   9 -11   4   20.91    1.36
  -9 -11  -4   19.51    0.83
  -9 -11  -4   19.52    1.65
  -9 -11  -4   19.10    1.76
  -9 -11  -4   22.32    2.01
  -9  11  -4   19.77    1.72
 -11 -11  -4    2.44    1.12
 -11 -11  -4    3.01    0.92
 -11 -11  -4    2.02    0.35
 -11 -11  -4    0.57    0.84
  11 -11   4    1.88    0.67
  11 -11   4    2.17    0.77
 -11  11  -4    2.38    0.89
 -13 -11  -4    3.19    0.91
  13 -11   4    3.18    0.83
 -13 -11  -4    3.13    0.41
 -13 -11  -4    3.01    1.08
 -13 -11  -4    5.44    1.29
  13 -11   4    2.93    0.72
 -13  11  -4    3.00    1.00
 -15 -11  -4    7.03    1.44
  15 -11   4    6.78    0.89
  15 -11   4    6.90    0.97
  15 -11   4    7.14    1.06
 -15 -11  -4   10.47    1.61
 -15 -11  -4    6.02    0.53
 -15 -11  -4    6.50    1.13
 -15  11  -4    6.11    1.18
  17 -11   4    0.78    0.80
  17 -11   4    2.24    0.79
 -17 -11  -4    3.47    0.98
 -17 -11  -4    3.17    1.07
 -17 -11  -4    2.98    0.42
  17 -11   4    1.28    0.69
 -17 -11  -4    1.66    1.08
 -19 -11  -4    2.60    0.42
 -19 -11  -4    3.06    1.24
  19 -11   4    1.88    0.82
  19 -11   4    2.28    0.79
  19 -11   4    2.93    0.74
 -19 -11  -4    3.14    1.26
 -21 -11  -4    8.27    1.65
  21 -11   4    7.19    1.13
 -21 -11  -4    5.68    0.55
 -21 -11  -4    7.80    1.49
  21 -11   4    6.14    1.10
  21 -11   4    7.95    1.02
  23 -11   4   10.83    1.13
 -23 -11  -4   12.58    2.02
  23 -11   4   10.52    1.40
  25 -11   4    5.26    0.93
 -25 -11  -4    3.44    1.44
 -24 -12   4    3.01    1.24
  22 -12  -4    5.62    1.32
 -22 -12   4    3.02    1.20
  22 -12  -4    2.20    1.04
 -22 -12   4    3.74    1.04
  20 -12  -4    4.35    1.54
 -20 -12   4    3.83    1.24
  20 -12  -4    4.15    1.18
 -20 -12   4    4.62    1.05
  20 -12  -4    5.76    1.29
 -18 -12   4    4.06    1.24
  18 -12  -4    6.99    1.24
  18 -12  -4    4.76    1.20
 -18 -12   4    6.40    1.09
  18 -12  -4    6.29    1.16
  18  12  -4    5.51    1.43
  16 -12  -4    6.74    1.21
 -16 -12   4    5.38    1.18
  16 -12  -4    4.95    1.12
 -16 -12   4    7.42    1.15
  16 -12  -4    4.50    1.07
  16  12  -4    5.53    1.25
 -14 -12   4    5.21    0.99
 -14 -12   4    5.96    1.18
  14 -12  -4    4.14    1.08
  14 -12  -4    5.22    1.11
  14 -12  -4    6.14    1.21
  14  12  -4    6.51    1.21
 -12 -12   4    1.29    0.77
  12 -12  -4   -0.68    0.72
 -12 -12   4    0.51    0.81
  12 -12  -4    0.30    0.87
 -12 -12   4    0.50    0.90
  12 -12  -4    1.02    0.82
  12  12  -4   -0.06    0.83
 -10 -12   4    3.77    1.08
  10 -12  -4    2.67    0.92
 -10 -12   4    1.36    0.92
  10 -12  -4    1.77    0.85
 -10 -12   4    2.49    0.80
  10 -12  -4    1.96    0.87
  10  12  -4    3.16    0.96
   8 -12  -4   -0.09    0.82
   8 -12  -4    3.07    0.87
  -8 -12   4    3.51    0.98
   8 -12  -4    1.97    0.92
  -8 -12   4    2.01    0.95
  -8 -12   4    1.32    0.73
   8  12  -4    1.98    0.87
   6 -12  -4    6.42    1.08
  -6 -12   4    4.65    0.88
  -6 -12   4    4.88    1.02
   6 -12  -4    7.83    1.29
   6 -12  -4    6.05    0.99
  -6 -12   4    6.26    1.14
   6  12  -4    4.22    0.99
   6  12  -4    5.49    1.26
  -4 -12   4    9.08    1.21
  -4 -12   4   11.59    1.15
   4 -12  -4   14.00    1.27
   4 -12  -4   10.59    1.39
  -4 -12   4   10.74    1.23
   4 -12  -4   10.74    1.32
   4  12  -4   13.37    1.63
   4  12  -4   12.51    1.34
  -2 -12   4   11.85    1.31
   2 -12  -4   10.73    1.31
  -2 -12   4   10.21    1.07
  -2 -12   4    9.73    1.17
   2 -12  -4   11.68    1.52
   2  12  -4    6.27    1.23
   0 -12   4    3.12    0.82
   0 -12  -4    2.25    0.93
   0 -12   4    2.12    0.74
   0 -12   4    2.94    0.83
   0 -12  -4    2.72    1.06
   0  12  -4    1.57    0.88
   2 -12   4   10.99    1.28
  -2 -12  -4    6.61    1.25
  -2 -12  -4   10.07    1.26
   2 -12   4    7.50    0.95
  -2  12  -4    7.06    1.30
   4 -12   4    7.20    1.05
   4 -12   4    9.56    1.04
  -4 -12  -4    6.30    1.25
  -4 -12  -4    7.59    1.15
  -4  12  -4    8.42    1.30
  -6 -12  -4    3.22    0.91
  -6 -12  -4    1.84    0.29
   6 -12   4    1.88    0.84
  -6 -12  -4    0.69    1.02
   6 -12   4    1.81    0.70
  -6  12  -4    1.86    1.00
  -8 -12  -4    5.04    1.30
  -8 -12  -4    5.12    0.39
  -8 -12  -4    4.04    1.17
   8 -12   4    6.01    1.05
   8 -12   4    4.92    0.83
  -8 -12  -4    6.31    1.14
  -8  12  -4    4.81    1.19
 -10 -12  -4    5.87    1.32
  10 -12   4    5.29    0.94
 -10 -12  -4    4.42    1.19
 -10 -12  -4    5.85    0.44
  10 -12   4    6.22    0.91
 -10 -12  -4    5.69    1.14
 -10  12  -4    4.88    1.64
 -12 -12  -4    2.96    1.00
 -12 -12  -4    2.38    1.10
  12 -12   4    2.44    0.73
  12 -12   4    2.52    0.81
  12 -12   4    0.94    0.76
 -12 -12  -4    2.25    0.33
 -12 -12  -4    1.78    0.98
 -14 -12  -4    3.00    1.20
  14 -12   4    2.62    0.86
  14 -12   4    1.23    0.87
 -14 -12  -4    2.46    1.05
  14 -12   4    2.80    0.79
 -14 -12  -4    2.41    0.97
 -14 -12  -4    2.75    0.46
  16 -12   4    3.76    0.83
  16 -12   4    3.59    0.92
 -16 -12  -4    3.45    1.30
 -16 -12  -4    2.65    1.03
 -16 -12  -4    2.90    1.30
  16 -12   4    2.06    0.87
 -18 -12  -4   -0.43    1.14
  18 -12   4    0.80    0.79
  18 -12   4    0.68    0.69
  18 -12   4    0.33    0.76
 -18 -12  -4    1.38    1.19
  20 -12   4    7.75    1.03
 -20 -12  -4    7.88    1.67
  20 -12   4    7.72    1.11
  20 -12   4    7.57    1.26
  22 -12   4    1.77    0.79
 -19 -13   4    0.22    1.11
 -19 -13   4    2.44    0.97
 -19 -13   4    1.05    1.22
  19 -13  -4    1.32    1.07
 -17 -13   4    3.01    1.30
  17 -13  -4    0.25    0.91
  17 -13  -4    1.21    0.95
 -17 -13   4    1.90    0.94
  17 -13  -4    3.65    1.16
 -17 -13   4    0.20    1.06
  15 -13  -4    5.61    1.20
 -15 -13   4    5.63    1.21
  15 -13  -4    6.51    1.27
  15 -13  -4    5.43    1.16
 -15 -13   4    4.46    1.06
 -15 -13   4    5.73    1.32
  13 -13  -4    4.95    1.18
  13 -13  -4    4.82    1.23
 -13 -13   4    3.05    1.17
  13 -13  -4    3.81    1.07
 -13 -13   4    2.29    1.12
 -13 -13   4    4.94    1.06
  11 -13  -4    2.43    1.05
 -11 -13   4    1.99    1.08
  11 -13  -4    5.99    1.21
 -11 -13   4    1.65    1.02
 -11 -13   4    2.63    0.87
  11 -13  -4    4.92    1.06
  -9 -13   4    9.82    1.19
  -9 -13   4    9.96    1.36
   9 -13  -4    8.19    1.25
  -9 -13   4    7.80    1.30
   9 -13  -4    8.27    1.35
   9 -13  -4    7.84    1.33
   7 -13  -4    1.12    1.01
  -7 -13   4    0.39    0.69
  -7 -13   4    2.63    0.96
   7 -13  -4    0.86    0.85
  -7 -13   4    2.12    0.99
   5 -13  -4    1.07    0.87
  -5 -13   4    0.37    0.79
  -5 -13   4    1.82    0.77
  -5 -13   4    0.40    0.79
   5 -13  -4    0.42    0.84
  -3 -13   4    2.61    0.79
   3 -13  -4    5.61    1.26
   3 -13  -4    5.29    1.20
  -3 -13   4    3.60    0.99
  -1 -13   4    0.76    0.86
   1 -13  -4    1.09    0.85
   1 -13  -4    0.56    0.86
  -1 -13   4    1.87    0.75
   1 -13   4    3.55    0.94
  -1 -13  -4    1.64    1.00
  -1 -13  -4    2.21    1.11
   1 -13   4    1.59    0.73
  -3 -13  -4    1.75    0.99
  -3 -13  -4    1.94    1.15
   3 -13   4    2.49    0.76
   3 -13   4    2.40    0.88
   5 -13   4    5.17    0.92
   5 -13   4    3.07    0.90
  -5 -13  -4    4.57    1.22
  -5 -13  -4    3.96    1.04
  -7 -13  -4    4.83    1.28
  -7 -13  -4    3.96    1.15
   7 -13   4    4.48    1.05
   7 -13   4    6.61    0.98
  -9 -13  -4    2.46    1.04
   9 -13   4    2.01    0.75
   9 -13   4    1.33    0.80
  -9 -13  -4    3.01    1.31
 -11 -13  -4    5.81    1.21
  11 -13   4    5.70    1.10
 -11 -13  -4    8.37    1.66
  11 -13   4    4.78    0.92
  11 -13   4    4.32    0.97
 -11 -13  -4    4.32    1.28
  13 -13   4    0.02    0.84
  13 -13   4    0.72    0.73
 -13 -13  -4    0.20    0.90
 -13 -13  -4   -1.09    1.17
  13 -13   4    0.65    0.88
 -13 -13  -4    0.16    1.05
 -15 -13  -4    2.40    1.07
 -15 -13  -4    1.25    1.30
  15 -13   4    1.45    0.77
 -15 -13  -4    3.04    1.41
  15 -13   4    0.48    0.88
  15 -13   4    1.75    0.93
 -17 -13  -4   10.13    2.02
  17 -13   4    9.40    1.12
  17 -13   4    9.75    1.32
  17 -13   4   10.18    1.31
  19 -13   4    3.97    0.93
  19 -13   4    3.68    1.02
  14 -14  -4    1.45    1.50
  14 -14  -4    1.41    1.04
 -14 -14   4    0.45    1.00
 -14 -14   4    0.76    0.85
 -12 -14   4    8.09    1.51
 -12 -14   4    6.45    1.18
 -12 -14   4    5.66    1.49
  12 -14  -4    5.19    1.23
  12 -14  -4    4.98    1.50
  10 -14  -4    1.92    1.14
 -10 -14   4    2.51    0.90
 -10 -14   4    1.57    0.99
 -10 -14   4    2.56    1.16
  10 -14  -4    1.46    0.99
  -8 -14   4    6.62    1.31
   8 -14  -4    4.98    1.29
  -8 -14   4    7.29    1.15
   8 -14  -4    7.21    1.40
  -8 -14   4    4.62    1.14
  -6 -14   4    1.91    0.95
   6 -14  -4    1.57    1.04
  -6 -14   4    0.40    0.78
   6 -14  -4    1.41    1.06
   4 -14  -4    1.19    0.94
  -4 -14   4   -0.16    0.79
   4 -14  -4    1.27    0.97
  -4 -14   4    0.89    0.92
   2 -14  -4   16.15    1.80
  -2 -14   4   13.22    1.36
   2 -14  -4   13.63    1.82
  -2 -14   4   14.28    1.56
   0 -14  -4    6.02    1.39
   0 -14   4    5.37    1.03
   0 -14  -4    6.18    1.32
   0 -14   4    4.33    1.16
   2 -14   4    0.05    0.75
   2 -14   4   -0.08    0.80
  -2 -14  -4    1.08    1.13
  -2 -14  -4    0.41    0.98
   4 -14   4    4.96    0.96
  -4 -14  -4    5.91    1.26
   4 -14   4    3.93    1.15
  -4 -14  -4    3.19    1.21
  -6 -14  -4    1.10    1.05
   6 -14   4    1.09    0.77
   6 -14   4    1.13    0.94
  -6 -14  -4   -0.20    0.94
  -8 -14  -4    8.65    1.49
   8 -14   4    6.79    1.26
  -8 -14  -4    5.18    1.46
   8 -14   4    8.19    1.07
 -10 -14  -4    0.51    1.04
  10 -14   4    1.05    0.85
  10 -14   4    0.01    0.80
  10 -14   4    1.40    0.81
 -10 -14  -4    0.43    1.10
 -12 -14  -4    0.60    1.03
 -12 -14  -4    1.65    1.26
  12 -14   4    1.40    0.86
  12 -14   4    0.92    0.78
  12 -14   4    0.28    0.94
  14 -14   4    1.29    0.96
  14 -14   4    1.83    0.86
 -14 -14  -4    0.92    1.08
   7 -15  -4    1.85    1.17
   5 -15  -4    0.92    1.17
  -5 -15   4    0.81    1.32
  -3 -15   4    3.42    1.04
   3 -15  -4    2.47    1.21
  -1 -15   4    4.96    1.05
   1 -15  -4    3.79    1.31
   1 -15   4    3.23    0.96
  -1 -15  -4    2.12    1.15
   3 -15   4    0.80    0.87
  -3 -15  -4    2.02    1.27
   5 -15   4    5.41    1.58
   7 -15   4    1.55    1.10
  38   0  -5   -1.41    0.89
  36   0  -5    1.30    0.89
  36   0  -5    0.48    1.01
  34   0  -5    3.36    1.29
  34   0  -5    1.13    0.94
  32   0  -5    4.98    1.33
  32   0  -5    4.38    1.08
  30   0  -5    3.60    1.09
  30   0  -5    4.35    1.04
  28   0  -5    2.63    1.07
  28   0  -5    2.70    0.82
  26   0  -5  106.94    3.62
  26   0  -5  109.80    3.82
  26   0  -5  100.04    4.14
  24   0  -5   26.84    1.58
  24   0  -5   23.77    1.75
  24   0  -5   23.79    1.42
  22   0  -5  120.35    3.94
  22   0  -5  104.16    4.08
  22   0  -5  119.37    3.75
  20   0  -5    4.79    0.82
  20   0  -5    2.71    0.71
  20   0  -5    3.36    0.63
  18   0  -5   12.84    1.24
  18   0  -5   12.72    1.06
  18   0  -5   11.83    0.99
 -18   0   5   11.71    0.87
  18   0  -5   11.30    0.87
  16   0  -5   52.31    2.19
 -16   0   5   54.78    1.91
  16   0  -5   49.58    2.06
  16   0  -5   53.81    2.02
  16   0  -5   52.53    1.91
  14   0  -5   21.37    1.22
 -14   0   5   17.40    0.92
  14   0  -5   19.85    1.06
  14   0  -5   22.46    1.16
  14   0  -5   18.71    0.95
 -12   0   5    5.24    0.49
  12   0  -5    5.51    0.64
  12   0  -5    3.75    0.58
  12   0  -5    4.34    0.55
  12   0  -5    4.59    0.48
  10   0  -5   45.14    1.72
 -10   0   5   47.20    1.48
  10   0  -5   46.71    1.54
  10   0  -5   45.97    1.77
  10   0  -5   43.88    1.67
   8   0  -5   21.25    1.01
   8   0  -5   22.67    1.06
   8   0  -5   22.95    0.86
   8   0  -5   21.37    1.07
  -8   0   5   21.96    1.00
   6   0  -5  167.62    4.80
   6   0  -5  169.77    4.86
   6   0  -5  169.10    4.77
   6   0  -5  170.97    4.52
   4   0  -5   23.41    1.02
   4   0  -5   25.63    1.10
   4   0  -5   23.15    1.00
   4   0  -5   23.66    0.75
   4   0  -5   22.48    0.97
   2   0  -5    2.54    0.39
   2   0  -5    2.69    0.35
   2   0  -5    2.47    0.15
   2   0  -5    2.29    0.32
   2   0  -5    2.45    0.38
   0   0  -5   57.56    1.86
   0   0  -5   56.53    1.82
   0   0  -5   56.31    1.92
   0   0  -5   58.27    1.79
  -2   0  -5    3.38    0.37
  -2   0  -5    3.57    0.34
  -2   0  -5    3.78    0.40
  -2   0  -5    3.00    0.20
  -2   0  -5    2.81    0.42
  -4   0  -5    7.14    0.40
   4   0   5    7.00    0.39
  -4   0  -5    5.99    0.45
   4   0   5    6.68    0.44
  -4   0  -5    6.34    0.35
   6   0   5  243.16    6.34
  -6   0  -5  236.71    6.29
   6   0   5  244.17    6.23
  -6   0  -5  228.21    6.36
   8   0   5   54.95    1.54
   8   0   5   57.07    1.71
  -8   0  -5   57.65    1.78
  -8   0  -5   56.72    1.78
   8   0   5   56.04    1.57
 -10   0  -5    2.64    0.38
  10   0   5    2.97    0.25
 -10   0  -5    2.37    0.34
  10   0   5    2.83    0.14
  10   0   5    3.19    0.36
 -12   0  -5  118.88    3.54
  12   0   5  121.59    3.28
 -12   0  -5  117.98    3.45
 -14   0  -5    2.33    0.43
 -14   0  -5    2.67    0.42
  14   0   5    2.78    0.33
  16   0   5   17.83    0.83
  16   0   5   19.66    0.83
 -16   0  -5   18.49    1.07
 -16   0  -5   17.91    0.96
 -18   0  -5   32.03    1.46
  18   0   5   35.58    1.29
  18   0   5   35.30    1.30
 -18   0  -5   37.07    1.65
 -20   0  -5    3.00    0.25
  20   0   5    2.96    0.45
 -20   0  -5    3.17    0.62
 -20   0  -5    2.85    0.57
  20   0   5    3.15    0.45
 -20   0  -5    2.75    0.23
 -22   0  -5   26.23    0.95
 -22   0  -5   26.36    1.45
  22   0   5   28.12    1.22
 -22   0  -5   28.18    1.60
 -22   0  -5   25.58    0.94
  22   0   5   27.80    1.17
 -24   0  -5    2.79    0.77
  24   0   5    2.61    0.49
 -24   0  -5    2.68    0.67
  24   0   5    1.77    0.47
 -24   0  -5    2.53    0.37
 -26   0  -5   15.34    1.41
  26   0   5   16.66    0.97
  26   0   5   15.38    1.03
 -26   0  -5   14.66    1.30
 -26   0  -5   14.63    0.81
  28   0   5    8.77    0.97
  28   0   5    7.47    0.79
  28   0   5    8.02    0.81
 -28   0  -5    5.51    1.09
 -28   0  -5    6.15    0.59
  30   0   5   55.74    2.18
 -30   0  -5   59.93    2.88
  30   0   5   56.21    2.45
 -30   0  -5   55.38    1.90
  32   0   5   -0.22    0.52
 -32   0  -5   -0.04    0.38
 -32   0  -5    0.46    0.97
  32   0   5   -0.02    0.64
  34   0   5   15.87    1.24
 -34   0  -5   14.45    1.75
 -34   0  -5   14.78    0.92
  34   0   5   14.58    1.40
  36   0   5   10.30    1.28
  36   0   5    7.64    0.99
  38   0   5    0.55    0.69
  37  -1  -5    2.97    1.25
  37  -1  -5    1.74    1.10
  37   1  -5    1.41    1.31
  37   1  -5    2.17    1.10
  35  -1  -5   -1.01    1.07
  35  -1  -5    0.31    0.95
  35   1  -5   -0.18    0.91
  35   1  -5    1.78    1.24
  33  -1  -5    0.57    0.97
  33  -1  -5    0.68    0.82
  33   1  -5   -0.08    1.04
  33   1  -5    0.54    0.90
  31  -1  -5    3.58    1.14
  31  -1  -5    5.34    0.97
  31  -1  -5    5.40    1.05
  31   1  -5    5.25    1.10
  31   1  -5    6.62    1.32
  29  -1  -5   18.65    1.64
  29  -1  -5   18.11    1.31
  29  -1  -5   16.23    1.78
  29   1  -5   21.35    2.04
  29   1  -5   21.17    1.74
  27  -1  -5    8.86    1.13
  27  -1  -5    7.22    1.30
  27  -1  -5   10.31    1.11
  27   1  -5    7.00    1.07
  27   1  -5    4.94    1.19
  25  -1  -5    0.49    0.69
  25  -1  -5    0.69    0.78
  25  -1  -5    1.28    0.56
  25   1  -5    3.92    0.98
  25   1  -5    3.01    0.83
  23  -1  -5   29.47    1.52
  23  -1  -5   22.77    1.55
  23  -1  -5   23.12    1.68
  23   1  -5   20.83    1.59
  23   1  -5   19.04    1.50
  21  -1  -5   17.30    1.21
  21  -1  -5   18.91    1.29
  21  -1  -5   19.46    1.62
  21   1  -5   24.04    1.42
  21   1  -5   23.10    1.67
  19  -1  -5   12.01    1.24
  19  -1  -5   13.65    1.09
  19  -1  -5   11.05    1.09
  19   1  -5    9.77    0.89
  19   1  -5   11.07    1.17
  19   1  -5   10.92    1.01
  17  -1  -5   48.02    1.85
  17  -1  -5   48.45    1.94
  17  -1  -5   47.64    1.99
  17  -1  -5   47.28    2.10
 -17  -1   5   50.16    1.87
  17   1  -5   51.71    1.98
 -17   1   5   52.95    1.92
  17   1  -5   53.60    1.96
  17   1  -5   51.59    2.11
  17   1  -5   50.17    2.27
  15  -1  -5   12.35    0.80
  15  -1  -5   11.60    0.97
  15  -1  -5   14.29    1.15
 -15  -1   5   12.23    0.82
  15  -1  -5   13.72    0.91
 -15   1   5   17.23    0.91
  15   1  -5   17.37    1.19
  15   1  -5   16.49    1.06
  15   1  -5   17.50    1.00
  15   1  -5   17.29    0.95
  13  -1  -5   52.77    1.99
  13  -1  -5   54.24    2.10
  13  -1  -5   54.11    1.86
  13  -1  -5   57.09    2.08
 -13  -1   5   56.63    1.87
  13   1  -5   49.53    1.88
  13   1  -5   54.42    1.83
  13   1  -5   52.39    2.09
  13   1  -5   50.86    1.98
 -13   1   5   53.14    1.76
  11  -1  -5   71.10    2.36
  11  -1  -5   70.31    2.34
 -11  -1   5   67.30    2.13
  11  -1  -5   70.71    2.16
  11  -1  -5   63.45    2.34
  11   1  -5   68.35    2.54
  11   1  -5   72.43    2.40
 -11   1   5   74.73    2.21
  11   1  -5   74.66    2.51
  11   1  -5   73.51    2.28
   9  -1  -5   65.55    2.25
  -9  -1   5   67.60    2.02
   9  -1  -5   65.70    2.03
   9  -1  -5   68.54    2.26
   9  -1  -5   68.20    2.24
  -9   1   5   53.95    1.65
   9   1  -5   55.38    1.90
   9   1  -5   55.53    2.04
   9   1  -5   52.85    1.95
   9   1  -5   55.42    1.74
  -7  -1   5   10.93    0.49
   7  -1  -5   11.13    0.69
   7  -1  -5    9.70    0.67
   7  -1  -5   10.35    0.70
   7  -1  -5   10.15    0.70
   7  -1  -5   10.46    0.51
   7   1  -5    9.65    0.69
   7   1  -5   10.07    0.52
   7   1  -5   10.60    0.75
   7   1  -5    8.99    0.63
   5  -1  -5  131.89    3.73
   5  -1  -5  123.30    3.68
   5  -1  -5  128.82    3.70
   5  -1  -5  126.22    3.74
   5  -1  -5  125.82    3.40
   5   1  -5  133.53    4.09
   5   1  -5  138.82    3.73
   5   1  -5  139.39    4.04
   5   1  -5  140.01    3.95
   3  -1  -5   11.96    0.41
   3  -1  -5   10.51    0.62
   3  -1  -5   12.48    0.70
   3  -1  -5   10.93    0.69
   3  -1  -5   10.52    0.64
   3   1  -5   13.55    0.70
   3   1  -5   14.17    0.82
   3   1  -5   13.89    0.54
   3   1  -5   15.16    0.79
   1  -1  -5   23.53    1.00
   1  -1  -5   23.57    0.96
   1  -1  -5   24.38    0.95
   1  -1  -5   23.44    1.03
   1   1  -5   29.31    1.22
   1   1  -5   27.40    0.87
   1   1  -5   28.26    1.14
  -1  -1  -5  106.41    3.06
  -1  -1  -5  109.96    3.18
   1  -1   5  107.87    3.05
  -1  -1  -5  106.28    3.14
  -1  -1  -5  108.88    3.08
  -1  -1  -5  105.95    2.80
  -1   1  -5   95.67    2.61
  -1   1  -5   94.01    2.73
  -1   1  -5   98.35    2.98
  -3  -1  -5   33.01    1.26
  -3  -1  -5   33.40    1.00
  -3  -1  -5   32.33    1.12
  -3  -1  -5   34.53    1.16
   3  -1   5   32.87    1.11
  -3   1  -5   36.60    1.15
  -3   1  -5   36.49    1.44
  -3   1  -5   36.74    1.20
   3   1   5   37.00    1.23
   3   1   5   38.12    1.27
  -5  -1  -5   52.41    1.56
  -5  -1  -5   50.47    1.74
   5  -1   5   56.46    1.59
  -5  -1  -5   50.67    1.56
   5  -1   5   51.46    1.56
  -5   1  -5   46.61    1.40
   5   1   5   45.33    1.44
  -5   1  -5   43.26    1.40
   5   1   5   45.98    1.37
   7  -1   5   23.64    0.80
   7  -1   5   22.54    0.70
  -7  -1  -5   23.34    1.01
  -7  -1  -5   23.66    0.78
  -7  -1  -5   22.40    0.88
   7  -1   5   22.33    0.78
  -7   1  -5   40.94    1.35
   7   1   5   39.12    1.30
  -7   1  -5   40.27    1.26
   7   1   5   40.41    1.18
  -9  -1  -5    0.87    0.30
  -9  -1  -5    1.39    0.16
   9  -1   5    2.10    0.22
   9  -1   5    1.57    0.19
   9  -1   5    1.76    0.21
  -9  -1  -5    1.18    0.28
  -9   1  -5    1.59    0.24
   9   1   5    1.66    0.25
   9   1   5    1.97    0.19
  -9   1  -5    1.72    0.32
   9   1   5    1.68    0.16
 -11  -1  -5    5.01    0.52
  11  -1   5    7.29    0.41
 -11  -1  -5    5.97    0.59
  11  -1   5    6.34    0.27
  11  -1   5    6.56    0.28
  11   1   5    8.87    0.45
 -11   1  -5    8.42    0.62
 -11   1  -5    9.84    0.50
  13  -1   5   55.84    1.72
 -13  -1  -5   57.51    1.99
 -13  -1  -5   55.78    1.97
 -13   1  -5   43.81    1.65
 -13   1  -5   43.74    1.42
  13   1   5   43.22    1.39
  13   1   5   44.79    1.37
 -15  -1  -5    6.66    0.70
  15  -1   5    7.45    0.53
 -15  -1  -5    7.34    0.73
  15   1   5    7.59    0.46
 -15   1  -5    6.26    0.66
 -15   1  -5    6.58    0.53
  15   1   5    6.85    0.50
  17  -1   5    9.73    0.63
 -17  -1  -5    9.04    0.85
  17  -1   5    9.29    0.68
 -17  -1  -5    8.50    0.84
  17   1   5   11.10    0.66
 -17   1  -5   11.71    0.97
  17   1   5   11.42    0.60
 -17   1  -5   11.30    0.72
  19  -1   5   16.32    0.87
  19  -1   5   16.29    0.87
 -19  -1  -5   15.65    1.11
 -19  -1  -5   17.14    1.16
  19   1   5   26.84    1.03
 -19   1  -5   25.39    1.18
 -19   1  -5   25.23    0.81
 -19   1  -5   25.24    1.40
  19   1   5   26.73    1.10
 -19   1  -5   26.77    0.82
  21  -1   5   63.43    2.08
 -21  -1  -5   62.05    2.49
 -21  -1  -5   60.44    1.71
 -21  -1  -5   55.84    2.38
 -21  -1  -5   61.70    1.71
  21  -1   5   64.19    2.08
 -21   1  -5   63.76    1.89
  21   1   5   65.00    2.03
  21   1   5   67.88    2.14
 -21   1  -5   63.24    1.88
 -21   1  -5   62.15    2.26
 -21   1  -5   63.80    2.53
  23  -1   5   17.26    0.97
 -23  -1  -5   16.84    0.74
 -23  -1  -5   18.06    0.74
 -23  -1  -5   17.45    1.29
  23  -1   5   16.55    1.00
 -23  -1  -5   18.28    1.47
  23   1   5   15.13    0.93
 -23   1  -5   12.77    0.70
 -23   1  -5   14.15    1.03
 -23   1  -5   15.00    1.32
  23   1   5   15.20    0.82
  25  -1   5    6.69    0.73
  25  -1   5    6.10    0.69
 -25  -1  -5    6.90    0.53
 -25  -1  -5    7.05    1.00
 -25  -1  -5    9.94    1.20
 -25   1  -5    7.77    0.61
  25   1   5    8.96    0.72
  25   1   5    8.99    0.79
 -25   1  -5    7.83    1.02
 -27  -1  -5    4.35    0.49
 -27  -1  -5    5.68    1.01
  27  -1   5    5.04    0.69
 -27  -1  -5    6.99    1.10
  27  -1   5    4.60    0.68
  27   1   5    7.77    0.78
 -27   1  -5    5.97    0.58
  27   1   5    5.79    0.83
 -27   1  -5    6.39    1.08
  29  -1   5   24.39    1.54
  29  -1   5   24.61    1.40
 -29  -1  -5   26.05    1.11
  29  -1   5   28.28    1.44
 -29  -1  -5   26.20    2.07
 -29   1  -5   25.48    1.99
  29   1   5   22.21    1.52
 -29   1  -5   21.01    1.06
  29   1   5   23.90    1.31
 -31  -1  -5    0.92    0.90
  31  -1   5    0.85    0.60
 -31  -1  -5    1.06    0.41
  31  -1   5    1.57    0.82
 -31   1  -5    0.61    0.94
 -31   1  -5    1.59    0.45
  31   1   5    1.11    0.59
  31   1   5    0.56    0.72
  33  -1   5    0.62    0.73
  33  -1   5    1.32    0.66
 -33  -1  -5    0.71    0.97
 -33  -1  -5    0.74    0.42
  33   1   5   -0.97    0.72
  33   1   5    0.42    0.64
 -33   1  -5   -0.49    0.85
 -33   1  -5    0.67    0.44
  35  -1   5    4.20    1.02
 -35  -1  -5    4.62    0.69
  35  -1   5    5.42    0.89
  35   1   5    3.12    0.79
 -35   1  -5    2.83    0.53
  35   1   5    1.85    0.85
  37  -1   5    0.75    0.67
  37   1   5    0.41    0.67
  37   1   5    0.38    0.90
  38   2  -5    3.58    1.16
  36  -2  -5    2.81    1.17
  36  -2  -5    1.34    1.13
  36   2  -5    1.25    0.91
  36   2  -5    1.39    1.21
  34  -2  -5    9.51    1.61
  34  -2  -5    7.93    1.11
  34  -2  -5    9.73    1.38
  34   2  -5    8.25    1.29
  34   2  -5    8.24    1.56
  32  -2  -5    2.65    1.15
  32  -2  -5    2.28    0.92
  32  -2  -5    3.41    0.90
  32   2  -5    0.28    0.98
  32   2  -5    2.03    0.97
  30  -2  -5    1.61    0.73
  30  -2  -5    0.34    0.89
  30  -2  -5    1.96    0.82
  30   2  -5    0.65    0.93
  30   2  -5   -0.35    0.70
  28  -2  -5   38.25    1.97
  28  -2  -5   37.06    2.31
  28  -2  -5   41.43    2.24
  28   2  -5   44.29    2.22
  28   2  -5   37.07    2.41
  26  -2  -5    0.65    0.65
  26  -2  -5   -0.43    0.54
  26  -2  -5    0.72    0.83
  26   2  -5    0.46    0.74
  26   2  -5   -0.10    0.57
  24  -2  -5   21.58    1.47
  24  -2  -5   22.92    1.88
  24  -2  -5   22.09    1.42
  24   2  -5   28.75    1.63
  24   2  -5   25.20    1.85
  22  -2  -5   28.30    1.60
  22  -2  -5   26.40    1.76
  22  -2  -5   28.79    1.55
  22   2  -5   23.20    1.66
  22   2  -5   22.54    1.47
  20  -2  -5   18.47    1.55
  20  -2  -5   21.36    1.26
  20  -2  -5   22.21    1.35
  20   2  -5   23.75    1.38
  20   2  -5   21.78    1.56
  18  -2  -5   28.84    1.48
  18  -2  -5   25.86    1.52
  18  -2  -5   25.48    1.32
  18  -2  -5   27.98    1.43
 -18  -2   5   28.55    2.01
  18   2  -5   24.71    1.46
  18   2  -5   23.33    1.34
  18   2  -5   24.02    1.54
  16  -2  -5   30.33    1.49
  16  -2  -5   31.93    1.40
  16  -2  -5   29.80    1.57
 -16  -2   5   31.70    1.42
  16  -2  -5   30.94    1.45
 -16   2   5   25.82    1.22
  16   2  -5   28.99    1.59
  16   2  -5   30.51    1.49
  16   2  -5   26.95    1.29
  14  -2  -5    4.35    0.54
 -14  -2   5    4.11    0.53
  14  -2  -5    4.56    0.64
  14  -2  -5    3.17    0.55
  14  -2  -5    3.93    0.62
  14   2  -5    4.14    0.64
  14   2  -5    4.54    0.74
  14   2  -5    3.16    0.49
 -14   2   5    4.16    0.49
  12  -2  -5   52.09    1.98
  12  -2  -5   53.80    2.01
  12  -2  -5   52.58    1.99
  12  -2  -5   56.44    1.86
 -12  -2   5   55.66    1.87
  12   2  -5   44.07    1.80
  12   2  -5   46.10    1.93
 -12   2   5   43.66    1.53
  12   2  -5   47.43    1.66
  10  -2  -5   18.25    0.85
  10  -2  -5   17.76    1.01
  10  -2  -5   21.41    1.05
  10  -2  -5   20.65    1.06
  10  -2  -5   17.80    0.97
 -10  -2   5   19.22    0.87
  10   2  -5   17.54    1.05
  10   2  -5   14.39    0.78
 -10   2   5   16.17    0.71
  10   2  -5   15.56    0.94
   8  -2  -5    8.45    0.71
   8  -2  -5    7.91    0.72
   8  -2  -5    7.67    0.60
  -8  -2   5    8.70    0.53
   8  -2  -5    7.71    0.50
   8  -2  -5    7.26    0.66
   8   2  -5    8.26    0.72
   8   2  -5    7.61    0.53
   8   2  -5    7.09    0.75
  -8   2   5    7.83    0.68
  -6  -2   5   55.76    1.65
   6  -2  -5   53.54    1.80
   6  -2  -5   54.48    1.64
   6  -2  -5   52.13    1.83
   6  -2  -5   53.34    1.92
   6  -2  -5   51.73    1.84
   6   2  -5   41.22    1.59
   6   2  -5   40.81    1.65
   6   2  -5   40.29    1.35
   4  -2  -5  208.31    5.66
   4  -2  -5  200.27    5.61
   4  -2  -5  200.74    5.74
   4  -2  -5  206.59    5.60
   4  -2  -5  205.63    5.40
   4   2  -5  198.74    5.55
   4   2  -5  194.51    5.62
   4   2  -5  194.76    5.26
   2  -2  -5  218.96    6.15
   2  -2  -5  225.29    5.99
   2  -2  -5  214.86    5.97
   2  -2  -5  219.53    5.78
   2  -2  -5  225.50    6.04
   2   2  -5  210.86    5.73
  -2   2   5  222.28    5.91
   2   2  -5  212.27    5.99
   2   2  -5  215.40    6.09
   0  -2  -5   15.96    0.61
   0  -2  -5   17.45    0.76
   0  -2  -5   16.37    0.89
   0  -2  -5   17.33    0.78
   0  -2   5   18.33    0.74
   0  -2  -5   17.42    0.77
   0   2  -5    6.93    0.66
   0   2   5    6.10    0.45
  -2  -2  -5  153.30    4.23
  -2  -2  -5  154.64    4.19
   2  -2   5  158.48    4.16
  -2  -2  -5  147.12    4.40
  -2  -2  -5  152.67    4.09
   2   2   5  168.31    4.50
  -2   2  -5  171.46    4.87
  -2   2  -5  163.97    4.55
  -4  -2  -5   47.10    1.50
  -4  -2  -5   48.34    1.75
   4  -2   5   49.96    1.45
   4  -2   5   49.19    1.30
  -4  -2  -5   51.49    1.51
  -4  -2  -5   48.60    1.54
   4   2   5   52.45    1.53
  -4   2  -5   50.12    1.62
   6  -2   5   53.66    1.49
   6  -2   5   54.31    1.48
  -6  -2  -5   54.14    1.61
  -6  -2  -5   52.10    1.66
  -6  -2  -5   49.14    1.84
  -6   2  -5   40.42    1.39
   6   2   5   41.61    1.26
   6   2   5   41.00    1.25
  -8  -2  -5   51.14    1.50
  -8  -2  -5   51.26    1.67
  -8  -2  -5   47.23    1.78
   8  -2   5   50.34    1.48
   8   2   5   54.32    1.50
  -8   2  -5   54.41    1.78
   8   2   5   51.51    1.53
   8   2   5   54.17    1.57
 -10  -2  -5   33.05    1.43
 -10  -2  -5   35.45    1.06
 -10  -2  -5   34.47    1.34
  10  -2   5   35.90    1.15
  10   2   5   30.30    0.99
  10   2   5   31.23    0.97
 -10   2  -5   28.92    1.21
 -10   2  -5   30.35    0.85
  12  -2   5   68.03    1.90
 -12  -2  -5   68.70    1.84
  12  -2   5   66.12    2.03
 -12  -2  -5   69.89    2.38
 -12  -2  -5   71.31    2.31
  12   2   5   77.38    2.14
 -12   2  -5   77.65    2.53
  12   2   5   76.91    2.22
 -12   2  -5   78.95    2.10
  12   2   5   80.01    2.24
 -14  -2  -5    4.63    0.60
 -14  -2  -5    3.63    0.60
  14  -2   5    3.53    0.40
  14  -2   5    3.95    0.25
 -14   2  -5    3.66    0.29
 -14   2  -5    2.99    0.50
  14   2   5    4.76    0.42
  14   2   5    3.97    0.30
 -16  -2  -5    2.84    0.55
 -16  -2  -5    2.77    0.58
  16  -2   5    3.61    0.42
  16  -2   5    3.73    0.21
 -16   2  -5    2.70    0.57
 -16   2  -5    2.51    0.30
  16   2   5    2.24    0.27
  16   2   5    1.74    0.32
 -18  -2  -5   62.30    2.47
 -18  -2  -5   64.74    2.47
  18  -2   5   66.00    2.11
  18  -2   5   67.15    2.19
  18   2   5   73.81    2.26
 -18   2  -5   71.32    1.99
 -18   2  -5   72.45    2.62
  18   2   5   69.31    2.09
 -18   2  -5   73.75    2.19
 -18   2  -5   72.88    1.99
 -20  -2  -5   18.45    1.30
 -20  -2  -5   17.75    1.27
  20  -2   5   19.45    1.02
  20  -2   5   17.16    0.94
 -20   2  -5   12.41    1.08
 -20   2  -5   13.70    0.64
 -20   2  -5   13.93    0.64
 -20   2  -5   15.69    0.82
  20   2   5   12.87    0.66
  20   2   5   13.58    0.81
  22  -2   5   18.70    1.02
 -22  -2  -5   18.62    1.43
 -22  -2  -5   17.19    0.64
 -22  -2  -5   16.92    0.64
  22  -2   5   18.89    1.05
 -22  -2  -5   18.89    1.38
 -22   2  -5   15.04    0.74
  22   2   5   15.10    0.91
  22   2   5   15.46    0.75
 -22   2  -5   14.60    1.27
 -24  -2  -5   15.15    1.38
  24  -2   5   12.13    0.96
  24  -2   5   13.74    0.96
 -24  -2  -5   14.39    0.66
 -24  -2  -5   15.28    1.41
  24   2   5   16.87    1.13
 -24   2  -5   17.97    0.87
 -24   2  -5   18.34    1.35
  24   2   5   19.46    1.06
 -26  -2  -5    9.45    0.64
 -26  -2  -5   10.49    1.30
  26  -2   5   10.42    0.94
  26  -2   5    9.49    0.87
 -26  -2  -5   12.53    1.39
 -26   2  -5    7.88    0.64
  26   2   5    8.47    0.96
 -26   2  -5    7.35    1.10
  26   2   5    8.32    0.81
 -28  -2  -5    5.02    1.07
  28  -2   5    5.49    0.80
  28  -2   5    3.98    0.70
 -28  -2  -5    4.82    0.49
 -28  -2  -5    3.99    1.03
  28   2   5    7.02    0.95
 -28   2  -5    4.35    0.99
  28   2   5    7.66    0.80
 -28   2  -5    6.36    0.62
  30  -2   5   13.54    1.11
 -30  -2  -5   13.20    1.51
 -30  -2  -5   11.20    0.76
 -30  -2  -5   15.04    1.64
  30  -2   5   13.39    1.13
  30   2   5    8.14    1.00
 -30   2  -5    8.30    0.70
 -30   2  -5    9.35    1.33
  30   2   5    6.70    0.82
 -32  -2  -5    4.98    1.27
  32  -2   5    4.04    0.99
  32  -2   5    5.26    0.85
 -32  -2  -5    5.37    0.54
  32  -2   5    4.21    0.78
  32   2   5    4.94    0.81
 -32   2  -5    6.96    0.66
  32   2   5    4.47    0.91
 -32   2  -5    6.91    1.31
  34  -2   5    2.60    0.73
  34  -2   5    3.36    0.92
 -34  -2  -5    2.56    0.69
 -34  -2  -5    4.08    1.29
 -34   2  -5    4.39    1.89
 -34   2  -5    4.44    0.59
  34   2   5    3.68    0.77
  34   2   5    2.26    0.93
  36  -2   5    2.93    0.77
  36  -2   5    3.47    1.02
  36   2   5    1.79    0.88
 -36   2  -5    2.62    0.51
  36   2   5    2.25    0.78
  37  -3  -5    4.65    1.38
  37   3  -5    4.06    1.16
  35  -3  -5    5.90    1.32
  35  -3  -5    8.18    1.50
  35  -3  -5    6.04    1.07
  35   3  -5    6.36    1.60
  35   3  -5    4.40    1.05
  33  -3  -5    7.54    1.37
  33  -3  -5    8.06    1.53
  33  -3  -5    8.43    1.18
  33   3  -5    8.52    1.30
  33   3  -5    5.91    1.40
  31  -3  -5    2.64    0.93
  31  -3  -5    2.89    0.86
  31  -3  -5    1.65    0.99
  31   3  -5    3.22    1.29
  31   3  -5    3.80    1.04
  29  -3  -5    5.84    0.99
  29  -3  -5    2.68    1.01
  29  -3  -5    6.35    1.16
  29   3  -5    4.23    0.98
  29   3  -5    5.07    1.30
  27  -3  -5    6.18    1.05
  27  -3  -5    6.16    0.92
  27  -3  -5    6.55    1.21
  27   3  -5    6.01    1.20
  27   3  -5    5.38    1.04
  25  -3  -5    7.64    1.02
  25  -3  -5    7.92    1.18
  25  -3  -5    7.61    1.07
  25   3  -5    4.73    0.88
  25   3  -5    5.30    1.11
  23  -3  -5    0.73    0.62
  23  -3  -5   -0.77    0.55
  23  -3  -5    0.60    0.59
  23   3  -5    3.30    0.81
  23   3  -5    2.52    0.95
  21  -3  -5   31.08    1.69
  21  -3  -5   30.56    1.77
  21  -3  -5   32.63    1.61
  21   3  -5   30.49    1.98
  21   3  -5   31.57    1.66
  19  -3  -5   12.43    1.07
  19  -3  -5   14.14    1.23
  19  -3  -5   14.32    1.28
  19   3  -5   16.97    1.56
  19   3  -5   15.69    1.16
  17  -3  -5   36.86    1.59
  17  -3  -5   34.18    1.73
  17  -3  -5   36.03    1.64
 -17  -3   5   36.96    1.84
  17  -3  -5   34.57    1.69
  17   3  -5   41.70    2.00
  17   3  -5   33.85    1.76
  17   3  -5   38.84    1.76
  15  -3  -5    8.93    0.89
 -15  -3   5   10.92    0.90
  15  -3  -5    9.53    0.82
  15  -3  -5   10.04    0.93
  15  -3  -5    6.62    0.77
 -15   3   5    8.08    0.69
  15   3  -5    7.84    0.95
  15   3  -5    8.59    0.88
  15   3  -5    7.66    0.72
  13  -3  -5    4.45    0.59
  13  -3  -5    3.80    0.52
  13  -3  -5    3.62    0.58
 -13  -3   5    4.04    0.55
  13  -3  -5    5.49    0.70
  13  -3  -5    3.63    0.60
 -13   3   5    3.80    0.47
  13   3  -5    4.21    0.52
  13   3  -5    5.05    0.72
  13   3  -5    4.02    0.69
  11  -3  -5   71.19    2.43
 -11  -3   5   68.24    2.28
  11  -3  -5   67.93    2.44
  11  -3  -5   72.74    2.33
  11  -3  -5   67.49    2.38
  11  -3  -5   68.27    2.26
 -11   3   5   72.21    2.25
  11   3  -5   72.82    2.38
  11   3  -5   72.78    2.68
  11   3  -5   75.88    2.60
   9  -3  -5   26.76    1.29
   9  -3  -5   25.34    1.21
   9  -3  -5   25.86    1.09
  -9  -3   5   24.82    1.08
   9  -3  -5   24.00    1.19
   9  -3  -5   26.13    1.07
   9   3  -5   29.79    1.21
  -9   3   5   28.52    1.06
   9   3  -5   31.70    1.40
   9   3  -5   29.41    1.45
   7  -3  -5    4.62    0.60
   7  -3  -5    3.40    0.43
   7  -3  -5    5.05    0.55
   7  -3  -5    3.85    0.51
   7  -3  -5    3.77    0.41
  -7  -3   5    4.36    0.45
   7   3  -5    2.86    0.38
  -7   3   5    2.92    0.31
   7   3  -5    1.90    0.44
   7   3  -5    2.18    0.50
   5  -3  -5   56.21    1.77
   5  -3  -5   55.75    1.85
   5  -3  -5   53.13    2.00
   5  -3  -5   55.52    1.74
   5  -3  -5   53.23    1.89
  -5   3   5   42.77    1.32
   5   3  -5   40.98    1.71
   5   3  -5   40.08    1.43
   5   3  -5   41.35    1.63
   3  -3  -5   99.66    2.83
   3  -3  -5   95.72    2.98
   3  -3  -5   97.74    3.11
   3  -3  -5   98.12    2.82
   3  -3  -5  101.58    2.92
   3   3  -5  102.95    3.11
   3   3  -5  107.06    3.33
   3   3  -5  108.10    3.42
  -3   3   5  112.38    3.00
   1  -3  -5    5.80    0.47
   1  -3  -5    6.01    0.56
   1  -3  -5    5.74    0.43
   1  -3  -5    5.51    0.41
   1  -3  -5    4.17    0.55
   1   3  -5    4.39    0.62
   1   3  -5    4.12    0.41
  -1   3   5    3.80    0.34
  -1  -3  -5  220.18    5.87
  -1  -3  -5  216.61    5.99
  -1  -3  -5  220.73    5.86
   1  -3   5  224.03    5.85
  -1  -3  -5  216.51    6.19
  -1   3  -5  231.73    6.52
   1   3   5  231.69    6.13
   1   3   5  226.22    6.05
  -3  -3  -5   42.60    1.44
   3  -3   5   45.93    1.34
   3  -3   5   44.33    1.28
  -3  -3  -5   42.80    1.48
  -3  -3  -5   43.18    1.36
  -3  -3  -5   45.43    1.72
  -3   3  -5   40.64    1.45
   3   3   5   40.82    1.23
  -3   3  -5   40.30    1.64
   3   3   5   41.80    1.37
  -5  -3  -5  151.36    3.98
  -5  -3  -5  151.73    4.44
  -5  -3  -5  150.97    4.15
  -5  -3  -5  144.37    4.16
   5  -3   5  151.85    3.91
   5  -3   5  147.11    3.99
   5   3   5  156.14    4.03
  -5   3  -5  148.19    4.32
   5   3   5  155.32    3.98
   7  -3   5   44.54    1.38
  -7  -3  -5   48.81    1.80
  -7  -3  -5   44.03    1.44
  -7  -3  -5   42.31    1.54
   7   3   5   43.73    1.27
  -7   3  -5   43.12    1.56
   7   3   5   44.73    1.22
   9  -3   5   53.86    1.68
  -9  -3  -5   54.74    1.68
  -9  -3  -5   56.82    2.07
  -9  -3  -5   55.70    1.90
   9   3   5   55.06    1.60
   9   3   5   54.66    1.43
  -9   3  -5   53.35    1.87
   9   3   5   53.00    1.57
  11  -3   5  109.90    2.95
 -11  -3  -5  104.98    3.42
 -11  -3  -5  106.48    2.94
 -11  -3  -5  102.24    3.25
  11  -3   5  105.43    3.01
 -11   3  -5  104.06    3.30
  11   3   5  111.74    3.00
 -13  -3  -5   32.48    1.55
 -13  -3  -5   31.89    1.03
  13  -3   5   33.22    1.19
  13  -3   5   33.05    1.07
 -13  -3  -5   30.18    1.42
  13   3   5   21.65    0.63
  13   3   5   22.86    0.87
 -13   3  -5   22.35    1.15
  15  -3   5    2.80    0.40
  15  -3   5    2.07    0.27
 -15  -3  -5    2.69    0.62
 -15  -3  -5    2.29    0.54
 -15  -3  -5    2.52    0.23
  15   3   5    2.53    0.22
  15   3   5    2.72    0.20
  15   3   5    2.26    0.35
 -15   3  -5    2.40    0.52
  17  -3   5   40.48    1.46
 -17  -3  -5   41.98    1.82
  17  -3   5   38.63    1.54
 -17  -3  -5   37.76    1.83
  17  -3   5   39.72    1.23
 -17   3  -5   49.50    1.44
  17   3   5   46.78    1.62
 -17   3  -5   49.15    1.99
  17   3   5   48.91    1.40
 -19  -3  -5   31.52    1.73
  19  -3   5   31.42    1.31
 -19  -3  -5   32.98    1.69
  19  -3   5   32.36    1.03
  19  -3   5   31.55    1.37
  19   3   5   29.03    1.25
  19   3   5   26.73    0.90
 -19   3  -5   25.71    1.46
 -19   3  -5   26.68    0.98
  19   3   5   26.83    1.14
  21  -3   5    3.98    0.56
  21  -3   5    3.04    0.59
 -21  -3  -5    3.51    0.83
 -21  -3  -5    4.37    0.86
  21   3   5    3.50    0.58
  21   3   5    4.19    0.55
 -21   3  -5    4.04    0.80
 -23  -3  -5   10.62    1.21
 -23  -3  -5   10.18    0.49
 -23  -3  -5   10.39    1.28
  23  -3   5   11.47    0.95
  23  -3   5   12.63    0.90
 -23  -3  -5   10.19    0.48
  23   3   5   13.22    0.97
  23   3   5   13.13    0.91
 -23   3  -5   13.65    1.29
 -25  -3  -5   37.89    2.21
  25  -3   5   34.25    1.57
  25  -3   5   36.05    1.55
 -25  -3  -5   36.07    2.07
 -25  -3  -5   33.00    1.16
  25   3   5   33.69    1.58
  25   3   5   33.17    1.47
 -25   3  -5   33.03    1.93
 -27  -3  -5    3.27    1.01
 -27  -3  -5    1.99    0.36
  27  -3   5    2.09    0.59
  27  -3   5    2.28    0.66
 -27  -3  -5    0.53    0.83
  27   3   5    2.04    0.70
 -27   3  -5    2.14    0.84
  27   3   5    1.90    0.55
  29  -3   5    7.38    0.89
  29  -3   5    9.46    0.94
 -29  -3  -5    7.41    1.29
 -29  -3  -5    9.17    1.38
 -29  -3  -5    7.39    0.57
  29   3   5    8.01    0.85
 -29   3  -5    9.31    1.28
  29   3   5    8.28    0.99
 -31  -3  -5   16.23    1.76
  31  -3   5   15.56    1.22
 -31  -3  -5   14.35    0.78
 -31  -3  -5   17.69    1.84
  31  -3   5   13.90    1.24
 -31   3  -5   14.27    0.96
  31   3   5   15.68    1.19
 -31   3  -5   13.79    1.67
  31   3   5   15.42    1.35
  33  -3   5    0.89    0.78
  33  -3   5    0.17    0.63
  33  -3   5    0.64    0.69
 -33  -3  -5    0.79    1.09
 -33   3  -5    3.28    1.18
  33   3   5    2.03    0.86
  33   3   5    1.62    0.70
 -33   3  -5    1.85    0.50
  35  -3   5   22.15    1.52
  35  -3   5   19.85    1.68
 -35   3  -5   18.99    1.07
  35   3   5   19.41    1.46
  35   3   5   19.24    1.67
  37  -3   5    0.35    0.66
  37   3   5    0.81    0.71
  36  -4  -5    2.35    1.26
  36   4  -5    4.20    1.12
  34  -4  -5    2.71    0.94
  34  -4  -5    1.83    0.98
  34  -4  -5    3.58    1.23
  34   4  -5    3.10    1.29
  34   4  -5    1.05    0.91
  32  -4  -5   -0.16    0.96
  32  -4  -5    1.45    0.90
  32  -4  -5   -0.07    0.78
  32   4  -5    1.90    1.25
  32   4  -5    0.59    0.84
  30  -4  -5    1.81    0.87
  30  -4  -5    2.20    1.03
  30  -4  -5    0.93    0.77
  30   4  -5    5.79    1.47
  30   4  -5    3.49    0.98
  28  -4  -5   10.21    1.45
  28  -4  -5   12.62    1.32
  28  -4  -5   13.72    1.44
  28   4  -5   11.93    1.35
  28   4  -5   13.95    1.76
  26  -4  -5    7.70    1.22
  26  -4  -5    7.22    0.99
  26  -4  -5    7.80    1.09
  26   4  -5    7.63    1.31
  26   4  -5    7.53    1.10
  24  -4  -5   34.63    2.01
  24  -4  -5   35.42    1.86
  24  -4  -5   37.38    1.96
  24   4  -5   37.54    2.35
  24   4  -5   34.28    1.90
  22  -4  -5   36.81    1.91
  22  -4  -5   36.44    1.80
  22  -4  -5   36.87    2.03
  22   4  -5   30.92    1.70
  22   4  -5   33.41    2.13
  20  -4  -5    4.51    0.88
  20  -4  -5    6.08    0.89
  20  -4  -5    6.64    0.91
  20   4  -5    8.75    1.18
  20   4  -5    7.83    0.99
  18  -4  -5   54.26    2.22
  18  -4  -5   51.83    2.13
  18  -4  -5   49.22    2.19
  18   4  -5   52.64    2.25
  18   4  -5   54.83    2.48
  16  -4  -5    4.51    0.73
  16  -4  -5    6.20    0.82
  16  -4  -5    4.19    0.69
  16  -4  -5    5.59    0.77
  16   4  -5    8.55    1.06
  16   4  -5   10.81    1.02
  14  -4  -5    7.69    0.79
  14  -4  -5    7.37    0.83
  14  -4  -5    8.19    0.86
  14  -4  -5    7.44    0.74
  14  -4  -5    6.55    0.79
 -14  -4   5    7.88    0.80
 -14   4   5    6.27    0.63
  14   4  -5    6.66    0.81
  14   4  -5    7.92    0.78
  14   4  -5    6.07    0.87
 -12  -4   5  119.68    3.70
  12  -4  -5  120.77    3.66
  12  -4  -5  119.63    3.84
  12  -4  -5  113.22    3.73
  12  -4  -5  123.59    3.63
  12  -4  -5  120.85    3.78
  12   4  -5   97.47    3.27
  12   4  -5   99.63    3.46
  12   4  -5   97.08    3.11
 -12   4   5   98.39    2.96
  10  -4  -5   18.58    1.05
  10  -4  -5   18.91    1.06
  10  -4  -5   17.75    1.10
 -10  -4   5   18.92    1.00
  10  -4  -5   18.36    0.97
  10  -4  -5   19.53    0.93
  10   4  -5   25.81    1.16
 -10   4   5   25.81    1.02
  10   4  -5   20.96    1.30
  10   4  -5   22.36    1.24
   8  -4  -5    4.11    0.60
   8  -4  -5    3.71    0.42
   8  -4  -5    3.89    0.55
   8  -4  -5    4.51    0.51
   8  -4  -5    4.59    0.60
  -8  -4   5    4.87    0.53
   8   4  -5    3.81    0.63
   8   4  -5    3.63    0.50
   8   4  -5    3.52    0.57
  -8   4   5    5.68    0.46
   6  -4  -5   15.52    0.95
   6  -4  -5   17.45    0.86
   6  -4  -5   15.21    0.99
  -6  -4   5   17.23    0.87
   6  -4  -5   15.81    0.86
   6  -4  -5   15.61    0.73
  -6   4   5   24.28    0.80
   6   4  -5   23.13    1.27
  -6   4   5   22.81    0.89
   6   4  -5   22.18    1.18
   6   4  -5   22.02    1.05
   4  -4  -5   88.24    2.84
   4  -4  -5   93.80    2.59
   4  -4  -5   90.32    3.00
   4  -4  -5   87.45    2.74
   4  -4  -5   92.37    2.76
  -4   4   5   80.91    2.20
  -4   4   5   77.83    2.30
   4   4  -5   79.04    2.77
   4   4  -5   82.66    2.54
   2  -4  -5   17.22    0.80
   2  -4  -5   16.40    1.00
  -2  -4   5   16.12    0.66
   2  -4  -5   17.25    0.66
   2  -4  -5   15.62    0.90
  -2   4   5   14.98    0.69
  -2   4   5   14.72    0.54
   2   4  -5   14.83    0.97
   2   4  -5   14.21    0.80
  -2   4   5   14.43    0.50
   0  -4  -5  100.27    3.01
   0  -4  -5  100.66    2.91
   0  -4  -5  103.42    3.31
   0  -4   5  102.76    2.82
   0  -4  -5  103.91    3.10
   0   4   5  114.02    2.97
   0   4  -5  112.31    3.36
   0   4  -5  110.20    3.58
   0   4   5  114.30    3.05
   0   4   5  112.21    3.18
  -2  -4  -5   52.16    2.00
  -2  -4  -5   52.72    1.81
  -2  -4  -5   51.33    1.76
   2  -4   5   54.75    1.59
  -2  -4  -5   52.69    1.60
   2   4   5   44.52    1.44
   2   4   5   44.66    1.37
   2   4   5   44.80    1.26
  -2   4  -5   43.72    1.63
   2   4   5   44.36    1.32
  -2   4  -5   44.99    1.81
  -4  -4  -5   54.63    1.83
  -4  -4  -5   55.70    1.59
   4  -4   5   55.29    1.57
  -4  -4  -5   52.06    1.83
  -4  -4  -5   55.10    2.10
   4  -4   5   55.16    1.66
   4  -4   5   55.42    1.55
   4   4   5   49.95    1.42
  -4   4  -5   50.09    1.79
  -4   4  -5   47.94    1.91
   4   4   5   50.66    1.40
   4   4   5   50.82    1.63
   4   4   5   48.55    1.56
   6  -4   5  164.93    4.40
  -6  -4  -5  161.88    4.52
  -6  -4  -5  162.61    4.60
  -6  -4  -5  155.06    4.82
   6   4   5  175.29    4.95
   6   4   5  179.89    4.66
   6   4   5  178.53    4.54
  -6   4  -5  171.88    5.03
  -8  -4  -5   20.06    0.87
   8  -4   5   18.78    0.81
  -8  -4  -5   18.54    1.12
  -8  -4  -5   19.27    0.99
   8   4   5   25.47    0.85
  -8   4  -5   21.25    1.11
 -10  -4  -5   47.56    1.59
  10  -4   5   47.19    1.55
 -10  -4  -5   46.10    1.98
 -10  -4  -5   48.34    1.81
  10  -4   5   48.19    1.58
 -10   4  -5   40.48    1.66
  10   4   5   43.72    1.36
 -12  -4  -5   38.40    1.76
  12  -4   5   40.55    1.33
  12  -4   5   38.41    1.38
 -12  -4  -5   39.26    1.35
 -12  -4  -5   38.10    1.65
  12   4   5   29.68    1.07
 -12   4  -5   29.61    1.39
 -14  -4  -5   16.07    1.09
 -14  -4  -5   16.65    1.18
  14  -4   5   18.30    0.76
  14  -4   5   16.37    0.85
 -14  -4  -5   15.16    0.73
 -14   4  -5   22.34    0.71
 -14   4  -5   20.03    1.18
  14   4   5   20.85    0.90
 -16  -4  -5    3.44    0.37
 -16  -4  -5    4.88    0.86
 -16  -4  -5    3.00    0.62
  16  -4   5    3.73    0.50
  16  -4   5    4.42    0.41
  16   4   5    6.06    0.60
 -16   4  -5    6.05    0.42
  16   4   5    5.50    0.53
 -16   4  -5    6.95    0.81
 -18  -4  -5   33.29    1.85
  18  -4   5   34.15    1.36
 -18  -4  -5   32.99    1.11
 -18  -4  -5   29.92    1.68
  18  -4   5   34.02    1.50
  18  -4   5   33.07    1.16
 -18   4  -5   23.52    0.91
  18   4   5   23.54    1.05
 -18   4  -5   22.66    1.37
  18   4   5   23.80    1.13
 -20  -4  -5    8.68    1.13
  20  -4   5   10.14    0.92
  20  -4   5    9.49    0.79
 -20  -4  -5    8.83    1.07
  20   4   5   11.96    0.84
 -20   4  -5   11.28    1.12
  20   4   5    9.65    0.84
 -22  -4  -5    2.93    0.80
  22  -4   5    2.53    0.52
  22  -4   5    2.73    0.64
 -22  -4  -5    3.25    0.93
  22   4   5    6.63    0.77
 -22   4  -5    4.70    0.85
  22   4   5    5.31    0.62
 -24  -4  -5   12.07    1.34
 -24  -4  -5   15.01    1.56
  24  -4   5   14.36    1.03
  24  -4   5   14.60    1.14
  24   4   5   11.04    0.90
  24   4   5    9.48    0.92
 -24   4  -5    7.21    1.04
  26  -4   5    7.24    0.91
 -26  -4  -5    7.59    1.30
  26  -4   5    6.61    0.79
 -26  -4  -5    6.04    0.44
 -26  -4  -5    8.41    1.26
  26   4   5    6.99    0.77
 -26   4  -5    5.07    1.01
  26   4   5    6.43    0.87
 -28  -4  -5   11.53    1.56
 -28  -4  -5    9.75    1.40
  28  -4   5   11.46    1.13
  28  -4   5   10.22    0.98
 -28  -4  -5    9.82    0.60
  28   4   5    9.85    0.91
 -28   4  -5   10.63    1.36
  28   4   5    9.02    1.05
  30  -4   5    9.66    1.11
 -30  -4  -5    9.07    0.57
  30  -4   5    8.82    0.94
 -30  -4  -5   10.31    1.55
 -30  -4  -5    8.08    1.44
  30   4   5   11.78    1.03
 -30   4  -5   10.44    1.44
  30   4   5   10.00    1.15
 -32  -4  -5    0.05    1.08
  32  -4   5    0.06    0.59
  32  -4   5    0.51    0.63
 -32  -4  -5    0.54    0.97
  32   4   5    0.32    0.60
 -32   4  -5    1.68    1.03
  32   4   5    0.12    0.75
  34  -4   5    4.00    0.86
 -34  -4  -5    7.14    2.18
  34  -4   5    5.11    0.97
  34  -4   5    5.24    1.15
  34   4   5    8.75    1.06
 -34   4  -5    7.59    0.73
  34   4   5    5.17    1.09
  36  -4   5    1.11    0.75
 -36   4  -5    0.63    0.46
  36   4   5    0.87    0.91
  36   4   5    0.17    0.69
  35  -5  -5    1.10    1.14
  35  -5  -5   -0.52    0.85
  33  -5  -5    5.06    1.20
  33  -5  -5    6.30    1.15
  33  -5  -5    6.55    1.42
  33   5  -5    6.99    1.51
  33   5  -5    7.02    1.21
  31  -5  -5   -1.00    0.74
  31  -5  -5   -0.86    0.77
  31  -5  -5   -0.33    0.90
  31   5  -5   -0.59    0.92
  31   5  -5    0.92    0.85
  29  -5  -5   12.99    1.46
  29  -5  -5   10.57    1.30
  29  -5  -5   11.98    1.57
  29   5  -5   12.17    1.76
  29   5  -5   10.43    1.33
  27  -5  -5    0.45    0.86
  27  -5  -5    2.50    0.92
  27  -5  -5    1.22    0.69
  27   5  -5    0.26    0.63
  27   5  -5    0.31    0.83
  25  -5  -5    4.17    0.85
  25  -5  -5    4.56    1.02
  25  -5  -5    4.08    0.94
  25   5  -5    3.14    0.79
  25   5  -5    4.36    1.21
  23  -5  -5   20.07    1.49
  23  -5  -5   21.77    1.51
  23  -5  -5   20.25    1.67
  23   5  -5   17.26    1.48
  23   5  -5   18.25    1.82
  21  -5  -5    0.74    0.65
  21  -5  -5    0.26    0.62
  21  -5  -5    0.43    0.66
  21   5  -5    0.55    0.71
  21   5  -5    0.52    0.60
  19  -5  -5   36.18    1.87
  19  -5  -5   35.93    1.85
  19  -5  -5   38.00    1.81
  19   5  -5   30.23    1.93
  19   5  -5   29.36    1.67
  17  -5  -5   82.91    3.00
  17  -5  -5   85.86    3.03
  17  -5  -5   76.12    2.85
  17  -5  -5   79.34    2.93
  17   5  -5   84.00    3.27
  17   5  -5   77.52    2.94
  15  -5  -5   42.97    1.92
  15  -5  -5   45.97    1.81
  15  -5  -5   39.29    1.87
  15  -5  -5   43.01    1.88
  15   5  -5   49.74    2.32
  15   5  -5   53.39    2.21
  13  -5  -5   17.07    1.09
 -13  -5   5   18.48    1.16
  13  -5  -5   17.97    1.17
  13  -5  -5   20.43    1.06
  13  -5  -5   18.67    1.25
  13  -5  -5   18.19    1.13
  13   5  -5   22.87    1.47
 -13   5   5   25.09    1.24
  13   5  -5   23.15    1.26
  13   5  -5   25.04    1.37
  11  -5  -5   51.00    2.03
 -11  -5   5   52.87    2.00
  11  -5  -5   49.24    1.95
  11  -5  -5   49.61    2.08
  11  -5  -5   50.48    2.00
  11  -5  -5   50.82    1.77
  11   5  -5   44.13    1.71
 -11   5   5   42.14    1.53
  11   5  -5   35.47    1.84
  11   5  -5   38.69    1.76
   9  -5  -5   36.49    1.55
  -9  -5   5   35.07    1.51
   9  -5  -5   36.96    1.66
   9  -5  -5   33.33    1.26
   9  -5  -5   34.02    1.54
   9  -5  -5   35.97    1.51
   9   5  -5   40.06    1.58
   9   5  -5   34.42    1.64
  -9   5   5   39.10    1.42
   9   5  -5   35.00    1.75
   7  -5  -5   29.12    1.31
   7  -5  -5   27.74    1.42
   7  -5  -5   28.12    1.04
  -7  -5   5   29.90    1.30
   7  -5  -5   30.02    1.36
   7  -5  -5   27.10    1.27
   7   5  -5   32.21    1.58
  -7   5   5   30.47    1.18
   7   5  -5   29.43    1.34
   5  -5  -5   37.61    1.50
  -5  -5   5   37.72    1.30
   5  -5  -5   37.69    1.18
   5  -5  -5   33.66    1.62
   5  -5  -5   36.10    1.46
   5  -5  -5   38.74    1.58
   5   5  -5   29.17    1.47
   5   5  -5   27.17    1.27
  -5   5   5   28.28    1.10
   3  -5  -5   28.87    1.43
   3  -5  -5   28.47    1.29
   3  -5  -5   27.60    1.16
  -3  -5   5   29.01    1.06
  -3   5   5   28.28    1.09
   3   5  -5   27.71    1.44
   3   5  -5   31.10    1.31
   1  -5  -5   42.76    1.81
   1  -5  -5   41.30    1.63
  -1  -5   5   42.64    1.40
   1  -5  -5   43.08    1.46
   1  -5  -5   41.50    1.60
  -1   5   5   39.42    1.39
   1   5  -5   41.79    1.61
   1   5  -5   39.96    1.75
   1  -5   5   60.11    1.86
  -1  -5  -5   62.19    2.11
  -1  -5  -5   59.96    1.85
  -1  -5  -5   61.56    2.09
   1  -5   5   58.93    1.86
  -1  -5  -5   64.14    2.36
   1   5   5   64.76    2.02
  -1   5  -5   63.03    2.36
  -1   5  -5   60.44    2.23
  -1   5  -5   64.02    2.21
  -3  -5  -5   37.18    1.47
  -3  -5  -5   36.66    1.67
   3  -5   5   36.59    1.28
   3  -5   5   37.69    1.20
  -3  -5  -5   36.08    1.17
  -3  -5  -5   37.16    1.48
  -3   5  -5   32.93    1.45
  -3   5  -5   31.32    1.42
   3   5   5   34.50    1.08
   3   5   5   33.62    1.28
  -3   5  -5   32.33    1.56
   3   5   5   34.89    1.03
  -5  -5  -5   62.24    2.16
  -5  -5  -5   62.08    1.73
  -5  -5  -5   61.02    2.08
   5  -5   5   62.05    1.94
   5  -5   5   61.19    1.75
  -5  -5  -5   64.43    2.41
   5   5   5   48.24    1.46
  -5   5  -5   44.44    1.78
   5   5   5   46.75    1.43
   7  -5   5   86.93    2.52
  -7  -5  -5   85.11    2.64
  -7  -5  -5   83.50    2.75
  -7  -5  -5   77.47    2.92
   7   5   5  102.98    2.88
  -7   5  -5  104.13    3.34
   7   5   5  109.41    2.95
  -9  -5  -5   62.69    2.48
  -9  -5  -5   64.87    2.15
   9  -5   5   66.04    2.09
  -9  -5  -5   63.10    2.31
   9  -5   5   66.78    2.07
  -9   5  -5   64.29    2.30
   9   5   5   62.84    1.87
   9   5   5   62.90    1.91
  11  -5   5   41.02    1.48
  11  -5   5   41.77    1.47
 -11  -5  -5   41.22    1.91
 -11  -5  -5   42.03    1.77
 -11  -5  -5   39.56    1.51
 -11   5  -5   35.27    1.61
  11   5   5   37.19    1.26
 -11   5  -5   36.44    1.07
  11   5   5   36.31    1.27
 -13  -5  -5   34.82    1.65
  13  -5   5   34.08    1.27
  13  -5   5   34.02    1.33
 -13  -5  -5   35.60    1.37
 -13  -5  -5   33.27    1.75
  13   5   5   35.72    1.29
 -13   5  -5   37.06    1.66
 -13   5  -5   34.32    1.12
  13   5   5   35.88    1.28
  15  -5   5   16.98    0.90
 -15  -5  -5   15.76    1.40
 -15  -5  -5   13.70    0.81
  15  -5   5   15.29    0.79
 -15  -5  -5   11.55    1.07
  15   5   5   15.43    0.84
 -15   5  -5   16.84    0.72
  15   5   5   16.82    0.86
 -15   5  -5   17.36    1.18
  17  -5   5   34.47    1.42
 -17  -5  -5   36.24    2.00
 -17  -5  -5   35.55    1.82
  17  -5   5   36.10    1.31
 -17  -5  -5   33.79    1.32
  17   5   5   40.84    1.56
 -17   5  -5   45.15    1.65
  17   5   5   41.63    1.54
 -17   5  -5   39.18    1.88
  19  -5   5    7.55    0.84
  19  -5   5    5.41    0.53
 -19  -5  -5    6.01    0.91
  19  -5   5    6.44    0.68
 -19  -5  -5    5.77    1.00
  19   5   5    3.04    0.53
  19   5   5    4.56    0.56
 -19   5  -5    4.77    0.79
 -21  -5  -5    7.02    1.14
  21  -5   5    4.79    0.72
 -21  -5  -5    4.46    0.90
  21  -5   5    5.81    0.69
  21   5   5    7.36    0.72
  21   5   5    6.39    0.72
 -21   5  -5    6.17    0.92
  23  -5   5   29.81    1.41
 -23  -5  -5   27.65    1.86
  23  -5   5   28.13    1.48
 -23  -5  -5   27.80    1.93
  23   5   5   32.73    1.53
 -23   5  -5   32.32    1.88
  23   5   5   31.14    1.45
 -25  -5  -5    8.68    1.30
  25  -5   5    9.24    1.01
  25  -5   5    8.49    0.88
 -25  -5  -5   14.02    1.66
  25   5   5    7.92    0.92
  25   5   5    8.30    0.84
 -25   5  -5    8.33    1.13
 -27  -5  -5    0.08    0.85
  27  -5   5   -0.39    0.51
  27  -5   5   -0.02    0.56
 -27  -5  -5    0.17    0.91
  27   5   5    0.46    0.53
 -27   5  -5   -0.63    0.75
  27   5   5    0.52    0.54
  29  -5   5    3.90    0.74
  29  -5   5    4.61    0.93
 -29  -5  -5    2.58    1.05
 -29  -5  -5    4.68    1.26
  29   5   5    3.71    0.72
  29   5   5    4.95    0.91
 -29   5  -5    2.97    0.95
 -31  -5  -5    4.40    1.23
  31  -5   5    6.09    1.02
 -31  -5  -5   10.55    1.71
  31  -5   5    4.77    0.82
 -31   5  -5    6.35    1.22
  31   5   5    5.80    1.05
  31   5   5    3.72    0.79
  33  -5   5    5.97    1.07
 -33  -5  -5    5.57    1.45
  33  -5   5    5.26    0.91
 -33  -5  -5    5.21    1.30
  33  -5   5    6.07    1.07
  33   5   5    3.43    0.97
  33   5   5    4.00    0.83
  35  -5   5    2.78    0.95
  35  -5   5    2.78    0.81
  35   5   5    1.67    0.80
  35   5   5    1.15    0.90
 -34  -6   5    2.22    0.94
  34  -6  -5    0.85    0.88
  34  -6  -5    2.50    1.15
  34   6  -5    3.27    2.19
  32  -6  -5    9.37    1.43
  32  -6  -5    8.71    1.52
  32  -6  -5    8.15    1.20
 -32  -6   5    8.26    1.43
  32   6  -5    6.12    1.17
  32   6  -5    7.85    1.63
  30  -6  -5   14.00    1.60
  30  -6  -5   13.58    1.43
  30  -6  -5   14.07    1.70
  30   6  -5   16.50    1.98
  30   6  -5   14.26    1.51
  28  -6  -5    1.06    0.93
  28  -6  -5    0.01    0.77
  28  -6  -5    1.71    0.76
  28   6  -5    2.71    0.91
  28   6  -5    0.21    0.96
  26  -6  -5    7.20    1.17
  26  -6  -5    8.15    1.11
  26  -6  -5    6.08    1.15
  26   6  -5    4.82    1.01
  26   6  -5    3.68    1.12
  24  -6  -5    9.27    1.24
  24  -6  -5    6.99    1.14
  24  -6  -5    7.87    1.07
  24   6  -5    9.75    1.42
  24   6  -5    8.51    1.09
  22  -6  -5   14.59    1.39
  22  -6  -5   16.12    1.45
  22  -6  -5   14.92    1.32
  22   6  -5   17.45    1.47
  22   6  -5   15.17    1.70
  20  -6  -5    2.68    0.77
  20  -6  -5    2.65    0.76
  20  -6  -5    2.08    0.76
  20   6  -5    1.40    0.88
  20   6  -5    2.70    0.74
  18  -6  -5    1.22    0.66
  18  -6  -5    0.86    0.56
  18  -6  -5    0.79    0.59
  18  -6  -5    0.32    0.58
  18   6  -5    3.29    0.92
  18   6  -5    1.74    0.67
  16  -6  -5  101.43    3.60
  16  -6  -5  105.55    3.69
  16  -6  -5  107.57    3.69
  16  -6  -5  112.77    3.51
  16   6  -5   90.16    3.50
  16   6  -5   90.70    3.27
  14  -6  -5   27.84    1.52
  14  -6  -5   24.84    1.45
  14  -6  -5   26.50    1.49
  14  -6  -5   25.41    1.27
  14   6  -5   24.46    1.47
  14   6  -5   26.73    1.64
  12  -6  -5    1.43    0.38
 -12  -6   5    1.46    0.42
  12  -6  -5    1.16    0.52
  12  -6  -5    0.54    0.48
  12  -6  -5   -0.01    0.44
  12   6  -5   -0.01    0.41
  12   6  -5   -0.24    0.55
  10  -6  -5   97.44    3.28
  10  -6  -5   98.21    3.39
  10  -6  -5  100.47    2.88
  10  -6  -5   96.69    3.27
  10  -6  -5   94.94    3.23
 -10  -6   5   99.01    3.29
 -10  -6   5   96.57    2.99
  10   6  -5   90.57    3.45
 -10   6   5  101.03    3.35
  10   6  -5   99.24    3.27
   8  -6  -5   16.95    1.09
   8  -6  -5   17.85    0.75
   8  -6  -5   18.41    1.20
  -8  -6   5   18.09    1.12
  -8  -6   5   18.48    0.92
   8  -6  -5   17.39    1.08
   8  -6  -5   16.84    1.09
  -8   6   5   20.04    0.99
   8   6  -5   19.10    1.35
   8   6  -5   19.19    1.12
   6  -6  -5   57.78    1.65
  -6  -6   5   59.20    1.94
   6  -6  -5   58.93    2.12
   6  -6  -5   57.40    2.18
   6  -6  -5   56.15    2.20
   6  -6  -5   60.84    2.38
  -6   6   5   46.79    1.73
   6   6  -5   52.10    2.17
   6   6  -5   50.47    1.96
   4  -6  -5   17.59    1.17
  -4  -6   5   18.71    0.96
   4  -6  -5   15.47    1.00
   4  -6  -5   15.62    0.92
  -4  -6   5   15.17    0.82
   4   6  -5   16.33    1.20
   4   6  -5   18.71    1.08
  -4   6   5   15.83    0.86
   2  -6  -5    9.86    0.85
  -2  -6   5   10.76    0.68
  -2  -6   5   11.35    0.71
   2  -6  -5   10.47    0.73
   2  -6  -5   10.00    1.00
   2   6  -5    8.47    0.92
   2   6  -5    8.36    0.79
  -2   6   5    9.88    0.67
   0  -6   5  100.77    2.97
   0  -6  -5  102.36    3.23
   0  -6  -5  100.67    2.96
   0  -6  -5   96.80    3.20
   0  -6   5  104.36    2.98
   0  -6  -5   97.48    3.42
   0   6   5  104.44    3.15
   0   6  -5  107.00    3.52
   0   6  -5   97.04    3.39
   0   6  -5  108.25    3.40
  -2  -6  -5   15.65    1.17
  -2  -6  -5   17.11    1.03
  -2  -6  -5   16.50    1.01
   2  -6   5   16.44    0.76
   2  -6   5   15.50    0.82
  -2  -6  -5   17.30    0.74
   2   6   5   23.17    1.10
  -2   6  -5   23.62    1.29
  -2   6  -5   23.33    1.24
  -2   6  -5   22.23    1.34
   4  -6   5   16.25    0.72
   4  -6   5   16.33    0.85
  -4  -6  -5   17.32    1.00
  -4  -6  -5   17.97    1.09
  -4  -6  -5   17.69    1.26
  -4  -6  -5   17.02    0.66
   4   6   5   18.26    1.00
  -4   6  -5   19.42    1.15
  -4   6  -5   17.61    1.14
  -6  -6  -5   54.75    2.32
   6  -6   5   57.50    1.65
   6  -6   5   55.99    1.89
  -6  -6  -5   57.62    1.53
  -6  -6  -5   55.53    2.13
  -6  -6  -5   55.40    2.04
   6   6   5   59.38    1.76
  -6   6  -5   62.29    2.30
   6   6   5   60.64    1.87
   6   6   5   59.89    1.69
   8  -6   5   45.60    1.62
  -8  -6  -5   44.87    1.88
  -8  -6  -5   46.58    2.12
  -8  -6  -5   44.96    1.78
   8  -6   5   45.87    1.68
  -8   6  -5   45.13    1.87
   8   6   5   43.56    1.47
   8   6   5   41.78    1.32
  10  -6   5   54.99    1.86
 -10  -6  -5   54.43    2.18
 -10  -6  -5   53.69    1.97
 -10  -6  -5   54.34    2.35
  10  -6   5   52.53    1.87
 -10   6  -5   49.86    2.05
  10   6   5   51.39    1.68
 -10   6  -5   49.20    1.50
  10   6   5   50.80    1.57
  12  -6   5   15.87    0.89
 -12  -6  -5   14.54    0.95
 -12  -6  -5   15.53    1.35
 -12  -6  -5   15.08    1.15
  12  -6   5   14.58    0.88
 -12   6  -5   21.40    0.82
  12   6   5   19.77    0.94
 -12   6  -5   20.68    1.29
  12   6   5   21.87    0.90
  14  -6   5   35.50    1.40
 -14  -6  -5   32.29    1.45
 -14  -6  -5   36.25    1.80
 -14  -6  -5   37.94    1.98
  14  -6   5   35.30    1.43
 -14   6  -5   39.87    1.33
  14   6   5   38.54    1.40
  14   6   5   39.56    1.46
 -14   6  -5   35.82    1.76
  16  -6   5   39.17    1.57
 -16  -6  -5   36.76    2.13
 -16  -6  -5   39.71    1.96
  16  -6   5   38.91    1.48
 -16  -6  -5   37.23    1.55
  16   6   5   33.73    1.35
 -16   6  -5   33.82    1.70
  16   6   5   33.18    1.36
  18  -6   5   40.61    1.76
 -18  -6  -5   37.94    2.17
  18  -6   5   40.75    1.51
  18  -6   5   39.03    1.60
 -18  -6  -5   38.77    2.05
 -18  -6  -5   39.03    1.58
 -18   6  -5   36.58    1.89
  18   6   5   38.92    1.53
  18   6   5   38.26    1.53
  20  -6   5    5.29    0.77
 -20  -6  -5    3.49    0.96
 -20  -6  -5    4.11    0.93
  20  -6   5    4.81    0.66
  20  -6   5    4.84    0.58
 -20   6  -5    7.80    1.04
  20   6   5    5.66    0.68
  20   6   5    5.59    0.69
 -22  -6  -5   25.18    1.81
  22  -6   5   21.53    1.27
 -22  -6  -5   22.92    2.05
  22  -6   5   22.82    1.45
 -22   6  -5   21.06    1.58
  22   6   5   20.63    1.26
  22   6   5   20.97    1.19
  24  -6   5   20.14    1.36
 -24  -6  -5   21.10    1.84
 -24  -6  -5   19.44    1.91
  24  -6   5   21.30    1.30
 -24   6  -5   21.26    1.70
  24   6   5   18.97    1.26
  24   6   5   21.26    1.24
 -26  -6  -5    4.69    1.21
  26  -6   5    5.07    0.80
  26  -6   5    6.54    0.98
 -26  -6  -5    5.12    1.28
  26   6   5    3.11    0.76
  26   6   5    4.27    0.74
 -26   6  -5    2.84    0.96
  28  -6   5    0.90    0.76
 -28  -6  -5    2.73    1.18
 -28  -6  -5    0.62    0.96
  28  -6   5    1.18    0.63
  28   6   5    2.54    0.69
  28   6   5    2.02    0.76
 -28   6  -5    2.89    0.99
  30  -6   5    6.54    0.88
  30  -6   5    7.27    1.11
 -30  -6  -5    5.81    1.37
 -30  -6  -5    4.99    1.31
 -30   6  -5    8.33    1.56
  30   6   5    5.82    0.92
  30   6   5    7.34    1.04
  32  -6   5    1.33    0.80
 -32  -6  -5    2.70    1.22
  32  -6   5    2.61    0.80
 -32  -6  -5    1.47    1.25
  32   6   5    1.24    0.82
  32   6   5    1.96    0.76
 -34  -6  -5    2.21    1.38
  34  -6   5    0.00    0.66
  34  -6   5   -0.17    0.80
  34   6   5    0.42    0.83
  34   6   5    2.06    0.82
  33  -7  -5    1.33    0.94
 -33  -7   5   -0.06    0.82
  33   7  -5    2.24    2.17
 -31  -7   5   12.04    1.72
 -31  -7   5    8.39    1.18
  31  -7  -5   12.08    1.64
  31  -7  -5    8.55    1.22
  31   7  -5   13.32    1.89
 -29  -7   5    6.80    1.47
  29  -7  -5    9.28    1.24
  29  -7  -5    6.91    1.23
 -29  -7   5    8.84    1.18
  29   7  -5    9.10    1.24
  29   7  -5    8.03    1.60
 -27  -7   5    2.74    1.06
  27  -7  -5    4.36    1.12
 -27  -7   5    2.06    0.83
  27  -7  -5    4.00    0.94
  27  -7  -5    3.80    1.21
  27   7  -5    4.33    1.22
  27   7  -5    5.95    1.05
 -25  -7   5    8.38    1.04
  25  -7  -5   10.13    1.34
  25  -7  -5    8.96    1.19
 -25  -7   5    8.05    1.34
  25  -7  -5    7.33    1.20
  25   7  -5    9.44    1.55
  25   7  -5    9.54    1.23
 -23  -7   5   12.67    1.49
  23  -7  -5   13.02    1.40
  23  -7  -5   13.36    1.37
 -23  -7   5   11.53    1.11
  23  -7  -5   11.07    1.24
  23   7  -5   10.54    1.48
  23   7  -5    9.71    1.21
  21  -7  -5   12.57    1.36
  21  -7  -5    9.15    1.14
 -21  -7   5   12.37    1.12
  21  -7  -5    9.86    1.12
 -21  -7   5    8.45    1.18
  21   7  -5   10.19    1.15
  21   7  -5   13.88    1.56
  19  -7  -5    1.01    0.61
  19  -7  -5    0.22    0.66
  19  -7  -5    0.98    0.59
 -19  -7   5    0.31    0.54
  19  -7  -5    1.00    0.66
  19   7  -5    2.45    0.92
  19   7  -5    1.49    0.65
 -17  -7   5   21.10    1.30
  17  -7  -5   24.45    1.50
  17  -7  -5   23.97    1.53
  17  -7  -5   23.63    1.35
  17  -7  -5   23.72    1.49
  17   7  -5   27.59    1.82
  17   7  -5   24.31    1.53
 -15  -7   5   10.28    0.91
  15  -7  -5    9.20    1.04
  15  -7  -5   10.47    0.89
  15  -7  -5    9.13    1.08
 -15  -7   5    7.67    1.02
  15  -7  -5   10.73    1.15
  15   7  -5   12.66    1.37
 -13  -7   5   13.91    0.98
  13  -7  -5   15.71    1.31
 -13  -7   5   14.56    1.24
  13  -7  -5   14.56    0.86
  13  -7  -5   15.32    1.26
  13  -7  -5   12.30    1.17
  13   7  -5   20.87    1.70
  11  -7  -5    8.35    0.93
  11  -7  -5    8.02    0.60
  11  -7  -5    7.88    0.95
 -11  -7   5    9.76    1.00
  11  -7  -5    7.41    0.98
 -11  -7   5    9.81    0.82
  11   7  -5   16.73    1.48
   9  -7  -5    0.55    0.24
  -9  -7   5    0.34    0.48
   9  -7  -5   -0.17    0.42
   9  -7  -5    0.87    0.49
   9  -7  -5    0.18    0.55
  -9  -7   5    0.51    0.38
   9   7  -5    1.64    0.61
   7  -7  -5   25.43    1.42
  -7  -7   5   25.15    1.18
   7  -7  -5   23.06    1.44
   7  -7  -5   23.85    1.31
  -7  -7   5   26.17    1.29
   7   7  -5   24.36    1.47
   5  -7  -5   24.94    1.34
  -5  -7   5   25.53    1.23
   5  -7  -5   22.41    1.22
  -5  -7   5   23.44    1.12
   5  -7  -5   23.61    1.44
   5   7  -5   39.81    1.90
  -3  -7   5   29.46    1.26
   3  -7  -5   26.33    1.23
   3  -7  -5   25.15    1.36
   3  -7  -5   25.41    1.50
  -3  -7   5   25.67    1.17
   3   7  -5   23.79    1.35
  -3   7   5   24.83    1.21
   3   7  -5   25.12    1.45
  -1  -7   5   10.41    0.75
   1  -7  -5   11.09    1.00
   1  -7  -5    9.60    0.75
   1  -7  -5    9.77    1.03
  -1  -7   5   11.41    0.77
   1   7  -5    7.94    0.87
   1   7  -5    9.90    1.00
  -1   7   5    7.93    0.75
   1  -7   5   85.40    2.68
  -1  -7  -5   86.63    2.92
  -1  -7  -5   82.97    2.94
   1  -7   5   85.87    2.62
  -1  -7  -5   85.81    2.59
  -1  -7  -5   85.94    3.16
  -1   7  -5   84.28    2.97
  -1   7  -5   83.03    3.02
   1   7   5   84.03    2.77
  -1   7  -5   86.49    3.06
   3  -7   5   16.77    0.94
  -3  -7  -5   17.67    1.17
   3  -7   5   19.51    0.87
  -3  -7  -5   17.15    1.28
  -3  -7  -5   19.71    1.19
  -3  -7  -5   17.89    0.79
   3   7   5   17.86    1.12
  -3   7  -5   19.07    1.25
  -3   7  -5   20.34    1.26
  -3   7  -5   19.39    1.26
   5  -7   5   80.16    2.38
  -5  -7  -5   80.04    2.89
  -5  -7  -5   82.13    2.81
  -5  -7  -5   84.40    3.10
   5  -7   5   74.80    2.54
  -5  -7  -5   82.45    2.26
  -5   7  -5   90.34    3.17
  -7  -7  -5   52.71    2.14
   7  -7   5   55.89    1.96
  -7  -7  -5   56.12    2.50
   7  -7   5   57.77    1.68
   7  -7   5   57.92    2.06
  -7  -7  -5   56.63    2.30
   7   7   5   48.30    1.40
  -7   7  -5   47.82    2.08
  -9  -7  -5    3.07    0.67
   9  -7   5    3.98    0.54
  -9  -7  -5    3.64    0.65
   9  -7   5    5.04    0.63
  -9  -7  -5    3.66    0.82
  -9   7  -5    3.79    0.69
   9   7   5    4.60    0.40
  -9   7  -5    4.17    0.40
  11  -7   5    8.51    0.75
 -11  -7  -5    7.73    0.84
 -11  -7  -5    7.53    0.92
 -11  -7  -5    7.02    1.04
  11  -7   5    6.03    0.67
 -11   7  -5   12.97    0.95
  11   7   5   10.75    0.64
 -11   7  -5    9.57    0.98
  13  -7   5   26.35    1.24
  13  -7   5   26.08    1.25
 -13  -7  -5   25.07    1.33
 -13  -7  -5   29.69    1.80
 -13  -7  -5   26.66    1.62
  13   7   5   25.42    1.07
 -13   7  -5   24.48    1.51
  15  -7   5   14.93    0.96
 -15  -7  -5   12.30    1.23
 -15  -7  -5   13.28    1.06
  15  -7   5   14.28    0.98
 -15  -7  -5   12.83    1.40
 -15   7  -5   10.81    1.13
  15   7   5   12.25    0.86
  15   7   5   12.03    0.78
 -17  -7  -5    8.85    1.26
  17  -7   5    7.99    0.74
 -17  -7  -5    6.70    1.06
  17  -7   5    7.94    0.77
 -17  -7  -5    9.46    0.89
  17   7   5    7.48    0.71
 -17   7  -5    9.62    1.13
  17   7   5    5.94    0.67
 -19  -7  -5    4.63    0.95
  19  -7   5    4.23    0.64
  19  -7   5    5.77    0.68
 -19  -7  -5    3.11    1.02
  19  -7   5    5.05    0.80
  19   7   5    9.76    0.87
 -19   7  -5   10.02    1.16
  19   7   5   12.88    0.99
 -21  -7  -5    5.83    1.31
  21  -7   5    5.79    0.79
  21  -7   5    3.95    0.80
 -21  -7  -5    5.04    1.03
 -21   7  -5    8.84    1.17
  21   7   5    6.86    0.81
  21   7   5    7.34    0.82
 -23  -7  -5   17.71    1.69
  23  -7   5   18.79    1.45
  23  -7   5   19.84    1.27
 -23  -7  -5   17.57    1.96
 -23   7  -5   15.70    1.51
  23   7   5   16.52    1.18
  23   7   5   16.09    1.21
 -25  -7  -5    2.12    1.03
  25  -7   5    1.21    0.76
 -25  -7  -5    2.52    1.15
  25  -7   5    2.03    0.64
  25   7   5    5.16    0.81
  25   7   5    3.45    0.74
 -25   7  -5    2.97    0.99
 -27  -7  -5    2.59    1.13
  27  -7   5    2.52    0.68
 -27  -7  -5    2.73    1.29
  27  -7   5    2.69    0.89
 -27   7  -5    3.02    1.05
  27   7   5    2.82    0.82
 -29  -7  -5    3.67    1.42
  29  -7   5    4.67    0.84
  29  -7   5    1.50    0.78
 -29  -7  -5    4.15    1.25
  29   7   5    2.95    0.89
  31  -7   5    0.39    0.77
 -31  -7  -5    0.39    1.05
 -31  -7  -5   -0.59    1.16
  31  -7   5    1.09    0.71
  33  -7   5    0.51    0.69
 -33  -7  -5    1.17    1.34
  33  -7   5    1.36    0.95
 -32  -8   5    0.64    0.90
  32  -8  -5    0.42    0.89
 -30  -8   5    4.38    1.04
  30  -8  -5    3.53    1.00
 -30  -8   5    4.60    1.28
  30  -8  -5    4.40    1.23
  30   8  -5    2.10    1.24
 -28  -8   5   14.55    1.40
  28  -8  -5   11.62    1.48
 -28  -8   5   13.80    1.76
  28  -8  -5   13.35    1.62
  28   8  -5   16.25    2.00
 -26  -8   5   -0.09    0.74
  26  -8  -5   -0.64    0.86
 -26  -8   5    1.13    1.03
  26  -8  -5    1.00    0.77
  26   8  -5    0.34    1.03
  26   8  -5    0.03    0.74
 -24  -8   5    7.12    1.25
  24  -8  -5    5.33    1.03
  24  -8  -5    8.06    1.31
 -24  -8   5    5.34    0.97
  24   8  -5    3.79    1.12
 -22  -8   5   14.82    1.31
 -22  -8   5   14.10    1.58
  22  -8  -5   10.96    1.34
  22  -8  -5   13.48    1.38
  22   8  -5   12.89    1.66
  20  -8  -5   12.24    1.35
 -20  -8   5   12.95    1.45
 -20  -8   5   14.29    1.25
  20  -8  -5   11.98    1.29
  20  -8  -5   15.69    1.52
  20   8  -5   15.05    1.61
 -18  -8   5   13.36    1.15
  18  -8  -5   12.10    1.28
  18  -8  -5   12.24    1.26
  18  -8  -5   11.38    1.25
 -18  -8   5   11.06    1.32
  18   8  -5   11.32    1.49
 -16  -8   5    3.01    0.69
 -16  -8   5    3.87    0.90
  16  -8  -5    3.19    0.80
  16  -8  -5    1.87    0.72
  16  -8  -5    2.92    0.80
  16   8  -5    2.76    0.92
  14  -8  -5   10.57    1.12
  14  -8  -5    7.63    1.00
 -14  -8   5    9.43    0.91
  14  -8  -5    8.45    1.10
 -14  -8   5    8.37    1.04
  14   8  -5    8.25    1.15
 -12  -8   5   56.93    2.36
  12  -8  -5   54.02    2.44
 -12  -8   5   51.99    2.09
  12  -8  -5   55.27    2.35
  12  -8  -5   55.69    2.35
  12   8  -5   56.96    2.64
 -10  -8   5    9.76    1.03
  10  -8  -5    8.20    1.03
 -10  -8   5   10.13    0.89
  10  -8  -5    9.64    1.05
  10  -8  -5    8.47    0.98
  10   8  -5    3.82    0.82
  -8  -8   5    2.28    0.64
  -8  -8   5    2.91    0.53
   8  -8  -5    2.13    0.70
   8  -8  -5    1.96    0.63
   8  -8  -5    2.17    0.58
   8   8  -5    1.19    0.68
   6  -8  -5   21.51    1.33
   6  -8  -5   18.40    1.54
  -6  -8   5   20.78    1.14
  -6  -8   5   21.94    1.25
   6  -8  -5   19.91    1.24
   6   8  -5   25.08    1.60
   4  -8  -5   11.25    1.23
   4  -8  -5   10.01    0.92
  -4  -8   5   11.31    0.95
  -4  -8   5   11.99    0.89
   4  -8  -5    9.60    1.00
   4   8  -5    5.37    0.90
  -2  -8   5   39.01    1.55
  -2  -8   5   34.56    1.52
   2  -8  -5   39.04    1.80
   2  -8  -5   35.05    1.53
   2  -8  -5   38.59    2.00
   2   8  -5   37.71    1.86
   0  -8   5   60.50    2.10
   0  -8  -5   56.02    2.30
   0  -8  -5   60.73    2.57
   0  -8  -5   61.33    2.05
   0  -8   5   56.12    2.05
   0   8  -5   48.95    2.21
   0   8  -5   46.23    2.10
  -2  -8  -5   26.42    1.09
  -2  -8  -5   23.67    1.43
   2  -8   5   23.78    1.21
  -2  -8  -5   29.59    1.70
  -2  -8  -5   26.14    1.50
   2  -8   5   26.04    1.17
  -2   8  -5   22.79    1.47
  -2   8  -5   22.36    1.37
  -4  -8  -5    5.13    0.89
  -4  -8  -5    4.29    0.72
   4  -8   5    5.29    0.55
  -4  -8  -5    4.57    0.44
   4  -8   5    4.87    0.69
   4  -8   5    5.84    0.68
  -4  -8  -5    4.40    0.79
  -4   8  -5    3.05    0.74
  -6  -8  -5   32.60    1.64
   6  -8   5   31.49    1.38
   6  -8   5   32.02    1.19
   6  -8   5   28.01    1.42
  -6  -8  -5   31.33    1.82
  -6  -8  -5   31.35    1.69
  -6   8  -5   19.58    1.38
   8  -8   5   18.71    1.10
  -8  -8  -5   19.26    1.39
   8  -8   5   17.89    1.07
  -8  -8  -5   19.52    1.67
  -8  -8  -5   18.88    1.27
  -8   8  -5   19.97    1.41
  10  -8   5   51.91    1.90
 -10  -8  -5   51.38    2.30
 -10  -8  -5   46.87    2.07
  10  -8   5   45.87    1.90
 -10  -8  -5   48.12    2.41
 -10   8  -5   41.45    2.01
 -12  -8  -5   12.44    1.11
 -12  -8  -5   13.94    1.48
  12  -8   5   12.45    0.96
 -12  -8  -5   14.02    1.31
  12  -8   5   13.01    1.01
 -12   8  -5   20.83    1.47
 -14  -8  -5    6.10    0.97
  14  -8   5    5.80    0.70
 -14  -8  -5    5.67    0.81
 -14  -8  -5    6.16    1.09
  14  -8   5    5.34    0.70
 -14   8  -5    7.45    1.00
 -16  -8  -5    0.94    0.92
  16  -8   5    1.42    0.53
  16  -8   5    0.95    0.49
 -16  -8  -5    0.74    0.57
 -16  -8  -5    1.29    0.68
 -16   8  -5    1.86    0.74
 -18  -8  -5    9.43    1.26
 -18  -8  -5   11.89    1.47
  18  -8   5   11.12    0.96
  18  -8   5   11.32    1.09
  18  -8   5   12.01    0.98
 -18  -8  -5    9.09    1.39
 -18   8  -5   13.55    1.33
  20  -8   5    4.36    0.68
 -20  -8  -5    5.41    1.34
  20  -8   5    3.95    0.67
  20  -8   5    4.11    0.83
 -20  -8  -5    4.02    1.08
 -20   8  -5    4.16    0.94
 -22  -8  -5    6.80    1.49
 -22  -8  -5    7.13    1.25
  22  -8   5    5.04    0.89
  22  -8   5    6.95    0.83
 -22   8  -5    8.05    1.17
  24  -8   5    4.49    0.89
  24  -8   5    3.20    0.75
 -24  -8  -5    2.26    1.11
 -24  -8  -5    5.09    1.32
 -24   8  -5    2.47    1.00
  26  -8   5    1.61    0.70
  26  -8   5    2.25    0.90
 -26  -8  -5    1.75    1.25
 -26  -8  -5    0.88    1.07
 -26   8  -5    2.73    1.04
  28  -8   5    8.63    1.02
 -28  -8  -5    5.74    1.51
  28  -8   5    7.99    1.14
 -28  -8  -5    6.31    1.43
  30  -8   5    9.02    1.28
 -30  -8  -5    7.72    1.80
 -30  -8  -5    8.01    1.77
  30  -8   5    6.48    0.97
  32  -8   5    6.43    1.03
 -32  -8  -5    8.29    1.81
  29  -9  -5   11.09    1.57
 -29  -9   5   10.43    1.91
  29  -9  -5   13.48    1.63
 -29  -9   5    9.61    1.34
  29   9  -5   10.19    1.81
  27  -9  -5    9.40    1.42
 -27  -9   5    8.15    1.22
  27  -9  -5    8.78    1.40
 -27  -9   5    7.58    1.55
  27   9  -5    8.95    1.60
 -25  -9   5    2.01    1.13
  25  -9  -5    1.05    0.96
 -25  -9   5    0.74    0.81
  25  -9  -5    0.58    0.90
  25   9  -5    1.35    1.02
 -23  -9   5    1.24    0.81
  23  -9  -5    2.17    1.02
  23  -9  -5    1.30    0.84
 -23  -9   5    1.99    1.05
  23   9  -5    2.44    1.15
  21  -9  -5   21.68    1.79
  21  -9  -5   21.04    1.78
 -21  -9   5   19.74    1.86
 -21  -9   5   18.15    1.52
  21  -9  -5   21.12    1.73
  21   9  -5   19.91    1.99
 -19  -9   5    2.03    0.75
  19  -9  -5   -0.44    0.70
  19  -9  -5    0.43    0.82
  19  -9  -5    0.41    0.69
 -19  -9   5    0.97    0.82
  19   9  -5    2.73    0.97
 -17  -9   5   10.02    1.27
  17  -9  -5   11.73    1.31
  17  -9  -5   12.77    1.35
 -17  -9   5   13.15    1.20
  17  -9  -5   14.02    1.42
  17   9  -5   14.04    1.63
  15  -9  -5   21.42    1.54
  15  -9  -5   20.52    1.59
 -15  -9   5   18.46    1.60
  15  -9  -5   17.29    1.53
 -15  -9   5   20.81    1.39
  15   9  -5   21.13    1.80
  13  -9  -5    2.08    0.77
 -13  -9   5    0.99    0.57
  13  -9  -5    0.53    0.72
  13  -9  -5    0.68    0.73
 -13  -9   5    1.94    0.72
  13   9  -5    3.96    0.93
 -11  -9   5   35.82    1.90
  11  -9  -5   36.76    1.86
  11  -9  -5   34.41    1.92
 -11  -9   5   33.98    1.67
  11  -9  -5   33.85    1.98
  11   9  -5   42.68    2.21
   9  -9  -5    2.84    0.81
   9  -9  -5    1.22    0.66
  -9  -9   5    1.87    0.59
  -9  -9   5    2.93    0.75
   9  -9  -5    3.06    0.85
   9   9  -5    2.06    0.82
  -7  -9   5    5.45    0.74
   7  -9  -5    4.90    0.94
  -7  -9   5    4.92    0.79
   7  -9  -5    4.80    0.89
   7  -9  -5    4.22    0.77
   7   9  -5    4.33    0.86
   5  -9  -5   59.94    2.37
  -5  -9   5   63.05    2.42
   5  -9  -5   61.55    2.55
   5  -9  -5   64.57    2.74
  -5  -9   5   62.79    2.30
   5   9  -5   62.61    2.68
   3  -9  -5    2.38    0.83
  -3  -9   5    1.02    0.50
   3  -9  -5    1.70    0.56
  -3  -9   5    1.70    0.54
   3  -9  -5    0.87    0.61
   3   9  -5    0.74    0.58
  -1  -9   5   23.79    1.27
   1  -9  -5   20.97    1.20
   1  -9  -5   23.24    1.67
   1  -9  -5   26.01    1.50
  -1  -9   5   21.64    1.24
   1   9  -5   29.27    1.69
   1   9  -5   24.57    1.64
  -1  -9  -5    4.81    0.92
  -1  -9  -5    4.20    0.79
   1  -9   5    4.43    0.64
   1  -9   5    5.64    0.67
  -1  -9  -5    4.40    0.59
  -1   9  -5    7.41    0.98
  -1   9  -5    6.76    1.02
   3  -9   5    0.40    0.45
  -3  -9  -5   -0.12    0.35
   3  -9   5    0.27    0.37
  -3  -9  -5   -0.27    0.55
   3  -9   5    0.88    0.57
  -3  -9  -5   -0.01    0.59
  -3  -9  -5   -0.07    0.58
  -3   9  -5    0.60    0.65
   5  -9   5   26.57    1.48
  -5  -9  -5   27.58    1.80
  -5  -9  -5   28.00    1.57
   5  -9   5   27.86    1.36
   5  -9   5   26.46    1.29
  -5  -9  -5   24.59    1.63
  -5   9  -5   24.51    1.63
   7  -9   5    5.36    0.68
  -7  -9  -5    5.80    0.93
  -7  -9  -5    6.48    1.08
  -7  -9  -5    5.31    0.95
   7  -9   5    4.61    0.72
  -7   9  -5    3.55    0.83
  -9  -9  -5    2.99    0.91
   9  -9   5    1.76    0.52
   9  -9   5    2.90    0.68
  -9  -9  -5    2.01    0.79
  -9  -9  -5    1.94    0.69
  -9   9  -5    2.36    0.71
 -11  -9  -5   26.64    1.81
 -11  -9  -5   28.54    1.96
  11  -9   5   28.40    1.41
 -11  -9  -5   25.04    1.58
  11  -9   5   26.10    1.38
 -11   9  -5   29.63    1.82
  13  -9   5    4.54    0.76
 -13  -9  -5    4.77    1.04
  13  -9   5    4.33    0.71
 -13  -9  -5    4.33    0.84
 -13  -9  -5    3.28    1.02
 -13   9  -5    4.30    0.90
 -15  -9  -5    9.18    1.05
  15  -9   5    7.66    0.87
 -15  -9  -5    7.72    1.30
 -15  -9  -5    7.05    1.14
  15  -9   5    7.95    0.86
 -15   9  -5    9.75    1.24
  17  -9   5    6.83    0.86
 -17  -9  -5    8.17    1.30
  17  -9   5    8.71    0.90
 -17  -9  -5    7.12    1.00
 -17  -9  -5    8.36    1.49
  17  -9   5    6.46    1.00
 -17   9  -5    4.51    0.96
 -19  -9  -5   11.72    1.64
  19  -9   5   14.90    1.17
  19  -9   5   14.95    1.16
 -19  -9  -5   16.88    1.78
  19  -9   5   13.49    1.26
 -19   9  -5   17.33    1.59
  21  -9   5    4.42    0.90
 -21  -9  -5    6.63    1.33
 -21  -9  -5    7.21    1.54
  21  -9   5    7.31    0.93
 -21   9  -5    4.31    1.01
 -23  -9  -5    0.74    1.18
  23  -9   5    0.59    0.62
  23  -9   5    1.70    0.78
 -23  -9  -5    1.89    1.04
 -23   9  -5    0.48    0.89
 -25  -9  -5    8.35    1.72
  25  -9   5   10.48    1.31
  25  -9   5    7.41    0.97
 -25  -9  -5    9.42    1.57
 -27  -9  -5    5.78    1.72
  27  -9   5    4.31    0.99
  27  -9   5    4.10    0.86
 -27  -9  -5    2.98    1.31
  29  -9   5    7.59    1.05
  29  -9   5    3.25    1.02
 -29  -9  -5    5.81    1.60
 -28 -10   5    2.19    0.96
  28 -10  -5    3.13    1.12
  28  10  -5    1.27    1.25
 -26 -10   5    6.25    1.12
  26 -10  -5    4.63    1.32
 -26 -10   5    7.11    1.43
  26 -10  -5    8.88    1.45
  26  10  -5    5.38    1.50
  24 -10  -5    3.35    1.15
  24 -10  -5    3.89    1.20
 -24 -10   5    4.10    1.20
 -24 -10   5    4.56    1.06
  24  10  -5    6.44    1.45
 -22 -10   5    6.83    1.29
  22 -10  -5    9.90    1.37
 -22 -10   5    7.47    1.12
  22 -10  -5    8.23    1.27
  22 -10  -5    7.13    1.21
  22  10  -5   10.19    1.60
  20 -10  -5    1.41    0.88
 -20 -10   5    0.04    0.71
 -20 -10   5    0.70    0.86
  20 -10  -5    2.82    1.01
  20 -10  -5    3.54    1.07
  20  10  -5    1.91    0.99
 -18 -10   5   14.62    1.57
 -18 -10   5   13.45    1.31
  18 -10  -5   14.13    1.47
  18 -10  -5   14.29    1.49
  18 -10  -5   14.85    1.53
  18  10  -5   13.38    1.65
  16 -10  -5    5.22    0.98
  16 -10  -5    3.92    0.96
  16 -10  -5    5.98    1.06
 -16 -10   5    7.23    1.23
 -16 -10   5    5.31    0.91
  16  10  -5    6.14    1.24
 -14 -10   5    1.70    0.71
  14 -10  -5    0.72    0.68
  14 -10  -5   -0.14    0.75
 -14 -10   5    0.75    0.74
  14 -10  -5   -0.17    0.65
  14  10  -5    0.53    0.74
  12 -10  -5   23.40    1.66
  12 -10  -5   21.97    1.82
  12 -10  -5   20.75    1.70
 -12 -10   5   20.72    1.48
 -12 -10   5   18.94    1.50
  12  10  -5   16.19    1.65
  10 -10  -5    8.06    1.11
  10 -10  -5    9.54    1.20
 -10 -10   5    8.66    0.96
  10 -10  -5    5.93    0.98
 -10 -10   5    7.86    1.07
  10  10  -5   12.01    1.42
   8 -10  -5    0.83    0.64
  -8 -10   5    3.14    0.69
   8 -10  -5    1.15    0.70
   8 -10  -5    1.09    0.82
  -8 -10   5    1.54    0.69
   8  10  -5    0.90    0.79
  -6 -10   5   20.68    1.32
   6 -10  -5   21.97    1.59
   6 -10  -5   18.75    1.37
   6 -10  -5   18.58    1.63
  -6 -10   5   19.62    1.38
   6  10  -5   21.98    1.63
   4 -10  -5   11.83    1.13
  -4 -10   5   12.61    1.07
   4 -10  -5   12.21    1.37
  -4 -10   5   16.08    1.24
   4 -10  -5   14.32    1.37
   4  10  -5    9.97    1.22
   4  10  -5   12.80    1.43
  -2 -10   5    9.74    0.92
   2 -10  -5    7.67    1.04
  -2 -10   5    8.59    0.94
   2 -10  -5    8.61    1.24
   2 -10  -5    7.88    0.86
   2  10  -5   10.36    1.30
   2  10  -5    9.54    1.17
   0 -10  -5    0.47    0.47
   0 -10  -5    1.32    0.76
   0 -10  -5    1.31    0.72
   0 -10   5    0.54    0.48
   0 -10   5    1.11    0.52
   0 -10   5   -0.39    0.63
   0  10  -5    1.61    0.71
   0  10  -5    2.01    0.74
   2 -10   5   14.56    1.07
   2 -10   5   13.89    1.01
   2 -10   5    9.03    1.04
  -2 -10  -5   12.79    1.31
  -2 -10  -5   12.48    1.40
  -2  10  -5   13.88    1.41
  -4 -10  -5    7.06    1.06
  -4 -10  -5    6.28    1.20
   4 -10   5    5.80    0.77
  -4 -10  -5    7.03    1.11
   4 -10   5    5.87    0.88
  -4  10  -5    5.17    0.97
  -6 -10  -5    8.11    1.14
  -6 -10  -5    8.51    1.13
   6 -10   5    7.26    0.91
   6 -10   5    7.15    0.85
  -6 -10  -5    6.88    1.26
  -6  10  -5    7.24    1.08
  -8 -10  -5    0.72    0.74
  -8 -10  -5    0.88    0.73
  -8 -10  -5    0.30    0.77
   8 -10   5    1.76    0.61
   8 -10   5    0.38    0.54
  -8  10  -5    0.42    0.68
 -10 -10  -5    1.63    0.90
  10 -10   5    1.73    0.61
 -10 -10  -5    2.38    0.89
  10 -10   5    3.44    0.68
 -10 -10  -5    2.30    0.81
 -10  10  -5    2.05    0.84
  12 -10   5    9.73    1.01
  12 -10   5   11.46    1.01
 -12 -10  -5   11.30    1.28
 -12 -10  -5   11.40    1.45
 -12 -10  -5   11.42    1.60
 -12  10  -5   11.86    1.38
 -14 -10  -5    4.13    0.91
 -14 -10  -5    7.46    1.44
  14 -10   5    6.19    0.83
 -14 -10  -5    2.68    0.97
  14 -10   5    5.19    0.87
 -14  10  -5    6.37    1.08
 -16 -10  -5    2.03    1.05
  16 -10   5    1.13    0.68
  16 -10   5    1.89    0.68
  16 -10   5    1.07    0.66
 -16 -10  -5    1.61    0.96
 -16 -10  -5    1.45    0.76
 -16  10  -5    2.75    0.92
  18 -10   5    0.24    0.66
  18 -10   5    1.15    0.64
  18 -10   5   -0.27    0.57
 -18 -10  -5   -0.44    0.77
 -18 -10  -5    0.25    1.05
 -18  10  -5   -0.35    0.76
  20 -10   5    1.40    0.78
 -20 -10  -5    1.70    1.13
 -20 -10  -5    1.82    1.09
  20 -10   5    1.42    0.70
 -20  10  -5    2.43    0.93
 -22 -10  -5    0.65    1.10
  22 -10   5    0.29    0.63
  22 -10   5    0.35    0.84
 -22 -10  -5    0.02    1.03
  24 -10   5    6.30    0.94
 -24 -10  -5    7.70    1.54
 -24 -10  -5    5.37    1.63
  24 -10   5    7.59    1.23
 -26 -10  -5    1.32    1.25
 -26 -10  -5    1.02    1.15
  26 -10   5    1.24    0.97
  26 -10   5    2.29    0.79
  28 -10   5    0.62    0.68
  25 -11  -5    3.20    1.11
 -25 -11   5    4.37    1.12
  25 -11  -5    4.55    1.46
  25  11  -5    2.29    1.20
  23 -11  -5   18.16    1.91
 -23 -11   5   17.34    1.66
  23 -11  -5   20.54    1.97
 -23 -11   5   16.28    2.01
  23  11  -5   13.69    1.90
 -21 -11   5    4.79    1.31
  21 -11  -5    5.34    1.16
  21 -11  -5    4.32    1.11
  21 -11  -5    4.60    1.13
 -21 -11   5    5.29    1.10
  21  11  -5    0.99    1.05
 -19 -11   5   14.47    1.44
  19 -11  -5   11.12    1.43
  19 -11  -5   13.97    1.61
  19 -11  -5   10.90    1.45
 -19 -11   5   11.80    1.65
  19  11  -5   10.36    1.57
  17 -11  -5    8.18    1.26
  17 -11  -5    7.69    1.31
 -17 -11   5    7.18    1.11
 -17 -11   5    5.00    1.16
  17 -11  -5    7.54    1.31
  17  11  -5   10.22    1.46
  15 -11  -5    6.14    1.21
  15 -11  -5    7.48    1.26
  15 -11  -5    7.90    1.29
 -15 -11   5    8.72    1.12
 -15 -11   5    6.08    1.19
  15  11  -5    7.36    1.36
  13 -11  -5   -0.05    0.70
  13 -11  -5    0.51    0.78
  13 -11  -5    0.35    0.77
 -13 -11   5    0.62    0.68
 -13 -11   5    1.04    0.84
  13  11  -5    1.16    0.91
  11 -11  -5    4.06    0.97
 -11 -11   5    4.10    0.95
  11 -11  -5    4.53    1.00
  11 -11  -5    3.66    1.04
 -11 -11   5    7.32    1.01
  11  11  -5    5.88    1.11
   9 -11  -5    1.36    0.86
  -9 -11   5    1.07    0.78
  -9 -11   5    0.25    0.60
   9 -11  -5    1.14    0.88
   9 -11  -5    0.80    0.76
   9  11  -5    1.74    0.88
   7 -11  -5    3.32    0.90
  -7 -11   5    4.66    0.92
   7 -11  -5    1.63    0.92
  -7 -11   5    3.78    0.77
   7 -11  -5    3.92    0.89
   7  11  -5    5.06    1.05
   5 -11  -5    0.68    0.86
   5 -11  -5    0.65    0.70
   5 -11  -5    1.79    0.68
  -5 -11   5    1.15    0.63
  -5 -11   5    2.09    0.74
   5  11  -5   -0.83    0.64
   5  11  -5   -0.42    0.79
  -3 -11   5    6.78    0.97
   3 -11  -5    7.73    0.98
  -3 -11   5    6.56    0.89
  -3 -11   5   10.24    1.23
   3 -11  -5    8.44    1.26
   3 -11  -5    5.09    0.98
   3  11  -5    9.73    1.39
   3  11  -5    7.88    1.16
  -1 -11   5    5.12    0.85
   1 -11  -5    7.21    1.08
   1 -11  -5    5.42    1.09
  -1 -11   5    6.67    1.00
  -1 -11   5    5.19    0.83
   1  11  -5    6.55    1.06
   1  11  -5    9.23    1.35
  -1 -11  -5   16.43    1.54
   1 -11   5   15.05    1.20
  -1 -11  -5   12.96    1.59
   1 -11   5    9.19    1.12
  -1  11  -5   12.29    1.49
  -3 -11  -5    1.58    0.89
   3 -11   5    1.50    0.77
   3 -11   5    1.25    0.62
  -3 -11  -5    1.80    0.85
  -3  11  -5    0.99    0.85
  -5 -11  -5    3.69    1.00
   5 -11   5    4.83    0.79
   5 -11   5    4.62    0.91
  -5 -11  -5    3.40    1.02
  -5  11  -5    5.04    1.11
   7 -11   5   11.04    1.18
   7 -11   5   10.01    1.01
  -7 -11  -5    7.83    1.23
  -7 -11  -5   11.28    1.51
  -7 -11  -5    8.49    1.17
  -7  11  -5   12.80    1.44
  -9 -11  -5    7.07    1.14
   9 -11   5    6.37    0.86
  -9 -11  -5    7.39    1.25
   9 -11   5    8.33    1.07
  -9 -11  -5    7.85    1.39
  -9  11  -5    7.97    1.26
  11 -11   5    4.80    0.89
 -11 -11  -5    4.99    1.30
  11 -11   5    6.12    0.87
 -11 -11  -5    4.48    1.00
 -11 -11  -5    4.97    1.16
 -11  11  -5    4.67    1.11
 -13 -11  -5    7.38    1.17
 -13 -11  -5    7.17    1.49
  13 -11   5    8.30    1.08
  13 -11   5    6.57    0.93
 -13 -11  -5    7.81    1.37
 -13  11  -5    5.51    1.14
 -15 -11  -5    1.14    1.01
 -15 -11  -5    2.34    0.92
  15 -11   5    3.21    0.78
 -15 -11  -5    2.79    1.17
  15 -11   5    2.31    0.81
  15 -11   5    1.45    0.75
 -15  11  -5    2.81    1.00
  17 -11   5    4.69    0.98
  17 -11   5    4.91    0.88
 -17 -11  -5    5.36    1.40
 -17 -11  -5    4.71    1.31
  17 -11   5    4.08    0.87
 -17  11  -5    2.39    1.07
 -19 -11  -5    0.00    1.18
  19 -11   5    1.70    0.73
  19 -11   5    0.60    0.73
 -19 -11  -5   -1.62    0.96
  19 -11   5   -0.15    0.79
  21 -11   5    4.18    1.08
 -21 -11  -5    5.50    1.53
 -21 -11  -5    5.72    1.41
  21 -11   5    5.81    0.95
 -23 -11  -5    3.31    1.55
  23 -11   5    1.30    0.85
  23 -11   5    0.66    0.71
 -23 -11  -5    1.23    1.26
  25 -11   5    2.19    0.82
 -22 -12   5    1.87    0.95
  22 -12  -5    1.49    1.12
 -22 -12   5    1.55    1.34
  22  12  -5    1.31    1.16
 -20 -12   5    0.69    0.91
  20 -12  -5    1.97    1.09
  20 -12  -5    1.17    0.97
  20 -12  -5    1.64    0.94
 -20 -12   5    2.30    1.17
  20  12  -5    1.70    1.12
  18 -12  -5    0.79    0.88
 -18 -12   5    0.00    0.81
 -18 -12   5    0.69    0.94
  18 -12  -5    1.06    0.90
  18 -12  -5    0.43    0.88
  18  12  -5    2.50    1.17
  16 -12  -5    8.94    1.37
  16 -12  -5    7.14    1.29
 -16 -12   5    7.38    1.11
 -16 -12   5    8.88    1.46
  16 -12  -5    9.62    1.38
  16  12  -5    6.40    1.30
  14 -12  -5    5.59    1.23
 -14 -12   5    4.38    0.98
  14 -12  -5    4.79    1.13
  14 -12  -5    5.73    1.17
 -14 -12   5    5.16    1.14
  14  12  -5    7.13    1.29
 -12 -12   5    1.76    0.99
  12 -12  -5    0.66    0.81
 -12 -12   5    0.04    0.73
  12 -12  -5    0.22    0.80
  12 -12  -5    0.90    0.88
  12  12  -5   -0.09    0.86
  10 -12  -5   12.30    1.48
  10 -12  -5   15.74    1.60
 -10 -12   5   11.38    1.24
 -10 -12   5   10.42    1.40
  10 -12  -5   13.52    1.44
  10  12  -5   13.73    1.60
   8 -12  -5    6.65    1.26
   8 -12  -5    7.40    1.23
  -8 -12   5    5.73    0.95
   8 -12  -5    7.27    1.13
  -8 -12   5    6.36    1.20
  -8 -12   5    8.06    1.20
   8  12  -5    6.35    1.22
  -6 -12   5    5.80    1.08
  -6 -12   5    5.62    0.93
  -6 -12   5    5.83    1.07
   6 -12  -5    7.37    1.18
   6 -12  -5    7.08    1.31
   6  12  -5    9.20    1.43
   6  12  -5    9.28    1.32
   4 -12  -5    7.50    1.17
  -4 -12   5    3.94    0.85
   4 -12  -5    5.21    1.25
  -4 -12   5    6.13    1.01
  -4 -12   5    8.40    1.25
   4  12  -5    5.16    1.23
   4  12  -5    4.59    1.04
  -2 -12   5    1.17    0.65
  -2 -12   5   -0.42    0.76
   2 -12  -5   -0.28    0.78
   2 -12  -5    0.62    0.92
   2  12  -5    0.02    0.86
   0 -12   5    2.86    0.87
   0 -12  -5    1.22    0.82
   0 -12  -5    2.56    1.00
   0 -12   5    1.54    0.73
   0  12  -5    0.14    0.89
   2 -12   5    2.75    0.84
  -2 -12  -5    1.60    0.98
  -2 -12  -5    3.05    0.90
   2 -12   5    2.80    0.77
  -2  12  -5    2.30    0.91
  -4 -12  -5    1.12    0.83
   4 -12   5    0.30    0.63
   4 -12   5   -0.48    0.63
  -4 -12  -5   -0.01    0.84
  -4  12  -5    0.27    0.88
   6 -12   5   12.70    1.31
  -6 -12  -5   12.52    1.73
  -6 -12  -5   12.42    1.52
   6 -12   5   16.36    1.32
  -6  12  -5   11.66    1.55
  -8 -12  -5   -0.04    0.92
   8 -12   5    0.51    0.66
  -8 -12  -5   -1.28    0.80
   8 -12   5   -0.46    0.59
  -8 -12  -5   -0.66    0.84
  -8  12  -5    0.44    0.81
 -10 -12  -5    2.52    1.02
 -10 -12  -5    4.32    1.21
 -10 -12  -5    5.13    1.37
  10 -12   5    3.43    0.81
  10 -12   5    5.20    0.99
 -10  12  -5    1.98    1.00
 -12 -12  -5    2.53    0.98
  12 -12   5    1.34    0.82
  12 -12   5    2.27    0.76
 -12 -12  -5    1.30    1.14
 -12 -12  -5    1.54    1.11
 -12  12  -5    2.55    1.06
 -14 -12  -5    1.00    1.12
 -14 -12  -5    1.19    0.91
  14 -12   5    1.79    0.90
  14 -12   5    1.95    0.88
 -14 -12  -5    2.29    1.12
  14 -12   5    1.55    0.75
 -16 -12  -5    2.79    1.42
 -16 -12  -5    1.87    1.14
  16 -12   5    0.99    0.77
  16 -12   5    0.68    0.71
  16 -12   5    1.70    0.82
 -18 -12  -5    2.91    1.28
  18 -12   5    5.03    0.96
  18 -12   5    6.53    1.20
 -18 -12  -5    3.45    1.41
  18 -12   5    5.48    1.04
  20 -12   5    5.29    1.09
  20 -12   5    5.34    0.95
 -20 -12  -5    7.30    1.68
 -20 -12  -5    6.05    1.78
  22 -12   5    3.88    0.91
 -19 -13   5    1.58    1.25
 -19 -13   5    1.52    0.97
  19 -13  -5    2.33    1.61
  19 -13  -5    1.69    1.04
 -17 -13   5    5.89    1.15
 -17 -13   5    6.15    1.49
  17 -13  -5    5.60    1.23
  17 -13  -5    4.13    1.23
 -17 -13   5    4.25    1.31
 -15 -13   5    3.84    1.30
 -15 -13   5    3.98    1.34
  15 -13  -5    6.16    1.32
  15 -13  -5    6.16    1.28
 -15 -13   5    6.90    1.17
  15 -13  -5    7.17    1.40
 -13 -13   5    1.73    0.89
 -13 -13   5    2.76    1.12
  13 -13  -5    2.70    1.04
  13 -13  -5    2.77    1.09
 -13 -13   5    2.87    1.05
  13 -13  -5    4.12    1.19
  11 -13  -5    6.37    1.60
  11 -13  -5    7.25    1.36
 -11 -13   5    4.88    1.23
  11 -13  -5    8.72    1.41
 -11 -13   5    5.63    1.21
 -11 -13   5   10.13    1.28
   9 -13  -5   -1.49    0.85
  -9 -13   5   -0.86    0.69
  -9 -13   5    0.45    0.90
  -9 -13   5   -0.24    0.92
   9 -13  -5   -0.22    0.98
  -7 -13   5    1.67    0.98
  -7 -13   5    1.45    0.82
   7 -13  -5    2.86    1.04
   7 -13  -5    1.04    0.98
  -7 -13   5    2.01    1.03
   5 -13  -5   11.22    1.57
   5 -13  -5   14.51    1.61
  -5 -13   5    8.65    1.12
  -5 -13   5    9.97    1.42
   5  13  -5   12.76    1.85
  -3 -13   5   -0.51    0.75
   3 -13  -5    0.72    0.91
  -3 -13   5    1.09    0.78
   3 -13  -5   -0.14    0.85
   3  13  -5   -0.17    0.97
  -1 -13   5   11.80    1.38
  -1 -13   5   14.86    1.33
   1 -13  -5   15.95    1.89
   1 -13  -5    9.96    1.38
   1  13  -5   12.64    1.75
  -1 -13  -5    0.45    1.07
   1 -13   5    2.21    0.97
  -1 -13  -5   -1.32    0.73
   1 -13   5    1.27    0.75
  -1  13  -5    0.20    1.01
   3 -13   5    0.33    0.70
  -3 -13  -5    0.55    0.98
   3 -13   5   -0.14    0.77
  -3 -13  -5   -0.07    0.87
  -3  13  -5   -0.59    1.00
  -5 -13  -5   -0.03    1.04
   5 -13   5   -0.39    0.80
  -5 -13  -5    0.69    0.96
   5 -13   5   -0.29    0.63
   7 -13   5    1.73    0.77
   7 -13   5    1.51    0.82
  -7 -13  -5    2.38    1.10
  -7 -13  -5    1.27    1.08
  -9 -13  -5    3.36    1.15
   9 -13   5    2.78    0.99
   9 -13   5    1.25    0.75
  -9 -13  -5    2.75    1.36
  11 -13   5    1.76    0.85
 -11 -13  -5    1.36    1.22
 -11 -13  -5    2.47    1.38
  11 -13   5    2.06    0.80
 -11 -13  -5    2.84    1.12
 -13 -13  -5    3.94    1.46
 -13 -13  -5    2.87    1.14
 -13 -13  -5    5.14    1.43
  13 -13   5    3.97    1.07
  13 -13   5    2.46    0.87
  13 -13   5    3.30    0.96
 -15 -13  -5    0.07    1.11
  15 -13   5   -0.40    0.76
 -15 -13  -5   -0.72    1.27
  15 -13   5    0.05    0.72
  15 -13   5    0.02    0.80
 -17 -13  -5    1.88    1.27
  17 -13   5    3.13    0.94
  17 -13   5    0.80    0.79
  19 -13   5    2.18    1.07
  14 -14  -5    9.94    1.56
 -12 -14   5    5.63    1.14
  12 -14  -5    9.53    1.50
 -12 -14   5    8.52    1.54
  10 -14  -5    1.03    1.06
 -10 -14   5   -0.39    0.84
  -8 -14   5    3.00    1.04
   8 -14  -5    1.45    1.14
   8 -14  -5    2.98    1.20
  -8 -14   5    1.45    0.84
  -6 -14   5    5.07    1.15
   6 -14  -5    4.32    1.34
  -6 -14   5    7.38    1.16
   6 -14  -5    6.25    1.31
  -4 -14   5    0.49    0.87
   4 -14  -5    2.26    1.14
   4 -14  -5    0.57    0.98
  -4 -14   5    1.13    0.83
  -2 -14   5    2.33    0.90
  -2 -14   5    1.60    1.05
   2 -14  -5    3.58    1.12
   2 -14  -5    4.57    1.38
   0 -14  -5    1.03    1.17
   0 -14   5    1.61    0.97
   0 -14   5   -0.27    0.76
   0 -14  -5    0.20    0.98
  -2 -14  -5    2.57    1.16
  -2 -14  -5    1.08    1.10
   2 -14   5    1.91    0.95
   2 -14   5    0.67    0.85
   4 -14   5    1.44    0.94
  -4 -14  -5    0.54    0.95
   4 -14   5    0.71    0.76
  -4 -14  -5   -0.98    0.93
   6 -14   5    4.78    1.16
  -6 -14  -5    1.01    1.12
   6 -14   5    1.03    0.80
  -6 -14  -5    4.32    1.19
   8 -14   5    3.65    0.93
   8 -14   5    4.93    1.20
  -8 -14  -5    2.01    1.37
  -8 -14  -5    4.52    1.24
 -10 -14  -5   -0.14    1.03
  10 -14   5   -0.13    0.74
  10 -14   5    0.64    0.89
 -10 -14  -5    1.66    1.93
 -12 -14  -5    6.44    1.45
  12 -14   5    6.02    1.03
  12 -14   5    6.38    1.25
  -1 -15   5    0.69    0.91
   1 -15   5    8.89    1.35
  36   0  -6    3.57    1.14
  36   0  -6    3.38    1.43
  34   0  -6    4.29    1.14
  34   0  -6    5.54    1.48
  32   0  -6    1.19    1.04
  32   0  -6    0.33    0.78
  30   0  -6    4.14    1.11
  30   0  -6    4.72    1.26
  28   0  -6   16.30    1.60
  28   0  -6   13.93    1.71
  26   0  -6    2.88    0.88
  26   0  -6    0.01    0.88
  26   0  -6    2.12    0.67
  24   0  -6    0.60    0.85
  24   0  -6    1.08    0.63
  24   0  -6   -0.10    0.59
  22   0  -6    8.85    1.22
  22   0  -6    8.64    1.05
  22   0  -6    7.40    0.94
  20   0  -6   79.47    2.78
  20   0  -6   73.14    2.91
  20   0  -6   75.75    3.17
  18   0  -6   20.59    1.26
  18   0  -6   20.74    1.38
  18   0  -6   20.08    1.44
  16   0  -6  119.20    3.75
  16   0  -6  113.42    3.83
  16   0  -6  122.27    4.04
 -16   0   6  115.06    3.54
  16   0  -6  119.65    3.61
  14   0  -6   42.32    1.92
  14   0  -6   42.44    1.77
  14   0  -6   46.28    1.89
  14   0  -6   44.21    1.62
  12   0  -6    0.20    0.38
  12   0  -6    0.61    0.44
  12   0  -6   -0.02    0.24
  12   0  -6    0.07    0.35
  10   0  -6   29.18    1.42
  10   0  -6   31.64    1.15
  10   0  -6   30.65    1.35
   8   0  -6  155.31    4.22
   8   0  -6  157.23    4.52
   8   0  -6  152.63    4.57
   8   0  -6  152.66    4.62
   6   0  -6    3.33    0.49
   6   0  -6    3.56    0.52
   6   0  -6    2.78    0.44
   6   0  -6    3.37    0.30
   4   0  -6    3.22    0.44
   4   0  -6    3.08    0.47
   4   0  -6    2.43    0.43
   4   0  -6    3.05    0.23
   4   0  -6    2.39    0.44
   2   0  -6   64.57    2.22
   2   0  -6   63.64    2.08
   2   0  -6   63.17    2.11
   2   0  -6   69.31    2.17
   2   0  -6   63.34    1.71
   0   0  -6    5.06    0.48
   0   0  -6    5.27    0.58
   0   0  -6    6.05    0.55
   0   0  -6    7.97    0.58
  -2   0  -6  173.59    5.08
  -2   0  -6  179.61    4.88
  -2   0  -6  182.46    5.00
  -2   0  -6  179.40    4.63
  -2   0  -6  175.10    4.95
  -4   0  -6   69.90    1.99
  -4   0  -6   70.70    2.11
  -4   0  -6   72.19    2.21
   6   0   6   14.52    0.60
  -6   0  -6   12.71    0.61
  -6   0  -6   12.94    0.70
  -8   0  -6   16.29    0.76
  -8   0  -6   17.23    0.81
   8   0   6   17.26    0.64
 -10   0  -6   24.30    1.02
  10   0   6   22.13    0.77
 -10   0  -6   22.79    0.98
  10   0   6   22.92    0.72
 -12   0  -6    9.67    0.66
 -12   0  -6   10.82    0.71
  12   0   6    8.92    0.48
 -14   0  -6   64.66    2.12
  14   0   6   63.74    1.92
 -14   0  -6   62.85    2.21
 -16   0  -6   12.73    0.82
 -16   0  -6    9.75    0.87
  16   0   6   12.86    0.68
  16   0   6   12.08    0.69
  18   0   6   39.74    1.40
 -18   0  -6   40.35    1.61
 -18   0  -6   35.31    1.70
  18   0   6   38.62    1.41
  20   0   6   83.35    2.57
 -20   0  -6   79.74    2.95
  20   0   6   81.36    2.51
 -20   0  -6   83.83    2.82
 -22   0  -6    9.93    1.09
  22   0   6    9.08    0.75
  22   0   6    7.99    0.68
 -22   0  -6    9.17    0.92
 -24   0  -6    8.06    1.09
 -24   0  -6    5.07    0.96
  24   0   6    6.73    0.65
  24   0   6    6.38    0.69
  26   0   6    3.93    0.60
  26   0   6    3.14    0.58
 -26   0  -6    3.01    0.89
 -28   0  -6    3.44    0.98
  28   0   6    4.47    0.80
 -30   0  -6    0.92    0.83
  30   0   6   -0.56    0.60
 -32   0  -6   -0.91    0.85
  32   0   6    0.66    0.72
  34   0   6    4.18    1.01
 -34   0  -6    4.88    1.35
  36   0   6    9.55    1.52
  37   1  -6    0.56    1.01
  35  -1  -6    4.00    1.15
  35  -1  -6    3.45    1.43
  35   1  -6    2.90    1.13
  35   1  -6    4.54    1.48
  33  -1  -6   14.65    1.65
  33  -1  -6   14.15    1.95
  33   1  -6   13.00    1.60
  33   1  -6    9.00    1.67
  31  -1  -6    0.61    0.84
  31  -1  -6    3.40    1.16
  31  -1  -6    0.68    0.78
  31   1  -6    5.73    1.10
  31   1  -6    6.04    1.50
  29  -1  -6    7.21    1.22
  29  -1  -6    5.89    0.92
  29  -1  -6    2.68    1.05
  29   1  -6    5.13    1.03
  29   1  -6    6.92    1.46
  27  -1  -6    1.32    0.77
  27  -1  -6    1.34    0.70
  27  -1  -6    1.58    0.92
  27   1  -6    4.80    1.06
  27   1  -6    4.95    1.18
  25  -1  -6   32.44    2.22
  25  -1  -6   34.51    1.93
  25  -1  -6   33.70    1.78
  25   1  -6   27.90    2.04
  25   1  -6   29.50    1.78
  23  -1  -6    1.61    0.68
  23  -1  -6    1.79    0.75
  23  -1  -6    1.06    0.76
  23   1  -6    0.79    0.62
  23   1  -6    1.58    0.83
  21  -1  -6   18.27    1.24
  21  -1  -6   20.85    1.75
  21  -1  -6   16.57    1.39
  21   1  -6   26.88    1.58
  21   1  -6   26.64    1.89
  19  -1  -6   64.05    2.59
  19  -1  -6   65.45    2.50
  19  -1  -6   63.55    2.75
  19   1  -6   56.63    2.62
  19   1  -6   53.01    2.31
  19   1  -6   58.95    2.23
  17  -1  -6    0.29    0.36
  17  -1  -6    0.51    0.54
  17  -1  -6    0.36    0.46
  17  -1  -6    0.73    0.51
  17   1  -6    1.05    0.59
  17   1  -6    0.91    0.53
  17   1  -6    0.80    0.39
  17   1  -6    1.05    0.48
  15  -1  -6   60.59    2.24
  15  -1  -6   58.35    2.36
  15  -1  -6   62.49    2.07
 -15  -1   6   56.36    2.02
  15  -1  -6   56.94    2.28
  15   1  -6   59.61    2.20
  15   1  -6   60.06    2.31
  15   1  -6   59.23    2.08
  15   1  -6   57.53    2.42
  13  -1  -6   65.69    2.41
  13  -1  -6   65.12    2.14
  13  -1  -6   62.32    2.32
  13  -1  -6   69.12    2.49
  13   1  -6   54.19    1.86
  13   1  -6   53.05    2.11
  13   1  -6   52.66    2.21
  13   1  -6   51.59    1.98
  11  -1  -6   11.90    0.89
  11  -1  -6   13.01    0.89
  11  -1  -6   15.50    0.98
  11  -1  -6   14.43    0.74
  11   1  -6   13.70    0.75
  11   1  -6   13.55    1.00
  11   1  -6   13.59    0.92
   9  -1  -6   61.74    2.22
   9  -1  -6   64.44    2.23
   9  -1  -6   60.45    1.90
   9  -1  -6   61.46    2.19
   9   1  -6   58.81    2.26
   9   1  -6   61.13    1.91
   9   1  -6   58.71    2.19
   9   1  -6   63.36    2.15
   7  -1  -6   12.85    0.82
   7  -1  -6   11.92    0.56
   7  -1  -6   11.91    0.81
   7  -1  -6   12.12    0.83
   7  -1  -6   12.95    0.80
   7   1  -6   12.14    0.84
   7   1  -6   13.12    0.90
   7   1  -6   12.15    0.60
   7   1  -6   12.13    0.81
   5  -1  -6   13.98    0.81
   5  -1  -6   12.82    0.78
   5  -1  -6   14.20    0.84
   5  -1  -6   12.44    0.82
   5  -1  -6   13.21    0.52
   5   1  -6   11.67    0.79
   5   1  -6   10.42    0.51
   5   1  -6   13.10    0.74
   5   1  -6   10.47    0.81
   3  -1  -6  374.75   10.04
   3  -1  -6  373.49   10.05
   3  -1  -6  374.91   10.10
   3  -1  -6  378.60   10.13
   3  -1  -6  379.61    9.63
   3   1  -6  341.07    9.32
   3   1  -6  338.39    8.81
   3   1  -6  333.83    9.09
   3   1  -6  348.21    9.24
   1  -1  -6    7.02    0.61
   1  -1  -6    8.08    0.56
   1  -1  -6    7.84    0.68
   1  -1  -6    6.49    0.60
   1   1  -6    6.89    0.72
   1   1  -6    6.18    0.35
   1   1  -6    6.46    0.64
  -1  -1  -6   56.60    1.96
  -1  -1  -6   56.20    1.95
  -1  -1  -6   58.88    1.87
  -1  -1  -6   58.06    1.55
  -1  -1  -6   58.04    1.89
  -1   1  -6   60.69    1.71
  -1   1  -6   57.54    1.87
  -1   1  -6   60.32    2.13
  -3  -1  -6  103.00    3.01
  -3  -1  -6  105.33    3.05
  -3  -1  -6  106.02    2.82
  -3  -1  -6  103.71    3.16
  -3   1  -6  105.65    3.25
  -3   1  -6  100.96    2.94
  -3   1  -6  101.93    2.83
  -5  -1  -6   25.13    0.94
   5  -1   6   24.90    0.94
  -5  -1  -6   25.23    0.88
  -5  -1  -6   25.22    1.10
  -5   1  -6   29.38    1.04
  -5   1  -6   27.97    1.00
   7  -1   6   23.60    0.85
   7  -1   6   23.03    0.85
  -7  -1  -6   22.83    0.90
  -7  -1  -6   21.98    1.05
  -7  -1  -6   23.70    0.85
  -7   1  -6   29.02    1.07
  -7   1  -6   28.50    1.03
   7   1   6   29.20    0.96
   9  -1   6   80.19    2.21
  -9  -1  -6   79.00    2.44
   9  -1   6   81.84    2.27
   9  -1   6   82.56    2.26
  -9  -1  -6   79.20    2.56
  -9  -1  -6   79.16    2.23
   9   1   6   84.38    2.27
  -9   1  -6   81.66    2.40
   9   1   6   83.01    2.23
  -9   1  -6   82.66    2.52
  11  -1   6   15.88    0.57
  11  -1   6   16.51    0.66
 -11  -1  -6   17.22    0.92
 -11  -1  -6   14.77    0.84
  11  -1   6   16.38    0.64
  11   1   6   16.74    0.51
  11   1   6   16.29    0.63
 -11   1  -6   16.54    0.88
 -11   1  -6   16.73    0.72
 -13  -1  -6   16.14    0.94
 -13  -1  -6   16.73    0.94
  13  -1   6   16.32    0.71
 -13   1  -6   18.89    1.01
  13   1   6   19.49    0.76
 -13   1  -6   18.95    0.81
 -15  -1  -6   33.88    1.49
  15  -1   6   36.86    1.24
 -15  -1  -6   31.74    1.45
 -15   1  -6   34.04    1.50
  15   1   6   35.02    1.20
 -15   1  -6   35.07    1.26
  15   1   6   36.65    1.24
 -17  -1  -6    6.80    0.77
  17  -1   6    8.43    0.66
  17  -1   6    8.18    0.62
 -17  -1  -6    6.77    0.78
 -17   1  -6    7.18    0.59
 -17   1  -6    7.38    0.83
  17   1   6    7.37    0.51
  17   1   6    6.89    0.55
 -19  -1  -6   35.53    1.69
  19  -1   6   32.47    1.34
 -19  -1  -6   33.58    1.62
  19  -1   6   33.52    1.31
  19   1   6   34.38    1.18
 -19   1  -6   29.87    1.28
  19   1   6   30.69    1.25
 -19   1  -6   31.09    1.58
 -21  -1  -6    9.36    1.00
 -21  -1  -6    7.90    0.97
  21  -1   6   10.77    0.78
  21  -1   6   12.27    0.82
  21   1   6    5.32    0.57
  21   1   6    5.06    0.50
 -21   1  -6    4.72    0.62
 -21   1  -6    4.40    0.80
 -23  -1  -6    3.92    0.82
 -23  -1  -6    4.63    0.86
  23  -1   6    3.94    0.58
  23  -1   6    3.76    0.56
  23   1   6    4.46    0.57
 -23   1  -6    4.34    0.86
  23   1   6    4.61    0.51
  25  -1   6    2.16    0.51
 -25  -1  -6    1.53    0.73
  25  -1   6    1.99    0.51
 -25  -1  -6    2.62    0.76
  25   1   6    5.77    0.69
 -25   1  -6    6.00    1.00
 -27  -1  -6   16.68    1.54
  27  -1   6   18.76    1.15
  27  -1   6   17.32    1.15
 -27   1  -6   23.11    1.72
  27   1   6   18.19    1.30
  29  -1   6    1.16    0.60
 -29  -1  -6    0.65    0.81
  29   1   6   -0.07    0.67
 -29   1  -6    0.94    0.86
  31  -1   6    0.76    0.71
  31  -1   6    1.71    0.79
 -31  -1  -6    1.36    0.95
 -31   1  -6    1.99    0.92
  31   1   6    1.46    0.78
  33  -1   6    8.17    1.23
 -33  -1  -6    9.69    1.54
 -33   1  -6   10.55    1.59
  33   1   6    8.74    1.17
 -35  -1  -6    2.82    1.20
  35  -1   6    3.22    0.94
 -35   1  -6    4.55    1.34
  35   1   6    3.74    0.96
  37  -1   6   16.69    1.89
  36  -2  -6    1.02    1.10
  36  -2  -6    0.68    1.21
  36   2  -6    0.95    1.07
  34  -2  -6    4.03    1.16
  34  -2  -6    6.01    1.43
  34  -2  -6    4.19    1.03
  34   2  -6    4.85    1.60
  34   2  -6    6.22    1.31
  32  -2  -6    5.17    1.24
  32  -2  -6    4.95    1.27
  32  -2  -6    5.40    1.05
  32   2  -6    3.56    1.30
  32   2  -6    5.10    1.16
  30  -2  -6    7.64    1.48
  30  -2  -6    9.99    1.42
  30  -2  -6    8.48    1.12
  30   2  -6    7.43    1.22
  30   2  -6    7.22    1.50
  28  -2  -6    7.42    1.36
  28  -2  -6    9.07    1.27
  28  -2  -6    7.00    1.00
  28   2  -6    8.94    1.27
  28   2  -6   12.67    1.77
  26  -2  -6   11.53    1.25
  26  -2  -6    8.94    1.42
  26  -2  -6   10.12    1.26
  26   2  -6   11.09    1.60
  26   2  -6    9.74    1.25
  24  -2  -6    2.74    0.96
  24  -2  -6    4.51    0.89
  24  -2  -6    4.39    0.80
  24   2  -6    3.95    1.04
  24   2  -6    5.60    0.93
  22  -2  -6   11.03    1.19
  22  -2  -6   10.60    1.08
  22  -2  -6    9.16    1.26
  22   2  -6   13.36    1.32
  22   2  -6   12.66    1.48
  20  -2  -6   24.87    1.62
  20  -2  -6   23.48    1.39
  20  -2  -6   25.47    1.54
  20   2  -6   26.53    1.84
  20   2  -6   26.84    1.57
  18  -2  -6    2.90    0.64
  18  -2  -6    4.72    0.78
  18  -2  -6    3.37    0.74
  18   2  -6    2.56    0.74
  18   2  -6    2.11    0.66
  16  -2  -6   14.07    1.16
  16  -2  -6   10.37    0.85
  16  -2  -6   14.33    1.20
  16  -2  -6   10.76    0.99
  16   2  -6   11.48    0.88
  16   2  -6    8.35    0.95
  16   2  -6   14.09    1.33
  14  -2  -6   52.93    1.90
  14  -2  -6   58.06    2.21
  14  -2  -6   53.02    2.08
 -14  -2   6   54.39    1.92
  14  -2  -6   51.42    2.12
  14   2  -6   66.91    2.21
  14   2  -6   60.65    2.55
  14   2  -6   64.63    2.48
  12  -2  -6    3.09    0.56
 -12  -2   6    3.30    0.45
  12  -2  -6    4.42    0.50
  12  -2  -6    3.70    0.58
  12  -2  -6    3.07    0.57
  12   2  -6    3.81    0.71
  12   2  -6    3.82    0.64
  12   2  -6    4.64    0.53
  10  -2  -6   38.65    1.35
  10  -2  -6   35.52    1.59
  10  -2  -6   38.34    1.65
  10  -2  -6   36.65    1.55
  10  -2  -6   36.03    1.57
  10   2  -6   36.71    1.72
  10   2  -6   38.19    1.66
  10   2  -6   38.25    1.40
   8  -2  -6   61.14    2.06
   8  -2  -6   56.02    1.75
   8  -2  -6   51.92    1.95
   8  -2  -6   53.45    2.05
   8  -2  -6   55.11    2.00
   8   2  -6   60.55    2.22
   8   2  -6   56.79    2.26
   8   2  -6   62.36    1.93
   6  -2  -6   15.82    0.67
   6  -2  -6   14.85    0.93
   6  -2  -6   16.77    0.89
   6  -2  -6   15.96    0.89
   6  -2  -6   15.69    0.90
   6   2  -6   19.56    1.16
   6   2  -6   17.02    1.03
   6   2  -6   17.74    0.77
   4  -2  -6   29.59    1.22
   4  -2  -6   28.50    1.20
   4  -2  -6   28.22    1.21
   4  -2  -6   27.03    1.30
   4  -2  -6   28.96    0.95
   4   2  -6   30.83    1.10
   4   2  -6   30.88    1.45
   4   2  -6   34.82    1.45
   2  -2  -6    6.91    0.60
   2  -2  -6    6.62    0.37
   2  -2  -6    7.05    0.71
   2  -2  -6    7.53    0.62
   2  -2  -6    6.96    0.60
   2   2  -6    6.15    0.43
   2   2  -6    7.12    0.68
   2   2  -6    6.20    0.71
   0  -2  -6  167.17    4.63
   0  -2  -6  169.52    4.85
   0  -2  -6  163.05    4.39
   0  -2  -6  166.04    4.68
   0  -2  -6  166.18    4.68
   0   2  -6  167.40    4.96
   0   2  -6  166.67    4.53
  -2  -2  -6   33.14    1.25
  -2  -2  -6   32.73    1.05
  -2  -2  -6   33.69    1.21
  -2  -2  -6   33.35    1.41
   2  -2   6   32.85    1.25
  -2   2  -6   32.74    1.51
  -2   2  -6   35.73    1.20
  -4  -2  -6   81.38    2.43
   4  -2   6   84.40    2.38
  -4  -2  -6   82.34    2.37
  -4  -2  -6   81.06    2.47
  -4  -2  -6   85.17    2.72
  -4   2  -6  100.05    2.88
  -6  -2  -6   36.30    1.25
  -6  -2  -6   33.93    1.24
  -6  -2  -6   37.45    1.51
   6  -2   6   37.17    1.05
   6  -2   6   37.41    1.15
  -6   2  -6   36.76    1.31
   6   2   6   36.28    1.20
  -8  -2  -6   54.82    1.64
   8  -2   6   54.92    1.51
  -8  -2  -6   53.58    1.96
   8  -2   6   52.05    1.55
  -8  -2  -6   51.36    1.74
  -8   2  -6   68.87    2.24
   8   2   6   72.75    1.93
   8   2   6   73.49    2.10
   8   2   6   71.40    2.04
 -10  -2  -6   55.78    2.08
  10  -2   6   60.42    1.74
  10  -2   6   58.27    1.73
 -10  -2  -6   55.62    1.94
 -10  -2  -6   58.88    1.69
  10   2   6   65.38    1.97
  10   2   6   69.39    1.88
 -10   2  -6   65.84    2.19
 -10   2  -6   66.81    1.83
  10   2   6   67.08    1.89
 -12  -2  -6   14.65    0.91
 -12  -2  -6   15.41    1.02
  12  -2   6   16.20    0.72
 -12  -2  -6   16.41    0.55
  12  -2   6   16.12    0.62
  12  -2   6   15.42    0.60
 -12   2  -6   13.90    0.90
 -12   2  -6   14.95    0.52
  12   2   6   15.21    0.67
  12   2   6   15.60    0.64
  14  -2   6   10.62    0.43
 -14  -2  -6    8.67    0.80
 -14  -2  -6    8.45    0.86
  14  -2   6   10.34    0.40
  14  -2   6    9.09    0.59
 -14   2  -6   11.57    0.45
 -14   2  -6    9.85    0.83
  14   2   6   11.17    0.50
  14   2   6   12.08    0.61
  14   2   6   10.15    0.57
 -16  -2  -6   98.45    3.22
 -16  -2  -6   89.91    3.08
  16  -2   6   90.31    2.74
 -16   2  -6   95.17    2.62
 -16   2  -6   92.79    3.13
  16   2   6   94.29    2.64
  16   2   6   98.03    2.79
  18  -2   6   55.35    1.96
 -18  -2  -6   54.97    2.31
  18  -2   6   59.34    1.91
 -18  -2  -6   55.26    2.24
 -18   2  -6   52.24    2.16
  18   2   6   56.21    1.82
  18   2   6   54.21    1.65
 -18   2  -6   55.63    1.68
  20  -2   6    5.01    0.57
 -20  -2  -6    5.26    0.83
 -20  -2  -6    5.71    0.89
  20  -2   6    5.93    0.66
  20   2   6    2.25    0.43
  20   2   6    2.37    0.33
 -20   2  -6    2.61    0.69
  22  -2   6   22.83    1.17
 -22  -2  -6   22.94    1.60
  22  -2   6   24.62    1.22
 -22  -2  -6   24.62    1.55
  22   2   6   27.37    1.24
 -22   2  -6   27.38    1.61
  24  -2   6    4.41    0.64
 -24  -2  -6    4.48    0.92
 -24  -2  -6    4.89    0.94
  24  -2   6    4.72    0.63
  24   2   6    5.13    0.71
 -24   2  -6    5.46    0.95
 -26  -2  -6   15.32    1.48
  26  -2   6   15.43    1.08
  26  -2   6   15.69    1.07
 -26  -2  -6   15.58    1.57
 -26   2  -6   14.85    1.40
  26   2   6   15.50    1.16
  28  -2   6    6.30    0.79
 -28  -2  -6    6.94    1.18
  28  -2   6    7.20    0.84
 -28  -2  -6    5.00    1.21
 -28   2  -6    7.51    1.23
  28   2   6    7.24    0.93
 -30  -2  -6   -0.27    0.85
  30  -2   6    0.37    0.56
  30  -2   6    0.97    0.60
 -30   2  -6    0.68    0.90
  30   2   6    1.50    0.68
  32  -2   6    6.34    1.07
  32  -2   6   10.21    1.06
 -32  -2  -6    6.58    1.34
  32   2   6    7.41    1.05
 -32   2  -6   10.14    1.43
  34  -2   6   16.54    1.39
 -34  -2  -6   16.54    1.90
  34  -2   6   15.98    1.58
 -34   2  -6   14.42    1.77
  34   2   6   12.44    1.34
  36  -2   6    1.81    0.77
  36   2   6    0.66    0.89
  35  -3  -6    4.12    1.32
  35  -3  -6    2.53    1.01
  35  -3  -6    3.25    1.22
  35   3  -6    1.82    0.95
  35   3  -6    3.33    1.44
  33  -3  -6    0.14    0.87
  33  -3  -6   -0.04    0.70
  33  -3  -6    1.30    1.14
  33   3  -6    1.77    1.38
  33   3  -6    1.44    0.97
  31  -3  -6   24.99    2.05
  31  -3  -6   18.67    2.02
  31  -3  -6   23.79    1.83
  31   3  -6   25.81    1.83
  31   3  -6   17.01    2.18
  29  -3  -6    3.10    1.17
  29  -3  -6    4.26    0.98
  29  -3  -6    4.57    1.12
  29   3  -6    3.54    1.00
  29   3  -6    6.44    1.40
  27  -3  -6   11.37    1.37
  27  -3  -6   16.77    1.50
  27  -3  -6   11.16    1.55
  27   3  -6   12.97    1.79
  27   3  -6   12.84    1.43
  25  -3  -6   12.55    1.24
  25  -3  -6   13.30    1.38
  25  -3  -6   12.98    1.55
  25   3  -6   16.52    1.51
  25   3  -6   13.64    1.64
  23  -3  -6    2.83    0.90
  23  -3  -6    4.43    0.86
  23  -3  -6    3.25    0.75
  23   3  -6    3.99    1.08
  23   3  -6    2.22    0.79
  21  -3  -6   58.73    2.52
  21  -3  -6   59.55    2.46
  21  -3  -6   58.83    2.67
  21   3  -6   60.16    2.83
  21   3  -6   58.65    2.51
  19  -3  -6   11.74    1.18
  19  -3  -6   12.78    1.13
  19  -3  -6   14.32    1.28
  19   3  -6   17.37    1.59
  19   3  -6   15.14    1.30
  17  -3  -6    2.15    0.62
  17  -3  -6    2.55    0.65
  17  -3  -6    1.17    0.61
  17   3  -6    1.68    0.75
  17   3  -6    1.48    0.58
  15  -3  -6   62.00    2.36
  15  -3  -6   56.20    2.25
  15  -3  -6   56.39    2.08
  15  -3  -6   53.50    2.19
  15   3  -6   45.27    1.99
  15   3  -6   43.70    2.17
  15   3  -6   46.16    1.79
  13  -3  -6   24.67    1.36
 -13  -3   6   26.63    1.21
  13  -3  -6   23.35    1.27
  13  -3  -6   26.15    1.41
  13  -3  -6   26.00    1.18
  13  -3  -6   26.46    1.35
  13   3  -6   27.76    1.27
  13   3  -6   29.56    1.51
  13   3  -6   30.74    1.65
  11  -3  -6   25.66    1.34
  11  -3  -6   25.05    1.21
  11  -3  -6   21.80    1.23
  11  -3  -6   27.26    1.37
  11  -3  -6   24.05    1.10
 -11  -3   6   26.19    1.13
  11   3  -6   24.04    1.32
  11   3  -6   24.16    1.11
  11   3  -6   24.80    1.44
   9  -3  -6   40.37    1.45
   9  -3  -6   40.28    1.55
  -9  -3   6   40.31    1.45
   9  -3  -6   38.10    1.65
   9  -3  -6   42.27    1.68
   9  -3  -6   38.56    1.70
   9   3  -6   43.51    1.83
   9   3  -6   40.75    1.87
   9   3  -6   41.67    1.53
   7  -3  -6   66.49    2.32
   7  -3  -6   67.20    2.41
   7  -3  -6   68.96    2.31
   7  -3  -6   65.82    2.20
   7  -3  -6   67.38    2.10
   7   3  -6   57.80    2.21
   7   3  -6   58.03    2.30
   7   3  -6   61.28    1.95
   5  -3  -6   14.02    0.98
   5  -3  -6   13.31    0.85
   5  -3  -6   13.30    0.68
   5  -3  -6   13.46    0.80
   5  -3  -6   15.01    0.79
   5   3  -6   13.54    0.93
   5   3  -6   13.39    0.99
   5   3  -6   14.69    0.75
   3  -3  -6  226.74    6.28
   3  -3  -6  232.29    6.23
   3  -3  -6  228.65    6.36
   3  -3  -6  228.71    6.12
   3  -3  -6  227.08    6.52
   3   3  -6  244.15    6.82
   3   3  -6  233.01    6.50
   3   3  -6  246.42    6.96
   1  -3  -6   47.19    1.80
   1  -3  -6   42.41    1.39
   1  -3  -6   41.45    1.58
   1  -3  -6   43.02    1.48
   1  -3  -6   42.27    1.49
   1   3  -6   33.40    1.24
   1   3  -6   33.59    1.55
  -1  -3  -6   42.84    1.77
  -1  -3  -6   44.20    1.49
  -1  -3  -6   46.26    1.44
  -1  -3  -6   42.12    1.57
  -1   3  -6   42.79    1.49
  -1   3  -6   41.67    1.47
  -1   3  -6   41.85    1.77
  -3  -3  -6   91.77    3.08
  -3  -3  -6   91.50    2.73
  -3  -3  -6   99.04    2.74
   3  -3   6   96.02    2.69
   3  -3   6   96.60    2.55
  -3  -3  -6   93.43    2.84
  -3   3  -6   81.93    2.53
  -3   3  -6   82.85    2.83
  -5  -3  -6   16.10    1.02
   5  -3   6   15.60    0.60
  -5  -3  -6   15.62    0.77
   5  -3   6   16.45    0.61
  -5  -3  -6   15.84    0.77
  -5  -3  -6   16.24    0.68
   5   3   6   22.68    0.79
  -5   3  -6   21.37    0.99
  -7  -3  -6    8.58    0.80
   7  -3   6    8.94    0.47
  -7  -3  -6    9.13    0.63
  -7  -3  -6    9.85    0.59
   7   3   6    4.92    0.31
   7   3   6    5.04    0.28
  -7   3  -6    4.24    0.49
   9  -3   6  134.16    3.68
  -9  -3  -6  132.54    3.92
  -9  -3  -6  136.44    4.17
  -9  -3  -6  132.93    3.72
  -9   3  -6  132.13    3.89
   9   3   6  133.04    3.53
   9   3   6  130.33    3.48
 -11  -3  -6    0.54    0.22
  11  -3   6    0.48    0.23
  11  -3   6    0.17    0.23
 -11  -3  -6    1.12    0.39
 -11  -3  -6    0.29    0.39
 -11   3  -6    0.28    0.34
  11   3   6    1.14    0.16
  11   3   6    1.21    0.15
  11   3   6    0.89    0.23
 -13  -3  -6   49.56    1.47
 -13  -3  -6   46.68    1.88
  13  -3   6   49.76    1.50
 -13  -3  -6   51.05    2.07
  13  -3   6   49.11    1.62
  13   3   6   47.58    1.30
  13   3   6   46.79    1.51
  13   3   6   48.11    1.33
 -13   3  -6   46.94    1.85
 -15  -3  -6   15.04    1.07
 -15  -3  -6   15.77    1.18
  15  -3   6   17.49    0.67
  15  -3   6   15.71    0.83
 -15  -3  -6   17.01    0.55
  15   3   6   20.48    0.87
  15   3   6   19.88    0.62
 -15   3  -6   18.55    1.16
  17  -3   6   16.23    0.61
 -17  -3  -6   15.64    1.23
  17  -3   6   16.15    0.87
 -17  -3  -6   15.94    1.16
 -17   3  -6   15.11    1.09
  17   3   6   14.79    0.79
 -19  -3  -6   16.04    1.40
 -19  -3  -6   16.83    1.26
  19  -3   6   17.22    0.99
  19  -3   6   16.76    0.94
 -19   3  -6   14.33    1.18
  19   3   6   15.72    0.87
 -21  -3  -6    2.61    0.81
  21  -3   6    1.98    0.50
 -21  -3  -6    2.24    0.72
  21  -3   6    1.71    0.46
  21   3   6    2.61    0.47
 -21   3  -6    3.14    0.72
 -23  -3  -6    2.76    0.85
  23  -3   6    2.68    0.54
 -23  -3  -6    2.57    0.85
  23  -3   6    2.21    0.61
 -23   3  -6    3.26    0.77
  23   3   6    2.80    0.63
 -25  -3  -6   23.05    1.76
  25  -3   6   24.03    1.36
 -25  -3  -6   25.28    1.86
  25  -3   6   24.31    1.31
  25   3   6   26.73    1.42
 -25   3  -6   27.32    1.71
 -27  -3  -6    2.93    0.95
 -27  -3  -6    4.06    1.07
  27  -3   6    2.43    0.64
  27  -3   6    2.35    0.61
 -27   3  -6    0.78    0.73
  27   3   6    0.90    0.57
 -29  -3  -6    1.00    0.93
 -29  -3  -6    2.74    1.07
  29  -3   6   -0.64    0.50
  29  -3   6    0.65    0.63
 -29   3  -6   -0.34    0.83
  29   3   6   -0.57    0.64
 -31  -3  -6   20.70    2.03
  31  -3   6   20.11    1.45
  31  -3   6   17.38    1.30
  31   3   6   15.06    1.38
 -31   3  -6   16.44    1.71
 -33  -3  -6    0.01    1.04
  33  -3   6    0.81    0.81
  33  -3   6    1.28    0.68
 -33   3  -6    1.74    1.10
  33   3   6    2.39    0.83
 -35  -3  -6    2.62    1.25
  35  -3   6    4.83    1.80
  35  -3   6    3.75    0.84
  35   3   6    2.79    1.01
  36  -4  -6    3.92    1.46
  36  -4  -6    4.59    1.11
  36   4  -6    3.37    1.11
  34  -4  -6    2.79    1.28
  34  -4  -6    5.35    1.06
  34  -4  -6    5.14    1.34
  34   4  -6    4.59    1.20
  34   4  -6    3.39    1.46
  32  -4  -6    4.26    1.09
  32  -4  -6    2.22    1.05
  32  -4  -6    3.11    1.23
  32   4  -6    7.04    1.26
  32   4  -6    5.12    1.48
  30  -4  -6    2.10    1.06
  30  -4  -6    1.27    1.10
  30  -4  -6    1.75    0.78
  30   4  -6    0.64    1.09
  30   4  -6    1.06    0.87
  28  -4  -6   12.32    1.57
  28  -4  -6    9.93    1.27
  28  -4  -6    9.67    1.33
  28   4  -6   12.22    1.73
  28   4  -6    9.94    1.32
  26  -4  -6    0.37    0.74
  26  -4  -6   -0.01    0.82
  26  -4  -6   -0.12    0.73
  26   4  -6    1.59    0.75
  26   4  -6    1.00    0.98
  24  -4  -6   11.33    1.27
  24  -4  -6    9.16    1.33
  24  -4  -6   10.06    1.30
  24   4  -6    4.53    0.90
  24   4  -6    6.39    1.24
  22  -4  -6    5.49    0.92
  22  -4  -6    5.15    0.97
  22  -4  -6    3.43    0.84
  22   4  -6    4.04    1.03
  22   4  -6    4.43    0.91
  20  -4  -6    5.80    0.86
  20  -4  -6    4.99    0.90
  20  -4  -6    4.30    0.88
  20   4  -6    3.51    0.93
  20   4  -6    3.86    0.87
  18  -4  -6   15.15    1.30
  18  -4  -6   15.37    1.27
  18  -4  -6   15.73    1.31
  18   4  -6   17.02    1.57
  18   4  -6   15.00    1.30
  16  -4  -6    7.75    0.92
  16  -4  -6    7.99    0.90
  16  -4  -6    8.39    0.97
  16   4  -6    8.22    1.15
  16   4  -6   10.70    1.06
  14  -4  -6   29.70    1.50
  14  -4  -6   29.42    1.45
  14  -4  -6   27.40    1.51
  14  -4  -6   29.83    1.38
  14  -4  -6   28.25    1.52
  14   4  -6   26.38    1.35
  14   4  -6   26.14    1.61
  14   4  -6   25.11    1.45
  12  -4  -6    2.60    0.59
  12  -4  -6    2.70    0.48
  12  -4  -6    1.95    0.54
  12  -4  -6    4.02    0.66
  12  -4  -6    3.66    0.55
 -12  -4   6    2.83    0.51
  12   4  -6    2.82    0.65
  12   4  -6    3.99    0.77
  12   4  -6    2.94    0.51
  10  -4  -6   20.25    1.01
  10  -4  -6   20.00    1.03
  10  -4  -6   20.05    1.15
  10  -4  -6   21.09    1.22
  10  -4  -6   18.04    1.22
 -10  -4   6   19.80    1.02
  10   4  -6   24.45    1.15
  10   4  -6   24.17    1.39
  10   4  -6   23.29    1.48
   8  -4  -6   32.84    1.47
   8  -4  -6   31.13    1.49
   8  -4  -6   33.07    1.57
  -8  -4   6   32.66    1.32
   8  -4  -6   31.02    1.27
   8  -4  -6   34.51    1.34
   8   4  -6   42.28    1.78
   8   4  -6   36.96    1.85
   8   4  -6   39.81    1.54
   6  -4  -6    2.02    0.47
   6  -4  -6    1.22    0.33
   6  -4  -6    1.55    0.47
   6  -4  -6    0.85    0.45
   6  -4  -6    2.22    0.41
   6   4  -6    2.06    0.39
   6   4  -6    1.68    0.51
   6   4  -6    2.16    0.56
   4  -4  -6   43.37    1.53
   4  -4  -6   42.34    1.83
   4  -4  -6   41.68    1.68
   4  -4  -6   42.13    1.44
   4  -4  -6   41.88    1.58
   4   4  -6   27.51    1.45
  -4   4   6   28.71    0.96
   4   4  -6   26.46    1.17
   2  -4  -6   37.58    1.27
   2  -4  -6   37.48    1.51
   2  -4  -6   36.23    1.65
   2  -4  -6   38.06    1.39
  -2   4   6   55.21    1.65
   2   4  -6   51.37    2.15
   2   4  -6   56.15    1.90
   0  -4  -6   12.51    0.71
   0  -4  -6   11.29    1.00
   0  -4   6   12.13    0.54
   0  -4  -6   11.75    0.81
   0  -4  -6   12.50    0.67
   0   4   6   11.33    0.57
   0   4  -6   12.00    0.74
  -2  -4  -6   16.56    0.84
  -2  -4  -6   17.14    0.92
   2  -4   6   17.54    0.73
  -2  -4  -6   16.57    1.07
  -2  -4  -6   16.58    0.75
   2  -4   6   16.16    0.66
  -2   4  -6    7.05    0.65
  -2   4  -6    8.43    0.86
   2   4   6    8.89    0.53
  -2   4  -6    9.27    0.74
  -4  -4  -6   36.26    1.63
  -4  -4  -6   35.41    1.35
  -4  -4  -6   34.37    1.17
   4  -4   6   35.32    1.14
  -4  -4  -6   36.01    1.39
   4  -4   6   37.10    1.18
   4   4   6   41.73    1.17
   4   4   6   40.28    1.23
  -4   4  -6   38.95    1.54
  -4   4  -6   42.73    1.80
  -6  -4  -6    4.76    0.53
   6  -4   6    5.38    0.43
  -6  -4  -6    4.49    0.68
  -6  -4  -6    6.72    0.59
   6   4   6    5.58    0.33
   6   4   6    5.96    0.30
  -6   4  -6    6.67    0.65
   8  -4   6   37.84    1.28
  -8  -4  -6   34.37    1.65
  -8  -4  -6   35.23    1.46
  -8  -4  -6   37.64    1.37
  -8   4  -6   42.01    1.62
   8   4   6   40.41    1.25
 -10  -4  -6   30.85    1.56
  10  -4   6   30.94    1.14
 -10  -4  -6   29.42    1.36
 -10  -4  -6   30.48    1.18
  10   4   6   22.65    0.83
 -10   4  -6   20.25    1.11
 -12  -4  -6    1.12    0.46
 -12  -4  -6    1.19    0.51
  12  -4   6    0.97    0.32
  12  -4   6    1.31    0.31
 -12  -4  -6    1.55    0.32
  12   4   6    0.85    0.26
 -12   4  -6    1.14    0.44
  14  -4   6   38.81    1.37
 -14  -4  -6   34.73    1.22
 -14  -4  -6   35.56    1.84
 -14  -4  -6   33.18    1.62
  14  -4   6   35.29    1.22
  14   4   6   43.42    1.49
 -14   4  -6   46.36    1.87
 -16  -4  -6   24.41    1.41
  16  -4   6   22.04    1.06
 -16  -4  -6   20.24    1.48
  16  -4   6   24.37    0.92
 -16  -4  -6   24.80    0.88
 -16   4  -6   25.06    1.39
  16   4   6   24.22    1.03
  18  -4   6   14.31    0.89
 -18  -4  -6   14.08    1.23
 -18  -4  -6   14.81    1.37
  18   4   6   14.41    0.89
 -18   4  -6   10.44    1.03
  18   4   6   12.11    0.78
  20  -4   6   20.01    1.21
  20  -4   6   20.45    1.09
 -20  -4  -6   19.64    1.68
 -20  -4  -6   18.86    1.43
  20   4   6   21.82    1.18
  20   4   6   23.91    1.23
 -20   4  -6   23.02    1.41
 -22  -4  -6   22.28    1.63
 -22  -4  -6   23.92    1.93
  22  -4   6   21.74    1.30
  22  -4   6   24.64    1.24
 -22   4  -6   21.93    1.55
  22   4   6   22.71    1.24
 -24  -4  -6    5.27    1.06
 -24  -4  -6    6.75    1.25
  24  -4   6    4.87    0.69
  24  -4   6    5.21    0.77
 -24   4  -6    5.77    1.04
  24   4   6    7.96    0.89
  26  -4   6   17.39    1.27
 -26  -4  -6   15.55    1.77
  26  -4   6   16.83    1.20
 -26  -4  -6   18.17    1.70
  26   4   6   14.72    1.19
 -26   4  -6   12.98    1.38
  28  -4   6    1.31    0.70
 -28  -4  -6   -0.34    0.88
 -28  -4  -6   -0.27    0.87
  28  -4   6    0.08    0.55
  28   4   6    1.23    0.70
 -28   4  -6   -0.20    0.75
 -30  -4  -6   11.11    1.55
  30  -4   6    9.67    1.00
 -30  -4  -6    7.42    1.44
  30  -4   6    8.65    1.09
 -30   4  -6   13.28    1.52
  30   4   6    9.97    1.15
 -32  -4  -6   16.57    1.90
  32  -4   6   18.68    1.45
  32  -4   6   17.11    1.36
  32   4   6   14.03    1.35
 -32   4  -6   13.87    1.73
  34  -4   6    1.15    0.73
  34  -4   6    1.91    1.23
  34  -4   6    2.47    1.03
 -34  -4  -6    1.32    1.15
  34   4   6    2.76    0.88
  35  -5  -6   -0.71    0.80
  35  -5  -6    3.43    1.37
  35   5  -6    2.50    1.04
  33  -5  -6   -0.21    1.07
  33  -5  -6    1.04    1.00
  33  -5  -6    1.98    0.95
  33   5  -6    1.66    1.26
  33   5  -6    1.22    0.95
  31  -5  -6    6.59    1.25
  31  -5  -6    5.90    1.42
  31  -5  -6    4.53    1.11
  31   5  -6    5.03    1.16
  31   5  -6    5.06    1.47
  29  -5  -6    5.99    1.21
  29  -5  -6    7.88    1.15
  29  -5  -6    6.80    1.40
  29   5  -6    8.31    1.56
  29   5  -6    7.88    1.31
  27  -5  -6    3.73    1.12
  27  -5  -6    3.53    0.95
  27  -5  -6    1.77    0.99
  27   5  -6    4.01    1.24
  27   5  -6    6.34    1.09
  25  -5  -6   28.14    1.81
  25  -5  -6   26.11    2.10
  25  -5  -6   31.05    2.02
  25   5  -6   30.82    1.88
  25   5  -6   31.82    2.41
  23  -5  -6    0.25    0.60
  23  -5  -6   -0.14    0.72
  23  -5  -6    0.35    0.77
  23   5  -6    1.30    0.74
  23   5  -6   -0.87    0.83
  21  -5  -6    2.44    0.79
  21  -5  -6    3.08    0.78
  21  -5  -6    2.56    0.82
  21   5  -6    2.58    0.81
  21   5  -6    1.00    0.91
  19  -5  -6   38.50    1.96
  19  -5  -6   34.06    1.82
  19  -5  -6   36.08    1.88
  19   5  -6   35.45    1.93
  19   5  -6   33.23    2.10
  17  -5  -6    4.78    0.87
  17  -5  -6    4.99    0.79
  17  -5  -6    4.70    0.80
  17  -5  -6    4.73    0.85
  17   5  -6    8.84    1.02
  17   5  -6    6.31    1.06
  15  -5  -6   26.02    1.36
  15  -5  -6   25.18    1.56
  15  -5  -6   23.63    1.42
  15  -5  -6   25.09    1.49
  15   5  -6   17.43    1.54
  15   5  -6   20.33    1.35
  13  -5  -6   17.36    1.32
  13  -5  -6   16.13    1.14
  13  -5  -6   14.73    1.29
  13  -5  -6   16.50    0.99
  13  -5  -6   15.00    1.16
  13   5  -6   14.38    1.36
  13   5  -6   16.09    1.17
  11  -5  -6   11.73    1.09
  11  -5  -6   14.16    1.13
  11  -5  -6   14.11    1.15
  11  -5  -6   13.49    0.97
  11  -5  -6   13.88    0.83
  11   5  -6    9.73    1.12
  11   5  -6   11.68    1.13
  11   5  -6   10.65    0.91
   9  -5  -6   72.02    2.71
   9  -5  -6   71.15    2.54
   9  -5  -6   68.30    2.55
   9  -5  -6   72.01    2.47
   9  -5  -6   69.81    2.25
  -9  -5   6   72.66    2.45
   9   5  -6   77.05    2.94
   9   5  -6   74.51    2.76
   9   5  -6   73.75    2.54
   7  -5  -6    1.91    0.54
   7  -5  -6    0.11    0.33
   7  -5  -6    1.80    0.33
   7  -5  -6    1.59    0.53
   7  -5  -6    0.57    0.43
  -7   5   6    4.60    0.38
   7   5  -6    4.77    0.60
   7   5  -6    4.03    0.78
   5  -5  -6    9.85    0.76
   5  -5  -6    9.79    0.80
   5  -5  -6    9.92    0.86
   5  -5  -6   10.52    0.57
   5  -5  -6    9.38    0.93
   5   5  -6    8.43    0.95
   5   5  -6    7.42    0.70
  -5   5   6    7.70    0.38
   3  -5  -6   96.33    3.12
  -3  -5   6   94.98    2.77
   3  -5  -6   95.66    3.31
   3  -5  -6   93.92    2.95
   3  -5  -6   98.92    2.67
   3   5  -6  102.94    3.22
   3   5  -6   98.06    3.49
  -3   5   6  104.22    2.73
   1  -5  -6    5.18    0.74
   1  -5  -6    4.90    0.61
   1  -5  -6    4.52    0.50
  -1  -5   6    4.79    0.42
   1   5  -6    6.50    0.83
  -1   5   6    5.53    0.30
   1   5  -6    5.29    0.62
   1  -5   6   10.80    0.60
  -1  -5  -6   10.59    1.02
  -1  -5  -6   10.31    0.84
  -1  -5  -6   11.78    0.79
  -1  -5  -6   10.32    0.63
  -1   5  -6    8.19    0.94
  -1   5  -6    7.12    0.73
   1   5   6    8.73    0.42
  -1   5  -6   10.91    0.78
   1   5   6    7.99    0.40
   3  -5   6   48.38    1.57
  -3  -5  -6   49.56    1.52
   3  -5   6   48.16    1.48
  -3  -5  -6   49.46    1.80
  -3  -5  -6   47.58    1.81
  -3  -5  -6   48.97    2.09
   3  -5   6   47.04    1.50
   3   5   6   55.38    1.63
   3   5   6   52.11    1.56
   3   5   6   53.25    1.57
  -3   5  -6   54.34    2.02
  -3   5  -6   53.80    2.19
  -3   5  -6   54.25    2.00
   5  -5   6   13.22    0.52
  -5  -5  -6   15.10    0.90
  -5  -5  -6   11.44    0.83
   5  -5   6   14.29    0.55
  -5  -5  -6   13.50    0.56
  -5  -5  -6   14.60    1.23
   5  -5   6   12.80    0.70
   5   5   6   15.09    0.62
   5   5   6   14.60    0.70
  -5   5  -6   15.86    0.98
  -7  -5  -6   32.46    1.35
  -7  -5  -6   30.49    1.41
  -7  -5  -6   32.62    1.69
   7  -5   6   32.53    1.21
  -7   5  -6   40.18    1.69
   7   5   6   40.92    1.30
   9  -5   6   61.27    1.93
  -9  -5  -6   56.68    2.15
  -9  -5  -6   57.29    2.40
  -9  -5  -6   59.21    2.03
  -9   5  -6   45.00    1.83
   9   5   6   45.97    1.46
 -11  -5  -6   36.27    1.42
 -11  -5  -6   37.44    1.85
  11  -5   6   36.04    1.38
 -11  -5  -6   36.06    1.66
  11  -5   6   37.61    1.38
 -11   5  -6   44.17    1.84
  11   5   6   43.35    1.45
 -13  -5  -6   19.45    1.24
  13  -5   6   17.14    0.93
 -13  -5  -6   19.28    0.95
 -13  -5  -6   16.84    1.31
  13  -5   6   20.31    0.90
  13   5   6   21.51    0.94
  13   5   6   21.74    0.93
 -13   5  -6   20.70    1.26
 -15  -5  -6   27.48    1.53
 -15  -5  -6   26.77    1.66
  15  -5   6   26.75    1.20
 -15  -5  -6   27.34    1.13
  15  -5   6   27.28    1.10
  15   5   6   27.28    1.15
 -15   5  -6   26.08    1.46
  15   5   6   25.25    1.09
  17  -5   6    6.66    0.56
  17  -5   6    8.15    0.73
 -17  -5  -6    5.02    0.85
 -17  -5  -6    5.82    1.03
 -17   5  -6    6.69    0.89
  17   5   6    6.06    0.64
  17   5   6    6.75    0.66
 -19  -5  -6   27.49    1.84
 -19  -5  -6   28.77    1.72
  19  -5   6   28.79    1.32
  19   5   6   23.87    1.16
 -19   5  -6   19.85    1.43
 -21  -5  -6   21.60    1.61
  21  -5   6   19.13    1.15
 -21  -5  -6   20.42    1.80
  21  -5   6   22.44    1.28
  21   5   6   24.79    1.27
 -21   5  -6   24.89    1.61
  23  -5   6    6.03    0.85
  23  -5   6    4.69    0.68
 -23  -5  -6    3.59    1.13
 -23  -5  -6    4.61    1.03
 -23   5  -6    4.11    0.96
  23   5   6    3.42    0.66
 -25  -5  -6    2.89    0.94
 -25  -5  -6    3.52    1.05
  25  -5   6    3.48    0.80
  25  -5   6    3.57    0.69
 -25   5  -6    1.13    0.81
  25   5   6    1.00    0.58
 -27  -5  -6   12.91    1.72
  27  -5   6   15.12    1.29
  27  -5   6   16.12    1.17
 -27  -5  -6   13.17    1.57
  27   5   6   17.85    1.32
 -27   5  -6   16.72    1.60
  29  -5   6    7.58    0.92
 -29  -5  -6    9.27    1.48
  29  -5   6    6.36    0.95
 -29  -5  -6    8.47    1.56
  29   5   6    7.33    1.01
 -29   5  -6    9.68    1.43
 -31  -5  -6   16.68    2.05
  31  -5   6   12.47    1.19
  31  -5   6   16.70    1.43
 -31  -5  -6   15.06    1.84
 -31   5  -6   16.20    1.82
  31   5   6   15.11    1.39
  33  -5   6    0.44    0.66
  33  -5   6   -0.48    0.77
 -33  -5  -6    0.35    1.11
  33   5   6    0.25    0.81
  34  -6  -6   -0.91    0.82
  32  -6  -6   12.21    1.46
  32  -6  -6   13.92    1.75
  32   6  -6   10.06    1.89
  32   6  -6   11.67    1.52
  30  -6  -6    0.48    0.91
  30  -6  -6    1.99    0.99
  30  -6  -6   -0.93    0.94
  30   6  -6    1.80    0.92
  30   6  -6   -1.14    1.00
  28  -6  -6   -0.22    0.81
  28  -6  -6   -1.62    0.68
  28  -6  -6   -0.94    0.86
  28   6  -6    1.42    1.06
  28   6  -6    1.13    0.85
  26  -6  -6   19.13    1.84
  26  -6  -6   15.88    1.56
  26  -6  -6   19.52    1.80
  26   6  -6   14.31    1.53
  26   6  -6   17.10    1.99
  24  -6  -6    1.66    0.79
  24  -6  -6    2.77    0.94
  24  -6  -6    2.72    0.92
  24   6  -6    2.27    0.78
  24   6  -6    0.93    1.05
  22  -6  -6   16.86    1.59
  22  -6  -6   21.63    1.80
  22  -6  -6   18.10    1.61
  22   6  -6   15.78    1.48
  22   6  -6   18.48    1.90
  20  -6  -6   14.71    1.39
  20  -6  -6   13.84    1.28
  20  -6  -6   16.54    1.51
  20   6  -6    9.48    1.19
  20   6  -6    9.33    1.37
  18  -6  -6    0.48    0.70
  18  -6  -6    1.86    0.67
  18  -6  -6    2.16    0.65
  18  -6  -6    1.27    0.65
  18   6  -6    1.09    0.62
  18   6  -6    1.51    0.82
  16  -6  -6   47.96    1.90
  16  -6  -6   42.95    2.11
  16  -6  -6   39.34    2.08
  16  -6  -6   42.31    2.02
  16   6  -6   40.48    2.03
  16   6  -6   39.82    2.20
  14  -6  -6   10.22    0.86
  14  -6  -6    8.52    1.01
  14  -6  -6    7.55    0.95
  14  -6  -6   10.49    1.12
  14   6  -6   13.91    1.46
  14   6  -6   13.23    1.22
  12  -6  -6    4.29    0.76
  12  -6  -6    6.06    0.93
  12  -6  -6    5.56    0.83
  12  -6  -6    5.91    0.61
  12   6  -6    5.32    0.93
  12   6  -6    5.96    0.91
  10  -6  -6   50.88    2.31
 -10  -6   6   54.70    1.90
  10  -6  -6   55.64    2.27
  10  -6  -6   53.44    2.21
  10  -6  -6   56.20    1.83
  10  -6  -6   56.89    2.74
  10   6  -6   51.81    2.36
   8  -6  -6    6.57    0.79
  -8  -6   6    5.26    0.55
   8  -6  -6    4.49    0.70
   8  -6  -6    4.41    0.65
   8  -6  -6    4.71    0.44
   8  -6  -6    3.27    0.72
   8   6  -6    6.25    1.13
   8   6  -6    4.43    0.86
  -6  -6   6    0.29    0.28
   6  -6  -6    0.33    0.48
   6  -6  -6    0.32    0.45
   6  -6  -6    0.22    0.39
   6  -6  -6    0.09    0.19
   6   6  -6    0.29    0.39
   6   6  -6   -0.46    0.44
  -4  -6   6    2.87    0.40
   4  -6  -6    2.31    0.48
   4  -6  -6    1.51    0.50
   4  -6  -6    1.95    0.66
   4   6  -6    3.20    0.72
   4   6  -6    4.76    0.63
   2  -6  -6   47.99    1.95
  -2  -6   6   49.81    1.75
   2  -6  -6   48.91    2.16
  -2  -6   6   49.47    1.67
   2  -6  -6   50.85    1.79
   2   6  -6   42.17    1.77
   2   6  -6   42.51    2.01
   0  -6  -6   13.40    0.93
   0  -6  -6    9.98    0.90
   0  -6   6   12.10    0.72
   0  -6   6   12.25    0.72
   0  -6  -6   12.51    0.74
   0  -6  -6   11.72    1.11
   0   6  -6   13.31    1.02
   0   6  -6   12.49    1.18
   0   6  -6   12.75    0.97
  -2  -6  -6    0.86    0.44
  -2  -6  -6   -0.16    0.52
   2  -6   6    0.68    0.28
  -2  -6  -6    0.57    0.26
   2  -6   6    0.27    0.25
  -2  -6  -6    0.26    0.37
  -2   6  -6    1.44    0.50
  -2   6  -6    1.59    0.49
  -2   6  -6    1.00    0.52
   4  -6   6  145.69    4.19
  -4  -6  -6  152.23    4.48
  -4  -6  -6  149.53    4.00
  -4  -6  -6  147.87    4.78
   4  -6   6  149.74    4.02
  -4  -6  -6  141.80    4.44
  -4   6  -6  139.47    4.34
   4   6   6  137.09    3.61
   4   6   6  142.97    3.84
   4   6   6  141.30    3.67
  -4   6  -6  133.57    4.31
  -6  -6  -6   40.34    1.72
   6  -6   6   38.72    1.26
  -6  -6  -6   40.23    2.00
   6  -6   6   39.78    1.18
  -6  -6  -6   41.12    1.14
  -6  -6  -6   39.22    1.67
   6  -6   6   39.94    1.48
   6   6   6   38.58    1.30
  -6   6  -6   36.70    1.69
   6   6   6   38.09    1.13
   8  -6   6   74.13    2.34
  -8  -6  -6   71.38    2.86
  -8  -6  -6   71.77    2.61
  -8  -6  -6   74.30    2.54
  -8   6  -6   82.05    2.94
   8   6   6   88.19    2.53
   8   6   6   84.81    2.39
 -10  -6  -6   10.90    1.17
 -10  -6  -6    8.75    0.92
  10  -6   6   10.89    0.76
  10  -6   6    9.11    0.75
 -10  -6  -6   10.87    0.88
  10   6   6   11.63    0.60
  10   6   6   10.59    0.67
 -10   6  -6   13.34    1.08
 -12  -6  -6    5.81    0.96
  12  -6   6    7.89    0.69
  12  -6   6    7.57    0.66
 -12  -6  -6    8.23    0.77
 -12  -6  -6    8.38    0.95
  12   6   6    9.27    0.67
  12   6   6    9.87    0.62
 -12   6  -6    9.98    1.01
  14  -6   6   50.68    1.81
  14  -6   6   51.84    1.89
 -14  -6  -6   54.06    1.93
 -14  -6  -6   54.32    2.30
 -14  -6  -6   52.51    2.48
  14   6   6   55.45    1.87
 -14   6  -6   60.92    2.39
 -16  -6  -6    3.70    0.55
  16  -6   6    3.30    0.56
 -16  -6  -6    3.62    0.82
  16  -6   6    4.56    0.55
 -16  -6  -6    5.05    1.04
  16   6   6    2.58    0.48
 -16   6  -6    3.10    0.71
 -18  -6  -6    3.65    0.97
  18  -6   6    2.93    0.49
  18  -6   6    2.92    0.55
 -18  -6  -6    4.09    0.88
  18   6   6    3.16    0.54
 -18   6  -6    4.06    0.80
 -20  -6  -6   10.03    1.22
  20  -6   6   12.52    0.98
  20  -6   6   10.38    1.07
 -20  -6  -6   11.18    1.48
  20   6   6   16.59    1.05
 -20   6  -6   17.99    1.49
 -22  -6  -6    1.08    0.77
  22  -6   6    0.84    0.54
 -22  -6  -6    1.99    1.01
  22  -6   6    0.74    0.62
 -22   6  -6    0.97    0.73
  22   6   6    1.38    0.55
  24  -6   6    9.43    1.05
 -24  -6  -6   10.76    1.42
  24  -6   6    9.50    0.92
 -24  -6  -6    9.28    1.58
  24   6   6   12.16    1.04
 -24   6  -6    9.07    1.27
 -26  -6  -6    1.93    0.95
  26  -6   6    4.04    0.90
 -26  -6  -6    3.96    1.24
  26  -6   6    5.03    0.80
  26   6   6    2.62    0.75
 -26   6  -6    4.92    1.08
  28  -6   6    5.39    0.92
  28  -6   6    5.62    0.84
 -28  -6  -6    4.12    1.25
 -28  -6  -6    8.42    1.63
  28   6   6    5.30    0.93
 -28   6  -6    6.49    1.27
  30  -6   6   14.17    1.32
  30  -6   6   12.74    1.19
 -30  -6  -6   10.92    1.81
 -30  -6  -6   15.01    1.84
  30   6   6   12.38    1.29
 -30   6  -6   11.89    1.56
  32  -6   6    2.06    0.77
 -32  -6  -6    1.13    1.18
 -32  -6  -6    3.47    1.44
  32  -6   6    1.01    0.87
  32   6   6    0.00    0.76
  33  -7  -6    2.91    1.08
 -31  -7   6    0.96    1.08
  31  -7  -6    3.21    1.23
  31  -7  -6    0.48    0.98
  31   7  -6    3.88    1.18
  31   7  -6    4.22    1.59
  29  -7  -6    5.60    1.19
  29  -7  -6    5.65    1.23
 -29  -7   6    6.79    1.34
  29   7  -6    4.23    1.06
  29   7  -6    3.61    1.45
  27  -7  -6    1.45    0.93
  27  -7  -6    1.99    0.98
  27   7  -6    3.65    1.37
  27   7  -6    3.29    1.01
  25  -7  -6    8.03    1.29
  25  -7  -6   10.03    1.33
  25   7  -6    4.00    1.34
  25   7  -6    5.88    1.15
  23  -7  -6    6.25    1.13
  23  -7  -6    7.01    1.18
  23   7  -6    8.97    1.25
  23   7  -6    7.22    1.37
  21  -7  -6    5.31    1.00
  21  -7  -6    9.95    1.28
 -21  -7   6    9.46    1.14
  21   7  -6    7.60    1.32
  21   7  -6   11.17    1.31
  19  -7  -6    2.32    0.79
  19  -7  -6    2.22    0.82
 -19  -7   6    2.45    0.65
  19  -7  -6    3.61    0.90
  19   7  -6    4.66    0.95
  19   7  -6    3.02    1.02
  17  -7  -6    7.18    1.02
  17  -7  -6    7.93    1.09
 -17  -7   6    6.65    0.83
  17  -7  -6    7.55    1.01
  17   7  -6    5.34    1.07
  17   7  -6    7.02    1.05
  15  -7  -6   28.49    1.69
 -15  -7   6   26.10    1.36
  15  -7  -6   26.87    1.66
  15  -7  -6   24.48    1.60
  15   7  -6   23.13    1.72
  13  -7  -6    9.19    1.14
 -13  -7   6   11.12    0.89
  13  -7  -6    9.25    1.07
  13  -7  -6   10.03    1.09
  13   7  -6    8.38    1.17
  11  -7  -6    0.86    0.67
 -11  -7   6    2.98    0.53
  11  -7  -6    2.09    0.64
  11  -7  -6    2.30    0.65
  11   7  -6    0.88    0.68
   9  -7  -6   29.63    1.60
  -9  -7   6   32.46    1.58
   9  -7  -6   25.44    1.53
  -9  -7   6   31.35    1.36
   9  -7  -6   34.21    1.83
   9   7  -6   20.81    1.56
  -7  -7   6   11.73    0.98
   7  -7  -6   13.37    1.21
   7  -7  -6   13.56    1.09
   7  -7  -6   13.02    1.28
  -7  -7   6   12.85    0.85
   7   7  -6   12.27    1.24
   5  -7  -6   24.10    1.36
   5  -7  -6   22.78    1.47
  -5  -7   6   21.79    1.17
  -5  -7   6   20.43    1.05
   5  -7  -6   20.42    1.18
   5   7  -6   24.76    1.55
   3  -7  -6   11.96    1.06
  -3  -7   6   12.28    0.82
  -3  -7   6   13.32    0.85
   3  -7  -6   11.95    1.18
   3  -7  -6   11.75    0.91
   3   7  -6    7.04    0.93
   1  -7  -6    2.04    0.44
   1  -7  -6    2.88    0.76
  -1  -7   6    2.77    0.47
   1  -7  -6    2.57    0.60
  -1  -7   6    1.94    0.41
   1   7  -6    2.03    0.63
   1   7  -6    2.25    0.66
  -1  -7  -6   16.50    1.10
  -1  -7  -6   13.08    1.25
   1  -7   6   16.62    0.90
   1  -7   6   14.28    0.82
  -1  -7  -6   15.03    1.09
  -1  -7  -6   16.38    0.82
  -1   7  -6   19.13    1.32
  -1   7  -6   19.34    1.29
  -3  -7  -6    4.84    0.75
  -3  -7  -6    3.77    0.66
  -3  -7  -6    5.77    0.90
   3  -7   6    3.19    0.41
  -3  -7  -6    4.31    0.42
   3  -7   6    4.76    0.56
  -3   7  -6    2.64    0.69
  -3   7  -6    1.14    0.55
  -5  -7  -6   48.58    2.02
   5  -7   6   44.37    1.73
  -5  -7  -6   51.90    2.32
  -5  -7  -6   49.81    1.45
  -5  -7  -6   48.47    2.06
   5  -7   6   48.09    1.53
  -5   7  -6   45.69    2.01
   7  -7   6   35.45    1.49
   7  -7   6   29.31    1.32
  -7  -7  -6   32.73    1.56
  -7  -7  -6   30.52    1.62
  -7  -7  -6   31.08    1.82
  -7   7  -6   29.47    1.59
   9  -7   6   47.46    1.78
  -9  -7  -6   44.26    2.04
   9  -7   6   44.78    1.70
  -9  -7  -6   44.35    1.91
  -9  -7  -6   43.61    2.22
  -9   7  -6   41.55    1.94
 -11  -7  -6    4.32    0.79
  11  -7   6    5.22    0.63
  11  -7   6    6.37    0.67
 -11  -7  -6    6.18    1.03
 -11  -7  -6    4.55    0.73
 -11   7  -6    4.97    0.80
  11   7   6    4.53    0.44
 -13  -7  -6   34.21    1.62
 -13  -7  -6   35.29    2.05
 -13  -7  -6   36.56    1.88
  13  -7   6   34.33    1.48
  13  -7   6   33.15    1.46
 -13   7  -6   31.25    1.73
  13   7   6   32.67    1.23
 -15  -7  -6   27.08    1.73
 -15  -7  -6   30.81    1.97
 -15  -7  -6   26.17    1.42
  15  -7   6   26.85    1.26
  15  -7   6   27.57    1.34
  15   7   6   26.49    1.15
 -15   7  -6   25.34    1.61
 -17  -7  -6    4.30    0.91
  17  -7   6    5.80    0.66
  17  -7   6    5.55    0.71
 -17  -7  -6    2.42    0.92
 -17   7  -6    4.45    0.88
  17   7   6    4.50    0.60
 -19  -7  -6    6.22    1.09
  19  -7   6    4.54    0.69
  19  -7   6    4.38    0.80
 -19  -7  -6    5.86    1.19
 -19   7  -6    4.15    0.88
  19   7   6    3.62    0.61
  21  -7   6   11.95    1.04
 -21  -7  -6   13.68    1.72
  21  -7   6   10.33    1.12
 -21  -7  -6   13.11    1.47
 -21   7  -6   10.43    1.21
  21   7   6   10.37    0.93
 -23  -7  -6    1.34    0.91
  23  -7   6   -0.24    0.58
 -23  -7  -6   -1.44    0.95
  23  -7   6    0.51    0.56
 -23   7  -6   -1.18    0.68
  23   7   6   -0.21    0.79
  25  -7   6    5.57    0.95
 -25  -7  -6    4.56    1.39
  25  -7   6    6.77    0.88
 -25  -7  -6    5.78    1.21
 -25   7  -6    5.50    1.08
  27  -7   6    3.87    0.88
 -27  -7  -6    2.15    1.10
 -27  -7  -6    5.27    1.52
  27  -7   6    3.20    0.81
 -27   7  -6    5.22    1.14
 -29  -7  -6    1.45    1.31
  29  -7   6    1.16    0.71
  29  -7   6    2.42    0.82
 -29  -7  -6    1.40    1.12
 -29   7  -6    1.90    1.10
 -31  -7  -6   11.46    1.99
  31  -7   6   11.73    1.18
 -31  -7  -6   13.85    1.90
  31  -7   6   11.58    1.31
  30  -8  -6    9.14    1.43
  30   8  -6    7.85    1.64
 -28  -8   6   10.75    1.57
  28  -8  -6    9.09    1.49
  28  -8  -6   12.92    1.54
  28   8  -6    7.18    1.32
  28   8  -6   11.85    1.85
  26  -8  -6   12.66    1.57
 -26  -8   6   12.40    1.60
  26  -8  -6   12.57    1.66
  26   8  -6   10.51    1.41
  26   8  -6   12.82    1.84
  24  -8  -6    5.69    1.10
  24  -8  -6   12.32    1.50
 -24  -8   6    8.40    1.34
  24   8  -6   11.70    1.75
  22  -8  -6    1.87    0.90
 -22  -8   6    3.19    1.09
  22  -8  -6    3.13    0.91
  22   8  -6    1.58    0.99
 -20  -8   6   21.18    1.48
  20  -8  -6   21.63    1.79
  20  -8  -6   26.45    1.81
  20  -8  -6   24.41    1.89
 -20  -8   6   18.65    1.70
  20   8  -6   28.59    2.38
  18  -8  -6    0.00    0.71
  18  -8  -6    0.75    0.68
 -18  -8   6   -0.19    0.55
 -18  -8   6    1.02    0.83
  18  -8  -6    0.18    0.79
  18   8  -6   -0.18    0.84
 -16  -8   6   20.18    1.31
 -16  -8   6   15.88    1.45
  16  -8  -6   16.64    1.49
  16  -8  -6   21.68    1.57
  16  -8  -6   17.38    1.56
  16   8  -6   11.66    1.50
 -14  -8   6   33.98    1.66
 -14  -8   6   36.69    1.97
  14  -8  -6   34.52    1.94
  14  -8  -6   35.11    1.92
  14  -8  -6   37.11    1.99
  14   8  -6   48.45    2.51
 -12  -8   6    4.38    0.70
  12  -8  -6    4.12    0.88
  12  -8  -6    4.33    0.94
  12  -8  -6    3.98    0.87
 -12  -8   6    5.02    0.89
  12   8  -6    2.97    0.90
 -10  -8   6   20.16    1.35
  10  -8  -6   19.21    1.41
  10  -8  -6   19.51    1.39
 -10  -8   6   20.52    1.21
  10  -8  -6   21.99    1.53
  10   8  -6   17.47    1.55
  -8  -8   6   24.97    1.27
  -8  -8   6   23.41    1.38
   8  -8  -6   23.09    1.59
   8  -8  -6   23.20    1.47
   8  -8  -6   23.66    1.45
   8   8  -6   28.19    1.75
   6  -8  -6   19.02    1.44
  -6  -8   6   18.94    1.11
  -6  -8   6   18.25    1.22
   6  -8  -6   18.93    1.33
   6  -8  -6   18.16    1.22
   6   8  -6   20.77    1.58
  -4  -8   6   39.15    1.59
   4  -8  -6   39.60    1.92
  -4  -8   6   37.07    1.64
   4  -8  -6   39.87    2.10
   4  -8  -6   35.22    1.64
   4   8  -6   34.51    1.95
  -2  -8   6    9.77    0.82
  -2  -8   6   11.25    0.88
   2  -8  -6    8.83    0.81
   2  -8  -6    8.85    1.12
   2  -8  -6    8.04    1.01
   2   8  -6   14.40    1.29
   2   8  -6   14.58    1.34
   0  -8   6   19.30    1.08
   0  -8  -6   18.36    1.27
   0  -8  -6   18.54    1.58
   0  -8   6   18.79    1.00
   0  -8  -6   18.38    0.99
   0   8  -6   17.25    1.33
   0   8  -6   18.20    1.39
  -2  -8  -6   26.45    1.55
   2  -8   6   27.95    1.19
  -2  -8  -6   29.94    1.79
   2  -8   6   28.16    1.31
  -2  -8  -6   27.04    1.13
  -2  -8  -6   27.25    1.56
  -2   8  -6   38.79    1.95
  -2   8  -6   37.54    1.92
  -4  -8  -6   24.03    1.42
   4  -8   6   25.33    1.25
  -4  -8  -6   24.55    1.51
  -4  -8  -6   28.09    1.75
   4  -8   6   27.32    1.10
  -4   8  -6   30.86    1.72
   6  -8   6    6.08    0.74
   6  -8   6    6.61    0.71
  -6  -8  -6    6.91    0.94
  -6  -8  -6    5.12    0.82
  -6  -8  -6    6.75    1.05
  -6   8  -6    6.90    0.94
  -8  -8  -6   16.89    1.32
   8  -8   6   17.29    1.05
  -8  -8  -6   16.19    1.35
   8  -8   6   16.89    1.12
  -8  -8  -6   15.96    1.52
  -8   8  -6   21.96    1.51
  10  -8   6   38.04    1.64
 -10  -8  -6   37.75    2.00
 -10  -8  -6   40.00    2.19
 -10  -8  -6   33.79    1.77
  10  -8   6   34.03    1.55
 -10   8  -6   33.82    1.83
  12  -8   6    5.04    0.71
 -12  -8  -6    2.97    0.94
 -12  -8  -6    7.23    0.93
 -12  -8  -6    4.73    0.90
  12  -8   6    6.89    0.77
 -12   8  -6    6.23    0.96
  14  -8   6   13.45    0.99
 -14  -8  -6   13.50    1.20
 -14  -8  -6   14.78    1.43
  14  -8   6   13.73    1.03
 -14  -8  -6   12.91    1.59
 -14   8  -6    6.98    0.98
 -16  -8  -6   10.71    1.30
  16  -8   6    9.35    0.92
  16  -8   6    9.82    0.91
 -16  -8  -6    8.70    1.00
 -16  -8  -6    9.92    1.48
 -16   8  -6   14.14    1.36
  18  -8   6    2.55    0.62
 -18  -8  -6    5.93    1.31
 -18  -8  -6    3.85    1.02
  18  -8   6    3.64    0.64
 -18   8  -6    3.48    0.91
 -20  -8  -6    4.79    1.33
 -20  -8  -6    5.85    1.17
  20  -8   6    4.86    0.92
  20  -8   6    5.29    0.80
 -20   8  -6    5.41    1.04
 -22  -8  -6    6.10    1.44
  22  -8   6    5.36    0.83
  22  -8   6    5.57    0.99
 -22  -8  -6    5.88    1.23
 -22   8  -6    5.07    1.12
  24  -8   6    5.90    1.04
  24  -8   6    5.35    0.84
 -24  -8  -6    7.05    1.60
 -24  -8  -6    4.28    1.20
 -24   8  -6    5.02    1.11
 -26  -8  -6    4.49    1.51
 -26  -8  -6    3.55    1.26
  26  -8   6    1.38    0.71
  26  -8   6    3.93    1.00
 -26   8  -6    5.77    1.24
  28  -8   6   -0.25    0.65
 -28  -8  -6    1.92    1.35
 -28  -8  -6    1.53    1.16
  28  -8   6   -0.21    0.74
 -30  -8  -6    4.74    1.41
  30  -8   6    5.37    1.15
  30  -8   6    5.49    0.96
 -30  -8  -6    8.29    1.83
  29  -9  -6    5.89    1.24
  29   9  -6    5.56    1.73
  27  -9  -6   13.12    1.70
 -27  -9   6   11.86    1.65
  27  -9  -6   13.42    1.66
  27   9  -6   10.78    1.88
  25  -9  -6   -0.74    0.78
  25  -9  -6    0.03    1.00
 -25  -9   6    1.15    1.00
  25   9  -6    0.38    1.04
  23  -9  -6    1.79    0.99
  23  -9  -6    4.77    1.18
 -23  -9   6    4.17    1.20
  23   9  -6    3.01    1.23
  21  -9  -6   22.06    1.86
 -21  -9   6   25.99    2.07
  21  -9  -6   23.45    1.94
  21  -9  -6   24.87    2.02
 -21  -9   6   24.90    1.89
  21   9  -6   24.02    2.20
  19  -9  -6    9.74    1.33
 -19  -9   6   10.63    1.32
  19  -9  -6   12.43    1.44
 -19  -9   6    9.81    1.13
  19  -9  -6   13.45    1.44
  19   9  -6   15.15    1.82
  17  -9  -6    2.89    0.97
 -17  -9   6    3.39    0.79
  17  -9  -6    2.24    0.82
 -17  -9   6    2.14    0.84
  17  -9  -6    3.68    0.93
  17   9  -6    2.33    0.98
  15  -9  -6   20.66    1.71
 -15  -9   6   20.27    1.41
  15  -9  -6   19.25    1.65
  15  -9  -6   22.84    1.73
 -15  -9   6   18.92    1.62
  15   9  -6   21.54    1.92
  13  -9  -6    9.22    1.23
 -13  -9   6   10.94    1.04
  13  -9  -6    7.53    1.19
 -13  -9   6   10.80    1.25
  13  -9  -6    9.05    1.17
  13   9  -6    6.35    1.15
  11  -9  -6   13.93    1.39
 -11  -9   6   14.25    1.15
  11  -9  -6   12.69    1.36
  11  -9  -6   12.45    1.34
 -11  -9   6   14.10    1.34
  11   9  -6   14.53    1.60
   9  -9  -6    9.32    1.13
  -9  -9   6   10.81    1.01
  -9  -9   6   10.96    1.12
   9  -9  -6    9.60    1.30
   9  -9  -6   10.01    1.16
   9   9  -6    8.54    1.24
  -7  -9   6   27.11    1.60
   7  -9  -6   26.05    1.56
   7  -9  -6   29.47    1.91
   7  -9  -6   32.15    1.77
  -7  -9   6   27.27    1.44
   7   9  -6   26.17    1.82
   5  -9  -6   18.14    1.65
   5  -9  -6   20.48    1.60
  -5  -9   6   20.45    1.27
  -5  -9   6   20.57    1.25
   5  -9  -6   18.53    1.26
   5   9  -6   21.64    1.66
   3  -9  -6   15.23    1.54
   3  -9  -6   16.41    1.43
   3  -9  -6   13.96    1.10
  -3  -9   6   12.46    1.03
  -3  -9   6   14.85    1.03
   3   9  -6   13.42    1.40
   3   9  -6   12.79    1.39
   1  -9  -6   10.87    1.17
  -1  -9   6   13.51    1.07
  -1  -9   6   13.09    0.96
   1  -9  -6   11.46    0.93
   1  -9  -6   11.11    1.29
   1   9  -6   12.46    1.32
   1   9  -6   10.46    1.19
  -1  -9  -6    3.30    0.88
   1  -9   6    2.77    0.59
  -1  -9  -6    3.28    0.83
   1  -9   6    2.22    0.53
  -1   9  -6    4.01    0.89
  -1   9  -6    3.29    0.82
   3  -9   6   23.50    1.41
  -3  -9  -6   24.84    1.61
  -3  -9  -6   24.58    1.76
   3  -9   6   27.46    1.35
  -3  -9  -6   22.22    1.47
  -3   9  -6   27.95    1.71
  -5  -9  -6   32.87    1.82
   5  -9   6   33.78    1.56
   5  -9   6   33.43    1.63
  -5  -9  -6   34.82    2.07
  -5  -9  -6   33.80    1.90
  -5   9  -6   31.16    1.84
   7  -9   6    2.18    0.55
  -7  -9  -6    3.27    0.92
  -7  -9  -6    2.92    0.82
   7  -9   6    2.65    0.72
  -7  -9  -6    2.92    0.84
  -7   9  -6    0.66    0.70
  -9  -9  -6   27.35    1.77
   9  -9   6   22.57    1.32
  -9  -9  -6   23.56    1.60
   9  -9   6   27.04    1.44
  -9  -9  -6   24.66    2.06
  -9   9  -6   22.46    1.60
 -11  -9  -6    7.35    1.35
 -11  -9  -6    4.75    1.02
  11  -9   6    4.21    0.67
 -11  -9  -6    4.28    0.87
  11  -9   6    5.14    0.79
 -11   9  -6    6.91    1.09
 -13  -9  -6   -0.16    0.71
  13  -9   6   -0.18    0.47
 -13  -9  -6    0.39    0.66
  13  -9   6   -0.61    0.47
 -13  -9  -6   -0.81    0.73
 -13   9  -6    0.13    0.70
 -15  -9  -6   23.64    1.94
 -15  -9  -6   22.50    1.59
 -15  -9  -6   19.84    2.04
  15  -9   6   24.54    1.39
  15  -9   6   24.51    1.36
 -15   9  -6   17.90    1.62
  17  -9   6    2.38    0.67
 -17  -9  -6    2.56    1.08
 -17  -9  -6    2.65    0.94
  17  -9   6    2.41    0.70
 -17   9  -6    1.08    0.80
  19  -9   6    3.56    0.85
  19  -9   6    7.11    0.91
 -19  -9  -6    8.26    1.56
 -19  -9  -6    7.54    1.30
 -19   9  -6    6.59    1.15
 -21  -9  -6    6.69    1.49
  21  -9   6    5.60    0.86
 -21  -9  -6    6.31    1.28
  21  -9   6    5.93    1.07
 -21   9  -6    5.43    1.16
  23  -9   6    2.99    0.87
 -23  -9  -6    3.73    1.30
  23  -9   6    4.62    0.83
 -23  -9  -6    3.75    1.23
 -23   9  -6    5.14    1.18
  25  -9   6    6.92    1.18
 -25  -9  -6    8.21    1.51
 -25  -9  -6    7.09    1.69
  25  -9   6    5.40    0.91
 -25   9  -6    5.82    1.27
 -27  -9  -6    5.72    1.73
  27  -9   6    4.88    0.93
 -27  -9  -6    5.24    1.47
  27  -9   6    4.01    1.00
 -29  -9  -6    1.16    1.29
 -29  -9  -6    3.14    1.41
  29  -9   6    1.31    0.73
 -26 -10   6    4.26    1.55
  26 -10  -6    4.64    1.26
  26 -10  -6    4.15    1.34
  26  10  -6    6.74    1.58
  24 -10  -6    9.10    1.39
 -24 -10   6   10.23    1.86
  24 -10  -6   10.22    1.52
 -24 -10   6   10.57    1.70
  24  10  -6    7.36    1.56
 -22 -10   6    4.84    1.34
  22 -10  -6    6.41    1.33
  22 -10  -6    4.59    1.22
 -22 -10   6    6.07    1.22
  22 -10  -6    3.54    1.08
  22  10  -6    4.39    1.41
  20 -10  -6    3.83    1.11
 -20 -10   6    2.68    1.05
  20 -10  -6    4.97    1.22
  20 -10  -6    2.36    0.96
 -20 -10   6    3.69    0.93
  20  10  -6    0.65    0.98
 -18 -10   6   24.01    1.86
 -18 -10   6   23.47    1.68
  18 -10  -6   27.78    1.94
  18 -10  -6   26.89    2.10
  18 -10  -6   22.91    1.77
  18  10  -6   25.62    2.29
  16 -10  -6    4.13    1.08
  16 -10  -6    1.46    0.89
  16 -10  -6    2.71    1.02
 -16 -10   6    4.62    1.09
 -16 -10   6    2.23    0.78
  16  10  -6    3.71    1.10
  14 -10  -6    7.85    1.27
 -14 -10   6    8.15    1.21
  14 -10  -6    7.46    1.15
 -14 -10   6   10.90    1.16
  14 -10  -6    9.07    1.29
  14  10  -6    7.16    1.31
  12 -10  -6    6.33    1.20
 -12 -10   6    7.72    1.16
  12 -10  -6    7.49    1.23
  12 -10  -6    9.06    1.24
 -12 -10   6    7.57    1.00
  12  10  -6    9.50    1.42
 -10 -10   6   18.52    1.53
  10 -10  -6   16.89    1.52
  10 -10  -6   18.57    1.75
  10 -10  -6   18.52    1.55
 -10 -10   6   15.49    1.26
  10  10  -6   21.57    1.84
  -8 -10   6   21.16    1.50
  -8 -10   6   23.58    1.48
   8 -10  -6   24.78    1.75
   8 -10  -6   23.94    1.85
   8 -10  -6   22.22    1.62
   8  10  -6   17.37    1.68
  -6 -10   6   18.54    1.32
   6 -10  -6   12.87    1.44
   6 -10  -6   12.81    1.25
  -6 -10   6   13.72    1.22
   6 -10  -6   13.15    1.40
   6  10  -6   16.75    1.58
   4 -10  -6    2.64    0.68
   4 -10  -6    4.83    1.07
   4 -10  -6    5.31    1.01
  -4 -10   6    3.92    0.73
  -4 -10   6    4.08    0.77
   4  10  -6    5.88    1.07
   4  10  -6    5.32    1.05
   2 -10  -6    7.95    1.03
  -2 -10   6    6.78    0.85
   2 -10  -6    7.87    1.08
  -2 -10   6    8.56    0.94
   2 -10  -6    6.26    1.14
   2  10  -6    7.97    1.11
   2  10  -6    9.13    1.21
   0 -10   6    2.13    0.63
   0 -10  -6    2.68    0.93
   0 -10  -6    1.94    0.84
   0  10  -6    1.80    0.73
   0  10  -6    1.51    0.83
   2 -10   6   22.00    1.45
  -2 -10  -6   24.43    2.04
  -2 -10  -6   25.98    1.71
   2 -10   6   22.39    1.36
  -2  10  -6   21.32    1.78
  -4 -10  -6    4.86    0.97
   4 -10   6    3.23    0.80
  -4 -10  -6    3.30    1.07
  -4 -10  -6    3.71    0.93
   4 -10   6    2.80    0.66
  -4  10  -6    3.81    0.93
   6 -10   6    0.20    0.53
  -6 -10  -6    1.23    0.77
   6 -10   6    1.03    0.58
  -6 -10  -6   -0.31    0.66
  -6 -10  -6    0.28    0.64
  -6  10  -6    0.18    0.70
   8 -10   6   10.70    1.11
  -8 -10  -6    9.40    1.44
  -8 -10  -6    9.94    1.24
   8 -10   6   13.22    1.08
  -8 -10  -6    9.73    1.29
  -8  10  -6    9.47    1.21
  10 -10   6    4.69    0.80
 -10 -10  -6    6.68    1.07
 -10 -10  -6    7.38    1.17
  10 -10   6    5.25    0.78
 -10 -10  -6    3.87    1.18
 -10  10  -6    4.34    0.98
 -12 -10  -6    1.54    0.96
  12 -10   6    1.21    0.62
 -12 -10  -6    1.72    0.90
  12 -10   6    2.17    0.71
 -12 -10  -6    2.07    0.83
 -12  10  -6    1.06    0.79
 -14 -10  -6    3.43    0.92
  14 -10   6    2.33    0.72
 -14 -10  -6    3.05    1.01
 -14 -10  -6    1.55    1.12
  14 -10   6    1.36    0.65
 -14  10  -6    2.94    0.95
 -16 -10  -6   11.12    1.50
  16 -10   6   11.83    1.15
 -16 -10  -6   10.06    1.61
  16 -10   6   11.41    1.12
 -16  10  -6    8.37    1.24
 -18 -10  -6    1.94    1.16
  18 -10   6    1.26    1.05
  18 -10   6    2.14    0.72
 -18 -10  -6    3.36    1.18
  18 -10   6    2.68    0.90
 -18  10  -6    2.12    0.92
  20 -10   6   14.28    1.41
 -20 -10  -6   12.24    1.68
 -20 -10  -6   14.79    2.06
  20 -10   6   14.36    1.23
 -20  10  -6   21.27    1.95
 -22 -10  -6    2.46    1.45
 -22 -10  -6    3.57    1.23
  22 -10   6    1.51    0.83
  22 -10   6    4.64    0.88
 -22  10  -6    0.69    0.94
 -24 -10  -6   -0.38    1.11
 -24 -10  -6    0.68    1.13
  24 -10   6    1.55    0.95
  24 -10   6    0.37    0.71
  26 -10   6    1.88    0.79
 -26 -10  -6    2.26    1.31
 -26 -10  -6    0.38    1.44
 -23 -11   6    0.85    1.15
  23 -11  -6   -1.15    0.81
  23 -11  -6   -0.06    0.94
 -23 -11   6   -0.40    0.85
  23  11  -6    0.98    1.28
  21 -11  -6    3.56    1.17
 -21 -11   6    3.88    1.30
  21 -11  -6    5.01    1.20
  21 -11  -6    5.30    1.18
 -21 -11   6    5.39    1.10
  21  11  -6    7.32    1.55
  19 -11  -6    6.37    1.33
 -19 -11   6    4.29    1.21
  19 -11  -6    7.22    1.31
 -19 -11   6    7.95    1.17
  19 -11  -6    5.91    1.20
  19  11  -6    6.05    1.42
  17 -11  -6    3.96    1.11
 -17 -11   6    1.90    0.85
  17 -11  -6    2.37    0.99
 -17 -11   6    2.23    1.09
  17 -11  -6    4.58    1.22
  17  11  -6    5.08    1.32
  15 -11  -6   21.57    1.94
  15 -11  -6   18.52    1.79
 -15 -11   6   18.75    1.54
  15 -11  -6   20.72    1.89
 -15 -11   6   20.53    1.87
  15  11  -6   16.09    1.84
  13 -11  -6    5.06    1.12
 -13 -11   6    3.59    0.88
  13 -11  -6    4.55    1.13
 -13 -11   6    7.44    1.24
  13 -11  -6    4.78    1.05
  13  11  -6    4.43    1.16
  11 -11  -6    4.41    1.02
 -11 -11   6    5.93    1.07
  11 -11  -6    5.73    1.16
  11 -11  -6    6.03    1.18
 -11 -11   6    5.73    0.96
  11  11  -6    4.40    1.09
   9 -11  -6    6.64    1.22
  -9 -11   6   10.66    1.26
   9 -11  -6    9.10    1.20
   9 -11  -6    9.55    1.35
  -9 -11   6    9.30    1.07
   9  11  -6    8.11    1.31
  -7 -11   6   11.60    1.15
   7 -11  -6   12.14    1.29
  -7 -11   6   11.94    1.28
   7 -11  -6   13.76    1.60
   7 -11  -6   10.44    1.36
   7  11  -6   13.61    1.57
  -5 -11   6    3.36    0.78
   5 -11  -6    1.09    0.86
   5 -11  -6    0.86    0.97
  -5 -11   6    3.44    0.83
   5  11  -6    0.41    0.80
   5  11  -6    1.24    0.89
  -3 -11   6   17.74    1.38
   3 -11  -6   15.63    1.54
   3 -11  -6   20.16    1.91
  -3 -11   6   19.22    1.94
   3  11  -6   24.18    1.79
   3  11  -6   20.44    1.87
  -1 -11   6    4.53    1.01
   1 -11  -6    3.96    1.10
  -1 -11   6    2.71    0.73
   1 -11  -6    3.29    0.99
   1  11  -6    2.49    0.94
   1  11  -6    4.45    1.00
   1 -11   6    0.31    0.58
  -1 -11  -6    1.32    0.98
  -1 -11  -6    0.29    0.75
   1 -11   6    1.95    0.82
  -1  11  -6    0.74    0.84
   3 -11   6    2.75    0.71
   3 -11   6    1.86    0.73
  -3 -11  -6   -0.04    0.88
  -3 -11  -6    3.28    0.98
  -3  11  -6    4.43    1.07
   5 -11   6    2.78    0.72
  -5 -11  -6    0.92    0.90
   5 -11   6    2.68    0.78
  -5 -11  -6    3.16    0.89
  -5  11  -6    2.44    0.92
   7 -11   6    5.87    0.98
  -7 -11  -6    7.74    1.21
   7 -11   6    5.68    0.85
  -7 -11  -6    7.30    1.39
  -7 -11  -6    6.32    1.15
  -7  11  -6    7.43    1.24
  -9 -11  -6   10.07    1.56
   9 -11   6   12.50    1.10
   9 -11   6    9.72    1.13
  -9 -11  -6    9.52    1.28
  -9 -11  -6    9.49    1.39
  -9  11  -6    8.02    1.31
 -11 -11  -6    7.62    1.49
 -11 -11  -6    5.41    1.16
 -11 -11  -6    7.22    1.22
  11 -11   6    5.49    0.86
  11 -11   6    7.61    1.04
 -11  11  -6    6.48    1.27
  13 -11   6   11.84    1.12
 -13 -11  -6    9.95    1.51
  13 -11   6    9.49    1.16
 -13 -11  -6   12.52    1.49
 -13 -11  -6   10.09    1.71
 -13  11  -6    9.03    1.38
  15 -11   6    2.20    0.81
  15 -11   6    3.38    0.81
 -15 -11  -6   -0.17    0.97
 -15 -11  -6    2.45    1.12
 -15  11  -6    2.35    1.00
  17 -11   6    3.55    0.83
  17 -11   6    2.98    0.95
  17 -11   6    2.94    0.79
 -17 -11  -6    3.65    1.33
 -17 -11  -6    2.48    1.12
 -17  11  -6    2.58    0.98
 -19 -11  -6    2.46    1.40
  19 -11   6    0.64    0.85
 -19 -11  -6    2.78    1.25
  19 -11   6    2.64    0.80
 -19  11  -6    2.23    1.09
  21 -11   6    6.05    1.09
  21 -11   6    6.40    0.99
 -21 -11  -6    5.90    1.74
 -21 -11  -6    9.08    1.72
  23 -11   6    0.27    0.71
 -23 -11  -6   -0.09    1.11
 -23 -11  -6   -1.88    1.42
  20 -12  -6    7.46    1.46
 -20 -12   6    6.03    1.19
 -20 -12   6    7.69    1.53
  20 -12  -6    6.60    1.31
  20  12  -6    8.47    1.64
  18 -12  -6    2.88    1.06
 -18 -12   6    3.36    1.19
  18 -12  -6    2.97    1.10
 -18 -12   6    5.62    1.07
  18 -12  -6    4.12    1.28
  18  12  -6    3.87    1.27
 -16 -12   6   13.44    1.44
 -16 -12   6   12.42    1.58
  16 -12  -6   14.35    1.65
  16 -12  -6   13.03    1.60
  16 -12  -6   12.34    1.66
  16  12  -6    9.58    1.58
 -14 -12   6    1.97    1.05
  14 -12  -6    1.17    1.01
  14 -12  -6    1.65    1.07
 -14 -12   6    4.09    0.98
  14 -12  -6    2.02    0.98
  14  12  -6    4.05    1.20
 -12 -12   6    2.94    0.90
  12 -12  -6    2.79    1.04
  12 -12  -6    3.30    1.03
  12 -12  -6    4.16    1.17
 -12 -12   6    2.63    0.96
  12  12  -6    2.06    1.05
  10 -12  -6    8.82    1.41
  10 -12  -6    7.12    1.25
  10 -12  -6    6.19    1.31
 -10 -12   6    8.91    1.30
 -10 -12   6    8.41    1.12
  10  12  -6    8.49    1.35
  -8 -12   6    2.55    0.93
   8 -12  -6    4.05    1.13
   8 -12  -6    4.83    1.10
  -8 -12   6    4.92    0.93
   8  12  -6    5.13    1.30
   8  12  -6    3.20    1.04
  -6 -12   6    2.56    0.92
   6 -12  -6    0.90    0.83
  -6 -12   6    0.68    0.72
   6 -12  -6    0.21    0.82
   6  12  -6    2.83    0.99
   6  12  -6    0.96    1.06
  -4 -12   6   13.52    1.32
   4 -12  -6   12.28    1.59
   4 -12  -6   12.91    1.58
  -4 -12   6   14.35    1.50
   4  12  -6   12.51    1.51
   4  12  -6   11.13    1.53
   2 -12  -6    6.99    1.20
  -2 -12   6    7.90    1.21
   2 -12  -6    9.53    1.56
  -2 -12   6    6.77    1.02
   2  12  -6    6.33    1.24
   0 -12   6    5.17    0.94
   0 -12  -6    4.35    1.24
   0 -12   6    5.37    1.00
   0 -12  -6    5.26    1.08
   0  12  -6    4.65    1.16
  -2 -12  -6    2.06    1.15
   2 -12   6    1.41    0.70
  -2 -12  -6    1.36    0.93
   2 -12   6    1.42    0.85
  -2  12  -6    2.11    0.99
  -4 -12  -6   18.64    1.76
   4 -12   6   16.14    1.46
  -4 -12  -6   15.41    1.81
   4 -12   6   15.19    1.31
  -4  12  -6   18.65    1.84
  -6 -12  -6    0.86    0.92
   6 -12   6   -0.01    0.77
  -6 -12  -6    1.11    0.98
   6 -12   6    1.38    0.73
  -6  12  -6    2.42    1.07
   8 -12   6    1.44    0.75
   8 -12   6    0.35    0.65
  -8 -12  -6    0.59    0.94
  -8 -12  -6    0.26    0.99
  -8 -12  -6    1.09    0.96
  -8  12  -6    1.19    0.94
  10 -12   6    8.43    1.18
 -10 -12  -6   10.21    1.43
 -10 -12  -6    7.32    1.53
 -10 -12  -6   10.49    1.53
  10 -12   6   10.53    1.13
 -10  12  -6    8.34    1.41
 -12 -12  -6    1.06    1.13
 -12 -12  -6    0.99    0.94
  12 -12   6    1.50    0.75
  12 -12   6    1.79    0.86
 -12 -12  -6    0.47    0.97
 -12  12  -6    0.45    0.94
 -14 -12  -6    3.24    1.23
  14 -12   6    3.15    0.86
  14 -12   6    2.66    0.87
 -14 -12  -6    3.44    1.42
 -14  12  -6    2.73    1.10
 -16 -12  -6    0.33    1.26
  16 -12   6   -0.16    0.73
  16 -12   6   -0.22    0.69
 -16 -12  -6    1.19    1.16
  16 -12   6    0.78    0.81
  18 -12   6    0.45    0.76
 -18 -12  -6    1.13    1.46
  18 -12   6    0.42    0.89
 -18 -12  -6    3.69    1.32
 -20 -12  -6    7.37    1.67
  20 -12   6    7.06    1.05
 -17 -13   6    2.23    1.16
  17 -13  -6    3.82    1.17
 -17 -13   6    3.57    1.06
  17 -13  -6    2.19    1.19
  15 -13  -6    1.00    1.03
  15 -13  -6    2.36    1.21
 -15 -13   6   -0.54    1.01
 -15 -13   6    1.34    0.91
 -13 -13   6    3.17    1.18
  13 -13  -6    4.12    1.14
  13 -13  -6    3.66    1.24
 -13 -13   6    2.88    0.95
 -11 -13   6    1.69    1.08
 -11 -13   6    0.67    0.84
  11 -13  -6    1.15    1.09
 -11 -13   6    1.45    1.02
  11 -13  -6    0.60    1.05
  -9 -13   6    6.79    1.15
   9 -13  -6   12.56    1.67
  -9 -13   6    9.26    1.41
   9 -13  -6   10.49    1.62
   9  13  -6    7.45    1.60
   9  13  -6    5.40    1.89
  -7 -13   6    9.15    1.47
   7 -13  -6    8.02    1.40
  -7 -13   6   10.77    1.27
   7 -13  -6   12.91    1.72
   7  13  -6   14.10    1.91
   7  13  -6   12.20    1.77
  -5 -13   6    2.41    0.89
   5 -13  -6    1.58    1.06
   5 -13  -6    1.42    1.03
  -5 -13   6    2.17    0.94
   5  13  -6    2.70    1.12
   5  13  -6    3.86    1.14
  -3 -13   6   -0.44    0.90
   3 -13  -6   -0.33    0.91
   3 -13  -6    1.44    1.11
  -3 -13   6   -0.23    0.69
   3  13  -6    2.23    1.11
  -1 -13   6    5.31    0.96
   1 -13  -6    6.15    1.50
   1 -13  -6    7.29    1.37
  -1 -13   6    6.18    1.20
   1  13  -6    4.87    1.24
   1 -13   6    1.24    0.93
  -1 -13  -6    1.43    1.01
   1 -13   6    0.90    0.76
  -1 -13  -6    3.88    1.20
  -1  13  -6    2.06    1.15
   3 -13   6    7.13    1.26
   3 -13   6   12.74    1.26
  -3 -13  -6    8.93    1.67
  -3 -13  -6    9.70    1.41
  -3  13  -6   12.90    1.76
   5 -13   6    0.92    0.86
  -5 -13  -6    0.99    1.17
   5 -13   6   -0.30    0.69
  -5 -13  -6    0.62    0.87
  -5  13  -6   -0.53    0.97
  -7 -13  -6    0.08    0.85
   7 -13   6    1.05    0.77
  -7 -13  -6    0.99    1.27
   7 -13   6    0.02    0.74
  -7  13  -6   -0.35    0.95
  -9 -13  -6    1.26    1.27
   9 -13   6    2.13    0.88
   9 -13   6    0.92    0.78
  -9 -13  -6    1.50    1.08
  11 -13   6    0.45    0.86
  11 -13   6    1.05    0.75
 -11 -13  -6    0.84    1.31
 -11 -13  -6    0.76    1.04
 -11 -13  -6    2.65    1.23
  13 -13   6    3.45    0.93
 -13 -13  -6    1.97    1.31
 -13 -13  -6    3.25    1.28
  13 -13   6    4.27    1.04
  15 -13   6    4.96    1.06
 -15 -13  -6    4.21    1.43
  15 -13   6    3.68    0.96
  17 -13   6    0.64    0.78
 -17 -13  -6    2.29    1.34
  10 -14  -6    2.36    1.23
 -10 -14   6    0.82    0.87
  -8 -14   6    1.85    0.93
   8 -14  -6   -0.34    1.04
   6 -14  -6    8.36    1.59
   6 -14  -6    8.10    1.67
  -6 -14   6    6.89    1.16
   4 -14  -6    6.11    1.41
  -4 -14   6    6.75    1.14
   4 -14  -6    7.25    1.42
  -4 -14   6    7.37    1.38
   2 -14  -6    2.06    1.14
  -2 -14   6    0.07    0.84
   2 -14  -6   -1.15    0.81
  -2 -14   6    1.18    0.86
   0 -14   6    1.97    0.93
   0 -14   6    1.62    0.94
   0 -14  -6    3.58    1.27
   0 -14  -6    5.28    1.54
  -2 -14  -6   16.67    2.03
   2 -14   6   16.80    1.66
   2 -14   6   18.62    1.56
  -2 -14  -6   18.11    2.00
   4 -14   6    0.09    0.89
  -4 -14  -6    2.85    1.24
  -4 -14  -6    0.99    1.07
   4 -14   6    0.45    0.80
  -6 -14  -6    3.55    1.65
   6 -14   6    2.91    1.06
  -6 -14  -6    3.91    1.30
   6 -14   6    3.41    0.94
   8 -14   6    9.32    1.21
  -8 -14  -6    8.02    1.48
   8 -14   6    7.33    1.28
  10 -14   6    0.82    0.85
 -10 -14  -6    0.82    1.14
  10 -14   6    0.11    0.72
  34   0  -7    3.78    1.54
  34   0  -7    4.62    1.29
  32   0  -7    3.77    1.34
  32   0  -7    8.85    1.38
  30   0  -7    0.05    0.80
  30   0  -7    1.53    1.12
  28   0  -7   39.38    2.77
  28   0  -7   41.32    2.31
  26   0  -7   14.66    1.48
  26   0  -7   14.08    1.36
  26   0  -7   13.74    1.81
  24   0  -7    1.12    0.74
  24   0  -7    0.45    0.59
  24   0  -7    2.57    0.99
  22   0  -7    0.70    0.74
  22   0  -7    0.80    0.66
  22   0  -7    1.15    0.60
  20   0  -7    5.57    1.01
  20   0  -7    5.28    0.85
  20   0  -7    4.25    0.85
  18   0  -7    8.73    1.06
  18   0  -7    8.32    0.94
  18   0  -7    7.52    1.11
  16   0  -7   18.43    1.17
  16   0  -7   20.74    1.48
  16   0  -7   18.60    1.03
  16   0  -7   18.13    1.34
  14   0  -7    8.32    0.92
  14   0  -7    7.42    0.99
  14   0  -7    8.72    0.71
  14   0  -7    7.71    0.82
  12   0  -7  172.22    5.35
  12   0  -7  177.72    4.88
  12   0  -7  169.17    5.15
  12   0  -7  175.72    5.27
  10   0  -7   36.12    1.32
  10   0  -7   37.94    1.75
  10   0  -7   39.39    1.70
  10   0  -7   37.05    1.62
   8   0  -7   50.28    2.02
   8   0  -7   48.23    1.96
   8   0  -7   49.68    1.90
   8   0  -7   52.74    1.60
   6   0  -7   44.82    1.85
   6   0  -7   45.94    1.74
   6   0  -7   45.55    1.37
   6   0  -7   42.50    1.78
   4   0  -7   19.75    1.05
   4   0  -7   19.95    1.13
   4   0  -7   21.24    0.70
   4   0  -7   21.26    1.06
   4   0  -7   22.22    1.15
   2   0  -7  158.92    4.60
   2   0  -7  156.02    4.55
   2   0  -7  154.19    4.73
   2   0  -7  166.20    4.68
   0   0  -7   65.71    2.19
   0   0  -7   62.87    2.32
   0   0  -7   65.47    2.13
   0   0  -7   67.42    2.24
  -2   0  -7   21.38    1.10
  -2   0  -7   19.10    0.90
  -2   0  -7   18.88    0.94
  -2   0  -7   18.57    0.63
  -2   0  -7   19.88    0.98
  -4   0  -7   63.83    1.84
  -4   0  -7   66.63    2.02
  -4   0  -7   63.23    2.11
  -6   0  -7   11.36    0.57
  -6   0  -7   10.58    0.70
  -8   0  -7    4.54    0.44
  -8   0  -7    4.36    0.49
  10   0   7   70.31    1.97
 -10   0  -7   72.87    2.27
 -10   0  -7   68.92    2.22
  10   0   7   68.04    1.94
 -12   0  -7   36.68    1.41
  12   0   7   37.18    1.18
 -12   0  -7   33.76    1.42
  12   0   7   37.01    1.02
 -14   0  -7    0.19    0.31
  14   0   7    0.63    0.23
 -14   0  -7    0.16    0.36
 -16   0  -7   46.45    1.88
 -16   0  -7   46.64    1.75
  18   0   7   52.81    1.73
 -18   0  -7   48.22    2.06
 -18   0  -7   49.53    1.88
  20   0   7   34.18    1.33
 -20   0  -7   35.83    1.78
 -20   0  -7   32.35    1.52
 -22   0  -7   21.51    1.47
  22   0   7   21.53    1.03
 -24   0  -7    0.97    0.70
  24   0   7    2.04    0.58
 -26   0  -7    9.70    1.27
 -28   0  -7   14.17    1.54
 -30   0  -7    1.23    0.91
  32   0   7   -0.23    0.78
 -32   0  -7    1.83    1.03
  34   0   7    5.53    1.09
 -34   0  -7    3.97    1.35
 -36   0  -7    3.16    1.31
  35  -1  -7   12.15    1.65
  35  -1  -7   11.08    2.01
  35   1  -7    8.60    1.96
  35   1  -7   10.80    1.65
  33  -1  -7    0.57    0.94
  33  -1  -7   -0.78    1.19
  33   1  -7    2.87    1.33
  33   1  -7    3.81    1.13
  31  -1  -7    1.59    0.88
  31  -1  -7    2.01    1.25
  31  -1  -7    3.25    1.14
  31   1  -7    1.81    1.20
  31   1  -7    1.17    0.86
  29  -1  -7   15.97    1.66
  29  -1  -7   13.84    1.44
  29  -1  -7   17.13    2.08
  29   1  -7   13.65    1.52
  29   1  -7   13.36    1.93
  27  -1  -7    3.15    1.14
  27  -1  -7    6.94    1.08
  27  -1  -7    7.60    1.21
  27   1  -7    6.77    1.37
  27   1  -7    6.91    1.23
  25  -1  -7    8.38    1.43
  25  -1  -7    9.25    1.29
  25  -1  -7    8.49    1.13
  25   1  -7    6.84    1.39
  25   1  -7    7.04    1.15
  23  -1  -7   17.48    1.77
  23  -1  -7   19.73    1.37
  23  -1  -7   19.87    1.64
  23   1  -7   30.03    2.19
  23   1  -7   29.72    1.81
  21  -1  -7    8.13    0.99
  21  -1  -7    9.87    1.35
  21  -1  -7   11.01    1.23
  21   1  -7    8.40    1.22
  21   1  -7    6.92    1.02
  19  -1  -7   34.82    2.04
  19  -1  -7   37.98    1.91
  19  -1  -7   35.66    1.81
  19   1  -7   36.25    1.72
  19   1  -7   33.49    1.82
  19   1  -7   35.98    2.05
  17  -1  -7   14.22    1.25
  17  -1  -7   13.48    1.14
  17  -1  -7   13.47    1.27
  17   1  -7   16.28    1.48
  17   1  -7   14.39    1.24
  17   1  -7   12.16    1.08
  15  -1  -7   12.48    0.84
  15  -1  -7   13.19    1.17
  15  -1  -7   13.45    1.12
  15  -1  -7   12.42    1.21
  15   1  -7   11.31    1.08
  15   1  -7   10.61    0.96
  15   1  -7   11.62    1.21
  15   1  -7   10.98    0.82
  13  -1  -7   58.22    2.25
  13  -1  -7   58.19    1.99
  13  -1  -7   59.22    2.33
  13  -1  -7   62.12    2.42
  13   1  -7   57.93    2.43
  13   1  -7   56.51    2.19
  13   1  -7   61.89    2.03
  13   1  -7   55.88    2.30
  11  -1  -7   49.82    1.67
  11  -1  -7   46.80    2.01
  11  -1  -7   48.41    2.00
  11  -1  -7   51.70    1.97
  11   1  -7   41.16    1.70
  11   1  -7   39.65    1.43
  11   1  -7   37.23    1.81
  11   1  -7   36.11    1.75
   9  -1  -7   32.60    1.45
   9  -1  -7   31.33    1.50
   9  -1  -7   29.60    1.45
   9  -1  -7   32.80    1.15
   9   1  -7   30.62    1.16
   9   1  -7   30.72    1.55
   9   1  -7   31.28    1.40
   9   1  -7   31.66    1.50
   7  -1  -7   57.93    2.07
   7  -1  -7   55.60    1.69
   7  -1  -7   56.04    2.12
   7  -1  -7   55.10    2.08
   7  -1  -7   58.17    2.12
   7   1  -7   56.10    2.20
   7   1  -7   55.01    1.72
   7   1  -7   59.51    2.17
   7   1  -7   53.73    2.01
   5  -1  -7   63.47    2.20
   5  -1  -7   64.22    2.22
   5  -1  -7   62.69    2.25
   5  -1  -7   62.46    1.77
   5  -1  -7   60.49    2.21
   5   1  -7   67.14    2.25
   5   1  -7   65.79    2.42
   5   1  -7   62.13    2.32
   5   1  -7   66.18    1.92
   3  -1  -7   38.67    1.58
   3  -1  -7   38.05    1.53
   3  -1  -7   37.95    1.55
   3  -1  -7   37.96    1.50
   3  -1  -7   37.17    1.07
   3   1  -7   35.08    1.11
   3   1  -7   37.72    1.57
   3   1  -7   34.62    1.59
   1  -1  -7   11.93    0.77
   1  -1  -7   12.07    0.81
   1  -1  -7   12.92    0.81
   1  -1  -7   10.59    0.76
   1   1  -7   15.12    0.93
   1   1  -7   15.62    0.60
   1   1  -7   16.46    1.03
  -1  -1  -7   39.72    1.57
  -1  -1  -7   40.03    1.46
  -1  -1  -7   37.85    1.55
  -1  -1  -7   39.14    1.09
  -1  -1  -7   40.97    1.52
  -1   1  -7   50.70    1.72
  -1   1  -7   50.07    1.96
  -1   1  -7   49.60    1.48
  -3  -1  -7   16.68    0.93
  -3  -1  -7   15.64    0.81
  -3  -1  -7   15.36    0.58
  -3  -1  -7   16.06    0.85
  -3   1  -7   13.93    0.59
  -3   1  -7   13.63    0.73
  -3   1  -7   13.39    0.96
  -5  -1  -7   83.96    2.39
  -5  -1  -7   83.55    2.51
  -5  -1  -7   84.61    2.71
  -5   1  -7   78.27    2.37
  -5   1  -7   78.20    2.28
  -7  -1  -7   10.07    0.77
  -7  -1  -7   10.41    0.59
  -7  -1  -7   10.55    0.57
  -7   1  -7    7.16    0.51
  -7   1  -7    5.64    0.49
   9  -1   7   26.55    1.02
  -9  -1  -7   24.10    1.05
   9  -1   7   28.92    1.02
   9  -1   7   25.29    0.83
  -9  -1  -7   24.23    1.19
  -9   1  -7   24.44    0.96
  -9   1  -7   23.74    1.02
   9   1   7   23.69    0.83
  11  -1   7   72.94    2.02
 -11  -1  -7   67.71    2.30
  11  -1   7   69.94    2.04
  11  -1   7   76.27    2.09
 -11  -1  -7   68.17    2.39
 -11   1  -7   60.77    1.91
  11   1   7   60.74    1.71
 -11   1  -7   62.60    2.08
  11   1   7   63.29    1.77
 -13  -1  -7    4.27    0.57
  13  -1   7    5.87    0.45
  13  -1   7    5.55    0.27
 -13  -1  -7    6.06    0.68
  13  -1   7    6.03    0.27
  13   1   7    8.99    0.51
 -13   1  -7    8.47    0.77
 -13   1  -7    9.13    0.59
  15  -1   7    0.32    0.26
 -15  -1  -7    0.26    0.38
 -15  -1  -7    0.76    0.43
  15   1   7    1.37    0.51
 -15   1  -7    1.42    0.33
 -15   1  -7    0.92    0.44
 -17  -1  -7   18.06    1.15
 -17  -1  -7   17.85    1.13
 -17   1  -7   17.42    0.86
 -17   1  -7   16.93    1.16
  17   1   7   18.14    0.81
 -19  -1  -7    3.42    0.71
  19  -1   7    3.55    0.51
 -19  -1  -7    4.06    0.68
  19   1   7    4.31    0.46
 -19   1  -7    4.24    0.72
  21  -1   7   17.28    0.95
 -21  -1  -7   17.04    1.40
 -21  -1  -7   15.34    1.20
  21   1   7   10.67    0.68
 -21   1  -7   10.04    1.07
  23  -1   7   31.20    1.36
 -23  -1  -7   34.61    1.85
 -23  -1  -7   27.84    1.67
 -23   1  -7   40.98    2.10
  25  -1   7   10.35    0.89
 -25  -1  -7   10.81    1.22
 -25   1  -7   10.76    1.26
 -27  -1  -7    8.51    1.22
 -27   1  -7    6.41    1.14
 -29  -1  -7    1.58    0.91
  29   1   7    4.36    0.84
 -29   1  -7    3.79    1.09
 -31  -1  -7    0.97    0.93
 -31   1  -7    0.75    0.93
  31   1   7    0.71    0.81
  33  -1   7    0.39    0.88
 -33  -1  -7   -0.17    0.99
  33   1   7   -0.18    0.72
 -33   1  -7    0.40    1.04
 -35  -1  -7    0.99    1.13
 -35   1  -7    2.08    1.19
  35   1   7    1.72    0.94
  36  -2  -7    0.47    1.36
  36   2  -7    0.28    1.14
  34  -2  -7    1.79    0.82
  34  -2  -7    1.20    1.02
  34  -2  -7    0.30    1.13
  34   2  -7    2.57    1.12
  34   2  -7    4.40    1.62
  32  -2  -7    0.91    1.20
  32  -2  -7    3.55    1.15
  32  -2  -7    3.00    0.96
  32   2  -7    1.77    1.03
  32   2  -7    1.11    1.32
  30  -2  -7   10.27    1.49
  30  -2  -7   10.17    1.31
  30  -2  -7   10.44    1.73
  30   2  -7   13.56    1.63
  30   2  -7   11.71    1.92
  28  -2  -7    0.99    1.07
  28  -2  -7    0.73    0.76
  28  -2  -7   -0.19    0.76
  28   2  -7   -0.24    0.92
  28   2  -7    0.67    0.80
  26  -2  -7   10.30    1.19
  26  -2  -7   12.66    1.45
  26  -2  -7   11.23    1.61
  26   2  -7   10.66    1.65
  26   2  -7    6.27    1.09
  24  -2  -7   23.22    1.69
  24  -2  -7   25.34    2.13
  24  -2  -7   22.50    1.53
  24   2  -7   33.76    2.27
  24   2  -7   29.64    1.95
  22  -2  -7   22.21    1.56
  22  -2  -7   17.62    1.73
  22  -2  -7   19.93    1.40
  22   2  -7   16.94    1.55
  22   2  -7   18.71    1.86
  20  -2  -7    9.18    1.25
  20  -2  -7   11.32    1.17
  20  -2  -7    9.22    1.13
  20   2  -7    7.28    1.01
  20   2  -7    8.30    1.29
  18  -2  -7   42.36    2.16
  18  -2  -7   42.38    2.05
  18  -2  -7   43.85    1.97
  18   2  -7   45.73    2.16
  18   2  -7   48.77    2.41
  16  -2  -7    8.70    0.80
  16  -2  -7    9.08    0.98
  16  -2  -7   12.34    1.20
  16  -2  -7   10.34    1.10
  16   2  -7    6.14    0.88
  16   2  -7    5.27    0.94
  14  -2  -7    7.69    0.88
  14  -2  -7    8.71    0.95
  14  -2  -7    8.13    0.70
  14  -2  -7    8.35    0.91
  14   2  -7   13.23    1.15
  14   2  -7   14.67    1.31
  14   2  -7   12.88    0.86
  12  -2  -7   41.74    1.85
  12  -2  -7   42.65    1.55
  12  -2  -7   41.06    1.82
  12  -2  -7   42.17    1.81
  12   2  -7   30.98    1.74
  12   2  -7   34.38    1.65
  12   2  -7   32.04    1.33
  10  -2  -7   12.50    1.02
  10  -2  -7   12.82    0.94
  10  -2  -7   13.11    0.72
  10  -2  -7   13.75    0.97
  10  -2  -7   11.51    1.01
  10   2  -7   12.41    0.74
  10   2  -7   10.30    1.00
  10   2  -7   11.49    1.13
   8  -2  -7   24.48    1.32
   8  -2  -7   30.46    1.45
   8  -2  -7   27.47    1.32
   8  -2  -7   26.91    1.04
   8  -2  -7   29.07    1.35
   8   2  -7   37.15    1.74
   8   2  -7   33.80    1.62
   8   2  -7   36.43    1.31
   6  -2  -7   36.88    1.52
   6  -2  -7   35.55    1.50
   6  -2  -7   36.77    1.60
   6  -2  -7   33.53    1.49
   6  -2  -7   37.10    1.20
   6   2  -7   32.56    1.53
   6   2  -7   32.17    1.17
   6   2  -7   33.80    1.62
   4  -2  -7   19.23    1.06
   4  -2  -7   23.24    1.11
   4  -2  -7   21.52    1.08
   4  -2  -7   22.06    1.19
   4  -2  -7   20.59    0.76
   4   2  -7   17.50    1.07
   4   2  -7   18.73    1.22
   4   2  -7   19.16    0.79
   2  -2  -7   19.14    0.68
   2  -2  -7   17.68    0.98
   2  -2  -7   18.99    1.10
   2  -2  -7   18.32    0.96
   2  -2  -7   19.43    0.99
   2   2  -7   29.08    1.34
   2   2  -7   26.04    0.99
   2   2  -7   27.53    1.42
   0  -2  -7  161.18    4.67
   0  -2  -7  165.48    4.66
   0  -2  -7  160.06    4.84
   0  -2  -7  166.57    4.71
   0  -2  -7  163.87    4.32
   0   2  -7  157.97    4.86
   0   2  -7  159.38    4.34
  -2  -2  -7   34.01    1.31
  -2  -2  -7   34.22    1.49
  -2  -2  -7   33.26    1.30
  -2  -2  -7   33.00    1.06
  -2   2  -7   29.67    1.09
  -2   2  -7   30.13    1.50
  -4  -2  -7   19.19    0.77
  -4  -2  -7   19.75    0.90
  -4  -2  -7   19.87    1.07
  -4  -2  -7   19.33    0.90
  -4   2  -7   18.09    0.81
   6  -2   7  117.52    3.26
  -6  -2  -7  114.93    3.31
  -6  -2  -7  116.98    3.36
  -6  -2  -7  119.21    3.67
  -6   2  -7  118.63    3.41
  -8  -2  -7    6.43    0.73
  -8  -2  -7    3.99    0.45
   8  -2   7    4.97    0.33
  -8  -2  -7    4.36    0.42
   8  -2   7    4.41    0.34
  -8   2  -7    3.92    0.47
 -10  -2  -7   47.01    1.70
 -10  -2  -7   49.53    1.50
 -10  -2  -7   48.52    1.90
  10  -2   7   48.04    1.37
  10  -2   7   46.84    1.47
 -10   2  -7   51.51    1.85
  10   2   7   52.99    1.56
  10   2   7   54.16    1.53
 -12  -2  -7   26.63    0.86
 -12  -2  -7   28.15    1.38
  12  -2   7   26.31    0.99
 -12  -2  -7   25.96    1.22
  12  -2   7   25.83    0.92
  12   2   7   25.71    0.92
 -12   2  -7   26.04    0.84
  12   2   7   27.05    0.83
 -12   2  -7   27.76    1.23
  14  -2   7    4.13    0.28
 -14  -2  -7    5.24    0.74
  14  -2   7    4.18    0.43
 -14  -2  -7    3.94    0.60
 -14   2  -7    5.86    0.67
 -14   2  -7    5.28    0.31
 -16  -2  -7   20.09    1.25
 -16  -2  -7   23.45    1.38
  16   2   7   30.35    1.02
 -16   2  -7   28.22    1.45
 -18  -2  -7   25.42    1.50
 -18  -2  -7   23.64    1.40
 -18   2  -7   24.92    1.40
  18   2   7   23.25    0.97
 -20  -2  -7    7.64    0.99
 -20  -2  -7    7.67    0.96
  20  -2   7    7.26    0.72
 -20   2  -7    6.72    0.89
 -22  -2  -7   28.35    1.70
  22  -2   7   27.71    1.32
 -22  -2  -7   27.22    1.67
 -22   2  -7   32.06    1.78
 -24  -2  -7    7.95    1.07
  24  -2   7    8.27    0.82
 -24  -2  -7    5.33    1.01
 -24   2  -7    3.44    0.88
 -26  -2  -7    2.02    0.84
  26  -2   7    3.08    0.63
 -26   2  -7    1.83    0.85
  28  -2   7    5.28    0.78
 -28  -2  -7    3.16    1.01
  28   2   7    1.97    0.78
 -28   2  -7    3.72    1.04
 -30  -2  -7    9.32    1.46
 -30   2  -7   14.74    1.65
  30   2   7   12.39    1.22
 -32  -2  -7    8.88    1.50
  32   2   7    8.90    1.12
 -32   2  -7   10.86    1.57
 -34  -2  -7    7.72    1.56
  34  -2   7    6.84    1.14
  34   2   7    6.67    1.07
 -34   2  -7    9.48    1.58
  35  -3  -7    4.78    1.54
  35  -3  -7    3.53    1.07
  35   3  -7    4.40    1.24
  33  -3  -7   -0.60    1.12
  33  -3  -7   -0.20    0.84
  33  -3  -7    1.20    1.09
  33   3  -7    0.92    0.91
  33   3  -7    0.18    1.17
  31  -3  -7    0.49    0.74
  31  -3  -7   -0.16    0.98
  31  -3  -7   -0.24    0.92
  31   3  -7    0.05    0.91
  31   3  -7    3.43    1.46
  29  -3  -7   13.08    1.43
  29  -3  -7   10.84    1.62
  29  -3  -7   14.77    1.64
  29   3  -7   14.47    1.94
  29   3  -7   11.44    1.44
  27  -3  -7    6.15    1.18
  27  -3  -7    7.36    1.43
  27  -3  -7    5.89    1.10
  27   3  -7   10.15    1.63
  27   3  -7    8.29    1.21
  25  -3  -7    0.17    0.71
  25  -3  -7    0.69    0.92
  25  -3  -7    1.32    0.72
  25   3  -7    0.20    0.97
  25   3  -7    0.79    0.78
  23  -3  -7   27.50    1.81
  23  -3  -7   25.81    1.96
  23  -3  -7   26.88    1.65
  23   3  -7   25.99    2.23
  23   3  -7   22.82    1.71
  21  -3  -7    0.96    0.63
  21  -3  -7    1.43    0.71
  21  -3  -7    0.28    0.73
  21   3  -7    0.52    0.65
  21   3  -7    1.46    0.89
  19  -3  -7    0.71    0.58
  19  -3  -7    1.16    0.71
  19  -3  -7    1.72    0.69
  19   3  -7    0.47    0.71
  19   3  -7    1.26    0.63
  17  -3  -7   89.38    3.26
  17  -3  -7   86.72    3.13
  17  -3  -7   83.32    3.19
  17   3  -7   89.83    3.56
  17   3  -7   88.84    3.30
  15  -3  -7    4.73    0.64
  15  -3  -7    4.63    0.74
  15  -3  -7    5.81    0.88
  15  -3  -7    6.00    0.83
  15   3  -7    4.45    0.81
  15   3  -7    5.04    0.91
  13  -3  -7   35.42    1.64
  13  -3  -7   34.40    1.42
  13  -3  -7   32.25    1.64
  13  -3  -7   31.87    1.59
  13  -3  -7   31.92    1.64
  13   3  -7   39.98    1.90
  13   3  -7   39.78    1.61
  11  -3  -7   18.26    1.08
  11  -3  -7   16.96    0.92
  11  -3  -7   16.33    1.15
  11  -3  -7   16.47    1.16
  11  -3  -7   18.39    1.21
  11   3  -7   21.53    1.46
  11   3  -7   18.26    1.26
  11   3  -7   21.56    1.06
   9  -3  -7    2.52    0.40
   9  -3  -7    2.59    0.55
   9  -3  -7    2.01    0.57
   9  -3  -7    2.94    0.53
   9  -3  -7    2.10    0.58
   9   3  -7    2.05    0.57
   9   3  -7    1.51    0.38
   9   3  -7    2.40    0.65
   7  -3  -7  135.64    3.96
   7  -3  -7  145.97    4.34
   7  -3  -7  135.55    4.39
   7  -3  -7  148.01    4.30
   7  -3  -7  140.87    4.18
   7   3  -7  136.23    3.90
   7   3  -7  130.37    4.37
   7   3  -7  139.83    4.32
   5  -3  -7    8.79    0.81
   5  -3  -7    9.42    0.81
   5  -3  -7   10.20    0.75
   5  -3  -7    9.40    0.93
   5  -3  -7    9.00    0.57
   5   3  -7   12.34    1.05
   5   3  -7   12.06    1.11
   5   3  -7   13.63    0.74
   3  -3  -7    2.04    0.45
   3  -3  -7    1.52    0.28
   3  -3  -7    1.58    0.38
   3  -3  -7    2.21    0.45
   3  -3  -7    2.28    0.52
   3   3  -7    1.04    0.30
   3   3  -7    1.63    0.58
   1  -3  -7   74.83    2.71
   1  -3  -7   76.43    2.53
   1  -3  -7   76.01    2.45
   1  -3  -7   78.63    2.44
   1   3  -7   70.62    2.18
   1   3  -7   66.11    2.59
  -1  -3  -7    4.88    0.71
  -1  -3  -7    5.03    0.42
  -1  -3  -7    4.79    0.50
  -1  -3  -7    4.15    0.55
  -1   3  -7    0.87    0.32
  -1   3  -7    0.98    0.30
  -1   3  -7    1.26    0.51
  -3  -3  -7    3.35    0.38
  -3  -3  -7    3.40    0.59
  -3  -3  -7    3.57    0.49
  -3  -3  -7    3.75    0.44
  -3   3  -7    4.50    0.71
  -3   3  -7    4.34    0.48
   5  -3   7    5.69    0.40
  -5  -3  -7    6.20    0.76
  -5  -3  -7    5.03    0.53
   5  -3   7    5.76    0.34
  -5  -3  -7    4.93    0.47
  -5   3  -7    3.09    0.43
  -7  -3  -7   22.45    0.96
   7  -3   7   21.30    0.70
  -7  -3  -7   19.56    1.18
   7  -3   7   20.19    0.77
  -7  -3  -7   20.76    0.96
  -7   3  -7   17.25    0.91
   7   3   7   16.96    0.68
  -9  -3  -7    1.39    0.38
  -9  -3  -7    1.23    0.31
  -9  -3  -7    1.60    0.53
   9  -3   7    1.24    0.26
  -9   3  -7    2.83    0.48
   9   3   7    2.94    0.29
   9   3   7    2.50    0.26
 -11  -3  -7   23.33    0.91
 -11  -3  -7   23.62    1.17
 -11  -3  -7   22.70    1.35
  11  -3   7   24.77    0.95
  11   3   7   29.50    0.98
 -11   3  -7   27.20    1.32
  11   3   7   31.78    1.02
  13  -3   7   52.34    1.71
 -13  -3  -7   53.82    1.57
  13  -3   7   50.69    1.59
 -13  -3  -7   54.61    2.21
 -13  -3  -7   49.08    1.98
  13   3   7   56.04    1.53
 -13   3  -7   53.36    2.07
 -15  -3  -7   15.78    1.25
 -15  -3  -7   17.81    1.16
  15  -3   7   18.30    0.70
  15  -3   7   19.59    1.01
 -15   3  -7   17.12    1.13
 -17  -3  -7   41.56    1.91
 -17  -3  -7   42.71    2.05
 -17   3  -7   36.25    1.70
 -19  -3  -7    2.26    0.75
 -19  -3  -7    2.58    0.70
 -19   3  -7    3.61    0.73
  21  -3   7    1.78    0.55
 -21  -3  -7    1.71    0.72
 -21  -3  -7    1.52    0.78
 -21   3  -7    2.66    0.77
  23  -3   7   44.96    1.82
 -23  -3  -7   37.44    2.26
 -23  -3  -7   44.68    2.23
 -23   3  -7   42.82    2.14
 -25  -3  -7   -0.09    0.77
  25  -3   7    0.00    0.53
 -25  -3  -7    0.51    0.75
  25   3   7   -0.48    0.49
 -25   3  -7    0.70    0.70
 -27  -3  -7    1.22    0.91
  27  -3   7    0.73    0.59
 -27  -3  -7    0.42    0.79
 -27   3  -7    1.36    0.85
  27   3   7    1.11    0.69
 -29  -3  -7    5.84    1.26
  29  -3   7    5.11    0.85
  29   3   7    8.41    1.07
 -29   3  -7    9.17    1.37
 -31  -3  -7    4.81    1.25
  31   3   7    1.80    0.85
 -31   3  -7    2.74    1.08
 -33  -3  -7    1.25    1.17
  33   3   7    1.54    0.81
 -33   3  -7    2.28    1.12
 -35  -3  -7    0.86    1.12
  35   3   7    1.44    0.91
 -35   3  -7   -0.25    1.03
  34  -4  -7    2.25    0.97
  34  -4  -7    2.20    1.24
  34   4  -7   -0.40    0.96
  32  -4  -7    1.91    0.91
  32  -4  -7    0.84    1.11
  32  -4  -7    2.78    1.35
  32   4  -7    3.70    1.16
  32   4  -7    4.11    1.52
  30  -4  -7   12.19    1.76
  30  -4  -7   11.66    1.63
  30  -4  -7   13.60    1.49
  30   4  -7   13.57    1.96
  30   4  -7   13.56    1.58
  28  -4  -7    3.32    1.07
  28  -4  -7    2.03    1.11
  28  -4  -7    2.74    0.85
  28   4  -7    5.13    1.12
  28   4  -7    4.97    1.38
  26  -4  -7    1.59    0.91
  26  -4  -7    2.12    0.85
  26  -4  -7    1.23    0.98
  26   4  -7    1.19    0.99
  26   4  -7    1.62    0.82
  24  -4  -7   32.67    2.01
  24  -4  -7   26.78    2.04
  24  -4  -7   28.16    1.76
  24   4  -7   29.59    1.88
  24   4  -7   28.88    2.22
  22  -4  -7    1.84    0.78
  22  -4  -7    1.84    0.73
  22  -4  -7    0.53    0.79
  22   4  -7    2.42    0.86
  22   4  -7    1.63    0.94
  20  -4  -7   12.87    1.35
  20  -4  -7   11.19    1.30
  20  -4  -7   11.72    1.22
  20   4  -7   10.66    1.43
  20   4  -7   10.43    1.25
  18  -4  -7    0.19    0.54
  18  -4  -7    0.23    0.60
  18  -4  -7    0.68    0.62
  18   4  -7    2.36    0.74
  18   4  -7    0.85    0.75
  16  -4  -7   63.35    2.67
  16  -4  -7   63.46    2.59
  16  -4  -7   64.98    2.53
  16   4  -7   62.11    2.57
  16   4  -7   57.56    2.77
  14  -4  -7   19.07    1.33
  14  -4  -7   19.03    1.32
  14  -4  -7   20.53    1.24
  14  -4  -7   20.07    1.41
  14   4  -7   16.62    1.48
  14   4  -7   16.96    1.40
  12  -4  -7   41.06    1.64
  12  -4  -7   42.64    1.89
  12  -4  -7   38.93    1.66
  12  -4  -7   38.93    1.82
  12  -4  -7   39.75    1.89
  12   4  -7   34.91    1.98
  12   4  -7   37.76    1.57
  12   4  -7   38.32    1.86
  10  -4  -7   34.62    1.64
  10  -4  -7   37.26    1.47
  10  -4  -7   34.58    1.75
  10  -4  -7   34.54    1.48
  10  -4  -7   33.28    1.66
  10   4  -7   35.06    1.84
  10   4  -7   34.04    1.46
  10   4  -7   33.92    1.71
   8  -4  -7   28.45    1.39
   8  -4  -7   24.35    1.13
   8  -4  -7   23.63    1.14
   8  -4  -7   24.67    1.29
   8  -4  -7   24.82    1.40
   8   4  -7   27.41    1.19
   8   4  -7   21.84    1.36
   8   4  -7   23.73    1.49
   6  -4  -7   40.76    1.71
   6  -4  -7   42.41    1.80
   6  -4  -7   42.14    1.55
   6  -4  -7   42.35    1.58
   6  -4  -7   44.03    1.91
   6   4  -7   40.69    1.55
   6   4  -7   38.72    1.95
   6   4  -7   40.89    1.84
   4  -4  -7   39.08    1.67
   4  -4  -7   40.78    1.83
   4  -4  -7   37.46    1.53
   4  -4  -7   38.30    1.43
   4  -4  -7   37.30    1.41
   4   4  -7   35.14    1.41
   2  -4  -7   78.80    2.55
   2  -4  -7   79.85    2.89
   2  -4  -7   80.88    2.45
   2  -4  -7   80.98    2.70
   2   4  -7   78.64    2.57
   2   4  -7   83.07    3.02
   0  -4  -7   19.84    0.94
   0  -4   7   19.18    0.72
   0  -4  -7   18.88    1.06
   0  -4  -7   19.11    1.21
   0  -4  -7   18.29    0.88
   0   4  -7   20.60    1.02
   0   4  -7   19.36    1.04
   0   4  -7   20.75    1.32
  -2  -4  -7   33.25    1.26
   2  -4   7   35.59    1.12
  -2  -4  -7   35.60    1.33
  -2  -4  -7   35.23    1.67
  -2  -4  -7   34.12    1.44
  -2   4  -7   38.10    1.79
  -2   4  -7   37.23    1.48
  -2   4  -7   36.38    1.48
  -4  -4  -7   19.31    1.01
  -4  -4  -7   19.10    0.85
  -4  -4  -7   21.57    1.27
   4  -4   7   19.51    0.77
   4  -4   7   20.85    0.80
  -4  -4  -7   20.10    0.96
  -4   4  -7   23.92    1.15
  -4   4  -7   24.48    1.45
   6  -4   7   39.37    1.30
  -6  -4  -7   38.33    1.82
  -6  -4  -7   39.57    1.51
  -6  -4  -7   40.61    1.51
   6  -4   7   39.94    1.17
  -6   4  -7   42.22    1.64
   6   4   7   42.18    1.26
   6   4   7   40.95    1.21
   8  -4   7   11.31    0.62
  -8  -4  -7    9.48    0.69
  -8  -4  -7   10.85    1.05
  -8  -4  -7    8.65    0.75
  -8   4  -7   11.42    0.82
   8   4   7   10.95    0.42
   8   4   7   10.29    0.49
 -10  -4  -7   36.91    1.35
 -10  -4  -7   36.78    1.78
 -10  -4  -7   34.52    1.52
  10  -4   7   35.05    1.28
 -10   4  -7   22.70    1.18
 -12  -4  -7   55.63    2.16
  12  -4   7   56.84    1.89
  12  -4   7   58.62    1.85
 -12  -4  -7   60.66    2.43
 -12  -4  -7   59.24    1.86
 -12   4  -7   67.90    2.43
 -14  -4  -7   11.60    0.64
 -14  -4  -7   12.44    1.19
 -14  -4  -7   13.14    1.08
  14  -4   7   13.08    0.88
  14  -4   7   11.63    0.64
 -14   4  -7   14.04    1.04
  16  -4   7   41.60    1.44
 -16  -4  -7   44.26    1.95
 -16  -4  -7   38.20    2.05
 -16   4  -7   33.90    1.65
 -18  -4  -7   34.74    1.98
 -18  -4  -7   32.88    1.76
 -18   4  -7   31.99    1.67
 -20  -4  -7   12.93    1.29
 -20  -4  -7   15.40    1.54
  20  -4   7   13.85    1.02
 -20   4  -7   15.45    1.36
  22  -4   7   15.26    1.18
 -22  -4  -7   16.05    1.65
 -22  -4  -7   17.85    1.57
  22   4   7   15.89    1.10
 -22   4  -7   12.71    1.27
  24  -4   7   -0.08    0.55
 -24  -4  -7    1.17    0.81
 -24  -4  -7    0.53    0.81
 -24   4  -7   -0.23    0.70
  24   4   7    0.14    0.56
 -26  -4  -7    6.90    1.32
  26  -4   7    5.93    0.87
 -26  -4  -7    4.42    1.08
  26   4   7    3.72    0.76
 -26   4  -7    3.81    0.99
 -28  -4  -7    4.79    1.27
 -28  -4  -7    3.18    1.09
  28  -4   7    3.14    0.78
 -28   4  -7    3.24    1.01
  28   4   7    4.33    0.84
  30  -4   7    7.14    0.99
 -30  -4  -7    8.69    1.45
  30   4   7    5.93    1.01
 -30   4  -7    5.18    1.22
 -32  -4  -7    5.22    1.36
  32  -4   7    7.17    1.23
 -32   4  -7    6.98    1.42
  32   4   7    5.92    1.03
 -34  -4  -7    0.73    1.14
 -34   4  -7    1.07    1.05
  34   4   7    0.75    0.84
  33  -5  -7    2.76    1.01
  33  -5  -7    2.14    1.31
  33   5  -7    1.67    1.05
  31  -5  -7    4.65    1.49
  31  -5  -7    6.99    1.46
  31  -5  -7    7.29    1.29
  31   5  -7    7.94    1.35
  31   5  -7    9.87    1.80
  29  -5  -7    7.62    1.37
  29  -5  -7    7.11    1.24
  29  -5  -7    6.20    1.47
  29   5  -7    3.73    1.04
  29   5  -7    5.05    1.44
  27  -5  -7    2.44    1.07
  27  -5  -7    1.80    0.91
  27  -5  -7    2.52    1.12
  27   5  -7    4.37    1.43
  27   5  -7    3.30    1.04
  25  -5  -7    7.12    1.29
  25  -5  -7    8.21    1.29
  25  -5  -7    8.86    1.25
  25   5  -7    7.67    1.47
  25   5  -7    9.37    1.31
  23  -5  -7    2.59    0.94
  23  -5  -7    2.60    0.82
  23  -5  -7    3.06    0.97
  23   5  -7    6.01    1.45
  23   5  -7    6.92    1.11
  21  -5  -7   16.70    1.52
  21  -5  -7   14.15    1.49
  21  -5  -7   14.10    1.42
  21   5  -7   15.67    1.79
  21   5  -7   13.51    1.40
  19  -5  -7   39.83    2.04
  19  -5  -7   41.49    2.07
  19  -5  -7   45.20    2.30
  19   5  -7   46.12    2.33
  19   5  -7   45.90    2.55
  17  -5  -7   48.83    2.23
  17  -5  -7   44.08    2.26
  17  -5  -7   45.98    2.22
  17  -5  -7   45.67    2.06
  17   5  -7   46.27    2.52
  17   5  -7   55.32    2.43
  15  -5  -7    4.33    0.88
  15  -5  -7    4.47    0.79
  15  -5  -7    4.47    0.88
  15  -5  -7    5.54    0.76
  15   5  -7    4.88    0.97
  15   5  -7    6.47    1.00
  13  -5  -7    5.33    0.69
  13  -5  -7    5.41    0.82
  13  -5  -7    6.16    0.91
  13  -5  -7    6.69    0.93
  13   5  -7    7.45    1.08
  13   5  -7    6.23    0.90
  11  -5  -7   41.11    1.85
  11  -5  -7   38.91    1.82
  11  -5  -7   38.17    1.67
  11  -5  -7   38.59    1.90
  11  -5  -7   39.74    1.57
  11   5  -7   37.75    1.87
  11   5  -7   37.36    2.00
   9  -5  -7    4.15    0.53
   9  -5  -7    3.03    0.71
   9  -5  -7    4.01    0.61
   9  -5  -7    3.29    0.70
   9  -5  -7    3.80    0.68
   9   5  -7    4.29    0.60
   9   5  -7    5.82    0.85
   9   5  -7    5.29    0.96
   7  -5  -7   21.54    1.12
   7  -5  -7   23.70    1.02
   7  -5  -7   21.95    1.44
   7  -5  -7   21.34    1.30
   7  -5  -7   20.20    1.17
   7   5  -7   19.78    1.08
   7   5  -7   19.64    1.39
   5  -5  -7   43.39    1.47
   5  -5  -7   42.24    1.81
   5  -5  -7   41.35    1.71
   5  -5  -7   43.60    1.98
   5   5  -7   45.98    1.77
   5   5  -7   42.35    2.06
   3  -5  -7   16.88    1.11
   3  -5  -7   15.53    1.16
   3  -5  -7   15.23    0.94
  -3  -5   7   15.17    0.74
   3   5  -7   15.23    1.33
  -3   5   7   17.33    0.66
   3   5  -7   16.36    1.00
   1  -5  -7    1.34    0.56
  -1  -5   7    1.66    0.32
   1  -5  -7    1.26    0.37
   1  -5  -7    1.90    0.52
   1   5  -7    3.97    0.57
  -1   5   7    4.01    0.35
  -1   5   7    4.07    0.28
   1   5  -7    3.90    0.75
  -1  -5  -7   27.35    1.36
  -1  -5  -7   27.69    1.58
  -1  -5  -7   28.23    1.25
   1  -5   7   27.66    1.04
  -1  -5  -7   28.76    1.14
   1   5   7   22.58    0.87
  -1   5  -7   22.97    1.23
  -1   5  -7   20.37    1.42
   1   5   7   24.50    0.77
  -1   5  -7   23.63    1.18
   3  -5   7    5.05    0.45
  -3  -5  -7    5.78    0.49
  -3  -5  -7    3.97    0.74
  -3  -5  -7    5.27    0.65
  -3  -5  -7    4.91    0.59
  -3   5  -7    2.71    0.66
   3   5   7    4.15    0.31
  -3   5  -7    3.68    0.58
  -3   5  -7    4.37    0.63
   3   5   7    4.13    0.41
   5  -5   7   66.46    1.94
  -5  -5  -7   61.35    2.51
   5  -5   7   62.25    1.95
   5  -5   7   58.93    1.75
  -5  -5  -7   59.62    2.16
  -5  -5  -7   62.24    1.85
  -5  -5  -7   64.55    2.22
  -5   5  -7   59.37    2.21
   5   5   7   60.50    1.81
   5   5   7   60.21    1.96
  -7  -5  -7    2.85    0.72
  -7  -5  -7    3.14    0.53
  -7  -5  -7    3.40    0.55
   7  -5   7    2.43    0.38
  -7   5  -7    3.95    0.64
  -9  -5  -7    3.25    0.75
  -9  -5  -7    3.37    0.60
  -9  -5  -7    4.71    0.59
   9  -5   7    3.59    0.46
  -9   5  -7    6.63    0.75
  11  -5   7   63.29    2.06
  11  -5   7   64.59    2.06
 -11  -5  -7   60.79    2.11
 -11  -5  -7   60.14    2.59
 -11  -5  -7   63.93    2.38
 -11   5  -7   65.00    2.40
 -13  -5  -7   11.00    1.03
  13  -5   7   10.34    0.69
 -13  -5  -7    9.96    0.72
  13  -5   7   10.50    0.86
 -13  -5  -7   10.55    1.16
 -13   5  -7    6.32    0.82
 -15  -5  -7    7.38    1.06
  15  -5   7    7.67    0.61
 -15  -5  -7    7.89    0.94
 -15   5  -7   11.26    1.09
 -17  -5  -7    4.86    1.02
 -17  -5  -7    5.63    0.88
  17   5   7   10.07    0.79
 -17   5  -7    8.64    0.99
 -19  -5  -7    6.94    1.18
 -19  -5  -7    7.43    1.03
  19   5   7    7.47    0.74
 -19   5  -7    7.05    0.98
 -21  -5  -7   11.09    1.26
  21  -5   7   12.17    1.09
 -21  -5  -7   10.49    1.45
  21   5   7   16.83    1.07
 -21   5  -7   16.49    1.43
  23  -5   7    4.37    0.80
 -23  -5  -7    3.99    0.97
 -23  -5  -7    5.16    1.23
 -23   5  -7    5.21    1.00
  23   5   7    5.91    0.80
  25  -5   7    2.18    0.68
 -25  -5  -7    2.18    0.94
 -25  -5  -7    1.30    1.04
  25   5   7    3.63    0.74
 -25   5  -7    3.46    1.03
  27  -5   7   11.61    1.16
 -27  -5  -7    9.66    1.42
 -27  -5  -7    9.50    1.56
  27   5   7   11.90    1.16
 -27   5  -7   13.70    1.51
 -29  -5  -7    1.88    1.19
  29  -5   7    2.85    0.80
 -29  -5  -7    4.13    1.25
 -29   5  -7    3.73    1.16
  29   5   7    2.34    0.78
  31  -5   7    0.51    0.75
 -31  -5  -7   -0.55    1.01
  31   5   7   -0.10    0.70
 -31   5  -7   -0.20    0.94
  33  -5   7    1.33    0.84
 -33  -5  -7    1.15    1.18
 -33   5  -7    2.87    1.23
  33   5   7    1.57    0.85
  32  -6  -7    0.88    1.01
  32   6  -7    1.50    1.07
  30  -6  -7    3.94    1.05
  30  -6  -7    7.98    1.50
  30   6  -7    2.48    1.02
  30   6  -7    2.10    1.36
  28  -6  -7   20.52    1.86
  28  -6  -7   23.95    2.11
  28   6  -7   27.53    2.59
  28   6  -7   19.27    1.86
  26  -6  -7    1.67    0.92
  26  -6  -7    2.73    1.11
  26   6  -7    2.40    1.30
  26   6  -7    2.13    0.91
  24  -6  -7   11.81    1.46
  24  -6  -7    9.18    1.24
  24  -6  -7   10.04    1.39
  24   6  -7   10.41    1.42
  24   6  -7   14.51    1.84
  22  -6  -7    7.15    1.13
  22  -6  -7    6.11    1.06
  22  -6  -7    9.97    1.37
  22   6  -7    7.60    1.46
  22   6  -7    5.75    1.11
  20  -6  -7    0.01    0.64
  20  -6  -7    1.60    0.76
  20  -6  -7    1.71    0.91
  20   6  -7    1.02    0.73
  20   6  -7    1.92    0.95
  18  -6  -7   22.11    1.62
  18  -6  -7   21.68    1.44
  18  -6  -7   24.64    1.62
  18  -6  -7   25.70    1.81
  18   6  -7   24.71    1.66
  18   6  -7   26.91    2.06
  16  -6  -7    0.06    0.57
  16  -6  -7    0.03    0.57
  16  -6  -7   -0.33    0.65
  16  -6  -7    0.71    0.50
  16   6  -7    0.76    0.70
  16   6  -7   -1.00    0.63
  14  -6  -7    1.08    0.67
  14  -6  -7    1.45    0.63
  14  -6  -7    0.97    0.70
  14  -6  -7    1.21    0.47
  14   6  -7    0.05    0.66
  14   6  -7    0.30    0.67
  12  -6  -7   41.92    2.03
  12  -6  -7   40.06    2.08
  12  -6  -7   40.79    1.61
  12  -6  -7   41.48    2.01
  12   6  -7   37.90    2.11
  10  -6  -7    0.08    0.54
  10  -6  -7    1.44    0.64
  10  -6  -7    0.74    0.60
  10  -6  -7    1.80    0.39
  10   6  -7    0.28    0.63
   8  -6  -7   12.74    1.18
   8  -6  -7   12.93    0.73
   8  -6  -7   13.43    1.27
   8  -6  -7   13.69    1.14
   8  -6  -7   13.79    1.24
   8   6  -7    8.44    1.14
   6  -6  -7   25.85    0.95
   6  -6  -7   24.13    1.45
   6  -6  -7   24.24    1.31
   6  -6  -7   25.99    1.57
  -6  -6   7   26.06    1.12
   6   6  -7   24.04    1.58
  -4  -6   7    8.65    0.65
   4  -6  -7    7.50    0.87
   4  -6  -7    9.79    0.85
   4  -6  -7    9.84    1.07
   4   6  -7    8.91    1.08
   2  -6  -7   12.55    0.85
   2  -6  -7   11.19    1.15
   2  -6  -7   11.30    1.03
  -2  -6   7   13.56    0.76
   2   6  -7   11.14    0.96
   2   6  -7   12.49    1.23
   0  -6  -7   24.60    1.53
   0  -6   7   24.58    1.06
   0  -6  -7   24.12    1.08
   0  -6   7   24.10    1.04
   0  -6  -7   24.59    1.36
   0   6  -7   20.93    1.44
   0   6  -7   20.45    1.29
   0   6  -7   23.59    1.26
  -2  -6  -7    6.82    0.73
   2  -6   7    7.05    0.55
   2  -6   7    8.83    0.65
  -2  -6  -7    6.93    0.79
  -2  -6  -7    8.46    0.60
  -2  -6  -7    7.28    0.96
  -2   6  -7    7.67    0.97
  -2   6  -7    6.89    0.79
  -2   6  -7    6.85    0.79
   4  -6   7   27.70    1.18
  -4  -6  -7   29.35    1.45
  -4  -6  -7   29.27    1.42
  -4  -6  -7   32.27    1.79
  -4  -6  -7   30.33    1.06
   4  -6   7   28.73    1.01
  -4   6  -7   29.86    1.50
  -6  -6  -7   13.68    1.04
  -6  -6  -7   13.47    0.99
  -6  -6  -7   13.08    1.28
   6  -6   7   13.99    0.82
  -6   6  -7   10.72    0.97
   8  -6   7    6.57    0.61
  -8  -6  -7    8.00    1.10
  -8  -6  -7    5.45    0.75
  -8  -6  -7    5.59    0.73
  -8   6  -7    6.60    0.82
   8   6   7    7.28    0.47
  10  -6   7   20.21    1.16
  10  -6   7   21.85    1.08
 -10  -6  -7   22.07    1.62
 -10  -6  -7   18.96    1.29
 -10  -6  -7   20.84    1.15
 -10   6  -7   15.72    1.17
  10   6   7   15.70    0.72
 -12  -6  -7   36.41    1.80
 -12  -6  -7   35.51    1.99
 -12  -6  -7   33.63    1.51
  12  -6   7   34.79    1.41
  12   6   7   32.50    1.18
 -12   6  -7   30.39    1.62
 -14  -6  -7    6.28    0.70
  14  -6   7    7.77    0.69
 -14  -6  -7    7.07    1.12
 -14  -6  -7    5.83    0.90
  14   6   7    7.27    0.61
 -14   6  -7    6.15    0.89
 -16  -6  -7   14.05    1.55
  16  -6   7   12.23    0.83
 -16  -6  -7   12.22    1.23
 -16   6  -7   15.51    1.31
  16   6   7   15.55    0.90
 -18  -6  -7   32.18    2.16
 -18  -6  -7   33.39    1.91
  18   6   7   30.74    1.34
 -18   6  -7   27.34    1.71
 -20  -6  -7    2.20    1.03
 -20  -6  -7    1.98    0.86
  20   6   7    1.28    0.50
 -20   6  -7    0.96    0.70
 -22  -6  -7    8.34    1.36
  22  -6   7   10.66    1.07
 -22  -6  -7    7.56    1.21
  22   6   7   12.51    1.01
 -22   6  -7    8.62    1.19
 -24  -6  -7    7.15    1.25
  24  -6   7    7.70    1.02
 -24  -6  -7   10.68    1.61
  24   6   7    6.62    0.86
 -24   6  -7    4.94    1.03
  26  -6   7    0.64    0.75
 -26  -6  -7   -0.20    1.04
 -26  -6  -7   -0.31    0.90
 -26   6  -7   -0.09    0.79
  26   6   7    0.86    0.64
 -28  -6  -7    4.98    1.54
  28  -6   7    5.39    0.94
 -28  -6  -7    5.95    1.33
 -28   6  -7    6.69    1.30
  28   6   7    5.42    1.03
  30  -6   7    1.61    0.89
 -30  -6  -7    2.98    1.26
 -30  -6  -7    3.74    1.42
 -30   6  -7    2.62    1.12
 -32  -6  -7    1.59    1.26
  32  -6   7    0.91    0.84
 -32   6  -7    0.22    0.98
  31  -7  -7    4.41    1.18
  31   7  -7    5.38    1.23
  29  -7  -7   15.05    1.83
  29  -7  -7   11.83    1.50
  29   7  -7   10.47    1.88
  29   7  -7   11.55    1.50
  27  -7  -7    1.96    1.01
  27  -7  -7    0.37    0.94
  27   7  -7    1.17    1.28
  27   7  -7   -0.10    0.75
  25  -7  -7   17.12    1.73
  25  -7  -7   15.61    1.78
  25   7  -7   13.67    1.54
  25   7  -7   12.01    1.89
  23  -7  -7   17.26    1.70
  23  -7  -7   21.18    1.93
  23   7  -7   14.87    1.54
  23   7  -7   17.94    2.03
  21  -7  -7    1.47    0.78
  21  -7  -7    2.47    0.90
  21   7  -7    3.09    0.87
  21   7  -7    2.63    1.04
  19  -7  -7    9.28    1.20
  19  -7  -7    8.42    1.22
  19  -7  -7   11.39    1.29
  19   7  -7   10.48    1.26
  19   7  -7   10.49    1.57
  17  -7  -7    5.63    1.03
  17  -7  -7    4.59    0.98
  17  -7  -7    6.79    1.14
  17   7  -7    6.48    1.19
  15  -7  -7   17.45    1.52
  15  -7  -7   15.84    1.42
  15  -7  -7   17.79    1.55
  15   7  -7   19.84    1.80
  13  -7  -7   14.47    1.35
  13  -7  -7   14.37    1.37
  13  -7  -7   14.02    1.36
  13   7  -7   18.80    1.79
  11  -7  -7   14.50    1.38
  11  -7  -7   16.72    1.41
  11  -7  -7   16.30    1.34
  11   7  -7   19.16    1.67
   9  -7  -7   13.67    1.22
   9  -7  -7   11.88    1.26
   9  -7  -7   11.96    1.18
   9   7  -7   12.62    1.38
   7  -7  -7   27.44    1.59
   7  -7  -7   30.74    1.83
   7  -7  -7   27.87    1.50
   7   7  -7   27.76    1.76
   5  -7  -7   43.33    2.01
  -5  -7   7   40.96    1.70
   5  -7  -7   41.40    2.15
   5  -7  -7   40.74    1.77
   5   7  -7   38.17    2.05
   3  -7  -7   38.02    1.83
   3  -7  -7   38.36    2.02
  -3  -7   7   38.91    1.67
   3  -7  -7   40.99    1.64
  -3  -7   7   36.95    1.56
   3   7  -7   39.32    2.05
   1  -7  -7   45.65    2.07
  -1  -7   7   45.51    1.82
   1  -7  -7   45.89    2.29
   1  -7  -7   47.44    1.75
  -1  -7   7   50.37    1.75
   1   7  -7   50.53    2.39
   1   7  -7   50.33    2.19
  -1  -7  -7    3.36    0.66
   1  -7   7    2.98    0.45
   1  -7   7    2.81    0.49
  -1  -7  -7    3.58    0.81
  -1  -7  -7    2.67    0.43
  -1  -7  -7    1.87    0.64
  -1   7  -7    4.63    0.85
  -1   7  -7    5.00    0.79
  -3  -7  -7    6.85    0.53
  -3  -7  -7    5.83    0.81
   3  -7   7    6.80    0.54
  -3  -7  -7    6.72    0.83
   3  -7   7    8.18    0.73
  -3  -7  -7    6.78    1.06
  -3   7  -7    9.37    1.11
  -3   7  -7   12.71    1.17
  -5  -7  -7   36.35    1.73
   5  -7   7   35.03    1.59
  -5  -7  -7   37.32    2.01
  -5  -7  -7   34.02    1.68
  -5   7  -7   22.42    1.41
   7  -7   7   17.64    1.17
  -7  -7  -7   18.13    1.60
  -7  -7  -7   17.83    1.26
  -7  -7  -7   18.50    1.23
  -7   7  -7   26.09    1.52
  -9  -7  -7   27.11    1.46
  -9  -7  -7   30.62    1.64
  -9  -7  -7   25.49    1.83
   9  -7   7   27.52    1.36
  -9   7  -7   33.33    1.72
  11  -7   7   22.04    1.20
 -11  -7  -7   23.82    1.69
 -11  -7  -7   21.40    1.28
 -11  -7  -7   21.97    1.45
 -11   7  -7   17.06    1.31
 -13  -7  -7   11.47    1.01
 -13  -7  -7   10.69    1.16
  13  -7   7   10.45    0.87
 -13  -7  -7   10.40    1.33
 -13   7  -7   14.51    1.29
 -15  -7  -7    0.72    0.78
  15  -7   7    0.75    0.47
 -15  -7  -7    0.84    0.67
 -15   7  -7    0.47    0.59
 -17  -7  -7   11.78    1.51
 -17  -7  -7   14.35    1.44
 -17   7  -7   10.25    1.16
 -19  -7  -7   11.14    1.34
 -19  -7  -7    9.36    1.45
 -19   7  -7   10.01    1.24
 -21  -7  -7   20.28    1.77
 -21  -7  -7   20.10    2.10
  21  -7   7   20.87    1.42
 -21   7  -7   16.28    1.57
  23  -7   7    1.97    0.81
 -23  -7  -7    3.51    1.26
 -23  -7  -7    3.82    1.09
 -23   7  -7    4.58    0.99
  25  -7   7    1.82    0.75
 -25  -7  -7   -0.18    1.11
 -25  -7  -7    2.11    1.03
 -25   7  -7    1.75    0.92
 -27  -7  -7    2.08    1.11
 -27  -7  -7    4.81    1.49
  27  -7   7    4.94    1.03
 -27   7  -7    2.59    1.00
  29  -7   7   13.36    1.44
 -29  -7  -7   15.43    2.21
 -29  -7  -7   14.04    1.86
 -29   7  -7   17.73    1.95
  31  -7   7    7.60    1.20
 -31  -7  -7    6.08    1.52
 -31  -7  -7    7.97    1.84
  28  -8  -7    0.33    1.14
 -28  -8   7    1.82    1.08
  28  -8  -7    2.46    1.09
  28   8  -7    2.05    0.94
  28   8  -7    3.19    1.41
  26  -8  -7    2.92    1.11
 -26  -8   7    2.18    1.07
  26  -8  -7    1.22    1.08
  26   8  -7    3.15    1.41
 -24  -8   7    5.06    1.24
  24  -8  -7    6.83    1.27
  24  -8  -7    8.98    1.45
  24   8  -7    6.05    1.53
  22  -8  -7    2.92    1.04
  22  -8  -7    1.88    0.95
 -22  -8   7    3.43    1.00
  22   8  -7    1.12    1.12
  20  -8  -7    7.05    1.23
  20  -8  -7    7.22    1.32
 -20  -8   7    9.32    1.34
  20  -8  -7    9.12    1.31
  20   8  -7    6.05    1.33
  18  -8  -7    5.79    1.07
  18  -8  -7    9.99    1.39
  18  -8  -7    8.31    1.25
 -18  -8   7    8.58    1.22
  18   8  -7    5.71    1.24
  16  -8  -7   12.51    1.43
 -16  -8   7   11.64    1.24
  16  -8  -7   13.49    1.43
  16  -8  -7   10.38    1.31
  16   8  -7    8.66    1.46
 -14  -8   7   14.05    1.33
  14  -8  -7   13.83    1.48
  14  -8  -7   14.56    1.39
  14  -8  -7   16.26    1.56
  14   8  -7   15.66    1.72
  12  -8  -7   11.88    1.34
  12  -8  -7   12.76    1.35
  12  -8  -7   11.18    1.28
 -12  -8   7   11.13    1.16
  12   8  -7    8.48    1.29
  10  -8  -7   21.71    1.65
  10  -8  -7   24.22    1.66
 -10  -8   7   23.65    1.49
  10  -8  -7   19.50    1.68
  10   8  -7   21.66    1.68
   8  -8  -7   21.15    1.57
   8  -8  -7   23.82    1.48
   8  -8  -7   22.79    1.64
  -8  -8   7   23.81    1.44
   8   8  -7   25.26    1.84
   6  -8  -7   20.73    1.59
   6  -8  -7   23.69    1.39
  -6  -8   7   24.51    1.33
   6  -8  -7   22.30    1.56
   6   8  -7   23.85    1.70
   4  -8  -7   -0.28    0.61
   4  -8  -7    0.94    0.50
  -4  -8   7    0.58    0.49
   4  -8  -7    0.81    0.59
   4   8  -7   -0.12    0.69
   2  -8  -7    7.25    1.00
  -2  -8   7    6.82    0.75
   2  -8  -7    5.97    0.71
   2  -8  -7    4.85    1.00
   2   8  -7    5.15    0.89
   2   8  -7    4.71    0.94
   0  -8   7   18.83    1.02
   0  -8  -7   16.70    1.59
   0  -8  -7   20.01    1.41
   0  -8  -7   20.29    1.04
   0   8  -7   22.06    1.64
   0   8  -7   23.16    1.53
  -2  -8  -7    5.15    1.03
  -2  -8  -7    6.64    0.89
  -2  -8  -7    6.01    0.92
  -2   8  -7    7.59    1.10
  -2   8  -7    7.24    0.97
  -4  -8  -7    3.33    0.71
  -4  -8  -7    2.08    0.84
  -4  -8  -7    2.90    0.74
  -4   8  -7    1.58    0.68
  -6  -8  -7   22.42    1.46
  -6  -8  -7   21.48    1.44
  -6  -8  -7   23.57    1.93
  -6   8  -7   26.64    1.64
   8  -8   7   11.90    1.02
  -8  -8  -7   10.63    1.13
  -8  -8  -7    9.18    1.30
  -8  -8  -7   11.06    1.12
  -8   8  -7   11.67    1.20
 -10  -8  -7    4.30    0.88
 -10  -8  -7    3.92    0.79
 -10  -8  -7    4.27    1.07
  10  -8   7    3.92    0.68
 -10   8  -7    3.50    0.81
  12  -8   7   23.07    1.30
 -12  -8  -7   27.96    1.74
 -12  -8  -7   26.77    1.57
 -12  -8  -7   24.64    1.88
 -12   8  -7   21.08    1.55
 -14  -8  -7    9.18    1.04
 -14  -8  -7   10.29    1.55
 -14  -8  -7    8.69    1.19
  14  -8   7   10.47    0.91
 -14   8  -7   11.49    1.23
 -16  -8  -7   42.45    2.53
 -16  -8  -7   39.54    2.22
  16  -8   7   38.17    1.69
 -16   8  -7   40.84    2.18
 -18  -8  -7   15.56    1.88
 -18  -8  -7   14.88    1.54
 -18   8  -7    8.69    1.20
 -20  -8  -7    2.01    0.99
  20  -8   7    0.33    0.72
 -20  -8  -7    0.65    0.96
 -20   8  -7    0.90    0.80
 -22  -8  -7   12.58    1.90
  22  -8   7   10.04    1.21
 -22  -8  -7    8.13    1.42
 -22   8  -7    7.20    1.19
 -24  -8  -7    0.46    1.01
  24  -8   7    0.75    0.85
 -24  -8  -7    1.16    1.21
 -24   8  -7    1.86    0.95
  26  -8   7   13.38    1.42
 -26  -8  -7   14.18    1.85
 -26  -8  -7   13.85    2.12
 -26   8  -7   12.19    1.61
 -28  -8  -7    5.16    1.69
  28  -8   7    6.76    1.20
 -28  -8  -7    4.89    1.42
 -28   8  -7    2.41    1.11
  27  -9  -7    3.66    1.49
 -27  -9   7    5.04    1.45
  27  -9  -7    1.02    0.97
  27   9  -7    0.77    1.30
  25  -9  -7    1.50    0.99
 -25  -9   7    2.48    1.10
  25  -9  -7    1.49    1.13
  25   9  -7   -0.58    1.16
 -23  -9   7    8.14    1.47
  23  -9  -7    8.75    1.44
  23  -9  -7    7.15    1.27
  23   9  -7    7.57    1.59
  21  -9  -7    3.17    1.17
  21  -9  -7    1.65    0.94
  21  -9  -7    2.36    0.97
 -21  -9   7    2.51    1.07
  21   9  -7    3.22    1.28
 -19  -9   7    1.98    0.99
  19  -9  -7    2.92    1.05
  19  -9  -7    2.50    1.00
  19  -9  -7    0.72    0.89
  19   9  -7    1.14    1.06
  17  -9  -7   24.74    2.01
  17  -9  -7   23.44    1.95
  17  -9  -7   24.58    1.78
 -17  -9   7   24.34    1.84
  17   9  -7   27.91    2.40
 -15  -9   7    8.36    1.20
  15  -9  -7    7.39    1.16
  15  -9  -7    7.84    1.23
  15  -9  -7    9.28    1.27
  15   9  -7    9.03    1.46
  13  -9  -7    7.26    1.17
  13  -9  -7    6.40    1.09
 -13  -9   7    8.37    1.14
  13  -9  -7    9.02    1.19
  13   9  -7    9.82    1.39
  11  -9  -7    7.10    1.09
  11  -9  -7    6.92    1.20
  11  -9  -7    8.00    1.17
 -11  -9   7    6.45    0.99
  11   9  -7    9.29    1.33
   9  -9  -7    0.73    0.82
   9  -9  -7    1.07    0.78
   9  -9  -7    0.65    0.69
  -9  -9   7    1.31    0.68
   9   9  -7    0.68    0.78
   7  -9  -7   16.09    1.36
   7  -9  -7   16.08    1.59
  -7  -9   7   17.15    1.26
   7  -9  -7   17.33    1.52
   7   9  -7   14.36    1.51
   5  -9  -7   19.78    1.81
   5  -9  -7   19.78    1.32
   5  -9  -7   18.36    1.52
  -5  -9   7   15.60    1.17
   5   9  -7   22.81    1.89
   3  -9  -7    4.09    1.03
  -3  -9   7    6.81    0.82
   3  -9  -7    4.61    0.74
   3  -9  -7    4.15    0.92
   3   9  -7    5.16    0.99
   3   9  -7    5.21    1.01
  -1  -9   7   24.75    1.28
   1  -9  -7   21.69    1.88
   1  -9  -7   23.23    1.66
   1   9  -7   20.99    1.75
   1   9  -7   18.79    1.59
  -1  -9  -7    5.54    1.08
  -1  -9  -7    7.41    1.09
  -1   9  -7    7.21    1.09
  -1   9  -7   10.34    1.22
  -3  -9  -7    3.42    0.94
  -3  -9  -7    3.39    0.81
  -3  -9  -7    3.01    0.80
  -3   9  -7    3.26    0.88
  -5  -9  -7   22.56    1.73
  -5  -9  -7   21.45    1.54
   5  -9   7   22.29    1.44
  -5  -9  -7   25.26    1.86
  -5   9  -7   27.69    1.76
   7  -9   7   19.24    1.26
  -7  -9  -7   21.35    1.89
  -7  -9  -7   22.42    1.71
  -7  -9  -7   18.87    1.59
  -7   9  -7   23.84    1.69
   9  -9   7   19.76    1.32
  -9  -9  -7   20.99    1.93
  -9  -9  -7   18.02    1.58
  -9  -9  -7   18.82    1.54
  -9   9  -7   16.42    1.47
 -11  -9  -7    4.58    0.99
  11  -9   7    3.59    0.72
 -11  -9  -7    3.05    0.88
 -11  -9  -7    4.18    1.11
 -11   9  -7    5.07    0.98
 -13  -9  -7   35.03    2.15
 -13  -9  -7   30.89    1.83
  13  -9   7   34.19    1.65
 -13  -9  -7   35.56    2.44
 -13   9  -7   30.77    1.94
 -15  -9  -7   19.36    2.02
  15  -9   7   21.19    1.35
 -15  -9  -7   23.12    1.91
 -15   9  -7   16.62    1.53
 -17  -9  -7    8.43    1.33
 -17  -9  -7    7.29    1.53
 -17   9  -7    3.22    0.98
 -19  -9  -7    1.94    1.13
 -19  -9  -7    1.89    1.02
 -19   9  -7    3.17    0.99
 -21  -9  -7   -0.17    0.88
  21  -9   7    1.22    0.85
 -21  -9  -7    1.77    1.32
 -21   9  -7    0.70    0.85
 -23  -9  -7    4.55    1.31
 -23  -9  -7    3.09    1.51
  23  -9   7    3.81    0.92
 -23   9  -7    4.38    1.16
 -25  -9  -7    2.27    1.35
 -25  -9  -7    5.66    1.38
  25  -9   7    3.57    0.97
 -25   9  -7    3.88    1.21
 -27  -9  -7    7.25    1.73
  27  -9   7    2.07    1.16
 -27  -9  -7    6.63    1.46
 -27   9  -7    7.67    2.03
  24 -10  -7    0.93    1.18
 -24 -10   7    2.48    1.25
  24 -10  -7    1.65    1.09
  24  10  -7    2.69    1.36
  22 -10  -7    1.33    0.94
  22 -10  -7    1.33    1.09
  22 -10  -7    3.25    1.26
 -22 -10   7    4.25    1.29
  22  10  -7    3.81    1.45
  20 -10  -7    9.53    1.52
 -20 -10   7    6.72    1.27
  20 -10  -7    5.67    1.25
  20 -10  -7    8.53    1.44
  20  10  -7    7.84    1.51
  18 -10  -7    2.18    0.94
 -18 -10   7    2.71    1.08
  18 -10  -7    3.88    1.15
  18 -10  -7    2.48    0.97
  18  10  -7    3.40    1.13
  16 -10  -7    6.72    1.23
  16 -10  -7    5.49    1.15
  16 -10  -7    4.41    1.20
 -16 -10   7    8.31    1.28
  16  10  -7    5.78    1.32
 -14 -10   7   11.19    1.37
  14 -10  -7   11.74    1.51
  14 -10  -7   13.82    1.58
  14 -10  -7    8.79    1.30
  14  10  -7   11.02    1.57
  12 -10  -7   15.68    1.57
  12 -10  -7   19.10    1.73
 -12 -10   7   14.44    1.43
  12 -10  -7   16.29    1.72
  12  10  -7   20.56    2.01
  10 -10  -7    4.25    1.01
  10 -10  -7    4.02    1.06
 -10 -10   7    4.23    0.93
  10 -10  -7    3.65    0.94
  10  10  -7    1.60    0.97
   8 -10  -7   10.13    1.29
   8 -10  -7   11.46    1.27
   8 -10  -7   11.50    1.43
  -8 -10   7   10.18    1.16
   8  10  -7    8.91    1.38
   6 -10  -7    7.21    1.16
   6 -10  -7    6.36    1.24
   6 -10  -7    3.77    0.85
  -6 -10   7    6.48    0.91
   6  10  -7    5.59    1.16
   4 -10  -7    0.56    0.90
   4 -10  -7    1.30    0.73
  -4 -10   7    0.41    0.55
   4  10  -7    1.03    0.85
   4  10  -7    1.16    0.82
   2 -10  -7    4.29    1.08
   2 -10  -7    5.15    0.98
   2  10  -7    4.86    1.05
   2  10  -7    6.44    1.16
   0 -10  -7   22.56    2.00
   0 -10  -7   22.59    1.64
   0  10  -7   20.19    1.75
   0  10  -7   24.73    1.95
  -2 -10  -7    6.40    1.07
   2 -10   7    7.30    1.00
  -2 -10  -7    5.66    1.16
  -2  10  -7    7.74    1.20
   4 -10   7    4.10    0.81
  -4 -10  -7    6.39    1.26
  -4 -10  -7    5.63    1.09
  -4  10  -7    6.64    1.12
  -6 -10  -7   13.54    1.41
  -6 -10  -7   12.95    1.41
  -6 -10  -7   11.10    1.52
   6 -10   7    9.02    1.08
  -6  10  -7   10.02    1.27
  -8 -10  -7    0.72    0.87
   8 -10   7    0.60    0.57
  -8 -10  -7    0.66    0.79
  -8 -10  -7    0.54    0.79
  -8  10  -7   -0.32    0.71
 -10 -10  -7   16.54    1.66
 -10 -10  -7   19.49    1.96
 -10 -10  -7   18.44    1.65
  10 -10   7   14.62    1.27
 -10  10  -7   16.19    1.60
  12 -10   7   -0.08    0.61
 -12 -10  -7    0.70    0.80
 -12 -10  -7    0.91    0.94
 -12 -10  -7    0.03    0.80
 -12  10  -7    0.95    0.74
 -14 -10  -7    0.32    0.87
 -14 -10  -7    0.40    0.97
  14 -10   7   -0.08    0.58
 -14  10  -7   -0.40    0.77
  16 -10   7    2.18    0.81
 -16 -10  -7    1.64    1.12
 -16 -10  -7    2.50    1.09
 -16  10  -7    2.82    1.04
 -18 -10  -7    1.24    1.12
 -18 -10  -7    3.66    1.21
 -18  10  -7    4.01    1.11
  20 -10   7    1.93    0.85
 -20 -10  -7    4.01    1.51
 -20 -10  -7    4.43    1.31
 -20  10  -7    4.29    1.12
 -22 -10  -7    9.38    1.61
 -22 -10  -7    8.08    1.83
  22 -10   7    8.97    1.30
 -22  10  -7    7.84    1.39
 -24 -10  -7   -0.48    1.21
 -24 -10  -7    1.04    1.18
  24 -10   7    0.10    0.89
 -24  10  -7   -0.03    0.99
  23 -11  -7   -0.60    1.20
  23  11  -7    0.24    1.19
  21 -11  -7   11.83    1.68
  21 -11  -7   12.90    1.67
  21 -11  -7   12.47    1.89
 -21 -11   7   11.00    1.65
  21  11  -7    8.43    1.69
  19 -11  -7   -0.15    0.85
  19 -11  -7    0.43    1.10
 -19 -11   7    1.69    1.05
  19 -11  -7    0.03    0.80
  19  11  -7    2.13    1.22
  17 -11  -7    3.73    1.20
  17 -11  -7    2.84    1.14
  17 -11  -7    3.53    1.14
 -17 -11   7    2.43    1.09
  17  11  -7    2.65    1.26
  15 -11  -7    5.90    1.19
  15 -11  -7    2.98    1.03
 -15 -11   7    4.91    1.18
  15 -11  -7    7.76    1.37
  15  11  -7    3.29    1.18
  13 -11  -7    0.97    0.94
  13 -11  -7    0.42    0.94
 -13 -11   7    1.20    0.85
  13 -11  -7   -0.18    0.78
  13  11  -7    2.05    1.12
  11 -11  -7   18.87    1.75
  11 -11  -7   16.74    1.68
  11 -11  -7   19.56    1.90
 -11 -11   7   17.61    1.62
  11  11  -7   18.80    1.95
   9 -11  -7    7.75    1.25
   9 -11  -7    9.18    1.35
  -9 -11   7    8.47    1.15
   9 -11  -7    6.03    1.11
   9  11  -7   11.19    1.56
   7 -11  -7    6.14    1.22
  -7 -11   7    4.53    0.93
   7 -11  -7    3.93    1.08
   7  11  -7    4.13    1.17
   7  11  -7    3.47    1.15
   5 -11  -7   16.39    1.61
   5 -11  -7   15.42    1.71
   5  11  -7   15.15    1.69
   5  11  -7   13.30    1.59
   3 -11  -7   12.32    1.68
   3 -11  -7   10.36    1.37
   3  11  -7   14.11    1.52
   3  11  -7   14.14    1.64
   1 -11  -7   12.84    1.69
   1 -11  -7    9.25    1.30
   1  11  -7    9.54    1.34
   1  11  -7   10.44    1.39
  -1 -11  -7    1.34    1.03
   1 -11   7    1.54    0.82
  -1 -11  -7    1.59    0.89
  -1  11  -7   -0.03    0.83
  -3 -11  -7    1.20    1.07
  -3 -11  -7   -0.50    0.75
   3 -11   7    0.77    0.68
  -3  11  -7    2.10    0.94
  -5 -11  -7    7.66    1.27
   5 -11   7    6.45    0.99
  -5 -11  -7    6.50    1.39
  -5  11  -7    9.00    1.37
   7 -11   7   -0.07    0.69
  -7 -11  -7   -0.46    0.94
  -7 -11  -7   -1.22    0.73
  -7 -11  -7   -1.75    0.66
  -7  11  -7    2.44    0.92
   9 -11   7    1.46    0.76
  -9 -11  -7    3.56    1.18
  -9 -11  -7    2.37    0.97
  -9 -11  -7    3.36    1.03
  -9  11  -7    2.69    0.90
 -11 -11  -7   21.41    2.24
  11 -11   7   21.01    1.57
 -11 -11  -7   14.98    1.78
 -11 -11  -7   19.43    1.80
 -11  11  -7   15.66    1.66
 -13 -11  -7    0.81    1.09
  13 -11   7    2.46    0.83
 -13 -11  -7    1.15    0.96
 -13  11  -7   -0.28    0.80
  15 -11   7    1.73    0.75
 -15 -11  -7    1.62    1.25
 -15 -11  -7    0.32    1.03
 -15  11  -7    1.13    0.96
 -17 -11  -7   18.80    2.32
 -17 -11  -7   13.56    1.80
 -17  11  -7   16.50    1.79
 -19 -11  -7    2.67    1.34
 -19 -11  -7    1.21    1.20
  19 -11   7   -0.19    0.77
 -19  11  -7    0.83    0.96
 -21 -11  -7   11.63    2.02
 -21 -11  -7    9.14    1.69
 -21  11  -7   12.09    1.65
 -23 -11  -7    1.48    1.23
  18 -12  -7    6.14    1.41
 -18 -12   7    6.42    1.29
  18 -12  -7    6.84    1.43
  18  12  -7    7.21    1.60
  16 -12  -7   -0.42    0.99
  16 -12  -7    1.53    1.00
  16 -12  -7    0.44    1.02
 -16 -12   7    1.17    1.01
  16  12  -7    2.64    1.24
  14 -12  -7    0.01    0.89
  14 -12  -7   -0.54    0.84
 -14 -12   7    0.54    0.89
  14 -12  -7    0.23    0.99
  14  12  -7   -1.24    0.97
  12 -12  -7   24.36    2.22
 -12 -12   7   19.14    1.79
  12 -12  -7   20.58    1.94
  12  12  -7   19.34    2.05
  10 -12  -7    1.02    0.93
  10 -12  -7   -0.05    1.01
  10  12  -7    1.14    1.06
   8 -12  -7    7.45    1.34
   8 -12  -7    8.44    1.42
   8  12  -7    8.92    1.54
   8  12  -7    8.85    1.48
   6 -12  -7    4.06    1.11
   6 -12  -7    4.09    1.24
   6  12  -7    6.00    1.39
   6  12  -7    5.77    1.28
   4 -12  -7   -0.89    0.71
  -4 -12   7   -0.03    0.77
   4 -12  -7    1.21    1.00
   4  12  -7   -1.01    0.83
   4  12  -7    0.05    0.91
   2 -12  -7   10.75    1.42
  -2 -12   7    9.81    1.30
   2 -12  -7    8.45    1.58
   2  12  -7    4.88    1.25
   0 -12   7    1.36    0.84
   0 -12  -7    1.74    1.07
   0 -12  -7    1.85    1.00
   0  12  -7    5.19    1.24
  -2 -12  -7    3.17    1.15
   2 -12   7    1.85    0.84
  -2 -12  -7    2.99    1.09
  -2  12  -7    3.66    1.12
  -4 -12  -7   13.95    1.79
   4 -12   7   13.67    1.46
  -4 -12  -7   16.45    1.81
  -4  12  -7   15.32    1.79
   6 -12   7   -0.13    0.67
  -6 -12  -7   -0.04    0.98
  -6 -12  -7    0.26    0.91
  -6  12  -7    0.24    0.88
   8 -12   7    0.72    0.79
  -8 -12  -7    0.27    0.95
  -8 -12  -7    1.72    1.07
  -8 -12  -7    1.10    1.22
  -8  12  -7    1.97    1.08
  10 -12   7    2.84    0.84
 -10 -12  -7    2.62    1.02
 -10 -12  -7    3.87    1.37
 -10 -12  -7    2.59    1.05
 -10  12  -7    5.57    1.25
  12 -12   7    6.76    1.09
 -12 -12  -7    7.04    1.47
 -12 -12  -7    5.98    1.60
 -12  12  -7    6.61    1.34
  14 -12   7    0.26    0.74
 -14 -12  -7    0.59    1.09
 -14 -12  -7   -0.55    1.16
 -14  12  -7   -1.35    0.82
 -16 -12  -7    0.35    1.26
 -16 -12  -7   -0.15    0.98
 -16  12  -7    0.21    1.00
 -18 -12  -7    4.79    1.38
  15 -13  -7    2.49    1.19
  15  13  -7    3.07    1.30
  13 -13  -7    8.06    1.55
  13  13  -7    9.98    1.67
  11 -13  -7    1.24    1.00
  11 -13  -7    1.50    1.28
  11  13  -7   -0.38    1.01
  11  13  -7    0.40    1.16
   9 -13  -7    1.54    1.04
  -9 -13   7    2.06    1.17
   9 -13  -7    2.03    1.08
   9  13  -7    1.11    1.22
   9  13  -7    1.57    1.09
   7 -13  -7   -0.67    1.12
  -7 -13   7    0.55    0.98
   7 -13  -7    1.57    1.12
   7  13  -7    1.69    1.10
   7  13  -7    0.78    1.04
   5 -13  -7   16.67    2.02
  -5 -13   7   16.65    1.75
   5 -13  -7   18.81    1.96
   5  13  -7   14.27    1.81
   5  13  -7   19.02    1.90
   3 -13  -7    2.06    1.15
   3 -13  -7    2.83    1.30
  -3 -13   7    2.12    0.97
   3  13  -7    1.56    1.08
  -1 -13   7    4.79    1.14
   1 -13  -7    5.29    1.51
   1 -13  -7    5.75    1.33
   1  13  -7    3.41    1.33
   1 -13   7    6.70    1.25
  -1 -13  -7    9.07    1.62
  -1 -13  -7    9.89    1.56
  -1  13  -7    7.23    1.50
   3 -13   7    2.15    0.91
  -3 -13  -7    1.46    1.15
  -3 -13  -7    1.83    1.09
  -3  13  -7    2.06    1.16
   5 -13   7    5.33    1.14
  -5 -13  -7    5.98    1.44
  -5 -13  -7    4.50    1.26
  -5  13  -7    7.03    1.41
   7 -13   7    8.40    1.26
  -7 -13  -7   10.35    1.87
  -7 -13  -7    9.49    1.59
  -7  13  -7   10.30    1.59
  -9 -13  -7   15.93    1.86
   9 -13   7   15.98    1.56
  -9 -13  -7   17.28    2.26
  -9  13  -7   18.18    1.94
 -11 -13  -7    5.61    2.51
  11 -13   7    5.41    1.13
 -11 -13  -7    4.40    1.37
 -11  13  -7    3.35    1.25
  13 -13   7    0.90    0.83
 -13 -13  -7   -0.39    1.13
   0 -14  -7    1.95    1.25
  -2 -14  -7    1.33    1.16
   4 -14   7    0.69    1.48
  -4 -14  -7    0.50    1.11
  -6 -14  -7    0.51    1.19
  34   0  -8    1.82    1.04
  34   0  -8    1.08    1.43
  32   0  -8    0.73    0.93
  32   0  -8    0.20    1.22
  30   0  -8    0.41    1.05
  30   0  -8   -0.08    0.82
  28   0  -8   45.61    2.97
  28   0  -8   50.51    2.65
  26   0  -8    3.37    0.97
  26   0  -8    3.32    1.19
  26   0  -8    3.58    0.86
  24   0  -8    0.99    0.66
  24   0  -8   -0.04    0.85
  24   0  -8   -0.56    0.68
  22   0  -8   46.75    2.71
  22   0  -8   51.58    2.32
  22   0  -8   48.35    2.48
  20   0  -8   13.22    1.23
  20   0  -8   12.54    1.45
  20   0  -8   12.56    1.35
  18   0  -8    4.69    0.97
  18   0  -8    7.12    0.91
  18   0  -8    6.58    0.97
  16   0  -8    7.56    0.98
  16   0  -8    8.16    1.09
  16   0  -8    7.08    0.87
  14   0  -8  106.04    3.15
  14   0  -8  100.07    3.65
  14   0  -8   96.58    3.39
  12   0  -8    3.32    0.69
  12   0  -8    2.72    0.66
  12   0  -8    5.02    0.71
  12   0  -8    3.44    0.46
  10   0  -8    1.91    0.56
  10   0  -8    1.39    0.59
  10   0  -8    1.59    0.34
  10   0  -8    0.82    0.52
   8   0  -8   87.95    2.96
   8   0  -8   90.55    2.57
   8   0  -8   87.85    3.06
   8   0  -8   88.39    3.13
   6   0  -8   30.43    1.51
   6   0  -8   29.37    1.00
   6   0  -8   30.35    1.38
   6   0  -8   30.20    1.47
   4   0  -8  122.78    3.85
   4   0  -8  125.19    3.98
   4   0  -8  129.16    3.39
   4   0  -8  132.80    4.10
   2   0  -8    0.39    0.40
   2   0  -8   -0.64    0.30
   2   0  -8    0.55    0.43
   2   0  -8   -0.02    0.34
   0   0  -8    4.05    0.61
   0   0  -8    4.06    0.57
   0   0  -8    4.06    0.56
   0   0  -8    5.49    0.74
  -2   0  -8  101.89    2.67
  -2   0  -8   99.05    3.12
  -2   0  -8  100.30    3.04
  -2   0  -8   96.85    3.29
  -4   0  -8    0.12    0.17
  -4   0  -8    0.24    0.30
  -6   0  -8   20.35    1.04
  -6   0  -8   21.56    0.84
  -8   0  -8   67.56    2.24
  -8   0  -8   66.38    2.09
 -10   0  -8    0.14    0.31
 -10   0  -8   -0.24    0.28
 -12   0  -8   37.78    1.54
 -12   0  -8   41.33    1.55
 -14   0  -8    0.34    0.36
 -14   0  -8    0.52    0.37
 -16   0  -8    8.25    0.76
 -16   0  -8    8.62    0.86
 -18   0  -8   79.80    2.68
 -18   0  -8   80.28    2.86
 -20   0  -8    4.81    0.82
  20   0   8    6.57    0.62
 -22   0  -8    0.53    0.65
 -24   0  -8    4.12    0.92
 -26   0  -8    0.78    0.81
 -28   0  -8   -0.46    0.82
 -30   0  -8    6.04    1.25
  32   0   8   -0.48    0.71
 -32   0  -8    0.94    1.04
  34   0   8    3.86    1.24
 -34   0  -8    3.52    1.24
  33  -1  -8    1.92    1.46
  33  -1  -8    4.47    1.23
  33   1  -8    4.37    1.69
  33   1  -8    8.12    1.53
  31  -1  -8    0.74    1.27
  31  -1  -8    2.47    1.17
  31  -1  -8    3.07    0.92
  31   1  -8    1.46    1.06
  31   1  -8    1.32    1.29
  29  -1  -8    2.33    0.91
  29  -1  -8    0.86    1.13
  29  -1  -8    2.62    1.12
  29   1  -8    0.73    0.99
  29   1  -8    1.21    1.14
  27  -1  -8    7.32    1.47
  27  -1  -8    9.32    1.35
  27  -1  -8    7.24    1.16
  27   1  -8    4.51    1.32
  27   1  -8    3.46    1.10
  25  -1  -8   12.91    1.55
  25  -1  -8    7.76    1.49
  25  -1  -8   10.58    1.21
  25   1  -8   11.72    1.48
  25   1  -8   10.97    1.64
  23  -1  -8    0.88    0.67
  23  -1  -8   -0.35    0.72
  23  -1  -8    0.07    0.79
  23   1  -8    0.60    0.73
  23   1  -8    2.41    1.02
  21  -1  -8   29.71    2.07
  21  -1  -8   32.38    1.90
  21  -1  -8   26.48    1.63
  21   1  -8   22.35    1.98
  21   1  -8   23.21    1.66
  19  -1  -8   26.30    1.83
  19  -1  -8   25.43    1.67
  19  -1  -8   23.62    1.50
  19   1  -8   33.15    2.12
  19   1  -8   26.79    1.73
  17  -1  -8    4.37    0.83
  17  -1  -8    6.22    1.03
  17  -1  -8    6.04    0.98
  17   1  -8    6.84    0.98
  17   1  -8    8.00    0.94
  17   1  -8    7.65    1.12
  15  -1  -8    7.16    0.71
  15  -1  -8    8.09    0.94
  15  -1  -8    9.52    1.07
  15  -1  -8    7.54    1.02
  15   1  -8   11.67    0.84
  15   1  -8   13.13    1.37
  15   1  -8    9.59    0.98
  15   1  -8   13.17    1.22
  13  -1  -8   10.85    1.10
  13  -1  -8   10.48    0.74
  13  -1  -8   10.77    1.05
  13  -1  -8   12.04    1.12
  13   1  -8   15.17    1.39
  13   1  -8   14.55    0.87
  13   1  -8   12.57    1.08
  13   1  -8   12.94    1.21
  11  -1  -8    5.71    0.76
  11  -1  -8    6.76    0.86
  11  -1  -8    3.37    0.66
  11  -1  -8    5.66    0.52
  11   1  -8    7.41    0.61
  11   1  -8    6.76    0.86
  11   1  -8    5.55    0.85
  11   1  -8    7.14    0.80
   9  -1  -8   33.07    1.21
   9  -1  -8   37.90    1.72
   9  -1  -8   34.35    1.64
   9  -1  -8   35.17    1.65
   9   1  -8   40.65    1.41
   9   1  -8   42.99    1.98
   9   1  -8   38.84    1.82
   9   1  -8   37.85    1.71
   7  -1  -8   87.61    3.06
   7  -1  -8   88.50    3.03
   7  -1  -8   87.40    2.52
   7  -1  -8   88.25    2.98
   7  -1  -8   93.68    3.06
   7   1  -8   83.30    3.04
   7   1  -8   83.95    2.97
   7   1  -8   82.76    2.81
   7   1  -8   82.97    2.43
   5  -1  -8   68.71    1.94
   5  -1  -8   66.89    2.47
   5  -1  -8   67.47    2.51
   5  -1  -8   72.27    2.53
   5  -1  -8   70.61    2.44
   5   1  -8   59.73    2.37
   5   1  -8   60.53    1.78
   5   1  -8   58.57    2.28
   3  -1  -8   69.26    2.46
   3  -1  -8   70.59    2.55
   3  -1  -8   72.69    2.47
   3  -1  -8   71.63    2.52
   3   1  -8   69.60    2.54
   3   1  -8   71.34    2.04
   3   1  -8   75.36    2.73
   1  -1  -8   14.15    0.87
   1  -1  -8   16.90    1.07
   1  -1  -8   13.99    0.94
   1  -1  -8   15.50    0.97
   1   1  -8   15.79    1.04
   1   1  -8   12.13    1.07
   1   1  -8   13.88    0.57
  -1  -1  -8   74.02    2.57
  -1  -1  -8   72.44    2.57
  -1  -1  -8   73.72    2.49
  -1  -1  -8   78.70    2.47
  -1   1  -8   62.00    2.42
  -1   1  -8   63.73    1.83
  -3  -1  -8   23.40    1.18
  -3  -1  -8   22.35    0.76
  -3  -1  -8   22.35    1.04
  -3   1  -8   22.73    0.84
  -3   1  -8   22.93    1.05
  -3   1  -8   22.00    1.31
  -5  -1  -8    4.55    0.50
  -5  -1  -8    5.04    0.40
  -5  -1  -8    4.20    0.59
  -5   1  -8    5.17    0.52
  -5   1  -8    5.23    0.43
  -7  -1  -8    5.20    0.49
  -7  -1  -8    5.92    0.66
  -7  -1  -8    4.42    0.43
  -7   1  -8    6.77    0.54
  -7   1  -8    7.71    0.61
  -9  -1  -8   65.43    2.13
  -9  -1  -8   68.35    2.35
  -9   1  -8   69.95    2.14
  -9   1  -8   66.17    2.17
 -11  -1  -8    8.51    0.81
 -11  -1  -8   10.80    0.76
 -11   1  -8    7.92    0.68
 -11   1  -8    7.38    0.58
 -13  -1  -8   40.10    1.61
 -13  -1  -8   40.29    1.68
 -13   1  -8   39.65    1.39
 -13   1  -8   39.07    1.60
 -15  -1  -8   13.20    0.99
 -15  -1  -8   15.18    1.02
 -15   1  -8   17.68    1.13
 -15   1  -8   19.26    0.88
 -17  -1  -8    1.32    0.55
 -17  -1  -8    2.47    0.60
  17   1   8    1.85    0.36
 -17   1  -8    2.35    0.61
 -19  -1  -8   41.59    1.95
 -19  -1  -8   42.07    1.87
 -19   1  -8   45.84    2.04
 -21  -1  -8    8.38    1.04
  21  -1   8    9.54    0.79
 -21   1  -8   10.60    1.13
 -23  -1  -8    9.36    1.15
  23  -1   8   10.03    0.85
 -23   1  -8    9.20    1.09
 -25  -1  -8   17.86    1.55
 -25   1  -8   18.26    1.61
 -27  -1  -8    0.54    0.81
 -27   1  -8    1.20    0.88
 -29  -1  -8    0.88    0.91
 -29   1  -8    3.69    1.09
 -31  -1  -8   13.42    1.66
 -31   1  -8   13.09    1.66
  31   1   8   13.03    1.33
 -33  -1  -8    2.10    1.15
 -33   1  -8    2.01    1.16
  33   1   8    3.48    1.01
  34  -2  -8    7.38    1.82
  34  -2  -8    8.14    1.36
  34   2  -8    8.32    1.45
  32  -2  -8   10.75    1.69
  32  -2  -8    7.39    1.25
  32  -2  -8    6.85    1.64
  32   2  -8   14.44    2.24
  32   2  -8    9.86    1.46
  30  -2  -8    6.16    1.31
  30  -2  -8    5.73    1.57
  30  -2  -8    5.77    1.08
  30   2  -8    3.87    1.40
  30   2  -8    5.05    1.27
  28  -2  -8   14.21    1.84
  28  -2  -8   14.08    1.44
  28  -2  -8   16.17    1.71
  28   2  -8   16.67    1.77
  28   2  -8   14.10    1.95
  26  -2  -8    9.56    1.36
  26  -2  -8    7.51    1.12
  26  -2  -8    6.42    1.38
  26   2  -8    9.13    1.35
  26   2  -8    8.60    1.63
  24  -2  -8    0.63    0.75
  24  -2  -8    1.40    0.82
  24  -2  -8    1.79    0.90
  24   2  -8    1.83    0.86
  24   2  -8    1.48    0.97
  22  -2  -8   14.87    1.69
  22  -2  -8   12.81    1.29
  22  -2  -8   14.00    1.49
  22   2  -8   12.34    1.60
  22   2  -8   11.43    1.34
  20  -2  -8    0.48    0.68
  20  -2  -8   -0.21    0.63
  20  -2  -8    1.16    0.79
  20   2  -8    2.23    0.91
  20   2  -8    3.09    0.85
  18  -2  -8    6.96    1.05
  18  -2  -8    8.30    1.07
  18  -2  -8    7.51    1.06
  18   2  -8    4.23    0.99
  18   2  -8    5.36    0.93
  16  -2  -8   32.57    1.83
  16  -2  -8   33.44    1.76
  16  -2  -8   31.07    1.83
  16   2  -8   35.07    2.05
  16   2  -8   36.05    1.90
  14  -2  -8   25.05    1.19
  14  -2  -8   25.65    1.44
  14  -2  -8   26.22    1.53
  14  -2  -8   23.69    1.50
  14   2  -8   20.21    1.10
  14   2  -8   22.74    1.65
  14   2  -8   23.16    1.53
  12  -2  -8   13.04    1.18
  12  -2  -8   15.74    0.86
  12  -2  -8   13.69    1.17
  12  -2  -8   17.13    1.15
  12   2  -8   14.64    1.26
  12   2  -8   12.17    1.25
  12   2  -8   14.03    0.86
  10  -2  -8   56.08    2.22
  10  -2  -8   55.44    2.24
  10  -2  -8   57.02    2.28
  10  -2  -8   55.76    2.22
  10  -2  -8   56.65    1.85
  10   2  -8   60.48    2.48
  10   2  -8   65.25    2.09
  10   2  -8   61.63    2.59
   8  -2  -8   44.58    1.97
   8  -2  -8   41.49    1.84
   8  -2  -8   47.26    1.91
   8  -2  -8   46.53    1.51
   8  -2  -8   46.09    1.90
   8   2  -8   40.13    1.42
   8   2  -8   40.33    1.85
   8   2  -8   38.26    1.94
   6  -2  -8   13.08    0.95
   6  -2  -8   14.86    0.65
   6  -2  -8   14.29    1.17
   6  -2  -8   13.35    0.98
   6  -2  -8   13.64    1.02
   6   2  -8   12.84    1.15
   6   2  -8   13.27    1.15
   6   2  -8   12.69    0.69
   4  -2  -8   18.36    1.18
   4  -2  -8   17.75    0.70
   4  -2  -8   19.03    1.10
   4  -2  -8   18.91    1.11
   4  -2  -8   19.87    1.09
   4   2  -8   12.22    1.16
   4   2  -8   11.97    1.03
   4   2  -8   11.37    0.62
   2  -2  -8   53.60    2.01
   2  -2  -8   55.11    2.02
   2  -2  -8   56.21    2.09
   2  -2  -8   56.89    2.16
   2   2  -8   58.18    2.27
   2   2  -8   62.29    2.46
   2   2  -8   59.63    1.84
   0  -2  -8   33.79    1.42
   0  -2  -8   30.93    1.44
   0  -2  -8   33.07    1.39
   0  -2  -8   33.17    1.01
   0  -2  -8   31.97    1.54
   0   2  -8   41.07    1.40
   0   2  -8   40.78    1.38
   0   2  -8   43.79    1.92
  -2  -2  -8   58.95    1.98
  -2  -2  -8   56.08    2.16
  -2  -2  -8   54.03    1.95
  -2  -2  -8   55.18    1.63
  -2   2  -8   46.82    2.00
  -2   2  -8   45.39    1.51
  -4  -2  -8    4.01    0.63
  -4  -2  -8    3.74    0.36
  -4  -2  -8    5.07    0.57
  -4   2  -8    4.97    0.45
  -6  -2  -8   56.98    1.87
  -6  -2  -8   55.17    2.15
  -6  -2  -8   54.14    1.75
  -6   2  -8   51.96    1.73
   8  -2   8   19.11    0.81
   8  -2   8   20.76    0.88
  -8  -2  -8   20.20    0.90
  -8  -2  -8   21.18    0.95
  -8  -2  -8   18.62    1.16
  -8   2  -8   11.11    0.73
 -10  -2  -8    1.17    0.28
 -10  -2  -8    1.39    0.51
 -10  -2  -8    0.36    0.34
 -10   2  -8   -0.39    0.30
 -12  -2  -8    1.66    0.53
 -12  -2  -8    2.02    0.45
 -12   2  -8    0.89    0.41
 -14  -2  -8   68.43    2.45
 -14  -2  -8   71.19    2.60
 -14   2  -8   66.09    2.37
 -16  -2  -8    5.79    0.82
 -16  -2  -8    4.48    0.70
 -16   2  -8    5.11    0.72
 -18  -2  -8   11.84    1.15
 -18  -2  -8   10.70    1.04
 -18   2  -8    6.78    0.85
  20  -2   8   16.03    1.03
 -20  -2  -8   15.00    1.28
 -20  -2  -8   19.98    1.40
 -20   2  -8   26.43    1.58
  22  -2   8    3.71    0.63
 -22  -2  -8    1.94    0.74
 -22  -2  -8    1.75    0.74
 -22   2  -8    1.95    0.72
  24  -2   8    7.06    0.80
 -24  -2  -8    8.71    1.16
 -24   2  -8    4.61    0.98
  26  -2   8   12.34    1.03
 -26  -2  -8   13.48    1.48
 -26   2  -8   10.40    1.32
 -28  -2  -8    4.47    1.03
  28   2   8    3.61    0.90
 -28   2  -8    3.00    1.00
 -30  -2  -8   -0.04    0.93
 -30   2  -8    4.00    1.14
  30   2   8    1.15    0.82
 -32  -2  -8    7.69    1.49
  32   2   8    4.54    1.03
 -32   2  -8    5.46    1.29
 -34  -2  -8   -0.62    1.10
  34   2   8    0.08    0.73
 -34   2  -8    1.86    1.18
  33  -3  -8    7.63    1.74
  33  -3  -8    8.10    1.28
  33  -3  -8   11.40    1.92
  33   3  -8   12.86    1.72
  33   3  -8    8.88    2.21
  31  -3  -8    2.22    1.24
  31  -3  -8    4.59    1.11
  31  -3  -8    1.77    1.16
  31   3  -8    0.38    1.18
  31   3  -8    3.62    1.09
  29  -3  -8    6.16    1.10
  29  -3  -8    5.89    1.30
  29  -3  -8    6.98    1.58
  29   3  -8    6.42    1.60
  29   3  -8    5.91    1.28
  27  -3  -8   11.05    1.55
  27  -3  -8   10.84    1.70
  27  -3  -8   11.22    1.37
  27   3  -8   12.72    1.88
  27   3  -8   15.02    1.61
  25  -3  -8   18.95    1.64
  25  -3  -8   20.58    1.86
  25  -3  -8   14.98    1.81
  25   3  -8   18.91    2.08
  25   3  -8   20.38    1.82
  23  -3  -8   15.27    1.44
  23  -3  -8   17.63    1.77
  23  -3  -8   18.97    1.75
  23   3  -8   18.85    1.74
  23   3  -8   18.08    2.02
  21  -3  -8   16.37    1.56
  21  -3  -8   15.45    1.40
  21  -3  -8   18.37    1.68
  21   3  -8   12.48    1.36
  21   3  -8   11.81    1.55
  19  -3  -8   17.61    1.54
  19  -3  -8   20.85    1.67
  19  -3  -8   19.94    1.58
  19   3  -8   23.44    1.66
  19   3  -8   25.32    1.91
  17  -3  -8   41.00    1.96
  17  -3  -8   38.64    2.09
  17  -3  -8   36.13    1.96
  17   3  -8   42.14    2.34
  17   3  -8   42.07    2.14
  15  -3  -8   25.08    1.49
  15  -3  -8   25.73    1.53
  15  -3  -8   24.65    1.57
  15   3  -8   21.16    1.54
  15   3  -8   18.40    1.63
  13  -3  -8    2.47    0.63
  13  -3  -8    2.67    0.70
  13  -3  -8    2.14    0.63
  13  -3  -8    1.78    0.63
  13  -3  -8    2.55    0.48
  13   3  -8    2.01    0.68
  13   3  -8    2.08    0.74
  13   3  -8    1.37    0.55
  11  -3  -8   11.95    1.13
  11  -3  -8   11.90    0.80
  11  -3  -8   11.43    1.01
  11  -3  -8   13.94    1.24
  11  -3  -8   15.22    1.22
  11   3  -8   10.02    1.12
  11   3  -8    8.64    1.07
  11   3  -8   10.58    0.77
   9  -3  -8   59.59    2.26
   9  -3  -8   59.68    2.43
   9  -3  -8   62.22    2.37
   9  -3  -8   63.48    2.02
   9  -3  -8   60.81    2.38
   9   3  -8   63.32    2.52
   9   3  -8   62.36    2.09
   9   3  -8   58.39    2.57
   7  -3  -8    1.04    0.31
   7  -3  -8    0.53    0.47
   7  -3  -8    1.08    0.48
   7  -3  -8    1.21    0.47
   7  -3  -8    1.11    0.43
   7   3  -8    0.85    0.62
   7   3  -8    1.02    0.55
   7   3  -8    1.48    0.36
   5  -3  -8   17.73    1.10
   5  -3  -8   18.24    0.83
   5  -3  -8   19.17    1.13
   5  -3  -8   18.80    1.08
   5  -3  -8   19.54    1.27
   5   3  -8   22.39    1.31
   5   3  -8   20.43    1.38
   5   3  -8   21.19    0.98
   3  -3  -8   94.09    3.22
   3  -3  -8   92.86    2.98
   3  -3  -8   93.22    3.00
   3  -3  -8   91.11    3.05
   3   3  -8   90.74    3.27
   3   3  -8   88.22    2.70
   1  -3  -8    5.32    0.67
   1  -3  -8    5.22    0.74
   1  -3  -8    5.31    0.61
   1  -3  -8    5.00    0.59
   1   3  -8    3.85    0.74
   1   3  -8    5.64    0.53
  -1  -3  -8   37.45    1.45
  -1  -3  -8   38.85    1.73
  -1  -3  -8   34.74    1.23
  -1  -3  -8   37.49    1.54
  -1   3  -8   28.71    1.57
  -1   3  -8   28.61    1.17
  -1   3  -8   28.28    1.17
  -3  -3  -8   30.32    1.56
  -3  -3  -8   30.59    1.25
  -3  -3  -8   31.80    1.36
  -3  -3  -8   30.31    1.12
  -3   3  -8   33.26    1.30
  -3   3  -8   31.63    1.66
  -5  -3  -8    2.50    0.39
  -5  -3  -8    2.07    0.55
  -5  -3  -8    3.36    0.49
  -5   3  -8    2.27    0.41
  -7  -3  -8   88.93    3.15
  -7  -3  -8   94.86    2.81
  -7  -3  -8   89.10    2.77
  -7   3  -8   86.15    2.72
  -9  -3  -8   32.94    1.25
  -9  -3  -8   31.73    1.63
  -9  -3  -8   32.00    1.35
  -9   3  -8   20.08    1.06
 -11  -3  -8   18.93    1.29
 -11  -3  -8   19.17    0.85
 -11  -3  -8   18.57    1.06
 -11   3  -8   16.91    1.02
 -13  -3  -8   11.47    0.95
 -13  -3  -8   12.74    1.16
  13  -3   8   14.53    0.68
 -13   3  -8   14.40    0.99
 -15  -3  -8   10.32    0.96
 -15  -3  -8   11.02    1.13
 -15   3  -8    6.22    0.78
 -17  -3  -8    1.34    0.59
 -17  -3  -8    1.77    0.72
 -17   3  -8    1.50    0.60
 -19  -3  -8   21.46    1.45
 -19  -3  -8   22.92    1.58
 -19   3  -8   23.35    1.46
 -21  -3  -8   13.00    1.29
 -21  -3  -8    7.92    1.19
  21  -3   8    8.92    0.90
 -21   3  -8   11.02    1.17
 -23  -3  -8    9.63    1.22
  23  -3   8   10.26    0.97
 -23  -3  -8    9.23    1.25
 -23   3  -8    9.41    1.17
 -25  -3  -8    6.45    1.15
  25  -3   8    3.22    0.71
 -25   3  -8    6.65    1.07
  27  -3   8    5.87    0.88
 -27  -3  -8    6.08    1.20
 -27   3  -8    7.04    1.21
  27   3   8    6.68    0.96
 -29  -3  -8   10.21    1.50
 -29   3  -8    9.49    1.44
  29   3   8    8.74    1.12
 -31  -3  -8    8.15    1.47
 -31   3  -8    8.38    1.40
  31   3   8    7.65    1.12
 -33  -3  -8    1.95    1.19
  33   3   8    2.83    0.97
 -33   3  -8    4.38    1.32
  32  -4  -8    6.24    1.69
  32  -4  -8    8.42    1.64
  32  -4  -8   10.20    1.44
  32   4  -8    3.89    1.30
  32   4  -8    9.68    1.93
  30  -4  -8    5.61    1.27
  30  -4  -8    5.33    1.46
  30  -4  -8    3.17    1.04
  30   4  -8    4.21    1.25
  30   4  -8    5.39    1.79
  28  -4  -8    4.68    1.17
  28  -4  -8    3.40    1.29
  28  -4  -8    4.27    1.13
  28   4  -8    3.88    1.47
  28   4  -8    3.07    1.13
  26  -4  -8    4.67    1.17
  26  -4  -8    3.55    1.23
  26  -4  -8    3.86    1.03
  26   4  -8    2.26    1.18
  26   4  -8    1.07    0.84
  24  -4  -8   14.04    1.44
  24  -4  -8   14.99    1.74
  24  -4  -8   13.35    1.55
  24   4  -8   14.50    1.55
  24   4  -8   19.15    2.16
  22  -4  -8    3.67    1.04
  22  -4  -8    2.82    0.86
  22  -4  -8    4.31    1.04
  22   4  -8    1.36    0.82
  22   4  -8    2.23    1.06
  20  -4  -8   22.87    1.85
  20  -4  -8   15.45    1.51
  20  -4  -8   16.77    1.48
  20   4  -8   21.08    1.73
  20   4  -8   20.31    1.95
  18  -4  -8    0.67    0.60
  18  -4  -8    1.20    0.73
  18  -4  -8    0.67    0.61
  18   4  -8    1.38    0.84
  18   4  -8    0.24    0.72
  16  -4  -8   53.92    2.53
  16  -4  -8   56.00    2.37
  16  -4  -8   56.23    2.40
  16   4  -8   50.75    2.41
  16   4  -8   51.68    2.62
  14  -4  -8   30.63    1.57
  14  -4  -8   30.12    1.71
  14  -4  -8   31.09    1.68
  14  -4  -8   29.93    1.72
  14   4  -8   40.24    2.08
  14   4  -8   34.10    2.07
  12  -4  -8    4.45    0.61
  12  -4  -8    4.35    0.68
  12  -4  -8    2.94    0.69
  12  -4  -8    3.96    0.80
  12  -4  -8    2.63    0.76
  12   4  -8    1.99    0.69
  12   4  -8    3.93    0.95
  10  -4  -8   50.04    1.97
  10  -4  -8   49.84    2.17
  10  -4  -8   50.94    2.24
  10  -4  -8   52.65    2.18
  10  -4  -8   51.07    1.87
  10   4  -8   52.66    2.48
  10   4  -8   49.07    1.91
  10   4  -8   54.81    2.35
   8  -4  -8    2.03    0.42
   8  -4  -8    2.79    0.64
   8  -4  -8    1.78    0.58
   8  -4  -8    2.87    0.67
   8  -4  -8    2.27    0.50
   8   4  -8    1.27    0.65
   8   4  -8    1.36    0.65
   8   4  -8    1.40    0.42
   6  -4  -8   10.46    0.72
   6  -4  -8    9.64    0.90
   6  -4  -8    8.97    0.92
   6  -4  -8    8.65    0.98
   6  -4  -8   10.28    0.83
   6   4  -8    8.75    0.98
   6   4  -8    8.21    0.71
   6   4  -8    9.52    1.10
   4  -4  -8   23.46    1.11
   4  -4  -8   24.40    1.22
   4  -4  -8   22.05    1.44
   4  -4  -8   20.83    1.28
   4   4  -8   19.45    1.02
   4   4  -8   20.74    1.42
   2  -4  -8   13.70    0.93
   2  -4  -8   14.21    0.98
   2  -4  -8   14.50    1.13
   2  -4  -8   14.14    0.84
   2   4  -8   12.94    0.83
   2   4  -8   11.61    1.17
   0  -4  -8   29.00    1.40
   0  -4  -8   26.40    1.13
   0  -4  -8   30.15    1.26
   0  -4  -8   28.64    1.55
   0   4  -8   23.79    1.54
   0   4  -8   23.73    1.16
   0   4  -8   23.63    1.13
  -2  -4  -8   27.33    1.16
  -2  -4  -8   30.22    1.37
  -2  -4  -8   28.98    1.20
  -2  -4  -8   27.55    1.54
  -2   4  -8   38.39    1.54
  -2   4  -8   38.49    1.89
  -2   4  -8   37.16    1.52
  -4  -4  -8   41.45    1.45
  -4  -4  -8   41.88    1.92
  -4  -4  -8   38.22    1.62
  -4  -4  -8   40.65    1.51
  -4   4  -8   35.99    1.48
  -6  -4  -8   28.11    1.29
  -6  -4  -8   29.84    1.26
  -6  -4  -8   28.53    1.57
  -6   4  -8   26.24    1.24
  -8  -4  -8   69.41    2.73
  -8  -4  -8   68.20    2.34
  -8  -4  -8   69.28    2.28
  -8   4  -8   84.07    2.78
 -10  -4  -8    4.40    0.53
 -10  -4  -8    5.41    0.66
 -10  -4  -8    5.23    0.85
 -10   4  -8    4.71    0.65
 -12  -4  -8   27.77    1.42
 -12  -4  -8   28.86    1.15
 -12  -4  -8   27.52    1.67
 -12   4  -8   29.93    1.47
  14  -4   8   22.26    0.93
 -14  -4  -8   21.07    1.32
 -14  -4  -8   22.23    1.56
 -14   4  -8   26.66    1.45
 -16  -4  -8    2.75    0.80
 -16  -4  -8    3.11    0.72
 -16   4  -8    2.93    0.70
 -18  -4  -8   18.54    1.41
 -18  -4  -8   18.46    1.63
 -18   4  -8   23.81    1.51
 -20  -4  -8    9.77    1.34
 -20  -4  -8    9.52    1.16
 -20   4  -8    9.01    1.07
 -22  -4  -8    2.18    0.85
 -22  -4  -8    1.43    0.89
  22  -4   8    1.91    0.60
  22   4   8    2.20    0.63
 -22   4  -8    1.46    0.76
 -24  -4  -8    6.07    1.11
 -24  -4  -8    4.29    1.22
  24  -4   8    3.74    0.72
 -24   4  -8    3.91    0.96
  24   4   8    5.86    0.85
  26  -4   8    2.59    0.73
 -26  -4  -8    3.13    1.11
 -26  -4  -8    2.40    0.98
  26   4   8    2.23    0.71
 -26   4  -8    1.75    0.90
  28  -4   8    4.66    0.88
 -28  -4  -8    3.83    1.15
  28   4   8    3.52    0.82
 -28   4  -8    2.85    1.06
 -30  -4  -8    3.46    1.22
  30  -4   8    1.93    0.95
 -30   4  -8    6.00    1.33
  30   4   8    3.83    0.94
 -32  -4  -8    2.93    1.25
  32   4   8    3.17    0.96
 -32   4  -8    1.73    1.12
  31  -5  -8    2.83    1.02
  31  -5  -8    4.77    1.41
  31   5  -8    7.18    1.88
  31   5  -8    3.32    1.22
  29  -5  -8    0.90    1.68
  29  -5  -8    1.98    1.01
  29  -5  -8    1.75    1.20
  29   5  -8   -0.10    1.33
  29   5  -8    0.92    1.01
  27  -5  -8    9.12    1.54
  27  -5  -8    9.24    1.38
  27  -5  -8   11.61    1.59
  27   5  -8    8.35    1.37
  27   5  -8   10.61    1.82
  25  -5  -8    1.85    0.84
  25  -5  -8    3.90    1.11
  25  -5  -8    2.36    1.08
  25   5  -8    3.36    1.00
  25   5  -8    1.74    1.17
  23  -5  -8    5.44    1.03
  23  -5  -8    5.53    1.16
  23  -5  -8    6.00    1.19
  23   5  -8    4.75    1.13
  23   5  -8    4.74    1.25
  21  -5  -8   30.52    2.13
  21  -5  -8   33.07    1.99
  21  -5  -8   30.49    1.95
  21   5  -8   37.27    2.47
  21   5  -8   31.91    2.11
  19  -5  -8    2.42    0.74
  19  -5  -8    2.69    0.90
  19  -5  -8    3.30    0.92
  19   5  -8    2.49    0.83
  19   5  -8    2.62    1.03
  17  -5  -8    3.32    0.84
  17  -5  -8    4.02    1.00
  17  -5  -8    2.50    0.71
  17   5  -8    6.13    1.18
  17   5  -8    5.31    1.00
  15  -5  -8    5.84    1.01
  15  -5  -8    5.71    0.80
  15  -5  -8    7.34    1.07
  15  -5  -8    3.68    0.81
  15   5  -8    5.84    1.10
  15   5  -8    5.35    1.01
  13  -5  -8    3.27    0.65
  13  -5  -8    2.70    0.72
  13  -5  -8    2.21    0.71
  13  -5  -8    1.89    0.69
  13   5  -8    2.02    0.82
  13   5  -8    1.76    0.69
  11  -5  -8   17.03    1.27
  11  -5  -8   17.07    1.33
  11  -5  -8   18.01    1.29
  11  -5  -8   17.52    1.08
  11   5  -8   20.88    1.60
  11   5  -8   21.72    1.48
   9  -5  -8   42.60    1.95
   9  -5  -8   43.52    1.67
   9  -5  -8   41.37    1.93
   9  -5  -8   43.39    2.11
   9  -5  -8   40.43    1.70
   9   5  -8   39.51    1.99
   9   5  -8   39.18    2.09
   7  -5  -8    3.87    0.72
   7  -5  -8    5.07    0.64
   7  -5  -8    5.43    0.59
   7  -5  -8    5.15    0.89
   7  -5  -8    5.42    0.78
   7   5  -8    6.66    1.02
   7   5  -8    4.96    0.90
   5  -5  -8    8.67    0.94
   5  -5  -8    8.70    0.69
   5  -5  -8    8.63    1.06
   5  -5  -8    9.78    0.91
   5   5  -8    6.11    1.02
   5   5  -8    7.52    0.76
   3  -5  -8   85.27    2.80
   3  -5  -8   82.53    2.97
   3  -5  -8   85.65    3.21
   3   5  -8   76.24    3.03
   3   5  -8   75.20    2.58
   1  -5  -8   11.63    0.81
   1  -5  -8    8.69    0.93
   1  -5  -8    8.49    1.07
   1   5  -8   10.98    0.92
   1   5  -8   12.72    0.97
   1   5  -8   13.02    1.28
  -1  -5  -8   50.88    2.27
  -1  -5  -8   48.15    1.69
  -1  -5  -8   46.69    1.93
  -1  -5  -8   44.24    1.73
  -1   5  -8   45.79    1.82
  -1   5  -8   46.55    2.19
  -1   5  -8   45.54    1.84
  -3  -5  -8   15.67    0.82
  -3  -5  -8   17.13    1.08
  -3  -5  -8   17.04    0.98
  -3  -5  -8   12.83    1.23
  -3   5  -8   15.41    1.05
  -3   5  -8   16.76    1.41
  -3   5  -8   16.16    1.04
  -5  -5  -8    8.57    0.81
  -5  -5  -8    8.14    0.57
   5  -5   8    8.32    0.45
  -5  -5  -8    6.98    1.00
  -5  -5  -8    7.61    0.75
  -5   5  -8    8.48    0.83
  -7  -5  -8   22.69    1.55
  -7  -5  -8   23.33    1.20
  -7  -5  -8   21.29    1.19
  -7   5  -8   12.78    0.95
  -9  -5  -8   32.39    1.41
  -9  -5  -8   33.18    1.81
  -9  -5  -8   31.55    1.51
  -9   5  -8   34.28    1.59
 -11  -5  -8    4.30    0.85
 -11  -5  -8    4.63    0.59
 -11  -5  -8    4.00    0.68
 -11   5  -8    2.46    0.60
 -13  -5  -8   35.26    2.03
 -13  -5  -8   38.59    1.76
 -13  -5  -8   33.70    1.72
  13  -5   8   35.47    1.37
 -13   5  -8   32.28    1.62
 -15  -5  -8    7.12    1.14
 -15  -5  -8   10.28    1.07
 -15   5  -8    7.74    0.94
 -17  -5  -8    3.73    0.95
 -17  -5  -8    2.46    0.74
 -17   5  -8    2.92    0.74
 -19  -5  -8   46.41    2.25
 -19  -5  -8   41.51    2.44
 -19   5  -8   40.51    2.02
  19   5   8   38.73    1.65
 -21  -5  -8    1.66    0.84
 -21  -5  -8    2.53    1.04
 -21   5  -8    2.88    0.82
  21   5   8    1.66    0.59
 -23  -5  -8   -0.85    0.82
  23  -5   8   -0.05    0.53
 -23  -5  -8    0.61    0.80
 -23   5  -8    0.73    0.77
  23   5   8    0.36    0.55
  25  -5   8   27.75    1.64
 -25  -5  -8   24.58    2.29
 -25  -5  -8   30.43    2.13
  25   5   8   30.11    1.59
 -25   5  -8   26.86    1.96
 -27  -5  -8   -0.08    0.84
 -27  -5  -8    1.53    1.16
  27  -5   8    0.65    0.72
 -27   5  -8   -0.05    0.81
  27   5   8   -0.08    0.62
 -29  -5  -8    5.64    1.32
  29  -5   8    3.45    0.88
 -29   5  -8    5.54    1.21
  29   5   8    5.03    0.95
 -31  -5  -8    3.86    1.26
  31  -5   8    2.80    0.91
  31   5   8    0.97    0.79
 -31   5  -8    3.31    1.16
  30  -6  -8    3.31    1.23
  30  -6  -8    2.09    1.06
  30   6  -8    1.64    1.12
  30   6  -8    4.00    1.81
  28  -6  -8   14.57    1.79
  28  -6  -8   16.66    1.69
  28   6  -8   15.80    2.17
  28   6  -8   17.61    1.81
  26  -6  -8    6.64    1.26
  26  -6  -8    8.89    1.58
  26   6  -8    4.50    1.08
  26   6  -8    8.03    1.75
  24  -6  -8    4.00    1.23
  24  -6  -8    4.31    1.04
  24   6  -8    3.06    1.05
  24   6  -8    3.88    1.32
  22  -6  -8   20.10    1.91
  22  -6  -8   18.19    1.71
  22   6  -8   13.20    1.47
  22   6  -8   13.68    1.85
  20  -6  -8    6.86    1.20
  20  -6  -8    8.77    1.22
  20   6  -8   10.93    1.38
  20   6  -8    8.40    1.44
  18  -6  -8    7.52    1.26
  18  -6  -8   11.03    1.28
  18  -6  -8    8.14    1.17
  18   6  -8   11.62    1.56
  18   6  -8    9.31    1.24
  16  -6  -8   13.94    1.40
  16  -6  -8   14.17    1.45
  16  -6  -8   14.41    1.38
  16   6  -8   14.70    1.70
  16   6  -8   15.73    1.55
  14  -6  -8   25.65    1.77
  14  -6  -8   25.18    1.62
  14  -6  -8   26.78    1.79
  14   6  -8   27.57    1.86
  14   6  -8   28.24    2.07
  12  -6  -8   15.56    1.41
  12  -6  -8   15.77    1.43
  12  -6  -8   16.51    1.48
  12   6  -8   17.84    1.74
  10  -6  -8   19.49    1.37
  10  -6  -8   20.74    1.48
  10  -6  -8   18.59    1.39
  10   6  -8   16.62    1.57
   8  -6  -8   22.28    1.54
   8  -6  -8   23.86    1.54
   8  -6  -8   22.96    1.42
   8   6  -8   25.26    1.73
   6  -6  -8   19.25    1.62
   6  -6  -8   19.68    1.23
   6  -6  -8   19.24    1.46
   6   6  -8   16.64    1.53
   4  -6  -8   41.48    1.95
   4  -6  -8   42.30    2.11
   4  -6  -8   40.53    1.72
   4   6  -8   38.42    2.13
   2  -6  -8    4.22    0.73
   2  -6  -8    3.33    0.79
   2  -6  -8    4.77    0.62
   2   6  -8    5.94    1.03
   0  -6  -8    0.58    0.66
   0  -6  -8    1.74    0.62
   0  -6  -8    1.43    0.40
   0   6  -8    2.38    0.60
   0   6  -8    1.84    0.72
  -2  -6  -8   80.72    2.50
  -2  -6  -8   79.83    3.17
  -2  -6  -8   80.01    2.74
   2  -6   8   82.03    2.43
  -2  -6  -8   80.53    2.89
  -2   6  -8   84.23    2.92
  -2   6  -8   78.20    3.16
  -4  -6  -8    4.67    0.74
  -4  -6  -8    4.59    0.88
  -4  -6  -8    4.65    0.47
  -4  -6  -8    3.88    0.62
  -4   6  -8    7.10    0.85
  -6  -6  -8   26.76    1.40
  -6  -6  -8   24.25    1.37
  -6  -6  -8   28.04    1.79
  -6   6  -8   30.25    1.57
  -8  -6  -8    2.85    0.63
  -8  -6  -8    3.14    0.65
  -8  -6  -8    3.94    0.92
  -8   6  -8    8.28    0.92
 -10  -6  -8    8.50    0.86
 -10  -6  -8   11.10    1.02
 -10  -6  -8   11.47    1.35
 -10   6  -8    8.37    0.94
 -12  -6  -8    2.75    0.60
 -12  -6  -8    3.84    0.95
 -12  -6  -8    3.05    0.72
  12  -6   8    3.91    0.58
 -12   6  -8    4.81    0.78
  12   6   8    5.60    0.60
 -14  -6  -8   10.63    1.14
  14  -6   8   10.42    0.81
 -14  -6  -8   12.45    1.46
  14   6   8   15.45    0.98
 -14   6  -8   13.02    1.20
 -16  -6  -8   17.34    1.48
 -16  -6  -8   12.36    1.53
  16   6   8   13.15    0.98
 -16   6  -8   14.47    1.26
 -18  -6  -8   13.48    1.66
 -18  -6  -8   11.45    1.30
  18   6   8   13.12    1.32
 -18   6  -8    9.74    1.15
 -20  -6  -8    8.79    1.25
 -20  -6  -8    9.95    1.54
 -20   6  -8   10.23    1.20
  22  -6   8    0.48    0.62
 -22  -6  -8    1.71    0.88
 -22  -6  -8    0.81    1.01
 -22   6  -8    0.01    0.72
 -24  -6  -8    2.00    1.15
 -24  -6  -8    6.62    1.24
  24  -6   8    4.77    0.87
 -24   6  -8    5.57    1.13
 -26  -6  -8   11.63    1.82
  26  -6   8   14.25    1.30
 -26  -6  -8   13.59    1.64
 -26   6  -8   13.22    1.57
 -28  -6  -8    5.21    1.33
  28  -6   8    5.90    1.03
 -28  -6  -8    4.00    1.45
 -28   6  -8    3.50    1.10
 -30  -6  -8    1.37    1.19
  30  -6   8    2.25    0.89
 -30   6  -8    1.09    1.08
  29  -7  -8    1.65    0.97
  29   7  -8    2.48    1.14
  27  -7  -8    2.25    1.11
  27  -7  -8    1.26    0.99
  27   7  -8    3.21    1.03
  27   7  -8    1.65    1.26
  25  -7  -8    3.70    1.14
  25  -7  -8    3.94    1.25
  25   7  -8    5.22    1.47
  25   7  -8    5.55    1.23
  23  -7  -8    0.42    0.79
  23  -7  -8    0.89    1.02
  23   7  -8    1.23    0.84
  23   7  -8    1.32    1.20
  21  -7  -8   13.01    1.64
  21  -7  -8   12.48    1.52
  21   7  -8   10.48    1.38
  21   7  -8   12.88    1.84
  19  -7  -8   15.66    1.63
  19  -7  -8   19.75    1.74
  19  -7  -8   17.22    1.71
  19   7  -8   14.30    1.75
  19   7  -8   17.56    1.73
  17  -7  -8   11.13    1.32
  17  -7  -8    8.60    1.27
  17  -7  -8    9.95    1.24
  17   7  -8   11.97    1.65
  15  -7  -8   25.26    1.76
  15  -7  -8   24.37    1.68
  15  -7  -8   26.00    1.77
  15   7  -8   22.27    2.02
  13  -7  -8    2.72    0.85
  13  -7  -8    5.98    0.98
  13  -7  -8    4.05    0.89
  13   7  -8    2.65    1.00
  11  -7  -8   15.22    1.43
  11  -7  -8   14.88    1.44
  11  -7  -8   14.23    1.44
  11   7  -8   13.29    1.54
   9  -7  -8   13.86    1.29
   9  -7  -8   13.70    1.31
   9  -7  -8   16.07    1.50
   9   7  -8   17.94    1.68
   7  -7  -8    2.88    0.88
   7  -7  -8    3.43    0.84
   7  -7  -8    3.06    0.72
   7   7  -8    1.31    0.82
   5  -7  -8   19.50    1.51
   5  -7  -8   19.44    1.53
   5  -7  -8   17.14    1.22
   5   7  -8   21.51    1.80
  -3  -7   8    6.26    0.70
   3  -7  -8    5.20    0.69
   3  -7  -8    5.10    1.02
   3  -7  -8    5.26    0.91
   3   7  -8    8.57    1.23
   1  -7  -8    2.85    0.70
   1  -7  -8    2.59    0.86
  -1  -7   8    3.00    0.50
   1  -7  -8    1.80    0.46
   1   7  -8    2.14    0.65
   1   7  -8    2.57    0.82
  -1  -7  -8   17.37    0.94
  -1  -7  -8   17.89    1.60
   1  -7   8   17.51    0.90
  -1  -7  -8   17.24    1.39
  -1   7  -8   15.41    1.46
  -1   7  -8   17.50    1.27
  -3  -7  -8    1.03    0.70
  -3  -7  -8    1.66    0.57
  -3  -7  -8    1.73    0.63
  -3   7  -8    3.92    0.76
  -3   7  -8    3.02    0.83
  -5  -7  -8    4.99    0.78
  -5  -7  -8    5.69    1.01
  -5  -7  -8    6.87    0.90
  -5   7  -8    5.08    0.83
  -7  -7  -8   19.25    1.71
  -7  -7  -8   22.51    1.36
  -7  -7  -8   21.15    1.38
  -7   7  -8   22.76    1.46
   9  -7   8   25.32    1.31
  -9  -7  -8   23.48    1.44
  -9  -7  -8   26.76    1.59
  -9  -7  -8   29.58    1.97
  -9   7  -8   22.38    1.46
 -11  -7  -8    8.50    1.05
 -11  -7  -8    7.93    1.29
 -11  -7  -8    6.96    0.85
  11  -7   8    7.66    0.81
 -11   7  -8    5.93    0.88
 -13  -7  -8    1.03    0.81
 -13  -7  -8    0.86    0.64
  13  -7   8    0.10    0.45
 -13   7  -8    2.98    0.74
 -15  -7  -8   14.66    1.70
 -15  -7  -8   17.42    1.54
 -15   7  -8   17.45    1.48
 -17  -7  -8    2.07    0.84
 -17  -7  -8    2.35    0.95
 -17   7  -8    2.80    0.81
 -19  -7  -8   11.92    1.63
 -19  -7  -8   10.93    1.37
 -19   7  -8   12.81    1.38
 -21  -7  -8   10.49    1.71
 -21  -7  -8   10.17    1.40
 -21   7  -8   11.17    1.38
 -23  -7  -8   11.31    1.51
 -23  -7  -8   10.99    1.74
  23  -7   8    8.73    1.09
 -23   7  -8    9.79    1.32
  25  -7   8   13.27    1.36
 -25  -7  -8   11.93    1.62
 -25  -7  -8   13.11    1.97
 -25   7  -8   13.03    1.54
 -27  -7  -8   -1.97    1.07
 -27  -7  -8   -0.65    0.91
  27  -7   8   -0.80    0.67
 -27   7  -8    0.74    0.99
 -29  -7  -8    0.29    1.08
 -29  -7  -8    2.38    1.48
  29  -7   8   -0.83    0.78
 -29   7  -8    1.82    1.08
  26  -8  -8    8.82    1.52
 -26  -8   8    7.05    1.45
  26  -8  -8    8.09    1.40
  26   8  -8    7.81    1.80
  24  -8  -8    0.40    1.00
  24  -8  -8    0.73    1.06
 -24  -8   8    1.67    1.00
  24   8  -8    1.38    1.17
  22  -8  -8    2.63    1.00
  22  -8  -8    4.55    1.22
  22   8  -8    7.43    1.58
  20  -8  -8    8.19    1.35
  20  -8  -8    5.11    1.25
  20  -8  -8    7.65    1.26
  20   8  -8    3.34    1.21
  18  -8  -8   17.15    1.69
  18  -8  -8   17.09    1.80
  18  -8  -8   16.31    1.70
  18   8  -8   12.33    1.70
  16  -8  -8   18.45    1.68
  16  -8  -8   17.70    1.65
  16  -8  -8   17.03    1.76
  16   8  -8   18.20    1.99
  14  -8  -8    7.13    1.14
  14  -8  -8    5.77    1.05
  14  -8  -8    5.35    1.18
  14   8  -8    8.40    1.43
  12  -8  -8   13.26    1.44
  12  -8  -8   14.35    1.45
  12  -8  -8   12.76    1.37
 -12  -8   8   11.94    1.26
  12   8  -8    8.89    1.36
  10  -8  -8   24.93    1.66
  10  -8  -8   22.66    1.74
  10  -8  -8   25.34    1.80
 -10  -8   8   21.82    1.49
  10   8  -8   26.07    1.93
   8  -8  -8    2.12    0.89
   8  -8  -8    1.37    0.68
  -8  -8   8    0.25    0.60
   8  -8  -8    0.40    0.66
   8   8  -8   -0.15    0.70
   6  -8  -8   16.02    1.29
  -6  -8   8   13.09    1.10
   6  -8  -8   14.46    1.37
   6  -8  -8   13.93    1.48
   6   8  -8   10.00    1.30
   4  -8  -8    8.07    1.07
  -4  -8   8    9.43    0.90
   4  -8  -8    8.47    1.20
   4  -8  -8    8.65    0.93
   4   8  -8   10.70    1.32
  -2  -8   8   10.74    0.90
   2  -8  -8   10.85    1.19
   2  -8  -8   10.84    0.91
   2  -8  -8   11.16    1.35
   2   8  -8    9.14    1.16
   2   8  -8   11.96    1.36
   0  -8  -8   20.66    1.52
   0  -8  -8   21.90    1.68
   0   8  -8   19.17    1.44
   0   8  -8   20.11    1.70
  -2  -8  -8   16.40    1.63
  -2  -8  -8   16.04    1.42
  -2   8  -8   18.27    1.59
  -2   8  -8   17.37    1.44
  -4  -8  -8   17.25    1.44
  -4  -8  -8   18.27    1.76
  -4  -8  -8   15.88    1.30
  -4   8  -8   14.14    1.29
  -6  -8  -8   14.97    1.58
  -6  -8  -8   16.62    1.38
  -6  -8  -8   13.59    1.29
  -6   8  -8   13.43    1.32
  -8  -8  -8    4.61    0.87
  -8  -8  -8    3.23    1.01
   8  -8   8    4.00    0.74
  -8  -8  -8    3.75    0.85
  -8   8  -8    7.89    1.07
  10  -8   8    4.48    0.73
 -10  -8  -8    3.97    0.87
 -10  -8  -8    3.96    0.80
 -10  -8  -8    4.09    1.13
 -10   8  -8    4.62    0.91
 -12  -8  -8    4.47    0.81
 -12  -8  -8    4.33    1.08
  12  -8   8    2.50    0.65
 -12  -8  -8    3.71    0.89
 -12   8  -8    6.54    0.99
 -14  -8  -8   15.59    1.84
 -14  -8  -8   13.14    1.40
  14  -8   8   12.51    1.02
 -14   8  -8   16.82    1.49
 -16  -8  -8   11.20    1.37
 -16  -8  -8   12.32    1.64
 -16   8  -8   12.21    1.33
 -18  -8  -8    2.70    1.08
 -18  -8  -8    2.23    0.94
 -18   8  -8    0.49    0.72
 -20  -8  -8   25.11    2.39
 -20  -8  -8   26.96    2.04
 -20   8  -8   23.14    1.88
 -22  -8  -8    0.82    0.99
 -22  -8  -8    0.83    1.15
  22  -8   8    1.01    0.81
 -22   8  -8    1.09    0.89
 -24  -8  -8    2.32    1.23
 -24  -8  -8    0.20    1.05
  24  -8   8    2.49    0.93
 -24   8  -8    0.03    0.84
  26  -8   8    6.59    1.15
 -26  -8  -8    8.18    1.58
 -26  -8  -8    6.19    1.70
 -26   8  -8    5.26    1.24
  28  -8   8    0.94    1.03
 -28  -8  -8    0.75    1.13
 -28  -8  -8   -0.32    1.37
 -28   8  -8    0.88    1.06
  25  -9  -8    5.51    1.26
 -25  -9   8    7.07    1.48
  25  -9  -8    4.61    1.35
  25   9  -8    5.49    1.63
 -23  -9   8    5.95    1.28
  23  -9  -8    7.51    1.56
  23  -9  -8    6.09    1.36
  23   9  -8    4.80    1.45
  21  -9  -8    9.95    1.49
 -21  -9   8   12.98    1.62
  21  -9  -8   10.14    1.45
  21  -9  -8   12.61    1.79
  21   9  -8    8.36    1.65
  19  -9  -8    0.27    0.93
  19  -9  -8    1.97    1.07
  19  -9  -8   -0.44    0.84
 -19  -9   8    1.07    0.94
  19   9  -8    2.63    1.17
  17  -9  -8    3.74    1.15
 -17  -9   8    4.41    1.07
  17  -9  -8    2.52    0.94
  17  -9  -8    3.16    1.06
  17   9  -8    4.42    1.22
  15  -9  -8   10.89    1.50
 -15  -9   8    7.86    1.20
  15  -9  -8    9.70    1.40
  15  -9  -8    8.28    1.34
  15   9  -8    3.68    1.21
  13  -9  -8    1.48    0.95
  13  -9  -8   -0.24    0.79
  13  -9  -8    1.90    0.93
 -13  -9   8    0.83    0.75
  13   9  -8    1.80    0.93
  11  -9  -8    1.34    0.86
  11  -9  -8    2.74    0.87
 -11  -9   8    1.35    0.74
  11  -9  -8    2.15    0.88
  11   9  -8    4.12    1.14
   9  -9  -8   25.31    1.79
   9  -9  -8   26.97    1.93
   9  -9  -8   26.37    1.73
  -9  -9   8   24.16    1.62
   9   9  -8   23.02    2.01
   7  -9  -8    6.74    1.17
   7  -9  -8    7.97    1.27
  -7  -9   8    8.48    1.01
   7  -9  -8    6.58    0.98
   7   9  -8    9.15    1.39
   5  -9  -8    2.93    0.96
  -5  -9   8    5.00    0.78
   5  -9  -8    3.44    0.93
   5  -9  -8    3.44    0.76
   5   9  -8    4.47    1.12
   3  -9  -8   26.87    1.82
   3  -9  -8   26.27    1.92
   3   9  -8   23.15    1.97
   3   9  -8   22.22    1.71
   1  -9  -8    3.09    0.85
   1  -9  -8    3.13    0.96
   1   9  -8    5.40    1.07
   1   9  -8    4.88    0.98
  -1  -9  -8   14.14    1.45
  -1  -9  -8   14.70    1.65
  -1   9  -8   13.31    1.36
  -1   9  -8   16.06    1.61
  -3  -9  -8    5.92    1.21
  -3  -9  -8    5.19    1.01
  -3   9  -8    5.56    1.02
  -5  -9  -8    0.06    0.63
  -5  -9  -8    0.29    0.75
  -5  -9  -8    0.90    0.75
  -5   9  -8    0.40    0.67
  -7  -9  -8   18.54    1.90
   7  -9   8   16.81    1.30
  -7  -9  -8   15.73    1.47
  -7  -9  -8   16.48    1.48
  -7   9  -8   17.56    1.56
   9  -9   8    1.22    0.67
  -9  -9  -8    1.90    1.03
  -9  -9  -8    0.07    0.69
  -9  -9  -8    0.85    0.74
  -9   9  -8    2.93    0.86
 -11  -9  -8    0.56    0.71
 -11  -9  -8   -1.02    0.78
 -11  -9  -8   -0.70    0.69
  11  -9   8    0.48    0.56
 -11   9  -8   -0.35    0.67
 -13  -9  -8   17.23    1.89
 -13  -9  -8   14.41    1.53
  13  -9   8   15.45    1.22
 -13   9  -8   20.14    1.73
 -15  -9  -8    5.07    1.34
 -15  -9  -8    3.14    1.03
 -15   9  -8    4.90    1.02
 -17  -9  -8    8.26    1.54
 -17  -9  -8    8.96    1.35
 -17   9  -8   10.86    1.40
 -19  -9  -8    0.78    0.99
 -19  -9  -8    2.33    1.27
 -19   9  -8    1.22    0.88
  21  -9   8    9.46    1.28
 -21  -9  -8    9.49    1.75
 -21  -9  -8    9.50    1.54
 -21   9  -8    8.88    1.37
  23  -9   8    7.31    1.15
 -23  -9  -8    7.70    1.75
 -23  -9  -8   10.26    1.61
 -23   9  -8    7.81    1.34
 -25  -9  -8   -1.31    1.30
  25  -9   8   -0.17    0.76
 -25  -9  -8    1.61    1.12
 -25   9  -8    1.10    1.02
  24 -10  -8    3.16    1.46
  22 -10  -8    1.35    1.16
  22 -10  -8    0.61    0.94
 -22 -10   8   -0.80    0.89
  22  10  -8   -1.37    1.03
 -20 -10   8    1.48    1.08
  20 -10  -8    2.17    1.11
  20 -10  -8    2.50    1.16
  20 -10  -8    2.27    1.17
  20  10  -8    1.96    1.31
  18 -10  -8   -0.24    0.92
 -18 -10   8   -0.49    0.89
  18 -10  -8    0.35    0.95
  18 -10  -8   -0.12    0.98
  18  10  -8    0.28    0.98
  16 -10  -8    8.65    1.47
  16 -10  -8    8.01    1.41
  16 -10  -8   10.07    1.49
 -16 -10   8   10.32    1.43
  16  10  -8    5.50    1.41
  14 -10  -8   10.67    1.53
  14 -10  -8   11.54    1.51
 -14 -10   8   10.72    1.37
  14 -10  -8    7.65    1.37
  14  10  -8   13.15    1.78
 -12 -10   8    0.62    0.77
  12 -10  -8    1.16    0.91
  12 -10  -8    0.89    0.90
  12 -10  -8    0.05    0.83
  12  10  -8    2.15    1.08
  10 -10  -8    8.68    1.35
 -10 -10   8   10.98    1.27
  10 -10  -8    7.84    1.26
  10 -10  -8    8.93    1.25
  10  10  -8    6.94    1.40
   8 -10  -8   11.81    1.33
  -8 -10   8   10.25    1.17
   8 -10  -8    8.18    1.34
   8 -10  -8   10.50    1.44
   8  10  -8   11.83    1.61
   6 -10  -8    0.91    0.85
   6 -10  -8    0.13    0.95
   6  10  -8    1.54    0.98
   6  10  -8    1.07    0.91
   4 -10  -8    7.12    1.29
   4 -10  -8   10.92    1.38
   4  10  -8   13.29    1.63
   4  10  -8   14.45    1.56
   2 -10  -8   10.03    1.38
   2 -10  -8    4.42    1.21
   2  10  -8    5.32    1.08
   2  10  -8    6.60    1.20
   0 -10  -8    9.62    1.51
   0 -10  -8    8.59    1.26
   0  10  -8    9.89    1.42
   0  10  -8    7.74    1.23
  -2 -10  -8    5.79    1.31
  -2 -10  -8    4.55    1.07
  -2  10  -8    7.23    1.15
   4 -10   8    4.85    0.95
  -4 -10  -8    5.75    1.11
  -4 -10  -8    6.66    1.29
  -4  10  -8    6.15    1.09
  -6 -10  -8    9.02    1.45
  -6 -10  -8    8.15    1.21
   6 -10   8    9.64    1.15
  -6 -10  -8    7.93    1.22
  -6  10  -8    8.22    1.24
  -8 -10  -8    8.80    1.29
   8 -10   8   11.58    1.22
  -8 -10  -8    9.94    1.31
  -8 -10  -8   12.03    1.64
  -8  10  -8   16.55    1.62
 -10 -10  -8    7.46    1.42
 -10 -10  -8    6.10    1.19
 -10 -10  -8    7.25    1.17
  10 -10   8    5.90    0.95
 -10  10  -8    7.41    1.18
 -12 -10  -8   12.19    1.84
  12 -10   8   11.06    1.14
 -12 -10  -8   13.20    1.52
 -12  10  -8   12.60    1.50
 -14 -10  -8   10.35    1.49
 -14 -10  -8   11.61    1.75
  14 -10   8   11.81    1.31
 -14  10  -8   10.92    1.44
 -16 -10  -8    1.01    1.08
 -16 -10  -8    1.92    1.08
 -16  10  -8    3.70    1.09
 -18 -10  -8    5.14    1.33
 -18 -10  -8    4.88    1.43
 -18  10  -8    6.63    1.25
 -20 -10  -8    1.08    1.13
  20 -10   8    0.87    0.79
 -20 -10  -8    3.09    1.49
 -20  10  -8    1.31    0.99
  22 -10   8    2.42    1.10
 -22 -10  -8    0.20    1.04
 -22 -10  -8    2.39    1.57
 -22  10  -8    1.65    1.12
 -24 -10  -8    3.67    1.55
  21 -11  -8    1.89    1.20
  21 -11  -8    6.44    1.53
 -21 -11   8    4.28    1.30
  21  11  -8   10.05    1.77
 -19 -11   8    1.32    1.09
  19 -11  -8    0.04    0.96
  19 -11  -8   -1.90    0.96
  19  11  -8   -0.06    1.18
  17 -11  -8    3.61    1.23
  17 -11  -8    1.68    1.07
  17 -11  -8    3.30    1.20
 -17 -11   8    1.93    1.07
  17  11  -8    1.93    1.19
  15 -11  -8   11.66    1.65
 -15 -11   8   13.35    1.62
  15 -11  -8   12.02    1.62
  15 -11  -8    9.31    1.56
  15  11  -8   14.89    1.95
  13 -11  -8    0.73    1.04
  13 -11  -8    2.76    1.07
  13 -11  -8    1.15    0.99
 -13 -11   8    0.96    0.89
  13  11  -8    1.44    1.16
 -11 -11   8    0.80    0.86
  11 -11  -8    1.41    1.03
  11 -11  -8    1.44    0.95
  11  11  -8    0.28    1.00
   9 -11  -8    3.49    1.14
   9 -11  -8    2.96    1.04
   9  11  -8    1.40    1.08
   7 -11  -8   21.35    1.93
   7 -11  -8   23.28    2.20
   7  11  -8   24.19    2.11
   7  11  -8   18.45    1.89
   5 -11  -8   17.97    1.88
   5 -11  -8   18.46    1.81
   5  11  -8   20.99    2.03
   5  11  -8   21.17    1.96
   3 -11  -8   12.08    1.48
   3 -11  -8    9.16    1.46
   3  11  -8    6.58    1.31
   3  11  -8    4.99    1.15
   1 -11  -8    6.24    1.26
   1 -11  -8    6.86    1.36
   1  11  -8    6.00    1.22
   1  11  -8    4.82    1.16
  -1 -11  -8    0.79    1.05
   1 -11   8    0.53    0.81
  -1 -11  -8    0.15    0.75
  -1  11  -8    0.10    0.83
   3 -11   8   12.81    1.31
  -3 -11  -8   16.08    1.83
  -3 -11  -8   10.81    1.42
  -3  11  -8   13.06    1.53
  -5 -11  -8    9.98    1.43
  -5 -11  -8    8.07    1.48
   5 -11   8   10.78    1.29
  -5  11  -8   11.50    1.51
  -7 -11  -8    5.50    1.15
   7 -11   8    5.05    0.98
  -7 -11  -8    6.25    1.22
  -7 -11  -8    7.05    1.43
  -7  11  -8    5.91    1.21
  -9 -11  -8    7.53    1.28
   9 -11   8    7.80    1.09
  -9 -11  -8    5.64    1.38
  -9 -11  -8    8.26    1.30
  -9  11  -8    7.80    1.32
  11 -11   8    6.76    1.05
 -11 -11  -8    7.00    1.49
 -11 -11  -8    8.38    1.36
 -11  11  -8    6.65    1.24
 -13 -11  -8    1.91    1.07
 -13 -11  -8    3.78    1.34
  13 -11   8    5.34    0.96
 -13  11  -8    3.48    1.06
 -15 -11  -8    1.91    1.22
 -15 -11  -8   -0.35    0.94
 -15  11  -8    0.16    0.90
 -17 -11  -8    1.78    1.25
 -17 -11  -8    1.72    1.15
 -17  11  -8    1.90    1.08
 -19 -11  -8    7.91    2.07
 -19 -11  -8    9.88    1.68
 -19  11  -8    6.72    1.43
 -21 -11  -8   -2.55    1.80
 -16 -12   8    0.96    1.04
  16 -12  -8   -0.22    1.03
  16  12  -8    1.58    1.27
  14 -12  -8    7.72    1.53
  14 -12  -8    8.88    1.76
  14  12  -8    5.77    1.48
  12 -12  -8    5.53    1.34
  12 -12  -8    4.02    1.15
  12  12  -8    5.67    1.46
  10 -12  -8   11.74    1.75
  10 -12  -8    9.55    1.58
  10  12  -8   11.99    1.76
   8 -12  -8    3.80    1.19
   8 -12  -8    3.77    1.25
   8  12  -8    2.18    1.01
   8  12  -8    5.31    1.35
   6 -12  -8    3.71    1.39
   6 -12  -8    2.89    1.09
   6  12  -8    0.91    0.95
   6  12  -8   -0.15    1.02
   4 -12  -8   13.33    1.71
   4 -12  -8   15.92    1.96
   4  12  -8    9.73    1.49
   4  12  -8   13.95    1.77
   2 -12  -8    5.67    1.31
   2 -12  -8    3.95    1.29
  -2 -12   8    3.92    1.04
   2  12  -8    4.53    1.24
   0 -12  -8    2.21    1.23
   0 -12   8    0.11    0.87
   0 -12  -8    0.01    0.94
   0  12  -8   -0.56    0.88
  -2 -12  -8   17.56    2.00
   2 -12   8   16.36    1.56
  -2 -12  -8   17.57    1.86
  -2  12  -8   17.43    1.90
   4 -12   8    3.29    1.01
  -4 -12  -8    3.90    1.28
  -4 -12  -8    1.72    1.07
  -4  12  -8    1.55    1.00
   6 -12   8    2.53    0.88
  -6 -12  -8    2.42    1.23
  -6 -12  -8    0.53    0.93
  -6  12  -8    0.54    0.96
   8 -12   8    4.46    1.02
  -8 -12  -8    5.28    1.27
  -8 -12  -8    3.52    1.34
  -8  12  -8    5.69    1.31
  10 -12   8    0.59    0.80
 -10 -12  -8    0.52    1.05
 -10 -12  -8   -0.46    1.05
 -10  12  -8    1.54    0.99
  12 -12   8    3.49    0.94
 -12 -12  -8    1.42    1.35
 -12 -12  -8    1.60    1.10
 -12  12  -8    1.77    1.14
 -14 -12  -8    2.50    1.20
 -14 -12  -8    2.35    1.49
 -14  12  -8    2.77    1.17
 -16 -12  -8    2.27    1.29
 -16  12  -8    3.00    1.24
  11  13  -8    3.48    1.36
  11  13  -8    2.47    1.27
   9 -13  -8    3.65    1.48
   9  13  -8    2.33    1.24
   9  13  -8    4.28    1.34
   7 -13  -8    3.38    1.18
   7 -13  -8    1.48    1.25
  -7 -13   8    5.09    2.02
   7  13  -8    3.14    1.22
   7  13  -8    3.28    1.26
   5 -13  -8    5.30    1.46
   5 -13  -8    4.29    1.29
  -5 -13   8    4.54    1.22
   5  13  -8    5.57    1.39
   5  13  -8    6.86    1.42
   3 -13  -8    1.08    1.09
  -3 -13   8   -0.39    0.92
   3 -13  -8    1.65    1.20
   3  13  -8   -1.20    0.96
   1 -13  -8    0.38    1.25
   1 -13  -8   -1.14    1.01
  -1 -13   8   -0.69    0.82
   1  13  -8    0.24    0.96
  -1 -13  -8    6.39    1.62
   1 -13   8    5.14    1.26
  -1 -13  -8    6.79    1.42
  -1  13  -8    4.71    1.33
  -3 -13  -8    1.17    1.32
   3 -13   8    0.84    0.96
  -3 -13  -8    0.83    1.10
  -3  13  -8    0.93    1.08
   5 -13   8    0.65    0.93
  -5 -13  -8    0.99    1.12
  -5 -13  -8   -0.11    1.21
  -5  13  -8    2.42    1.16
   7 -13   8    2.20    0.89
  -7 -13  -8    2.01    1.16
  -7  13  -8    1.27    1.11
   9 -13   8    4.94    1.11
  -9  13  -8    4.53    1.30
  11 -13   8    0.63    0.91
 -11  13  -8    0.52    1.10
  32   0  -9    1.41    1.17
  32   0  -9   -1.90    1.31
  30   0  -9    6.36    1.33
  30   0  -9    3.69    1.48
  28   0  -9    0.54    0.91
  28   0  -9   -0.68    0.95
  26   0  -9    2.85    1.31
  26   0  -9    3.16    1.06
  24   0  -9    7.96    1.52
  24   0  -9    8.76    1.22
  24   0  -9   10.20    1.44
  22   0  -9    0.86    0.95
  22   0  -9    0.34    0.73
  22   0  -9    0.89    0.69
  20   0  -9   13.40    1.59
  20   0  -9   16.01    1.60
  20   0  -9   14.13    1.32
  18   0  -9    3.70    0.80
  18   0  -9    5.91    1.13
  18   0  -9    3.44    0.88
  16   0  -9    1.40    0.70
  16   0  -9    2.13    0.84
  16   0  -9    1.54    0.65
  14   0  -9   62.89    2.63
  14   0  -9   61.62    2.72
  14   0  -9   59.92    2.10
  14   0  -9   60.88    2.45
  12   0  -9    5.29    0.80
  12   0  -9    7.47    0.63
  12   0  -9    8.25    1.05
  12   0  -9    8.60    1.11
  10   0  -9    2.17    0.69
  10   0  -9    1.44    0.65
  10   0  -9    0.05    0.50
  10   0  -9    0.99    0.30
   8   0  -9   12.18    1.17
   8   0  -9   10.70    1.05
   8   0  -9    9.76    0.97
   8   0  -9   11.01    0.60
   6   0  -9   31.00    1.50
   6   0  -9   29.98    1.55
   6   0  -9   30.15    1.01
   6   0  -9   30.01    1.65
   4   0  -9   31.37    0.97
   4   0  -9   35.52    1.62
   4   0  -9   32.51    1.47
   4   0  -9   28.79    1.64
   2   0  -9    1.33    0.49
   2   0  -9    0.52    0.44
   2   0  -9   -0.19    0.44
   2   0  -9    1.27    0.43
   0   0  -9  154.22    4.52
   0   0  -9  142.74    4.60
   0   0  -9  146.19    4.42
   0   0  -9  143.11    4.34
  -2   0  -9   40.78    1.22
  -2   0  -9   41.46    1.86
  -2   0  -9   45.79    1.73
  -4   0  -9   12.58    0.56
  -4   0  -9   10.51    0.82
  -6   0  -9   56.76    1.75
  -6   0  -9   55.99    2.03
  -8   0  -9   15.96    0.96
  -8   0  -9   16.39    0.81
 -10   0  -9   18.08    0.95
 -10   0  -9   19.47    1.05
 -12   0  -9    5.08    0.60
 -12   0  -9    6.04    0.66
 -14   0  -9    0.39    0.38
 -14   0  -9    0.25    0.40
 -16   0  -9   46.46    1.93
 -18   0  -9    2.76    0.66
 -20   0  -9    1.61    0.68
 -22   0  -9   12.10    1.23
 -24   0  -9    0.45    0.72
 -26   0  -9    0.88    0.85
 -28   0  -9    4.59    1.09
 -30   0  -9    5.08    1.23
 -32   0  -9    1.68    1.13
  33  -1  -9    0.69    1.46
  31  -1  -9    7.20    1.75
  31  -1  -9    8.74    1.52
  31   1  -9    4.86    1.57
  31   1  -9    6.70    1.34
  29  -1  -9   13.21    1.71
  29  -1  -9    9.39    1.84
  29  -1  -9   12.94    1.54
  29   1  -9    9.79    1.84
  29   1  -9    9.75    1.61
  27  -1  -9    8.53    1.45
  27  -1  -9    8.38    1.60
  27  -1  -9    6.84    1.11
  27   1  -9    6.70    1.61
  27   1  -9    5.26    1.17
  25  -1  -9   15.93    1.76
  25  -1  -9   12.48    1.37
  25  -1  -9   13.16    1.75
  25   1  -9   21.62    1.97
  25   1  -9   14.83    1.91
  23  -1  -9   22.04    1.58
  23  -1  -9   18.67    1.76
  23  -1  -9   21.44    2.10
  23   1  -9   16.05    1.92
  23   1  -9   16.70    1.67
  21  -1  -9   24.32    2.13
  21  -1  -9   19.05    1.57
  21  -1  -9   22.09    1.88
  21   1  -9   20.86    1.86
  21   1  -9   23.14    2.15
  19  -1  -9   26.00    1.75
  19  -1  -9   22.67    1.53
  19  -1  -9   24.73    1.89
  19   1  -9   25.73    1.77
  19   1  -9   27.94    2.10
  17  -1  -9   28.18    1.87
  17  -1  -9   23.76    1.73
  17  -1  -9   26.23    1.65
  17   1  -9   22.33    1.61
  17   1  -9   26.69    1.84
  15  -1  -9   31.22    1.91
  15  -1  -9   36.90    1.93
  15  -1  -9   35.30    1.78
  15   1  -9   32.15    1.94
  15   1  -9   30.62    1.80
  13  -1  -9   29.75    1.61
  13  -1  -9   27.81    1.67
  13  -1  -9   32.47    1.31
  13   1  -9   35.09    1.87
  13   1  -9   33.77    1.99
  13   1  -9   34.49    1.42
  11  -1  -9    2.95    0.68
  11  -1  -9    3.00    0.65
  11  -1  -9    2.55    0.68
  11  -1  -9    2.58    0.41
  11   1  -9    5.24    0.93
  11   1  -9    3.57    0.77
  11   1  -9    3.96    0.48
   9  -1  -9    6.60    0.88
   9  -1  -9    7.69    0.55
   9  -1  -9    6.09    0.85
   9  -1  -9    7.19    0.86
   9   1  -9   10.06    1.05
   9   1  -9   10.61    1.16
   9   1  -9    9.88    0.65
   7  -1  -9  104.87    3.61
   7  -1  -9  101.92    3.48
   7  -1  -9  108.45    2.97
   7  -1  -9  110.35    3.63
   7   1  -9  118.35    3.99
   7   1  -9  112.58    3.86
   7   1  -9  112.68    3.22
   5  -1  -9   23.16    1.37
   5  -1  -9   24.04    1.42
   5  -1  -9   24.71    1.30
   5  -1  -9   24.31    1.34
   5  -1  -9   25.15    0.82
   5   1  -9   32.36    1.66
   5   1  -9   30.23    1.05
   5   1  -9   29.73    1.70
   3  -1  -9    9.78    0.88
   3  -1  -9   11.32    0.99
   3  -1  -9    9.06    0.95
   3  -1  -9   10.61    0.94
   3   1  -9   17.57    1.17
   3   1  -9   18.46    0.70
   3   1  -9   17.11    1.25
   1  -1  -9   69.99    2.58
   1  -1  -9   68.23    2.41
   1  -1  -9   67.88    2.48
   1  -1  -9   69.41    2.52
   1   1  -9   57.57    1.70
   1   1  -9   63.40    2.36
   1   1  -9   55.43    2.37
   1   1  -9   60.01    1.73
  -1  -1  -9   11.83    1.04
  -1  -1  -9   11.06    0.87
  -1  -1  -9   10.53    0.95
  -1  -1  -9    9.94    0.87
  -1   1  -9    9.93    0.49
  -1   1  -9    9.41    0.50
  -1   1  -9    8.70    1.02
  -3  -1  -9   46.88    1.38
  -3  -1  -9   46.88    1.91
  -3  -1  -9   48.25    1.77
  -3   1  -9   43.14    1.63
  -3   1  -9   42.35    1.35
  -5  -1  -9   45.04    1.83
  -5  -1  -9   42.17    1.39
  -5  -1  -9   45.05    1.63
  -5   1  -9   45.76    1.65
  -5   1  -9   43.40    1.46
  -7  -1  -9    3.58    0.62
  -7  -1  -9    3.53    0.42
  -7   1  -9    3.23    0.41
  -7   1  -9    3.96    0.52
  -9  -1  -9   67.89    2.16
  -9  -1  -9   65.09    2.39
  -9   1  -9   64.16    2.05
  -9   1  -9   59.44    2.03
 -11  -1  -9   24.92    1.17
 -11  -1  -9   25.14    1.32
 -11   1  -9   25.42    1.21
 -11   1  -9   28.04    1.14
 -13  -1  -9   13.36    0.93
 -13  -1  -9   11.10    0.96
 -13   1  -9   11.26    0.87
 -13   1  -9   12.80    1.18
 -15  -1  -9   39.24    1.73
 -15  -1  -9   37.61    1.69
 -15   1  -9   30.62    1.48
 -17  -1  -9   17.83    1.20
 -17  -1  -9   17.33    1.23
 -17   1  -9   16.99    1.17
 -19  -1  -9    7.20    0.93
 -19   1  -9    6.22    0.86
 -21  -1  -9    5.02    0.89
  21  -1   9    6.27    0.71
 -21   1  -9    6.27    0.97
 -23  -1  -9   13.33    1.33
 -23   1  -9   12.55    1.30
 -25  -1  -9    3.09    0.94
 -25   1  -9    4.89    1.02
 -27  -1  -9    4.99    1.10
 -27   1  -9    4.53    1.08
 -29  -1  -9    0.64    0.93
 -29   1  -9    1.41    0.96
 -31  -1  -9    1.32    1.04
 -31   1  -9    0.21    0.98
  31   1   9   -0.78    0.76
 -33  -1  -9    1.91    1.18
 -33   1  -9    0.48    1.06
  32  -2  -9    3.21    1.55
  32  -2  -9    6.37    1.26
  32  -2  -9    5.37    1.52
  32   2  -9    3.23    1.75
  32   2  -9    4.39    1.23
  30  -2  -9    1.69    1.00
  30  -2  -9    2.53    1.25
  30  -2  -9    1.51    1.08
  30   2  -9    0.95    1.27
  30   2  -9    2.17    1.03
  28  -2  -9    4.62    1.34
  28  -2  -9    4.85    1.24
  28  -2  -9    4.84    1.07
  28   2  -9    6.10    1.36
  28   2  -9    8.66    1.83
  26  -2  -9    3.04    1.28
  26  -2  -9    2.24    1.11
  26  -2  -9    4.67    0.99
  26   2  -9    2.98    1.25
  26   2  -9    2.79    1.03
  24  -2  -9   16.04    1.87
  24  -2  -9   14.30    1.59
  24  -2  -9   17.23    1.56
  24   2  -9   10.69    1.70
  24   2  -9   12.26    1.49
  22  -2  -9    5.90    1.21
  22  -2  -9    3.71    0.90
  22  -2  -9    4.74    1.17
  22   2  -9    4.31    1.22
  22   2  -9    4.13    1.02
  20  -2  -9   11.03    1.24
  20  -2  -9   12.35    1.48
  20  -2  -9    9.33    1.28
  20   2  -9    8.68    1.41
  20   2  -9   10.92    1.33
  18  -2  -9   11.91    1.34
  18  -2  -9   11.51    1.23
  18  -2  -9   16.77    1.59
  18   2  -9   17.84    1.82
  18   2  -9   18.99    1.63
  16  -2  -9   10.59    1.24
  16  -2  -9    8.76    1.13
  16  -2  -9    8.94    1.16
  16   2  -9   10.53    1.23
  16   2  -9    6.99    1.15
  14  -2  -9   18.45    1.49
  14  -2  -9   16.11    1.13
  14  -2  -9   17.93    1.47
  14  -2  -9   17.35    1.41
  14   2  -9   12.34    1.29
  14   2  -9   13.37    1.45
  12  -2  -9   60.54    2.51
  12  -2  -9   59.32    2.47
  12  -2  -9   59.31    2.46
  12  -2  -9   60.80    2.04
  12   2  -9   70.71    2.95
  12   2  -9   76.04    3.08
  12   2  -9   74.24    2.42
  10  -2  -9    8.85    1.04
  10  -2  -9    8.05    0.95
  10  -2  -9    7.69    0.96
  10  -2  -9    9.58    0.65
  10   2  -9    9.63    1.15
  10   2  -9    7.54    1.05
  10   2  -9    9.31    0.70
   8  -2  -9   51.01    2.17
   8  -2  -9   54.53    2.22
   8  -2  -9   55.38    2.30
   8  -2  -9   57.62    2.30
   8  -2  -9   53.02    1.72
   8   2  -9   60.14    1.97
   8   2  -9   62.63    2.53
   8   2  -9   60.92    2.64
   6  -2  -9   29.03    1.61
   6  -2  -9   32.05    1.55
   6  -2  -9   30.92    1.56
   6  -2  -9   33.75    1.57
   6  -2  -9   30.53    1.07
   6   2  -9   25.61    1.59
   6   2  -9   25.96    1.50
   6   2  -9   26.26    1.05
   4  -2  -9    5.55    0.72
   4  -2  -9    4.83    0.78
   4  -2  -9    5.41    0.39
   4  -2  -9    5.76    0.79
   4  -2  -9    4.96    0.69
   4   2  -9    6.17    0.87
   4   2  -9    4.53    0.83
   4   2  -9    4.65    0.44
   2  -2  -9  178.65    5.28
   2  -2  -9  175.69    5.41
   2  -2  -9  182.65    5.29
   2  -2  -9  178.24    5.33
   2   2  -9  178.63    5.68
   2   2  -9  184.75    4.95
   0  -2  -9   61.31    2.24
   0  -2  -9   60.19    2.17
   0  -2  -9   54.73    2.12
   0  -2  -9   59.26    2.34
   0   2  -9   44.86    1.51
   0   2  -9   48.02    2.17
   0   2  -9   45.68    1.52
  -2  -2  -9   19.14    1.06
  -2  -2  -9   18.63    1.23
  -2  -2  -9   19.19    0.71
  -2  -2  -9   20.13    1.11
  -2   2  -9   16.53    0.78
  -2   2  -9   14.49    1.27
  -4  -2  -9   35.40    1.47
  -4  -2  -9   35.42    1.67
  -4  -2  -9   34.65    1.18
  -4   2  -9   39.67    1.40
  -6  -2  -9   14.33    0.76
  -6  -2  -9   16.42    1.12
  -6  -2  -9   16.55    0.91
  -6   2  -9   13.53    0.78
  -8  -2  -9    1.00    0.51
  -8  -2  -9    1.08    0.35
  -8  -2  -9    0.79    0.33
  -8   2  -9    1.77    0.40
 -10  -2  -9   20.02    1.29
 -10  -2  -9   23.34    1.11
 -10  -2  -9   23.34    0.96
 -10   2  -9   18.36    1.01
 -12  -2  -9   26.11    1.44
 -12  -2  -9   26.07    1.27
 -12   2  -9   29.28    1.35
 -14  -2  -9   18.08    1.28
 -14  -2  -9   19.41    1.19
 -14   2  -9   24.46    1.32
 -16  -2  -9   11.58    1.03
 -16  -2  -9   10.06    1.07
 -16   2  -9    5.01    0.74
 -18  -2  -9   21.94    1.47
 -18  -2  -9   22.86    1.43
 -18   2  -9   22.84    1.40
 -20  -2  -9   39.48    2.00
 -20  -2  -9   38.84    2.07
 -20   2  -9   39.88    1.95
  22  -2   9   11.37    0.96
 -22  -2  -9    8.86    1.16
 -22   2  -9    7.26    1.03
  24  -2   9    0.93    0.82
 -24  -2  -9    1.58    0.82
 -24   2  -9    1.84    0.83
 -26  -2  -9    4.11    1.04
 -26   2  -9    2.77    0.98
 -28  -2  -9    7.59    1.31
 -28   2  -9   12.17    1.54
 -30  -2  -9   -0.02    0.97
 -30   2  -9    0.63    0.98
  30   2   9    2.39    0.90
 -32  -2  -9    6.36    1.43
  32   2   9    7.85    1.19
 -32   2  -9    8.24    1.45
  31  -3  -9    1.02    1.08
  31  -3  -9   -0.19    1.15
  31  -3  -9    2.13    1.06
  31   3  -9    1.41    1.43
  31   3  -9    0.96    1.12
  29  -3  -9    9.12    1.53
  29  -3  -9    4.05    1.48
  29  -3  -9    6.85    1.27
  29   3  -9    9.99    1.57
  29   3  -9    6.40    1.66
  27  -3  -9    0.25    0.93
  27  -3  -9    0.80    1.07
  27  -3  -9   -0.33    0.86
  27   3  -9    4.10    1.13
  27   3  -9    0.98    1.33
  25  -3  -9   15.65    1.86
  25  -3  -9   19.46    1.81
  25  -3  -9   21.39    2.03
  25   3  -9   17.00    2.19
  25   3  -9   17.32    1.87
  23  -3  -9    1.64    0.99
  23  -3  -9    0.92    0.95
  23  -3  -9    2.27    0.88
  23   3  -9    4.22    1.26
  23   3  -9    3.81    1.12
  21  -3  -9    2.64    0.81
  21  -3  -9    0.44    0.78
  21  -3  -9    1.99    0.89
  21   3  -9    1.88    0.85
  21   3  -9    0.28    0.88
  19  -3  -9   36.52    2.11
  19  -3  -9   32.39    1.96
  19  -3  -9   36.46    2.19
  19   3  -9   36.96    2.46
  19   3  -9   33.26    2.13
  17  -3  -9    1.24    0.82
  17  -3  -9    1.01    0.71
  17  -3  -9    1.05    0.69
  17   3  -9    1.38    0.86
  17   3  -9    1.42    0.76
  15  -3  -9    1.91    0.70
  15  -3  -9    4.75    0.97
  15  -3  -9    2.68    0.74
  15   3  -9    2.13    0.86
  15   3  -9    2.05    0.86
  13  -3  -9   10.12    1.08
  13  -3  -9   11.69    1.19
  13  -3  -9    9.57    1.13
  13  -3  -9    9.70    0.94
  13   3  -9   12.60    1.42
  13   3  -9   13.63    1.38
  11  -3  -9    8.60    0.98
  11  -3  -9    9.94    0.76
  11  -3  -9    9.26    1.13
  11  -3  -9   10.36    1.04
  11  -3  -9    8.26    1.02
  11   3  -9   11.10    0.84
  11   3  -9   12.85    1.35
  11   3  -9    9.62    1.13
   9  -3  -9   33.70    1.65
   9  -3  -9   32.04    1.25
   9  -3  -9   27.22    1.48
   9  -3  -9   31.62    1.68
   9  -3  -9   26.07    1.58
   9   3  -9   33.51    1.38
   9   3  -9   31.65    1.93
   9   3  -9   35.00    1.88
   7  -3  -9   11.36    1.00
   7  -3  -9   11.99    1.14
   7  -3  -9   11.96    0.70
   7  -3  -9   12.07    1.12
   7  -3  -9    9.55    0.98
   7   3  -9    5.29    0.98
   7   3  -9    5.74    0.92
   7   3  -9    4.88    0.54
   5  -3  -9   16.97    1.20
   5  -3  -9   18.49    1.15
   5  -3  -9   16.41    1.15
   5  -3  -9   19.40    0.84
   5  -3  -9   18.09    1.27
   5   3  -9   19.46    0.94
   5   3  -9   20.28    1.45
   5   3  -9   18.71    1.39
   3  -3  -9   80.87    2.75
   3  -3  -9   85.09    2.78
   3  -3  -9   81.23    2.97
   3  -3  -9   72.59    2.74
   3   3  -9   81.53    3.13
   3   3  -9   76.08    2.43
   1  -3  -9    4.79    0.67
   1  -3  -9    6.46    0.72
   1  -3  -9    4.34    0.80
   1  -3  -9    3.79    0.61
   1   3  -9    0.75    0.33
   1   3  -9    1.41    0.63
   1   3  -9    0.93    0.35
  -1  -3  -9    4.55    0.62
  -1  -3  -9    3.77    0.64
  -1  -3  -9    3.51    0.68
  -1  -3  -9    3.70    0.38
  -1   3  -9    5.70    0.56
  -1   3  -9    5.07    0.87
  -1   3  -9    5.47    0.54
  -3  -3  -9    9.05    0.76
  -3  -3  -9    6.81    0.73
  -3  -3  -9    8.24    0.98
  -3  -3  -9    9.00    0.59
  -3   3  -9    7.96    0.65
  -3   3  -9    7.35    0.97
  -5  -3  -9   52.04    2.17
  -5  -3  -9   46.28    1.64
  -5  -3  -9   51.09    1.86
  -5   3  -9   56.55    1.93
  -7  -3  -9    6.95    0.62
  -7  -3  -9    7.58    0.92
  -7  -3  -9    7.30    0.69
  -7   3  -9    6.32    0.63
  -9  -3  -9   14.10    0.89
  -9  -3  -9   12.50    0.79
  -9  -3  -9   11.57    1.12
  -9   3  -9   14.95    0.93
 -11  -3  -9    9.62    0.67
 -11  -3  -9   10.08    0.86
 -11  -3  -9   12.05    1.16
 -11   3  -9   14.45    0.98
 -13  -3  -9    8.29    0.84
 -13  -3  -9   10.30    1.12
 -13   3  -9    9.62    0.89
 -15  -3  -9    9.52    0.94
 -15  -3  -9    7.59    1.03
 -15   3  -9    7.82    0.85
 -17  -3  -9   11.07    1.07
 -17  -3  -9    9.78    1.16
 -17   3  -9   11.22    1.05
 -19  -3  -9    1.06    0.72
 -19  -3  -9    0.12    0.60
 -19   3  -9    0.48    0.60
 -21  -3  -9    6.24    1.10
 -21  -3  -9    5.53    0.97
 -21   3  -9    2.48    0.77
 -23  -3  -9   11.93    1.35
  23  -3   9   13.90    1.13
 -23   3  -9    9.70    1.19
 -25  -3  -9    4.39    1.04
  25  -3   9    4.38    0.77
 -25   3  -9    3.81    0.98
 -27  -3  -9    9.97    1.40
 -27   3  -9   13.13    1.51
  27   3   9   14.70    1.32
 -29  -3  -9    0.59    0.97
 -29   3  -9    0.09    0.94
  29   3   9    0.23    0.73
 -31  -3  -9    2.31    1.16
 -31   3  -9    1.59    1.06
  31   3   9    1.20    0.86
  30  -4  -9    5.77    1.59
  30  -4  -9    7.56    1.53
  30  -4  -9    9.51    1.47
  30   4  -9    5.75    1.69
  30   4  -9    8.44    1.51
  28  -4  -9   12.90    1.83
  28  -4  -9   10.96    1.54
  28  -4  -9    9.90    1.74
  28   4  -9    8.69    1.92
  28   4  -9   11.50    1.66
  26  -4  -9    8.10    1.43
  26  -4  -9    3.41    1.22
  26  -4  -9    7.51    1.31
  26   4  -9    6.59    1.59
  26   4  -9    6.00    1.31
  24  -4  -9   13.41    1.55
  24  -4  -9   13.44    1.68
  24  -4  -9   15.95    1.77
  24   4  -9   16.84    2.08
  24   4  -9   15.37    1.73
  22  -4  -9    2.06    0.91
  22  -4  -9    3.99    1.08
  22  -4  -9    2.87    0.88
  22   4  -9    1.52    1.03
  22   4  -9    0.98    0.86
  20  -4  -9    9.57    1.29
  20  -4  -9   11.05    1.30
  20  -4  -9   12.06    1.51
  20   4  -9   11.89    1.70
  20   4  -9    9.74    1.31
  18  -4  -9   16.58    1.49
  18  -4  -9   18.23    1.68
  18  -4  -9   19.48    1.60
  18   4  -9   19.75    1.93
  18   4  -9   21.02    1.81
  16  -4  -9    6.14    0.99
  16  -4  -9    7.52    1.18
  16  -4  -9    5.41    0.92
  16   4  -9    6.82    1.10
  16   4  -9    8.88    1.31
  14  -4  -9    6.96    0.91
  14  -4  -9    5.26    0.98
  14  -4  -9    5.18    0.89
  14  -4  -9    5.13    0.95
  14   4  -9    5.19    1.09
  14   4  -9    5.93    1.07
  12  -4  -9   20.53    1.40
  12  -4  -9   18.85    1.58
  12  -4  -9   19.23    1.27
  12  -4  -9   19.71    1.42
  12   4  -9   18.33    1.67
  12   4  -9   16.77    1.47
  10  -4  -9    1.65    0.73
  10  -4  -9    1.37    0.44
  10  -4  -9    1.87    0.56
  10  -4  -9    2.30    0.73
  10  -4  -9    1.52    0.68
  10   4  -9    2.33    0.73
  10   4  -9    2.71    0.81
   8  -4  -9   12.26    1.10
   8  -4  -9   14.77    1.28
   8  -4  -9   11.89    1.20
   8  -4  -9   14.23    1.02
   8  -4  -9   11.82    0.83
   8   4  -9   10.62    1.24
   8   4  -9   12.39    0.86
   8   4  -9   10.36    1.20
   6  -4  -9   44.14    2.11
   6  -4  -9   47.80    1.68
   6  -4  -9   48.07    1.87
   6  -4  -9   48.68    2.09
   6  -4  -9   41.51    1.88
   6   4  -9   55.68    2.55
   6   4  -9   55.28    1.97
   4  -4  -9   14.13    1.09
   4  -4  -9   12.72    0.93
   4  -4  -9   14.44    1.32
   4  -4  -9   12.72    1.11
   4   4  -9   11.76    1.31
   4   4  -9   12.62    0.85
   2  -4  -9   39.45    1.93
   2  -4  -9   34.95    1.69
   2  -4  -9   39.14    1.63
   2   4  -9   47.06    2.27
   2   4  -9   46.24    1.74
   0  -4  -9   76.41    2.57
   0  -4  -9   77.45    2.99
   0  -4  -9   77.44    2.75
   0   4  -9   77.50    2.52
   0   4  -9   74.50    2.52
   0   4  -9   74.93    3.03
  -2  -4  -9    0.98    0.60
  -2  -4  -9    2.87    0.58
  -2  -4  -9    1.09    0.36
  -2  -4  -9    1.38    0.43
  -2   4  -9    3.18    0.53
  -2   4  -9    2.65    0.50
  -2   4  -9    2.46    0.74
  -4  -4  -9   97.93    3.25
  -4  -4  -9  101.59    3.06
  -4  -4  -9  104.41    3.08
  -4  -4  -9  100.55    3.60
  -4   4  -9   98.09    3.24
  -4   4  -9  107.66    3.25
  -6  -4  -9    0.75    0.41
  -6  -4  -9    0.53    0.36
  -6  -4  -9    0.47    0.53
  -6   4  -9    0.32    0.38
  -8  -4  -9    3.39    0.80
  -8  -4  -9    3.43    0.55
  -8  -4  -9    2.95    0.53
  -8   4  -9    3.38    0.57
 -10  -4  -9   26.46    1.19
 -10  -4  -9   27.52    1.35
 -10  -4  -9   25.96    1.66
 -10   4  -9   25.86    1.34
 -12  -4  -9   27.20    1.75
 -12  -4  -9   31.72    1.51
 -12   4  -9   27.09    1.42
 -14  -4  -9   23.36    1.37
 -14  -4  -9   21.36    1.58
 -14   4  -9   22.07    1.36
 -16  -4  -9    2.98    0.86
 -16  -4  -9    3.18    0.73
 -16   4  -9    6.14    0.87
 -18  -4  -9    7.39    1.20
 -18  -4  -9    7.74    1.05
 -18   4  -9    7.09    0.93
 -20  -4  -9    7.87    1.11
 -20  -4  -9    7.00    1.22
 -20   4  -9    6.82    1.00
  22  -4   9    7.48    0.92
 -22  -4  -9    8.78    1.23
 -22  -4  -9    8.34    1.33
 -22   4  -9    8.79    1.16
  24  -4   9    6.20    0.91
 -24  -4  -9    8.21    1.25
 -24   4  -9    8.75    1.21
  24   4   9    7.04    0.91
  26  -4   9    7.66    1.00
 -26  -4  -9    6.53    1.25
  26   4   9    8.19    1.04
 -26   4  -9    7.27    1.24
 -28  -4  -9   12.22    1.59
  28   4   9   12.91    1.26
 -28   4  -9   13.59    1.58
 -30  -4  -9    1.58    1.09
  30   4   9    0.90    0.80
 -30   4  -9   -0.03    0.95
  31   5  -9    3.54    1.32
  29  -5  -9    1.93    1.21
  29  -5  -9    2.77    1.06
  29   5  -9   -0.15    1.28
  29   5  -9    1.24    1.00
  27  -5  -9    2.42    1.17
  27  -5  -9    0.40    0.85
  27   5  -9    5.77    1.59
  27   5  -9    5.68    1.25
  25  -5  -9    6.31    1.30
  25  -5  -9    6.38    1.19
  25   5  -9    2.99    1.26
  25   5  -9    5.12    1.24
  23  -5  -9   11.18    1.61
  23  -5  -9    9.59    1.33
  23   5  -9   10.69    1.75
  23   5  -9    9.53    1.40
  21  -5  -9    8.44    1.22
  21  -5  -9    9.96    1.47
  21  -5  -9    7.99    1.36
  21   5  -9    9.92    1.37
  21   5  -9   10.95    1.65
  19  -5  -9    7.18    1.17
  19  -5  -9    7.97    1.33
  19  -5  -9    7.97    1.10
  19   5  -9    8.01    1.49
  19   5  -9    6.29    1.18
  17  -5  -9    8.33    1.16
  17  -5  -9    7.31    1.24
  17  -5  -9    8.03    1.03
  17   5  -9    7.36    1.16
  17   5  -9    8.33    1.44
  15  -5  -9   22.24    1.82
  15  -5  -9   23.56    1.82
  15  -5  -9   25.35    1.48
  15  -5  -9   22.04    1.64
  15   5  -9   22.47    1.80
  15   5  -9   17.29    1.82
  13  -5  -9   34.97    1.96
  13  -5  -9   37.73    2.00
  13  -5  -9   31.77    1.64
  13  -5  -9   33.59    2.00
  13   5  -9   33.05    2.13
  13   5  -9   35.11    1.99
  11  -5  -9    6.05    1.01
  11  -5  -9    7.49    1.06
  11  -5  -9    7.81    1.09
  11  -5  -9    6.92    0.79
  11   5  -9    8.14    1.14
  11   5  -9    8.38    1.22
   9  -5  -9    4.88    0.96
   9  -5  -9    4.70    0.80
   9  -5  -9    4.37    0.63
   9  -5  -9    5.29    0.89
   9   5  -9    3.46    0.95
   7  -5  -9   36.72    1.76
   7  -5  -9   35.76    1.86
   7  -5  -9   34.72    1.51
   7  -5  -9   35.14    1.92
   7  -5  -9   35.75    1.54
   7   5  -9   42.03    2.24
   5  -5  -9    6.01    0.93
   5  -5  -9    6.27    0.78
   5  -5  -9    8.23    0.72
   5  -5  -9    4.62    0.85
   5   5  -9    2.30    0.79
   3  -5  -9    7.04    0.79
   3  -5  -9    7.90    0.96
   3  -5  -9    7.62    1.03
   3   5  -9    7.43    1.08
   1  -5  -9   28.78    1.35
   1  -5  -9   30.81    1.59
   1  -5  -9   30.28    1.81
   1   5  -9   28.78    1.79
   1   5  -9   29.83    1.47
  -1  -5  -9    6.31    0.67
  -1  -5  -9    7.71    0.91
  -1  -5  -9    7.24    0.68
  -1  -5  -9    6.28    1.03
  -1   5  -9    6.80    1.02
  -1   5  -9    7.71    0.80
  -3  -5  -9    0.56    0.50
  -3  -5  -9   -0.35    0.61
  -3  -5  -9    0.35    0.38
  -3  -5  -9    0.91    0.38
  -3   5  -9    0.85    0.62
  -3   5  -9    0.01    0.40
  -5  -5  -9   60.11    2.31
  -5  -5  -9   61.62    2.67
  -5  -5  -9   65.25    2.24
  -5   5  -9   56.62    2.17
  -7  -5  -9   12.91    0.99
  -7  -5  -9   15.04    1.04
  -7  -5  -9   15.70    1.45
  -7   5  -9   14.26    1.05
  -9  -5  -9   15.67    1.07
  -9  -5  -9   14.40    1.45
  -9  -5  -9   14.96    0.99
  -9   5  -9   17.06    1.16
 -11  -5  -9   14.59    0.97
 -11  -5  -9   14.52    1.44
 -11  -5  -9   16.95    1.18
 -11   5  -9   12.82    1.09
 -13  -5  -9    4.31    0.98
 -13  -5  -9    4.23    0.75
 -13   5  -9    3.82    0.75
 -15  -5  -9   11.03    1.38
 -15  -5  -9   10.55    1.11
 -15   5  -9   14.59    1.22
 -17  -5  -9    6.75    1.00
 -17  -5  -9    6.15    1.09
 -17   5  -9    7.85    1.01
 -19  -5  -9    2.90    0.85
 -19  -5  -9    3.13    1.03
 -19   5  -9    2.24    0.77
 -21  -5  -9    6.41    1.11
 -21  -5  -9    6.89    1.35
 -21   5  -9    7.45    1.11
  21   5   9    8.28    0.88
 -23  -5  -9   13.44    1.73
  23  -5   9   16.09    1.34
 -23  -5  -9   17.46    1.66
  23   5   9   18.30    1.26
 -23   5  -9   20.21    1.70
 -25  -5  -9    8.90    1.61
 -25  -5  -9    8.54    1.35
  25  -5   9    7.97    1.05
  25   5   9    8.80    1.24
 -25   5  -9    8.83    1.30
 -27  -5  -9    9.16    1.48
  27  -5   9   12.49    1.24
 -27   5  -9    9.50    1.42
 -29  -5  -9    2.82    1.17
  29  -5   9    2.36    0.83
 -29   5  -9    3.31    1.14
  30   6  -9    4.10    1.29
  28  -6  -9    4.19    1.21
  28  -6  -9    2.76    1.21
  28   6  -9    8.53    1.80
  28   6  -9    4.55    1.22
  26  -6  -9    1.49    0.91
  26  -6  -9    0.88    1.13
  26   6  -9    0.35    0.90
  26   6  -9    2.33    1.47
  24  -6  -9    3.93    1.08
  24  -6  -9    4.78    1.22
  24   6  -9    4.94    1.24
  24   6  -9    5.46    1.51
  22  -6  -9    3.97    1.00
  22  -6  -9    4.34    1.27
  22   6  -9    0.57    1.08
  22   6  -9    0.69    0.86
  20  -6  -9   10.92    1.36
  20  -6  -9    9.37    1.42
  20   6  -9    6.89    1.44
  20   6  -9    6.36    1.21
  18  -6  -9    1.66    0.81
  18  -6  -9    2.55    1.02
  18   6  -9    6.28    1.31
  18   6  -9    4.59    1.07
  16  -6  -9   10.18    1.32
  16  -6  -9   12.50    1.42
  16  -6  -9   10.24    1.31
  16   6  -9    8.26    1.44
  16   6  -9   11.30    1.38
  14  -6  -9   16.04    1.58
  14  -6  -9   14.13    1.45
  14  -6  -9   14.15    1.42
  14   6  -9   14.37    1.52
  14   6  -9   14.74    1.71
  12  -6  -9    3.34    0.84
  12  -6  -9    3.05    0.87
  12  -6  -9    3.55    0.91
  12   6  -9    3.21    0.98
  10  -6  -9    4.08    0.84
  10  -6  -9    4.87    0.95
  10  -6  -9    5.57    0.96
  10   6  -9    4.62    1.04
   8  -6  -9   18.50    1.60
   8  -6  -9   17.80    1.45
   8  -6  -9   15.21    1.34
   8   6  -9   17.20    1.62
   6  -6  -9    3.81    0.88
   6  -6  -9    3.07    0.75
   6  -6  -9    2.34    0.65
   6   6  -9    4.31    0.99
   4  -6  -9    5.21    0.92
   4  -6  -9    7.29    1.07
   4  -6  -9    7.53    0.84
   4   6  -9    7.69    1.14
   2  -6  -9   22.63    1.22
   2  -6  -9   21.08    1.58
   2  -6  -9   21.80    1.46
   2   6  -9   24.07    1.72
   2   6  -9   24.67    1.44
   0  -6  -9    1.67    0.47
   0  -6  -9    1.64    0.62
   0  -6  -9    3.02    0.82
   0   6  -9    2.55    0.62
   0   6  -9    4.02    0.94
  -2  -6  -9   14.08    1.40
  -2  -6  -9   11.76    1.12
  -2  -6  -9   13.00    0.99
  -2  -6  -9   13.01    0.86
  -2   6  -9   15.52    1.17
  -2   6  -9   15.81    1.54
  -4  -6  -9    0.41    0.55
  -4  -6  -9   -0.36    0.41
  -4  -6  -9    0.78    0.65
  -4   6  -9    2.90    0.67
  -6  -6  -9   21.25    1.31
  -6  -6  -9   21.40    1.67
  -6  -6  -9   21.36    1.28
  -6   6  -9   18.53    1.27
  -8  -6  -9   11.13    1.32
  -8  -6  -9   11.64    1.04
  -8  -6  -9   11.32    1.03
  -8   6  -9   12.05    1.10
 -10  -6  -9   23.00    1.90
 -10  -6  -9   23.43    1.40
 -10  -6  -9   20.59    1.24
 -10   6  -9   16.36    1.27
  12  -6   9    2.57    0.57
 -12  -6  -9    4.61    1.06
 -12  -6  -9    3.42    0.75
 -12   6  -9    3.76    0.79
 -14  -6  -9    0.65    0.66
 -14  -6  -9    3.12    0.92
 -14   6  -9    3.99    0.79
 -16  -6  -9   19.28    1.88
 -16  -6  -9   19.99    1.59
 -16   6  -9   14.08    1.32
 -18  -6  -9    2.15    1.05
 -18  -6  -9    1.95    0.84
 -18   6  -9    1.98    0.79
 -20  -6  -9    2.41    1.09
 -20  -6  -9    2.12    0.88
 -20   6  -9    3.28    0.90
  22  -6   9   16.18    1.34
 -22  -6  -9   13.06    1.51
 -22  -6  -9   15.82    1.96
 -22   6  -9   12.68    1.42
 -24  -6  -9    0.20    1.07
 -24  -6  -9    0.48    0.91
  24  -6   9    0.10    0.74
 -24   6  -9   -0.35    0.81
 -26  -6  -9    0.94    1.23
  26  -6   9    0.81    0.78
 -26  -6  -9    0.36    0.98
 -26   6  -9   -1.77    0.84
  28  -6   9    1.01    0.76
 -28  -6  -9    1.31    1.10
 -28   6  -9    5.52    1.25
  27  -7  -9    1.80    1.02
  27  -7  -9    4.60    1.39
  27   7  -9    0.76    1.56
  27   7  -9    2.11    1.14
  25  -7  -9   11.26    1.63
  25  -7  -9   11.14    1.71
  25   7  -9    9.01    1.93
  25   7  -9   10.21    1.55
  23  -7  -9   14.28    1.80
  23  -7  -9   15.78    1.74
  23   7  -9   14.46    1.97
  23   7  -9    7.70    1.43
  21  -7  -9    4.81    1.19
  21  -7  -9    7.26    1.45
  21   7  -9    7.03    1.33
  21   7  -9    7.64    1.55
  19  -7  -9   19.67    2.00
  19  -7  -9   24.15    2.01
  19   7  -9   17.12    2.01
  17  -7  -9    0.67    0.76
  17  -7  -9    2.59    1.04
  17  -7  -9    3.16    1.01
  17   7  -9    0.87    0.97
  15  -7  -9   11.26    1.47
  15  -7  -9   13.29    1.55
  15  -7  -9   13.14    1.43
  15   7  -9   10.17    1.56
  13  -7  -9   23.94    1.98
  13  -7  -9   17.66    1.68
  13  -7  -9   21.70    1.74
  13   7  -9   23.01    2.12
  11  -7  -9   10.27    1.26
  11  -7  -9   12.00    1.47
  11  -7  -9   10.07    1.29
  11   7  -9    9.07    1.37
   9  -7  -9   10.77    1.29
   9  -7  -9   11.20    1.42
   9  -7  -9    9.22    1.15
   9   7  -9   10.48    1.47
   7  -7  -9   38.74    2.28
   7  -7  -9   42.48    2.17
   7  -7  -9   40.69    1.96
   7   7  -9   34.59    2.25
   5  -7  -9   12.11    1.43
   5  -7  -9   10.22    1.16
   5  -7  -9    9.89    1.01
   5   7  -9    8.96    1.37
   3  -7  -9    7.81    1.19
   3  -7  -9    9.62    1.16
   3  -7  -9    8.91    0.88
   3   7  -9    4.85    1.07
   3   7  -9    8.01    1.01
   1  -7  -9   19.88    1.14
   1  -7  -9   22.07    1.50
   1  -7  -9   17.57    1.64
   1   7  -9   15.01    1.30
   1   7  -9   15.72    1.57
  -1  -7  -9   15.60    1.55
  -1  -7  -9   13.88    1.28
  -1   7  -9   15.14    1.29
  -1   7  -9   15.38    1.62
  -3  -7  -9   16.58    1.67
  -3  -7  -9   16.18    1.36
  -3  -7  -9   15.42    1.19
  -3   7  -9   13.91    1.24
  -5  -7  -9   20.46    1.33
  -5  -7  -9   20.63    1.85
  -5  -7  -9   19.04    1.37
  -5   7  -9   22.09    1.45
  -7  -7  -9    5.05    1.06
  -7  -7  -9    4.80    0.81
  -7  -7  -9    5.45    0.88
  -7   7  -9    5.89    0.88
  -9  -7  -9   20.60    1.34
  -9  -7  -9   21.47    1.94
  -9  -7  -9   20.89    1.44
  -9   7  -9   22.44    1.48
  11  -7   9    6.51    0.80
 -11  -7  -9    6.88    0.98
 -11  -7  -9    6.58    1.17
 -11   7  -9   11.08    1.15
 -13  -7  -9    3.61    1.14
 -13  -7  -9    3.43    0.84
 -13   7  -9    4.69    0.90
 -15  -7  -9   11.29    1.60
 -15  -7  -9    9.74    1.20
 -15   7  -9    8.36    1.12
 -17  -7  -9    1.35    0.81
 -17  -7  -9    2.97    1.04
 -17   7  -9    0.59    0.69
 -19  -7  -9    0.93    1.10
 -19  -7  -9    0.25    0.82
 -19   7  -9    0.32    0.76
 -21  -7  -9    0.49    1.02
 -21  -7  -9    1.63    0.96
 -21   7  -9    0.87    0.85
  23  -7   9    6.84    1.11
 -23  -7  -9    8.81    1.40
 -23  -7  -9    8.30    1.61
 -23   7  -9    8.34    1.35
  25  -7   9    3.17    0.88
 -25  -7  -9    4.51    1.48
 -25  -7  -9    4.71    1.24
 -25   7  -9    4.50    1.18
  27  -7   9   16.61    1.55
 -27  -7  -9   16.80    2.23
 -27  -7  -9   19.78    2.06
 -27   7  -9   16.42    1.78
  26  -8  -9    9.66    1.93
  24  -8  -9    4.93    1.33
  24  -8  -9    4.61    1.20
  24   8  -9    3.20    1.36
  22  -8  -9    2.48    1.03
  22  -8  -9    4.07    1.25
  22   8  -9    1.79    1.25
  20  -8  -9   14.17    1.64
  20  -8  -9   11.81    1.73
  20   8  -9    8.38    1.56
  18  -8  -9    8.49    1.45
  18  -8  -9    6.01    1.20
  18  -8  -9    6.06    1.30
  18   8  -9   10.71    1.69
  16  -8  -9    1.10    0.85
  16  -8  -9    2.13    1.04
  16  -8  -9    1.71    0.93
  16   8  -9    0.73    0.94
  14  -8  -9    6.00    1.16
  14  -8  -9    3.38    0.99
  14  -8  -9    4.63    1.06
  14   8  -9    2.20    1.00
  12  -8  -9   25.80    1.80
  12  -8  -9   20.70    1.81
  12  -8  -9   23.46    2.00
  12   8  -9   21.69    2.04
  10  -8  -9    0.76    0.79
 -10  -8   9    2.87    0.77
  10  -8  -9    1.81    0.91
  10  -8  -9   -0.30    0.69
  10   8  -9    2.97    0.99
   8  -8  -9    3.76    0.93
  -8  -8   9    3.67    0.78
   8  -8  -9    4.29    1.07
   8  -8  -9    5.78    0.96
   8   8  -9    4.36    1.15
   6  -8  -9    6.95    0.96
  -6  -8   9    6.60    0.88
   6  -8  -9    7.92    1.29
   6  -8  -9    5.58    0.98
   6   8  -9    9.88    1.39
   4  -8  -9    1.74    0.84
  -4  -8   9    1.92    0.68
   4  -8  -9    0.51    0.56
   4  -8  -9    1.82    0.81
   4   8  -9    1.48    0.85
   4   8  -9    0.75    0.69
   2  -8  -9   10.91    1.29
   2  -8  -9   12.13    1.46
   2   8  -9   13.17    1.50
   2   8  -9   12.89    1.29
   0  -8  -9    2.40    0.82
   0  -8  -9    4.75    1.05
   0   8  -9    1.81    0.91
   0   8  -9    0.99    0.67
  -2  -8  -9    0.90    0.73
  -2  -8  -9    0.56    0.77
  -2   8  -9    0.39    0.63
  -4  -8  -9   21.46    1.69
  -4  -8  -9   19.90    1.42
  -4  -8  -9   20.65    1.85
  -4   8  -9   24.64    1.66
  -6  -8  -9    6.79    0.97
  -6  -8  -9   10.59    1.41
  -6  -8  -9    9.11    1.15
  -6   8  -9    4.14    0.88
  -8  -8  -9    9.71    1.44
   8  -8   9    5.65    0.86
  -8  -8  -9    4.61    0.92
  -8  -8  -9    6.32    0.98
  -8   8  -9    6.36    0.98
 -10  -8  -9   14.91    1.68
  10  -8   9   14.51    1.18
 -10  -8  -9   14.48    1.39
 -10  -8  -9   15.44    1.38
 -10   8  -9   14.83    1.37
 -12  -8  -9    6.49    1.07
  12  -8   9    6.50    0.83
 -12  -8  -9    8.10    1.44
 -12   8  -9    8.58    1.14
 -14  -8  -9    7.84    1.52
 -14  -8  -9    9.25    1.20
 -14   8  -9    9.22    1.22
 -16  -8  -9    4.87    1.27
 -16  -8  -9    5.17    1.08
 -16   8  -9    7.77    1.15
 -18  -8  -9    1.58    1.09
 -18  -8  -9    1.31    0.91
 -18   8  -9    1.18    0.81
 -20  -8  -9    3.01    1.38
 -20  -8  -9    4.63    1.16
 -20   8  -9    8.17    1.27
 -22  -8  -9    0.00    1.20
  22  -8   9    1.52    0.89
 -22  -8  -9    2.67    1.12
 -22   8  -9    2.84    1.05
 -24  -8  -9    8.13    1.48
 -24  -8  -9    7.58    1.77
  24  -8   9    9.54    1.29
 -24   8  -9    8.52    1.41
 -26  -8  -9   -0.43    1.22
 -26  -8  -9    0.97    1.50
  26  -8   9   -0.70    0.73
 -26   8  -9   -1.36    0.93
 -23  -9   9    3.03    1.22
  23  -9  -9    5.29    1.52
  23   9  -9    3.65    1.45
 -21  -9   9    2.24    1.18
  21  -9  -9    2.85    1.28
  21  -9  -9    3.01    1.11
  21   9  -9    0.77    1.14
  19  -9  -9   12.33    1.74
 -19  -9   9   10.70    1.52
  19  -9  -9   13.65    1.66
  19  -9  -9   11.61    1.64
  19   9  -9    8.29    1.70
  17  -9  -9    2.54    0.99
  17  -9  -9    2.88    1.14
  17  -9  -9    2.86    1.21
 -17  -9   9    2.09    0.91
  17   9  -9    7.56    1.63
  15  -9  -9   -0.15    0.89
  15  -9  -9   -0.07    0.83
 -15  -9   9    0.12    0.79
  15  -9  -9   -0.10    0.94
  15   9  -9    1.69    1.06
 -13  -9   9    2.23    0.88
  13  -9  -9    2.83    0.94
  13  -9  -9    2.29    0.99
  13  -9  -9    3.94    1.10
  13   9  -9    1.14    0.98
  11  -9  -9    3.13    1.04
 -11  -9   9    7.68    1.09
  11  -9  -9    6.10    1.23
  11  -9  -9    7.62    1.31
  11   9  -9    6.74    1.33
   9  -9  -9   10.10    1.28
   9  -9  -9   10.38    1.41
   9  -9  -9   10.80    1.54
  -9  -9   9    9.91    1.12
   9   9  -9    9.71    1.48
  -7  -9   9   10.00    1.27
   7  -9  -9   13.26    1.52
   7  -9  -9   12.92    1.50
   7  -9  -9   10.65    1.46
   7   9  -9    8.45    1.43
   5  -9  -9    5.25    1.11
   5  -9  -9    4.45    1.17
   5   9  -9    3.57    0.94
   5   9  -9    3.66    1.07
   3  -9  -9   21.43    1.96
   3  -9  -9   20.50    1.79
   3   9  -9   20.57    1.74
   3   9  -9   21.23    1.94
   1  -9  -9    1.90    0.83
   1  -9  -9    3.76    1.05
   1   9  -9    2.41    1.03
   1   9  -9    3.55    0.90
  -1  -9  -9    6.71    1.15
  -1  -9  -9    7.29    1.27
  -1   9  -9   10.65    1.39
  -1   9  -9    9.53    1.25
  -3  -9  -9    0.76    0.91
  -3  -9  -9    0.67    0.77
  -3   9  -9   -0.47    0.65
  -5  -9  -9   16.99    1.50
  -5  -9  -9   16.31    1.76
  -5  -9  -9   17.58    1.61
  -5   9  -9   14.68    1.49
   7  -9   9    6.17    0.94
  -7  -9  -9    7.19    1.14
  -7  -9  -9    6.45    1.05
  -7  -9  -9    5.51    1.27
  -7   9  -9    7.60    1.12
   9  -9   9    1.95    0.72
  -9  -9  -9    0.73    1.03
  -9  -9  -9    2.54    0.84
  -9  -9  -9    1.12    0.78
  -9   9  -9    5.51    1.03
  11  -9   9   19.77    1.39
 -11  -9  -9   19.91    1.70
 -11  -9  -9   19.94    2.08
 -11   9  -9   18.38    1.62
 -13  -9  -9    5.50    1.14
 -13  -9  -9    8.36    1.55
 -13   9  -9    6.84    1.15
 -15  -9  -9    1.32    0.90
 -15  -9  -9   -0.39    0.92
 -15   9  -9    1.16    0.85
 -17  -9  -9    9.43    1.76
 -17  -9  -9    9.09    1.42
 -17   9  -9   10.97    1.41
 -19  -9  -9    0.70    0.98
 -19  -9  -9    0.77    1.11
 -19   9  -9    0.33    0.88
 -21  -9  -9   16.19    1.92
  21  -9   9   14.49    1.48
 -21  -9  -9   17.04    2.31
 -21   9  -9   14.68    1.69
 -23  -9  -9   -0.17    1.01
 -23  -9  -9   -2.07    1.20
  23  -9   9   -0.37    0.86
 -23   9  -9   -1.85    0.85
 -22 -10   9    2.07    1.07
  22 -10  -9   -0.37    1.26
 -20 -10   9    7.52    1.41
  20 -10  -9    9.05    1.57
  20 -10  -9    7.56    1.52
  20  10  -9    8.79    1.81
  18 -10  -9   12.36    1.80
  18 -10  -9   12.56    1.63
 -18 -10   9    6.93    1.25
  18 -10  -9   10.07    1.57
  18  10  -9   13.66    1.94
  16 -10  -9    3.26    1.16
 -16 -10   9    4.55    1.14
  16 -10  -9    3.70    1.11
  16 -10  -9    4.05    1.19
  16  10  -9    2.20    1.33
 -14 -10   9    5.36    1.15
  14 -10  -9    6.00    1.34
  14 -10  -9    4.30    1.35
  14 -10  -9    4.03    1.20
  14  10  -9    8.06    1.52
  12 -10  -9    8.13    1.37
 -12 -10   9    5.73    1.14
  12 -10  -9    7.41    1.27
  12 -10  -9    4.92    1.14
  12  10  -9    1.42    1.05
  10 -10  -9    5.11    1.24
  10 -10  -9    4.32    1.07
  10  10  -9    4.59    1.25
   8 -10  -9    0.21    0.83
   8 -10  -9    0.61    0.92
   8  10  -9    2.48    1.12
   6 -10  -9   16.08    1.67
   6 -10  -9   22.30    2.14
   6  10  -9   16.76    1.89
   6  10  -9   19.92    1.86
   4 -10  -9    1.16    0.99
   4 -10  -9    0.26    0.90
   4  10  -9   -0.53    0.75
   4  10  -9    1.19    0.91
   2 -10  -9    6.16    1.37
   2 -10  -9    8.21    1.27
   2  10  -9    2.58    1.00
   2  10  -9    4.05    1.01
   0 -10  -9   19.35    1.81
   0 -10  -9   24.36    2.23
   0  10  -9   24.93    1.88
  -2 -10  -9    4.38    1.18
  -2 -10  -9    2.03    0.95
  -2  10  -9    6.74    1.16
  -4 -10  -9   21.75    2.10
  -4 -10  -9   18.74    1.77
   4 -10   9   17.53    1.48
  -4  10  -9   19.66    1.78
  -6 -10  -9    2.22    1.07
  -6 -10  -9    1.97    0.86
  -6 -10  -9    0.76    0.88
   6 -10   9    1.86    0.82
  -6  10  -9    0.59    0.83
   8 -10   9    0.37    0.71
  -8 -10  -9    0.34    0.84
  -8 -10  -9    0.93    0.84
  -8 -10  -9    1.35    1.15
  -8  10  -9    0.88    0.83
  10 -10   9    7.15    1.03
 -10 -10  -9    8.38    1.61
 -10 -10  -9    7.77    1.25
 -10  10  -9   10.05    1.35
 -12 -10  -9    0.74    1.17
 -12 -10  -9   -0.02    0.86
  12 -10   9    1.67    1.25
 -12  10  -9   -0.80    0.77
 -14 -10  -9    1.43    0.96
 -14 -10  -9    1.45    1.10
 -14  10  -9    1.07    0.88
 -16 -10  -9   12.03    1.91
 -16 -10  -9   13.65    1.69
 -16  10  -9   13.24    1.56
 -18 -10  -9   22.36    2.16
 -18 -10  -9   21.06    2.41
 -18  10  -9   18.39    1.86
 -20 -10  -9    3.06    1.24
 -20 -10  -9    3.35    1.63
 -20  10  -9    3.12    1.11
  17 -11  -9    4.38    1.41
  17 -11  -9    3.80    1.43
 -17 -11   9    3.59    1.14
  17  11  -9    5.37    1.53
  15 -11  -9    8.99    1.51
  15 -11  -9   11.34    1.71
 -15 -11   9    9.95    1.69
  15  11  -9   11.25    1.89
  13 -11  -9    0.22    0.97
  13 -11  -9    2.46    1.19
  13  11  -9    0.18    1.14
  11 -11  -9   -1.30    0.81
  11 -11  -9    2.25    1.27
  11  11  -9    2.30    1.27
   9 -11  -9    0.98    1.15
   9 -11  -9    2.81    1.06
   9  11  -9    3.05    1.21
   7 -11  -9    5.15    1.19
   7 -11  -9    6.20    1.39
   7  11  -9    4.61    1.27
   7  11  -9    5.65    1.32
   5 -11  -9   -1.18    0.89
   5 -11  -9    0.38    0.93
   5  11  -9    0.17    0.86
   5  11  -9   -0.40    0.82
   3 -11  -9    4.25    1.12
   3 -11  -9    4.71    1.35
   3  11  -9    1.51    1.12
   3  11  -9    1.11    0.97
   1 -11  -9   18.25    2.08
   1 -11  -9   20.57    1.96
   1  11  -9   18.99    1.84
  -1 -11  -9    0.72    0.89
  -1 -11  -9    3.12    1.29
  -1  11  -9    1.13    1.00
   3 -11   9    2.52    1.00
  -3 -11  -9    6.18    1.30
  -3 -11  -9    5.75    1.39
  -3  11  -9    3.10    1.12
  -5 -11  -9    5.10    1.21
  -5 -11  -9    3.93    1.38
   5 -11   9    2.72    0.92
  -5  11  -9    2.89    1.07
  -7 -11  -9    4.12    1.25
  -7 -11  -9    1.73    1.04
   7 -11   9    3.66    0.97
  -7  11  -9    1.35    0.94
  -9 -11  -9    5.46    1.43
  -9 -11  -9    7.00    1.30
   9 -11   9    5.56    1.06
  -9  11  -9   12.14    1.53
 -11 -11  -9   -0.66    1.00
  11 -11   9   -0.15    0.71
 -11 -11  -9    0.72    0.97
 -11  11  -9   -0.25    0.88
 -13 -11  -9    1.75    1.08
 -13 -11  -9   -1.25    1.10
 -13  11  -9   -0.42    0.87
 -15 -11  -9    7.03    1.78
 -15 -11  -9    5.23    1.33
 -15  11  -9    5.34    1.25
 -17 -11  -9    1.94    1.27
 -17  11  -9   -0.61    0.92
  14  12  -9   10.77    1.75
  12 -12  -9    0.28    1.72
  12  12  -9    1.56    1.13
  10 -12  -9    6.33    1.54
  10 -12  -9    3.16    1.21
  10  12  -9    2.04    1.18
  10  12  -9    4.03    1.27
   8 -12  -9    7.96    1.59
   8 -12  -9    2.56    1.15
   8  12  -9    5.58    1.37
   8  12  -9    5.27    1.41
   6 -12  -9    6.56    1.52
   6 -12  -9    6.69    1.49
   6  12  -9   11.41    1.72
   6  12  -9    8.51    1.48
   4 -12  -9    0.56    1.23
   4 -12  -9   -0.49    0.89
   4  12  -9    0.04    1.05
   4  12  -9   -0.22    0.93
   2 -12  -9    2.43    1.22
   2 -12  -9    0.63    1.07
   2  12  -9    1.95    1.11
   0 -12   9    2.62    0.98
   0 -12  -9    3.07    1.27
   0 -12  -9    3.15    1.20
   0  12  -9    1.92    1.11
   2 -12   9    7.82    1.32
  -2 -12  -9    5.20    1.33
  -2 -12  -9    7.59    1.56
  -2  12  -9    7.61    1.40
  -4 -12  -9   -0.53    1.02
   4 -12   9    1.22    0.85
  -4 -12  -9    1.19    1.07
  -4  12  -9    1.03    1.05
   6 -12   9    4.40    1.08
  -6 -12  -9    5.59    1.54
  -6 -12  -9    3.14    1.18
  -6  12  -9    1.42    1.08
   8 -12   9   -0.15    0.72
  -8 -12  -9    0.75    1.34
  -8  12  -9    1.10    1.02
 -10 -12  -9   11.46    1.66
  10 -12   9    9.20    1.25
 -10  12  -9    5.71    1.34
 -12 -12  -9   -0.03    1.68
 -12  12  -9    0.72    1.03
   5  13  -9    0.67    1.10
   5  13  -9    2.63    1.25
   3 -13  -9    1.01    1.25
   3  13  -9    2.34    1.23
   1 -13  -9    6.45    1.40
   1  13  -9    5.01    1.34
  -1 -13  -9    0.59    1.09
   1 -13   9    1.30    1.10
  -1  13  -9    2.09    1.19
  -3 -13  -9    3.80    1.41
   3 -13   9    6.53    1.22
  -3  13  -9    3.27    1.25
  -5 -13  -9    0.33    1.14
   5 -13   9    4.77    1.12
  -5  13  -9    4.01    1.29
  30   0 -10    6.40    1.41
  30   0 -10    3.94    1.56
  28   0 -10    8.90    1.64
  28   0 -10    9.83    1.92
  26   0 -10   12.07    1.73
  26   0 -10   11.03    1.83
  24   0 -10   20.75    2.29
  24   0 -10   25.99    2.16
  22   0 -10   16.38    1.73
  22   0 -10   20.21    1.67
  22   0 -10   19.26    2.09
  20   0 -10    6.73    1.25
  20   0 -10    5.48    0.97
  20   0 -10    5.62    1.19
  18   0 -10    3.05    1.03
  18   0 -10    1.44    0.71
  18   0 -10    1.77    0.84
  16   0 -10   24.26    1.74
  16   0 -10   25.70    1.60
  16   0 -10   28.23    1.95
  14   0 -10    0.46    0.62
  14   0 -10   -0.15    0.56
  14   0 -10    1.11    0.77
  12   0 -10   15.86    1.44
  12   0 -10   16.38    0.89
  12   0 -10   16.54    1.46
  12   0 -10   15.59    1.30
  10   0 -10   21.80    1.58
  10   0 -10   21.31    1.38
  10   0 -10   22.83    1.59
  10   0 -10   23.06    0.98
   8   0 -10    0.42    0.58
   8   0 -10    1.48    0.59
   8   0 -10    1.53    0.31
   8   0 -10    0.78    0.60
   6   0 -10   25.66    1.63
   6   0 -10   24.49    1.57
   6   0 -10   26.09    1.41
   6   0 -10   26.78    0.91
   4   0 -10    1.86    0.60
   4   0 -10    1.03    0.62
   4   0 -10    1.39    0.56
   2   0 -10   13.42    0.96
   2   0 -10   13.25    1.24
   2   0 -10   12.75    1.15
   0   0 -10   74.73    2.59
   0   0 -10   70.61    2.78
   0   0 -10   67.24    2.60
  -2   0 -10   16.63    1.07
  -4   0 -10   34.21    1.53
  -4   0 -10   32.09    1.08
  -6   0 -10   50.90    1.94
  -6   0 -10   48.96    1.59
  -8   0 -10   38.40    1.62
  -8   0 -10   37.03    1.38
 -10   0 -10   13.75    0.87
 -10   0 -10   14.56    0.98
 -12   0 -10    0.82    0.40
 -12   0 -10    1.19    0.45
 -14   0 -10   36.13    1.62
 -16   0 -10   12.56    1.06
 -18   0 -10    0.46    0.56
 -20   0 -10    6.24    0.95
 -22   0 -10    2.28    0.81
 -24   0 -10    8.92    1.19
 -26   0 -10    5.27    1.08
 -28   0 -10    5.64    1.19
 -30   0 -10    3.28    1.17
  31  -1 -10   -0.13    1.18
  31   1 -10   -0.13    1.52
  29  -1 -10    3.94    1.39
  29  -1 -10    3.09    1.36
  29   1 -10    1.27    1.07
  29   1 -10    3.17    1.55
  27  -1 -10    5.11    1.09
  27  -1 -10    5.84    1.31
  27  -1 -10    4.50    1.53
  27   1 -10    3.97    1.47
  27   1 -10    8.18    1.43
  25  -1 -10    1.47    0.84
  25  -1 -10   -0.88    1.01
  25  -1 -10    0.58    1.02
  25   1 -10    0.60    1.08
  25   1 -10   -0.13    0.98
  23  -1 -10   14.02    1.84
  23  -1 -10   12.17    1.57
  23  -1 -10   12.22    1.48
  23   1 -10    6.60    1.50
  23   1 -10    6.38    1.29
  21  -1 -10    2.46    1.00
  21  -1 -10    2.28    0.95
  21  -1 -10    2.74    0.85
  21   1 -10    2.60    0.99
  21   1 -10    4.02    1.19
  19  -1 -10    1.08    0.79
  19  -1 -10    1.58    0.87
  19  -1 -10    1.67    0.84
  19   1 -10    0.57    0.85
  19   1 -10    2.39    0.86
  17  -1 -10   28.47    1.86
  17  -1 -10   21.70    1.87
  17  -1 -10   27.97    1.67
  17   1 -10   23.58    1.88
  17   1 -10   20.97    1.94
  15  -1 -10    0.62    0.71
  15  -1 -10    0.22    0.60
  15  -1 -10    0.47    0.66
  15   1 -10    0.80    0.83
  15   1 -10    0.48    0.71
  13  -1 -10    3.15    0.88
  13  -1 -10    3.38    0.86
  13  -1 -10    2.85    0.48
  13  -1 -10    3.51    0.77
  13   1 -10    3.67    0.87
  13   1 -10    2.15    0.88
  11  -1 -10   23.82    1.54
  11  -1 -10   20.43    1.46
  11  -1 -10   24.69    1.48
  11  -1 -10   23.43    1.03
  11   1 -10   34.35    1.98
  11   1 -10   27.67    1.75
  11   1 -10   30.82    1.27
   9  -1 -10   19.07    1.36
   9  -1 -10   19.42    0.84
   9  -1 -10   17.96    1.40
   9  -1 -10   18.90    1.35
   9   1 -10   13.00    1.26
   9   1 -10   11.71    1.26
   9   1 -10   13.31    0.75
   7  -1 -10   66.13    2.66
   7  -1 -10   73.32    2.67
   7  -1 -10   68.39    2.00
   7  -1 -10   66.69    2.69
   7   1 -10   67.20    2.85
   7   1 -10   69.13    2.76
   7   1 -10   67.91    2.06
   5  -1 -10   20.88    1.33
   5  -1 -10   22.65    1.45
   5  -1 -10   21.39    1.29
   5  -1 -10   22.16    0.73
   5  -1 -10   24.69    1.39
   5   1 -10   34.71    1.96
   5   1 -10   36.69    1.21
   5   1 -10   39.94    1.88
   3  -1 -10   27.46    1.51
   3  -1 -10   28.15    1.58
   3  -1 -10   26.99    1.43
   3  -1 -10   26.25    1.50
   3   1 -10   26.79    1.62
   3   1 -10   27.45    1.57
   3   1 -10   26.58    0.91
   1  -1 -10    5.61    0.86
   1  -1 -10    5.94    0.82
   1  -1 -10    6.79    0.79
   1  -1 -10    4.99    0.75
   1   1 -10    8.65    0.47
   1   1 -10    8.66    0.46
   1   1 -10    7.91    0.99
  -1  -1 -10   33.57    1.60
  -1  -1 -10   31.44    1.46
  -1  -1 -10   30.55    1.54
  -1   1 -10   37.92    1.18
  -1   1 -10   37.25    1.20
  -1   1 -10   36.99    1.89
  -3  -1 -10   10.53    0.88
  -3  -1 -10    9.79    0.98
  -3  -1 -10    9.88    0.46
  -3   1 -10    7.53    0.48
  -5  -1 -10    2.17    0.60
  -5  -1 -10    2.75    0.50
  -5  -1 -10    2.34    0.32
  -5   1 -10    4.83    0.44
  -7  -1 -10   81.82    2.88
  -7  -1 -10   84.46    2.50
  -7   1 -10   73.67    2.36
  -7   1 -10   81.64    2.55
  -9  -1 -10    2.94    0.47
  -9  -1 -10    2.97    0.64
  -9   1 -10    4.67    0.54
  -9   1 -10    4.98    0.59
 -11  -1 -10    6.40    0.66
 -11  -1 -10    7.88    0.85
 -11   1 -10    7.65    0.71
 -13  -1 -10   43.36    1.76
 -13  -1 -10   44.21    1.88
 -13   1 -10   43.74    1.77
 -15  -1 -10    0.47    0.47
 -15  -1 -10    0.08    0.55
 -15   1 -10    0.63    0.50
 -17  -1 -10    5.80    0.83
 -17   1 -10    8.76    0.93
 -19  -1 -10   31.85    1.75
 -19   1 -10   29.94    1.70
 -21  -1 -10    9.21    1.10
 -21   1 -10    8.38    1.09
 -23  -1 -10   42.38    2.25
 -23   1 -10   33.86    1.97
 -25  -1 -10    3.11    0.95
 -25   1 -10    5.08    1.06
 -27  -1 -10    1.28    0.92
 -27   1 -10    1.92    0.98
 -29  -1 -10    5.02    1.22
 -29   1 -10    3.40    1.12
 -31  -1 -10    2.89    1.48
 -31   1 -10    4.27    1.31
  30  -2 -10    1.36    1.43
  30  -2 -10    0.86    0.96
  30  -2 -10    1.56    1.33
  30   2 -10    0.54    1.01
  30   2 -10    0.53    1.52
  28  -2 -10   17.76    2.22
  28  -2 -10   18.13    1.74
  28  -2 -10   15.80    1.90
  28   2 -10   15.96    2.33
  28   2 -10   19.30    2.01
  26  -2 -10    0.39    1.10
  26  -2 -10    0.75    1.08
  26  -2 -10    0.13    0.86
  26   2 -10    1.91    1.36
  26   2 -10    1.23    1.12
  24  -2 -10    3.62    1.03
  24  -2 -10    7.89    1.41
  24  -2 -10    2.74    1.24
  24   2 -10    1.86    1.16
  24   2 -10    2.30    1.00
  22  -2 -10   10.03    1.32
  22  -2 -10   10.17    1.54
  22  -2 -10    9.32    1.42
  22   2 -10   12.96    1.62
  22   2 -10   15.28    1.97
  20  -2 -10    6.05    1.21
  20  -2 -10    4.34    1.08
  20  -2 -10    3.74    0.89
  20   2 -10    2.95    1.10
  20   2 -10    3.63    1.04
  18  -2 -10    3.73    1.05
  18  -2 -10    2.57    0.86
  18  -2 -10    2.42    0.92
  18   2 -10    4.73    1.11
  18   2 -10    5.09    1.17
  16  -2 -10   56.49    2.54
  16  -2 -10   52.40    2.63
  16  -2 -10   53.61    2.58
  16   2 -10   53.88    2.72
  16   2 -10   45.99    2.51
  14  -2 -10    1.66    0.83
  14  -2 -10    1.49    0.76
  14  -2 -10    2.29    0.80
  14   2 -10    3.03    0.99
  14   2 -10    2.25    0.81
  12  -2 -10   41.64    2.10
  12  -2 -10   39.82    1.54
  12  -2 -10   41.03    2.05
  12  -2 -10   42.76    2.04
  12   2 -10   42.97    2.18
  12   2 -10   37.60    2.24
  10  -2 -10   33.92    1.83
  10  -2 -10   38.16    1.38
  10  -2 -10   36.35    1.89
  10  -2 -10   37.88    1.87
  10   2 -10   29.58    1.91
  10   2 -10   28.65    1.24
  10   2 -10   29.59    1.77
   8  -2 -10   14.31    1.23
   8  -2 -10   14.26    1.29
   8  -2 -10   15.48    1.30
   8  -2 -10   14.54    0.73
   8  -2 -10   14.61    1.27
   8   2 -10   17.36    1.53
   8   2 -10   17.04    1.45
   8   2 -10   18.01    0.89
   6  -2 -10   28.83    1.53
   6  -2 -10   25.28    1.51
   6  -2 -10   29.02    1.54
   6  -2 -10   26.02    1.54
   6  -2 -10   27.34    0.97
   6   2 -10   29.56    1.73
   6   2 -10   28.27    1.76
   6   2 -10   27.78    1.11
   4  -2 -10   19.93    1.26
   4  -2 -10   20.60    1.33
   4  -2 -10   20.34    1.40
   4  -2 -10   22.47    1.36
   4   2 -10   25.90    1.65
   4   2 -10   26.05    1.01
   4   2 -10   23.80    1.58
   2  -2 -10    4.90    0.78
   2  -2 -10    4.25    0.76
   2  -2 -10    5.32    0.84
   2  -2 -10    5.39    0.74
   2   2 -10    2.87    0.79
   2   2 -10    4.11    0.42
   2   2 -10    3.77    0.43
   0  -2 -10   34.49    1.78
   0  -2 -10   38.28    1.69
   0  -2 -10   38.30    1.68
   0   2 -10   29.69    1.11
   0   2 -10   29.88    1.12
   0   2 -10   28.91    1.73
  -2  -2 -10   21.06    1.38
  -2  -2 -10   23.94    1.30
  -2  -2 -10   23.14    1.25
  -2  -2 -10   23.99    0.80
  -2   2 -10   32.90    1.20
  -2   2 -10   35.88    1.92
  -2   2 -10   31.53    1.23
  -4  -2 -10   21.19    0.83
  -4  -2 -10   20.09    1.33
  -4  -2 -10   21.21    1.16
  -4   2 -10   21.35    0.95
  -6  -2 -10   37.85    1.35
  -6  -2 -10   37.79    1.85
  -6  -2 -10   39.79    1.55
  -6   2 -10   36.40    1.38
  -8  -2 -10   20.01    0.99
  -8  -2 -10   21.41    1.34
  -8  -2 -10   19.52    0.99
  -8   2 -10   16.69    0.92
 -10  -2 -10    4.38    0.57
 -10  -2 -10    3.83    0.77
 -10   2 -10    3.82    0.55
 -12  -2 -10   32.98    1.76
 -12  -2 -10   36.51    1.56
 -12   2 -10   38.72    1.64
 -14  -2 -10   15.61    1.13
 -14  -2 -10   17.07    1.24
 -14   2 -10   10.55    0.94
 -16  -2 -10    7.50    0.88
 -16  -2 -10    6.48    0.95
 -16   2 -10    6.81    0.83
 -18  -2 -10    8.65    1.00
 -18   2 -10    9.15    1.01
 -20  -2 -10    7.81    1.04
 -20   2 -10    4.79    0.89
 -22  -2 -10    8.83    1.15
 -22   2 -10    6.49    1.03
 -24  -2 -10    2.39    0.95
 -24   2 -10    1.63    0.85
 -26  -2 -10    0.54    0.86
 -26   2 -10    1.58    0.90
 -28  -2 -10    1.49    1.03
 -28   2 -10    2.84    1.04
 -30  -2 -10    3.16    1.20
  30   2  10    1.11    0.86
 -30   2 -10    0.67    1.02
  31  -3 -10    1.38    1.40
  29  -3 -10    0.09    1.06
  29  -3 -10    0.81    1.29
  29  -3 -10    1.54    1.04
  29   3 -10   -0.84    1.13
  29   3 -10   -0.88    0.85
  27  -3 -10    2.25    1.29
  27  -3 -10    0.63    1.18
  27  -3 -10    2.09    0.95
  27   3 -10    0.83    1.35
  27   3 -10    3.40    1.26
  25  -3 -10    4.01    1.23
  25  -3 -10    3.42    1.26
  25  -3 -10    8.30    1.36
  25   3 -10    4.21    1.27
  25   3 -10    4.02    1.53
  23  -3 -10    5.32    1.25
  23  -3 -10    6.94    1.34
  23  -3 -10    4.43    1.12
  23   3 -10    3.86    1.22
  23   3 -10    2.45    1.23
  21  -3 -10   25.25    2.13
  21  -3 -10   24.11    1.94
  21  -3 -10   22.46    2.01
  21   3 -10   24.16    2.03
  21   3 -10   23.83    2.30
  19  -3 -10    5.07    1.09
  19  -3 -10    4.34    1.04
  19  -3 -10    6.84    1.19
  19   3 -10    7.68    1.41
  19   3 -10    5.40    1.18
  17  -3 -10    4.43    0.93
  17  -3 -10    3.36    0.99
  17  -3 -10    6.85    1.07
  17   3 -10    5.37    1.12
  17   3 -10    5.95    1.26
  15  -3 -10   20.79    1.76
  15  -3 -10   18.93    1.48
  15  -3 -10   22.04    1.71
  15   3 -10   17.90    1.80
  15   3 -10   16.85    1.61
  13  -3 -10    0.42    0.69
  13  -3 -10    0.07    0.70
  13  -3 -10   -0.29    0.57
  13   3 -10    0.10    0.77
  13   3 -10   -0.19    0.66
  11  -3 -10   18.08    1.36
  11  -3 -10   18.45    1.50
  11  -3 -10   17.60    1.45
  11  -3 -10   17.64    1.52
  11  -3 -10   19.48    1.02
  11   3 -10   16.78    1.60
  11   3 -10   18.48    1.64
   9  -3 -10   10.66    1.16
   9  -3 -10   12.61    1.25
   9  -3 -10   10.86    0.74
   9  -3 -10   11.42    1.09
   9  -3 -10   11.00    1.18
   9   3 -10   12.00    0.84
   9   3 -10   12.99    1.38
   9   3 -10   10.72    1.23
   7  -3 -10    1.80    0.61
   7  -3 -10    2.05    0.38
   7  -3 -10    2.24    0.65
   7  -3 -10    3.80    0.85
   7  -3 -10    2.14    0.68
   7   3 -10    4.76    0.93
   7   3 -10    3.52    0.51
   7   3 -10    5.41    0.97
   5  -3 -10   20.71    1.41
   5  -3 -10   19.56    1.29
   5  -3 -10   18.79    1.28
   5  -3 -10   20.24    1.36
   5   3 -10   24.21    1.07
   5   3 -10   22.38    1.63
   3  -3 -10   20.88    1.29
   3  -3 -10   22.99    1.39
   3  -3 -10   21.87    1.31
   3  -3 -10   20.43    1.41
   3   3 -10   21.41    1.01
   3   3 -10   21.44    1.57
   1  -3 -10   -0.06    0.56
   1  -3 -10    0.16    0.43
   1  -3 -10   -0.18    0.43
   1   3 -10    0.40    0.31
   1   3 -10    0.11    0.31
   1   3 -10    0.99    0.67
  -1  -3 -10   44.34    1.87
  -1  -3 -10   39.73    1.75
  -1  -3 -10   45.75    2.10
  -1   3 -10   42.26    2.12
  -1   3 -10   39.12    1.51
  -1   3 -10   40.37    1.51
  -3  -3 -10   35.05    1.22
  -3  -3 -10   31.41    1.72
  -3  -3 -10   34.58    1.51
  -3  -3 -10   33.38    1.54
  -3   3 -10   39.65    1.52
  -3   3 -10   38.16    1.48
  -5  -3 -10   11.16    0.72
  -5  -3 -10   13.05    0.99
  -5  -3 -10   11.84    1.19
  -5   3 -10   13.93    0.87
  -7  -3 -10   14.88    0.86
  -7  -3 -10   13.44    1.25
  -7  -3 -10   13.51    0.93
  -7   3 -10    7.70    0.71
  -9  -3 -10   38.01    1.51
  -9  -3 -10   33.12    1.41
  -9  -3 -10   38.25    1.92
  -9   3 -10   38.33    1.58
 -11  -3 -10   21.63    1.19
 -11  -3 -10   21.05    1.50
 -11   3 -10   23.76    1.25
 -13  -3 -10    8.90    0.88
 -13  -3 -10    9.61    1.13
 -13   3 -10    8.43    0.86
 -15  -3 -10    8.11    0.92
 -15  -3 -10   11.13    1.21
 -15   3 -10    8.64    0.92
 -17  -3 -10    0.72    0.62
 -17  -3 -10    1.14    0.75
 -17   3 -10    1.87    0.66
 -19  -3 -10   31.48    1.97
 -19  -3 -10   27.39    1.73
 -19   3 -10   34.24    1.85
 -21  -3 -10    3.30    0.87
 -21   3 -10    3.22    0.87
 -23  -3 -10    0.54    0.78
  23  -3  10    3.03    0.71
 -23   3 -10    2.46    0.88
 -25  -3 -10   18.61    1.77
 -25   3 -10   17.97    1.64
 -27  -3 -10    2.11    1.02
 -27   3 -10    2.53    1.05
 -29  -3 -10    1.27    1.04
  29   3  10    0.75    0.84
 -29   3 -10    0.16    0.92
  28  -4 -10   10.00    1.46
  28  -4 -10   10.40    1.66
  28   4 -10    9.35    1.52
  28   4 -10    7.90    1.79
  26  -4 -10    0.06    1.11
  26  -4 -10    0.83    1.01
  26   4 -10   -0.40    0.92
  26   4 -10    0.28    1.24
  24  -4 -10    2.88    1.14
  24  -4 -10    2.18    0.94
  24  -4 -10    2.49    1.12
  24   4 -10    3.29    1.11
  24   4 -10    1.07    1.20
  22  -4 -10   13.36    1.59
  22  -4 -10   12.68    1.56
  22  -4 -10   14.45    1.77
  22   4 -10   11.88    1.60
  22   4 -10   12.58    1.83
  20  -4 -10   12.70    1.45
  20  -4 -10   12.56    1.59
  20  -4 -10   12.91    1.51
  20   4 -10   11.94    1.72
  20   4 -10   12.61    1.61
  18  -4 -10   25.34    1.89
  18  -4 -10   23.54    1.69
  18  -4 -10   24.76    1.92
  18   4 -10   16.06    1.69
  18   4 -10   18.26    1.94
  16  -4 -10   16.31    1.45
  16  -4 -10   16.98    1.56
  16  -4 -10   20.18    1.80
  16   4 -10   19.30    2.00
  16   4 -10   16.15    1.65
  14  -4 -10   12.97    1.38
  14  -4 -10   11.17    1.26
  14  -4 -10   12.16    1.21
  14   4 -10    9.90    1.35
  14   4 -10   12.18    1.58
  12  -4 -10   24.07    1.62
  12  -4 -10   24.20    1.60
  12  -4 -10   23.58    1.48
  12  -4 -10   25.11    1.77
  12   4 -10   25.41    1.75
  12   4 -10   22.71    1.94
  10  -4 -10   11.73    1.02
  10  -4 -10   12.09    1.28
  10  -4 -10   10.70    1.04
  10  -4 -10   10.70    1.20
  10  -4 -10   10.47    1.15
  10   4 -10    9.28    1.22
  10   4 -10   10.98    1.42
   8  -4 -10    2.60    0.70
   8  -4 -10    3.38    0.86
   8  -4 -10    0.72    0.55
   8  -4 -10    1.78    0.44
   8  -4 -10    0.76    0.65
   8   4 -10    0.91    0.81
   8   4 -10    0.42    0.63
   6  -4 -10   48.51    1.98
   6  -4 -10   45.49    2.12
   6  -4 -10   45.31    2.07
   6  -4 -10   51.52    2.33
   6   4 -10   49.91    2.50
   4  -4 -10    8.91    0.93
   4  -4 -10    9.76    0.91
   4  -4 -10   10.36    1.15
   4  -4 -10    8.39    0.98
   4   4 -10   10.30    0.80
   4   4 -10   11.49    1.32
   2  -4 -10   18.50    1.29
   2  -4 -10   16.73    1.13
   2  -4 -10   15.39    1.45
   2   4 -10   19.35    1.12
   2   4 -10   20.90    1.08
   2   4 -10   19.10    1.64
   0  -4 -10   12.43    1.00
   0  -4 -10   11.88    1.10
   0  -4 -10    9.92    1.15
   0   4 -10   15.52    0.99
   0   4 -10   13.23    1.36
   0   4 -10   14.63    0.96
  -2  -4 -10   29.02    1.18
  -2  -4 -10   29.80    1.78
  -2  -4 -10   27.31    1.47
  -2  -4 -10   28.13    1.34
  -2   4 -10   22.63    1.17
  -2   4 -10   23.69    1.19
  -2   4 -10   23.17    1.62
  -4  -4 -10    1.10    0.62
  -4  -4 -10    0.45    0.50
  -4  -4 -10    0.73    0.37
  -4   4 -10    0.99    0.42
  -6  -4 -10   37.78    2.01
  -6  -4 -10   35.13    1.61
  -6  -4 -10   37.72    1.49
  -6   4 -10   36.06    1.56
  -8  -4 -10    7.47    0.74
  -8  -4 -10    7.50    1.10
  -8  -4 -10    7.48    0.77
  -8   4 -10    7.42    0.77
 -10  -4 -10    1.62    0.68
 -10  -4 -10    2.20    0.56
 -10   4 -10    2.08    0.54
 -12  -4 -10   25.66    1.74
 -12  -4 -10   26.56    1.43
 -12   4 -10   27.69    1.48
 -14  -4 -10    4.20    0.95
 -14  -4 -10    3.63    0.73
 -14   4 -10    7.89    0.92
 -16  -4 -10    4.35    1.00
 -16  -4 -10    6.88    0.93
 -16   4 -10    6.45    0.90
 -18  -4 -10   18.34    1.73
 -18  -4 -10   16.37    1.41
 -18   4 -10   14.96    1.33
 -20  -4 -10    1.22    0.87
 -20  -4 -10    2.15    0.82
 -20   4 -10    2.14    0.80
 -22  -4 -10    1.62    0.86
 -22   4 -10    2.66    0.84
  24  -4  10    1.38    0.68
 -24  -4 -10    2.32    0.93
 -24   4 -10    5.85    1.12
 -26  -4 -10    4.09    1.13
 -26   4 -10    3.44    1.07
  26   4  10    2.55    0.83
 -28  -4 -10    2.93    1.15
  28   4  10    0.93    0.95
 -28   4 -10    2.46    1.07
  27  -5 -10    4.67    1.19
  27  -5 -10    6.38    1.60
  27   5 -10    2.77    1.30
  27   5 -10    4.74    1.70
  25  -5 -10    4.98    1.27
  25  -5 -10    5.06    1.37
  25   5 -10    4.41    1.28
  25   5 -10    5.43    1.66
  23  -5 -10   13.52    1.60
  23  -5 -10   17.79    1.96
  23   5 -10   17.25    2.17
  23   5 -10   17.94    1.85
  21  -5 -10    8.70    1.41
  21  -5 -10    7.35    1.37
  21   5 -10    4.79    1.37
  21   5 -10    5.27    1.17
  19  -5 -10    6.14    1.34
  19  -5 -10    5.30    1.07
  19   5 -10    3.00    1.17
  19   5 -10    4.98    1.09
  17  -5 -10   12.84    1.53
  17  -5 -10   11.00    1.34
  17   5 -10   11.93    1.66
  17   5 -10    9.94    1.38
  15  -5 -10   13.13    1.51
  15  -5 -10   10.25    1.25
  15  -5 -10   11.52    1.45
  15   5 -10    9.11    1.30
  15   5 -10   12.52    1.69
  13  -5 -10    2.44    0.90
  13  -5 -10    2.46    0.85
  13  -5 -10    3.11    0.87
  13   5 -10    3.84    1.07
  13   5 -10    3.79    1.00
  11  -5 -10   17.25    1.50
  11  -5 -10   17.86    1.65
  11  -5 -10   13.01    1.34
  11   5 -10   14.95    1.68
  11   5 -10   10.63    1.34
   9  -5 -10   12.54    1.34
   9  -5 -10   11.73    1.24
   9  -5 -10   10.02    1.15
   7  -5 -10    2.15    0.69
   7  -5 -10    2.26    0.72
   7  -5 -10    1.76    0.78
   7   5 -10    2.24    0.87
   5  -5 -10   16.81    1.56
   5  -5 -10   14.39    1.35
   5  -5 -10   13.50    1.16
   5   5 -10   16.03    1.59
   3  -5 -10   14.82    1.32
   3  -5 -10   14.71    1.41
   3  -5 -10   15.85    1.15
   3   5 -10   14.12    1.08
   3   5 -10   13.71    1.47
   1  -5 -10    1.68    0.70
   1  -5 -10    1.42    0.77
   1  -5 -10    1.41    0.54
   1   5 -10    2.32    0.57
   1   5 -10    1.89    0.81
  -1  -5 -10   11.28    1.13
  -1  -5 -10   10.03    1.21
  -1  -5 -10   10.45    0.90
  -1   5 -10   14.32    1.05
  -1   5 -10   12.91    1.43
  -3  -5 -10    7.61    0.93
  -3  -5 -10    7.19    0.71
  -3  -5 -10    6.44    1.09
  -3   5 -10    7.19    0.80
  -5  -5 -10    2.25    0.82
  -5  -5 -10    1.19    0.46
  -5  -5 -10    1.72    0.61
  -5   5 -10    0.22    0.45
  -7  -5 -10   34.18    1.62
  -7  -5 -10   35.07    1.99
  -7  -5 -10   34.20    1.55
  -7   5 -10   35.17    1.64
  -9  -5 -10    7.21    0.82
  -9  -5 -10    8.47    0.86
  -9  -5 -10    8.68    1.26
  -9   5 -10    5.20    0.74
 -11  -5 -10   27.42    1.88
 -11  -5 -10   24.20    1.43
 -11   5 -10   20.08    1.32
 -13  -5 -10   12.17    1.46
 -13  -5 -10   11.81    1.11
 -13   5 -10   11.71    1.10
 -15  -5 -10    1.08    0.65
 -15  -5 -10    0.16    0.75
 -15   5 -10   -0.49    0.56
 -17  -5 -10    1.37    0.75
 -17  -5 -10    2.38    1.01
 -17   5 -10    1.36    0.69
 -19  -5 -10   12.28    1.60
 -19  -5 -10   14.92    1.42
 -19   5 -10   15.12    1.40
 -21  -5 -10    4.85    1.04
 -21  -5 -10    6.34    1.33
 -21   5 -10    5.64    1.04
  23  -5  10    2.70    0.79
 -23  -5 -10    2.04    0.98
 -23   5 -10    2.52    0.95
 -25  -5 -10    5.15    1.20
  25  -5  10    4.77    0.92
 -25   5 -10    4.82    1.11
  27  -5  10    0.35    0.81
 -27  -5 -10   -0.04    0.93
 -27   5 -10    1.54    0.98
  26  -6 -10    8.80    1.82
  26  -6 -10   10.42    1.59
  26   6 -10    6.32    1.80
  26   6 -10    8.06    1.48
  24  -6 -10   22.25    2.23
  24  -6 -10   22.50    2.04
  24   6 -10   14.89    2.11
  24   6 -10   18.89    2.02
  22  -6 -10    4.48    1.10
  22  -6 -10    2.63    1.19
  22   6 -10    4.92    1.21
  22   6 -10    2.61    1.39
  20  -6 -10   12.89    1.74
  20  -6 -10   16.37    1.72
  20   6 -10   12.24    1.62
  20   6 -10    9.12    1.67
  18  -6 -10    1.65    0.94
  18  -6 -10    0.01    0.88
  18   6 -10    1.24    1.08
  18   6 -10    0.73    0.88
  16  -6 -10   31.09    1.98
  16  -6 -10   28.85    2.04
  16  -6 -10   31.29    2.06
  16   6 -10   26.17    2.30
  16   6 -10   24.95    2.06
  14  -6 -10   12.12    1.42
  14  -6 -10    8.52    1.24
  14  -6 -10   11.90    1.46
  14   6 -10    9.67    1.50
  12  -6 -10    3.17    0.97
  12  -6 -10    1.82    0.86
  12  -6 -10    3.58    0.94
  12   6 -10    4.68    1.14
  10  -6 -10   27.94    1.91
  10  -6 -10   30.09    1.82
  10  -6 -10   28.88    1.82
  10   6 -10   27.99    2.05
   8  -6 -10    5.89    1.06
   8  -6 -10    1.54    0.80
   8  -6 -10    2.14    0.76
   8   6 -10    3.06    0.98
   6  -6 -10    7.22    1.08
   6  -6 -10    5.66    1.07
   6  -6 -10    6.56    0.92
   6   6 -10    4.48    1.07
   4  -6 -10   28.81    1.72
   4  -6 -10   30.50    1.59
   4  -6 -10   30.78    2.01
   4   6 -10   28.08    2.05
   2  -6 -10   13.21    1.30
   2  -6 -10   10.60    0.98
   2  -6 -10   10.65    1.32
   2   6 -10    9.44    1.29
   2   6 -10    9.31    1.02
   0  -6 -10   20.55    1.45
   0  -6 -10   18.02    1.65
   0  -6 -10   18.56    1.31
   0   6 -10   17.34    1.66
   0   6 -10   16.87    1.25
  -2  -6 -10   14.86    1.30
  -2  -6 -10   13.41    1.44
  -2   6 -10   10.28    1.03
  -2   6 -10   11.68    1.38
  -4  -6 -10    1.91    0.56
  -4  -6 -10    3.24    0.73
  -4  -6 -10    1.50    0.78
  -4   6 -10    3.59    0.69
  -6  -6 -10   16.03    1.14
  -6  -6 -10   15.03    1.25
  -6  -6 -10   16.77    1.64
  -6   6 -10   14.00    1.16
  -8  -6 -10   11.34    1.05
  -8  -6 -10   13.15    1.48
  -8  -6 -10   11.41    1.07
  -8   6 -10   16.91    1.28
 -10  -6 -10    2.14    0.86
 -10  -6 -10    2.61    0.68
 -10   6 -10    2.13    0.69
 -12  -6 -10   23.14    1.49
 -12  -6 -10   22.19    1.96
 -12   6 -10   24.02    1.54
 -14  -6 -10    3.13    0.97
 -14  -6 -10    2.60    0.80
 -14   6 -10    4.32    0.83
 -16  -6 -10    5.68    1.24
 -16  -6 -10    5.94    1.03
 -16   6 -10    8.19    1.07
 -18  -6 -10   -0.54    0.65
 -18  -6 -10   -0.24    0.89
 -18   6 -10    0.23    0.69
 -20  -6 -10    4.74    1.28
 -20  -6 -10    5.11    1.09
 -20   6 -10    5.11    1.02
 -22  -6 -10   -0.18    1.10
 -22  -6 -10   -0.14    0.83
 -22   6 -10   -0.39    0.79
 -24  -6 -10    1.77    1.90
  24  -6  10    0.88    0.70
 -24  -6 -10    1.81    1.05
 -24   6 -10   -0.69    0.83
 -26  -6 -10    4.70    1.26
  26  -6  10    5.16    1.02
 -26   6 -10    6.73    1.30
  25  -7 -10   -0.69    1.17
  25   7 -10    0.48    1.10
  23  -7 -10    2.37    1.20
  23  -7 -10    0.70    0.92
  23   7 -10    1.94    1.48
  23   7 -10    2.43    1.09
  21  -7 -10   28.08    2.46
  21  -7 -10   31.12    2.15
  21   7 -10   25.06    2.59
  19  -7 -10    4.74    1.17
  19  -7 -10    3.61    1.14
  19   7 -10    5.09    1.46
  17  -7 -10    6.08    1.22
  17  -7 -10    4.01    1.08
  17  -7 -10    3.45    1.19
  17   7 -10    4.91    1.33
  15  -7 -10    4.77    1.23
  15  -7 -10    4.00    1.13
  15  -7 -10    1.02    0.83
  15   7 -10    1.87    1.15
  13  -7 -10    2.42    0.96
  13  -7 -10    0.37    0.77
  13  -7 -10    0.93    0.90
  13   7 -10   -0.13    0.98
  11  -7 -10    7.31    1.22
  11  -7 -10    9.48    1.38
  11  -7 -10    7.83    1.21
  11   7 -10    7.82    1.35
   9  -7 -10    8.42    1.26
   9  -7 -10    8.95    1.25
   9  -7 -10   12.64    1.33
   9   7 -10    6.82    1.29
   7  -7 -10   12.83    1.25
   7  -7 -10   15.68    1.69
   7  -7 -10   16.81    1.58
   7   7 -10   14.57    1.67
   5  -7 -10   28.92    1.56
   5  -7 -10   24.43    1.87
   5  -7 -10   28.62    1.85
   5   7 -10   30.83    2.15
   3  -7 -10    1.22    0.79
   3  -7 -10    1.76    0.78
   3  -7 -10    0.77    0.87
   3   7 -10    1.93    0.92
   3   7 -10    1.58    0.69
   1  -7 -10   15.81    1.64
   1  -7 -10   13.13    1.36
   1   7 -10   13.18    1.59
   1   7 -10   11.28    1.17
  -1  -7 -10   18.24    1.73
  -1  -7 -10   17.90    1.53
  -1   7 -10   20.40    1.83
  -1   7 -10   19.23    1.43
  -3  -7 -10    6.85    1.04
  -3  -7 -10    6.89    1.17
  -3   7 -10   10.01    1.11
  -5  -7 -10   12.74    1.26
  -5  -7 -10   13.65    1.62
  -5  -7 -10   13.79    1.17
  -5   7 -10   14.94    1.32
  -7  -7 -10   12.06    1.19
  -7  -7 -10   11.84    1.54
  -7  -7 -10   10.85    1.09
  -7   7 -10    5.33    0.87
  -9  -7 -10    2.05    0.98
  -9  -7 -10    0.99    0.63
  -9   7 -10    1.81    0.72
 -11  -7 -10    2.77    1.01
 -11  -7 -10    1.78    0.74
 -11   7 -10    5.06    0.89
 -13  -7 -10   26.38    2.27
 -13  -7 -10   26.07    1.77
 -13   7 -10   20.27    1.52
 -15  -7 -10    2.18    0.85
 -15  -7 -10    1.50    0.96
 -15   7 -10    2.83    0.87
 -17  -7 -10   10.47    1.71
 -17  -7 -10   13.57    1.48
 -17   7 -10   12.57    1.32
 -19  -7 -10    2.76    1.23
 -19  -7 -10    2.49    0.96
 -19   7 -10    0.90    0.83
 -21  -7 -10    0.65    1.14
 -21  -7 -10   -0.16    0.91
 -21   7 -10    0.98    0.85
  23  -7  10    5.09    1.04
 -23  -7 -10    4.04    1.16
 -23  -7 -10    2.89    1.36
 -23   7 -10    4.90    1.15
  25  -7  10    1.27    0.89
 -25  -7 -10    1.31    1.58
 -25  -7 -10    1.35    1.22
 -25   7 -10    3.41    1.15
  24  -8 -10    0.04    1.21
  22  -8 -10   12.45    1.72
  22  -8 -10   10.35    1.72
  22   8 -10    8.97    1.80
  20  -8 -10    2.07    1.01
  20  -8 -10    2.33    1.16
  20   8 -10    2.22    1.21
  18  -8 -10    7.73    1.40
  18  -8 -10    7.75    1.51
  18  -8 -10    8.42    1.42
  18   8 -10    5.52    1.47
  16  -8 -10    6.26    1.36
  16  -8 -10    8.66    1.48
  16  -8 -10    5.94    1.20
  16   8 -10    4.34    1.30
  14  -8 -10    6.37    1.26
  14  -8 -10    7.28    1.30
  14  -8 -10    7.10    1.23
  14   8 -10    9.04    1.63
  12  -8 -10   12.58    1.48
  12  -8 -10   12.64    1.65
  12  -8 -10   11.91    1.46
  12   8 -10   11.16    1.73
  10  -8 -10   -0.63    0.67
  10  -8 -10   -0.06    0.82
  10  -8 -10    0.70    0.86
  10   8 -10    0.69    0.93
  -8  -8  10    8.86    1.04
   8  -8 -10    6.88    1.22
   8  -8 -10    7.58    1.29
   8  -8 -10    5.16    1.03
   8   8 -10    7.65    1.37
   6  -8 -10   13.92    1.70
   6  -8 -10    8.54    1.24
   6   8 -10    9.46    1.44
   4  -8 -10   23.67    2.12
   4  -8 -10   26.97    1.81
   4   8 -10   18.80    1.61
   4   8 -10   19.53    1.88
   2  -8 -10    3.10    0.97
   2  -8 -10    3.25    1.10
   2   8 -10    3.57    0.88
   2   8 -10    3.93    1.09
   0  -8 -10   13.19    1.65
   0  -8 -10   12.78    1.41
   0   8 -10   10.08    1.21
   0   8 -10   11.76    1.51
  -2  -8 -10    6.52    1.24
  -2  -8 -10    9.20    1.22
  -2   8 -10    9.88    1.19
  -4  -8 -10    1.24    0.98
  -4  -8 -10    0.26    0.71
  -4   8 -10    0.67    0.68
  -6  -8 -10   26.01    2.21
  -6  -8 -10   24.33    1.58
  -6  -8 -10   21.17    1.70
  -6   8 -10   17.83    1.49
  -8  -8 -10    8.37    1.39
  -8  -8 -10    5.92    1.02
  -8  -8 -10    4.96    0.93
  -8   8 -10    9.55    1.17
  10  -8  10   -0.56    0.57
 -10  -8 -10    1.41    0.74
 -10  -8 -10   -0.25    0.95
 -10   8 -10    1.07    0.74
 -12  -8 -10    8.95    1.54
 -12  -8 -10    9.58    1.23
 -12   8 -10    7.27    1.12
 -14  -8 -10    1.70    0.88
 -14  -8 -10    3.60    1.29
 -14   8 -10   -0.26    0.73
 -16  -8 -10    5.68    1.15
 -16  -8 -10    5.64    1.49
 -16   8 -10    4.59    1.03
 -18  -8 -10   11.87    1.87
 -18  -8 -10   12.63    1.55
 -18   8 -10   11.47    1.40
 -20  -8 -10   -0.84    1.09
 -20  -8 -10   -0.41    0.85
 -20   8 -10    0.42    0.86
 -22  -8 -10    3.50    1.15
 -22  -8 -10    3.45    1.49
 -22   8 -10    3.43    1.11
  24  -8  10   -0.07    0.83
 -24  -8 -10    1.44    1.40
 -24   8 -10    0.98    1.10
 -21  -9  10    4.21    1.15
  21  -9 -10    6.53    1.47
  19  -9 -10    3.94    1.26
  19  -9 -10    3.00    1.24
 -19  -9  10    2.85    1.08
  19  -9 -10    3.04    1.16
  19   9 -10    2.06    1.26
 -17  -9  10    1.83    1.01
  17  -9 -10    2.53    1.19
  17  -9 -10    3.92    1.28
  17  -9 -10    2.81    1.09
  17   9 -10    3.68    1.41
  15  -9 -10   14.59    1.77
 -15  -9  10   11.03    1.44
  15  -9 -10   13.43    1.74
  15  -9 -10   14.05    1.76
  15   9 -10   12.81    1.84
  13  -9 -10    1.60    1.02
  13  -9 -10    1.49    1.08
 -13  -9  10    1.50    0.86
  13  -9 -10    0.97    1.00
  13   9 -10    4.00    1.36
  11  -9 -10   11.70    1.60
  11  -9 -10   17.08    1.78
 -11  -9  10   10.78    1.45
  11  -9 -10   11.55    1.44
  11   9 -10   11.19    1.67
   9  -9 -10   -0.05    0.88
   9  -9 -10   -0.22    0.86
   9   9 -10    0.85    1.10
   7  -9 -10    3.01    1.08
   7  -9 -10    2.77    0.96
   7   9 -10    1.00    0.94
   5  -9 -10   13.05    1.58
   5  -9 -10   14.90    1.73
   5   9 -10   13.07    1.49
   5   9 -10   11.23    1.68
   3  -9 -10    4.69    1.17
   3  -9 -10    4.07    1.10
   3   9 -10    5.74    1.09
   3   9 -10    7.47    1.33
   1  -9 -10   -0.36    0.70
   1  -9 -10    0.71    0.90
   1   9 -10    0.00    0.70
   1   9 -10   -0.92    0.76
  -1  -9 -10   23.71    2.21
  -1  -9 -10   20.91    1.84
  -1   9 -10   18.23    1.64
  -3  -9 -10    1.44    1.08
  -3  -9 -10    3.48    1.02
  -3   9 -10    3.33    0.93
  -5  -9 -10    1.25    1.07
  -5  -9 -10    1.23    0.88
  -5   9 -10    0.89    0.81
  -7  -9 -10    5.98    1.12
  -7  -9 -10    7.92    1.45
   7  -9  10    8.47    1.10
  -7  -9 -10    8.47    1.17
  -7   9 -10   10.17    1.27
  -9  -9 -10   14.38    1.45
   9  -9  10   13.40    1.26
  -9  -9 -10   10.66    1.74
  -9   9 -10   11.23    1.32
 -11  -9 -10   11.91    1.76
 -11  -9 -10    9.21    1.27
 -11   9 -10    9.88    1.30
 -13  -9 -10    0.46    1.15
 -13  -9 -10    0.78    0.87
 -13   9 -10    3.62    0.99
 -15  -9 -10    3.62    1.41
 -15  -9 -10    3.59    1.07
 -15   9 -10    4.46    1.10
 -17  -9 -10    2.44    1.10
 -17  -9 -10    3.45    1.46
 -17   9 -10    5.81    1.19
 -19  -9 -10    6.43    1.71
 -19  -9 -10    3.41    1.19
 -19   9 -10    4.18    1.11
 -21  -9 -10    0.35    1.28
 -21   9 -10    1.04    0.99
  18 -10 -10    6.96    1.53
 -18 -10  10    7.87    1.39
  18  10 -10    5.49    1.71
  16 -10 -10    7.32    1.49
  16 -10 -10    6.47    1.36
  16 -10 -10    7.83    1.56
 -16 -10  10    8.18    1.35
  16  10 -10   11.89    1.87
  14 -10 -10    0.54    0.99
  14 -10 -10   -0.72    1.01
  14  10 -10   -1.20    1.15
  12 -10 -10   18.28    2.04
  12 -10 -10   17.54    1.95
  12  10 -10   14.02    1.96
  10 -10 -10   25.13    2.36
  10 -10 -10   20.69    2.08
  10  10 -10   27.56    2.52
   8 -10 -10    4.03    1.30
   8 -10 -10    5.38    1.25
   8  10 -10    3.91    1.13
   8  10 -10    3.56    1.24
   6 -10 -10    7.82    1.42
   6 -10 -10    6.09    1.45
   6  10 -10    5.59    1.22
   6  10 -10    5.39    1.29
   4 -10 -10    1.50    1.03
   4 -10 -10    2.69    1.05
   4  10 -10    0.48    0.84
   4  10 -10    0.78    0.94
   2 -10 -10    6.35    1.35
   2 -10 -10    7.53    1.37
   2  10 -10    7.62    1.27
   2  10 -10    6.01    1.40
   0 -10 -10    1.65    1.04
   0 -10 -10    0.60    0.90
   0  10 -10    2.25    0.93
  -2 -10 -10    3.05    1.10
  -2 -10 -10    5.42    1.44
  -2  10 -10    3.96    1.04
  -4 -10 -10    6.02    1.25
  -4 -10 -10    6.86    1.42
  -4  10 -10    7.01    1.20
   6 -10  10    4.95    1.01
  -6 -10 -10    6.12    1.42
  -6 -10 -10    4.55    1.12
  -6  10 -10    7.11    1.20
  -8 -10 -10    3.51    1.24
   8 -10  10    2.79    0.87
  -8 -10 -10    3.11    1.01
  -8  10 -10    4.65    1.08
 -10 -10 -10    0.95    1.06
 -10 -10 -10    0.01    0.87
 -10  10 -10   -0.10    0.81
 -12 -10 -10   11.45    1.51
 -12 -10 -10    7.29    1.58
 -12  10 -10   10.00    1.39
 -14 -10 -10    6.13    1.51
 -14 -10 -10    3.72    1.17
 -14  10 -10    6.15    1.24
 -16 -10 -10    4.01    1.21
 -16 -10 -10    5.23    1.53
 -16  10 -10    2.36    1.02
 -18 -10 -10    8.95    2.11
 -18  10 -10    7.14    1.32
  13  11 -10    3.02    1.42
  11 -11 -10    2.49    1.30
  11 -11 -10    0.87    1.17
  11  11 -10    0.94    1.11
   9 -11 -10   11.56    1.66
   9 -11 -10   11.36    1.83
   9  11 -10   10.36    1.61
   9  11 -10    9.85    1.77
   7 -11 -10   14.19    1.78
   7 -11 -10   11.14    1.71
   7  11 -10   12.19    1.77
   7  11 -10   10.04    1.59
   5 -11 -10    0.40    1.02
   5 -11 -10   -0.67    0.85
   5  11 -10    0.95    1.16
   5  11 -10    1.30    1.00
   3 -11 -10   -0.06    1.16
   3 -11 -10    0.77    0.95
   3  11 -10    2.08    1.02
   3  11 -10    1.03    1.04
   1 -11 -10    1.28    1.04
   1 -11 -10    1.46    1.20
   1  11 -10    1.51    0.97
  -1 -11 -10    4.72    1.34
  -1 -11 -10    7.01    1.62
  -1  11 -10    6.05    1.24
   3 -11  10    0.91    0.91
  -3 -11 -10   -0.21    1.16
  -3 -11 -10   -1.09    0.89
  -3  11 -10    0.41    0.90
   5 -11  10    0.03    0.79
  -5 -11 -10   -0.93    0.90
  -5 -11 -10    0.69    1.09
  -5  11 -10    1.60    0.98
   7 -11  10   17.79    1.61
  -7 -11 -10   20.68    2.29
  -7  11 -10   14.69    1.65
  -9 -11 -10    1.05    0.95
  -9 -11 -10    0.78    1.20
   9 -11  10    1.58    0.87
  -9  11 -10    0.27    0.92
 -11 -11 -10    6.10    1.50
 -11 -11 -10    5.44    1.28
 -11  11 -10    3.51    1.13
 -13  11 -10    1.44    0.97
 -15  11 -10    1.36    1.77
   8  12 -10    0.44    1.22
   8  12 -10    0.45    1.15
   6 -12 -10    0.98    1.18
   6  12 -10   -0.19    1.02
   6  12 -10   -0.08    0.99
   4 -12 -10    8.30    1.59
   4  12 -10    7.38    1.48
   4  12 -10    9.76    1.57
   2 -12 -10    8.47    1.61
   2  12 -10    4.46    1.27
   0 -12  10    6.36    1.26
   0 -12 -10    6.74    1.50
   0  12 -10    7.46    1.42
  -2 -12 -10    0.14    1.17
   2 -12  10    0.66    0.85
  -2  12 -10   -1.15    0.89
  -4 -12 -10    5.73    1.45
   4 -12  10    5.19    1.16
  -4  12 -10    5.59    1.32
   6 -12  10    6.31    1.17
  -6  12 -10    3.58    1.21
   8 -12  10    0.46    0.88
  -8  12 -10    1.31    1.10
  30   0 -11    0.20    1.60
  28   0 -11    1.88    1.27
  28   0 -11    0.25    1.39
  26   0 -11    1.26    1.34
  26   0 -11    0.85    1.01
  24   0 -11    1.08    1.15
  24   0 -11    0.18    1.17
  22   0 -11    0.86    1.07
  22   0 -11    0.99    1.12
  20   0 -11    9.13    1.54
  20   0 -11    9.11    1.36
  18   0 -11    0.61    0.68
  18   0 -11    2.27    0.96
  18   0 -11    0.20    0.87
  16   0 -11   10.89    1.42
  16   0 -11   17.80    1.57
  16   0 -11   15.98    1.66
  14   0 -11    9.81    1.36
  14   0 -11   11.34    1.38
  14   0 -11    8.50    1.15
  12   0 -11   48.74    2.47
  12   0 -11   50.93    2.26
  12   0 -11   45.17    1.69
  12   0 -11   47.08    2.39
  10   0 -11   38.32    2.18
  10   0 -11   44.68    1.47
  10   0 -11   37.79    1.95
  10   0 -11   41.14    2.14
   8   0 -11   14.87    1.30
   8   0 -11   12.93    1.36
   8   0 -11   13.70    0.67
   8   0 -11   13.29    1.35
   6   0 -11    0.97    0.54
   6   0 -11   -0.36    0.61
   6   0 -11    0.12    0.66
   6   0 -11    0.27    0.20
   4   0 -11   11.75    1.28
   4   0 -11   12.24    1.21
   2   0 -11   54.00    2.49
   2   0 -11   57.82    2.41
   0   0 -11   25.49    1.58
  -2   0 -11    0.53    0.51
  -4   0 -11    2.60    0.31
  -4   0 -11    2.40    0.60
  -6   0 -11    1.08    0.31
  -6   0 -11    2.19    0.56
  -8   0 -11    2.55    0.42
  -8   0 -11    3.06    0.61
 -10   0 -11   24.56    1.17
 -10   0 -11   27.80    1.91
 -12   0 -11   31.84    1.44
 -14   0 -11   76.31    2.67
 -16   0 -11   -0.27    0.48
 -18   0 -11   19.11    1.36
 -20   0 -11   36.40    1.95
 -22   0 -11    3.99    0.95
 -24   0 -11    0.48    0.79
 -26   0 -11    4.05    1.07
 -28   0 -11    3.36    1.09
  29  -1 -11    7.56    1.89
  29   1 -11    4.29    1.63
  27  -1 -11    8.00    1.49
  27  -1 -11    4.00    1.49
  27   1 -11    7.42    1.47
  27   1 -11    5.99    1.77
  25  -1 -11   21.69    2.17
  25  -1 -11   27.66    2.66
  25  -1 -11   19.95    1.88
  25   1 -11   15.90    1.97
  25   1 -11   15.20    2.11
  23  -1 -11    2.13    1.04
  23  -1 -11    2.16    0.89
  23  -1 -11    2.00    1.24
  23   1 -11    3.05    1.20
  23   1 -11    2.10    1.30
  21  -1 -11    7.10    1.32
  21  -1 -11    4.88    1.31
  21  -1 -11    6.64    1.17
  21   1 -11    8.45    1.36
  21   1 -11    7.07    1.38
  19  -1 -11   16.77    1.80
  19  -1 -11   15.89    1.72
  19  -1 -11   15.49    1.57
  19   1 -11   15.92    1.86
  19   1 -11   18.30    1.85
  17  -1 -11    2.46    0.83
  17  -1 -11    3.13    0.94
  17  -1 -11    2.63    1.06
  17   1 -11    3.73    1.03
  17   1 -11    3.03    1.10
  15  -1 -11    4.43    1.06
  15  -1 -11    4.76    1.00
  15  -1 -11    5.39    1.15
  15   1 -11    5.03    1.09
  15   1 -11    7.50    1.30
  13  -1 -11   21.07    1.58
  13  -1 -11   22.13    1.59
  13  -1 -11   19.33    1.71
  13   1 -11   16.24    1.62
  13   1 -11   19.06    1.70
  11  -1 -11    7.34    1.09
  11  -1 -11    7.23    1.00
  11  -1 -11    6.63    1.07
  11  -1 -11    6.12    0.57
  11   1 -11    6.19    1.13
  11   1 -11    5.74    1.05
  11   1 -11    6.08    0.59
   9  -1 -11   13.48    1.24
   9  -1 -11   12.13    0.68
   9  -1 -11   15.31    1.41
   9  -1 -11   11.40    1.31
   9   1 -11   15.04    1.46
   9   1 -11   12.07    1.31
   9   1 -11   14.49    0.78
   7  -1 -11   22.15    1.41
   7  -1 -11   23.43    0.83
   7  -1 -11   20.84    1.64
   7  -1 -11   21.68    1.56
   7   1 -11   19.26    1.59
   7   1 -11   22.89    1.83
   7   1 -11   21.77    0.90
   5  -1 -11    6.97    0.88
   5  -1 -11    4.10    0.84
   5  -1 -11    6.63    1.00
   5   1 -11    4.71    0.89
   5   1 -11    6.17    0.45
   5   1 -11    4.44    0.92
   3  -1 -11   34.20    1.70
   3  -1 -11   33.89    1.79
   3  -1 -11   34.24    1.86
   3  -1 -11   35.21    1.75
   3   1 -11   32.03    1.91
   3   1 -11   28.59    1.75
   3   1 -11   30.83    0.98
   3   1 -11   29.87    1.00
   1  -1 -11    7.10    0.92
   1  -1 -11    9.54    0.96
   1  -1 -11    6.96    0.99
   1  -1 -11    6.92    0.92
   1   1 -11   13.34    0.56
   1   1 -11   14.11    0.56
   1   1 -11   15.15    1.40
  -1  -1 -11    5.67    0.75
  -1  -1 -11    4.80    0.82
  -1   1 -11    3.75    0.88
  -1   1 -11    4.16    0.35
  -1   1 -11    4.56    0.34
  -3  -1 -11   11.80    1.10
  -3  -1 -11   12.30    0.99
  -3   1 -11   16.92    0.71
  -3   1 -11   16.80    0.76
  -5  -1 -11   28.53    1.01
  -5  -1 -11   28.72    1.54
  -5   1 -11   27.60    1.05
  -7  -1 -11    7.36    0.57
  -7  -1 -11    7.84    0.89
  -7   1 -11    7.43    0.59
  -9  -1 -11   29.95    1.22
  -9  -1 -11   25.25    1.47
  -9   1 -11   32.70    1.35
 -11  -1 -11   25.86    1.44
 -11  -1 -11   25.14    1.23
 -11   1 -11   19.13    1.08
 -13  -1 -11    1.93    0.54
 -13   1 -11    1.84    0.54
 -15  -1 -11   33.40    1.63
 -15   1 -11   26.97    1.46
 -17  -1 -11    0.79    0.60
 -17   1 -11    2.06    0.66
 -19  -1 -11    9.67    1.10
 -19   1 -11    9.89    1.08
 -21  -1 -11   16.85    1.46
 -21   1 -11   12.73    1.30
 -23  -1 -11    0.68    0.75
 -23   1 -11    0.60    0.75
 -25  -1 -11    0.24    0.83
 -25   1 -11   -0.06    0.80
 -27  -1 -11    9.59    1.43
 -27   1 -11    7.97    1.36
  28  -2 -11   -0.44    1.20
  28  -2 -11    0.92    1.00
  28  -2 -11    0.69    1.38
  28   2 -11    0.74    1.32
  28   2 -11    0.24    1.23
  26  -2 -11   11.08    1.76
  26  -2 -11    5.75    1.22
  26  -2 -11    7.37    1.60
  26   2 -11    5.02    1.51
  26   2 -11    6.07    1.39
  24  -2 -11    3.36    1.31
  24  -2 -11    7.64    1.43
  24  -2 -11    6.49    1.28
  24   2 -11    6.34    1.41
  24   2 -11    7.39    1.63
  22  -2 -11    1.18    0.82
  22  -2 -11    0.47    1.07
  22  -2 -11    1.52    1.06
  22   2 -11   -0.28    0.82
  22   2 -11    0.22    1.03
  20  -2 -11   31.19    2.22
  20  -2 -11   29.35    2.01
  20  -2 -11   30.80    2.18
  20   2 -11   26.37    2.44
  20   2 -11   21.60    2.04
  18  -2 -11    6.38    1.20
  18  -2 -11    4.35    1.13
  18  -2 -11    8.84    1.26
  18   2 -11    9.81    1.61
  18   2 -11    9.24    1.38
  16  -2 -11   13.88    1.60
  16  -2 -11   14.27    1.54
  16  -2 -11   14.24    1.47
  16   2 -11   12.20    1.61
  16   2 -11   10.12    1.36
  14  -2 -11   21.49    1.83
  14  -2 -11   17.22    1.57
  14  -2 -11   17.80    1.55
  14   2 -11   19.00    1.90
  14   2 -11   21.82    1.90
  12  -2 -11    0.91    0.69
  12  -2 -11    2.02    0.81
  12  -2 -11    1.88    0.73
  12   2 -11    1.09    0.78
  12   2 -11    1.26    0.88
  10  -2 -11    6.07    0.55
  10  -2 -11    4.86    0.88
  10  -2 -11    5.27    1.01
  10  -2 -11    4.74    0.90
  10   2 -11    3.21    0.65
  10   2 -11    4.48    0.95
  10   2 -11    3.45    0.92
   8  -2 -11   18.84    0.84
   8  -2 -11   19.31    1.59
   8  -2 -11   21.23    1.49
   8  -2 -11   19.41    1.44
   8   2 -11   18.87    0.93
   8   2 -11   16.35    1.60
   8   2 -11   23.08    1.59
   6  -2 -11    8.77    1.07
   6  -2 -11    5.63    0.96
   6  -2 -11    6.85    0.94
   6  -2 -11    7.43    0.99
   6  -2 -11    7.63    0.47
   6   2 -11    8.06    0.62
   6   2 -11    8.95    1.27
   6   2 -11    6.63    0.99
   4  -2 -11    7.91    1.06
   4  -2 -11    8.54    0.96
   4  -2 -11    8.48    1.03
   4  -2 -11    8.03    0.99
   4   2 -11    7.70    1.14
   4   2 -11    8.78    0.60
   2  -2 -11   22.28    1.38
   2  -2 -11   20.47    1.37
   2  -2 -11   24.23    1.46
   2  -2 -11   20.60    1.46
   2   2 -11   19.87    1.67
   2   2 -11   19.06    0.84
   2   2 -11   20.21    0.89
   0  -2 -11   13.53    1.26
   0  -2 -11   13.87    1.14
   0  -2 -11   15.07    1.22
   0   2 -11   13.75    0.71
   0   2 -11   13.29    0.70
   0   2 -11   12.47    1.32
  -2  -2 -11   11.99    1.03
  -2  -2 -11   13.41    1.24
  -2   2 -11   15.00    0.79
  -2   2 -11   13.82    1.38
  -2   2 -11   14.29    0.74
  -4  -2 -11   13.86    1.06
  -4  -2 -11   14.57    0.64
  -4  -2 -11   12.29    1.18
  -4   2 -11   13.99    0.76
  -6  -2 -11   11.23    0.68
  -6  -2 -11   10.02    0.88
  -6  -2 -11   10.01    1.08
  -6   2 -11   10.01    0.72
  -8  -2 -11   17.47    1.30
  -8  -2 -11   15.72    0.90
  -8   2 -11   15.29    0.92
 -10  -2 -11    2.45    0.52
 -10  -2 -11    2.25    0.70
 -10   2 -11    2.01    0.49
 -12  -2 -11    1.82    0.68
 -12  -2 -11    1.55    0.51
 -12   2 -11    2.29    0.57
 -14  -2 -11    5.30    0.76
 -14  -2 -11    5.58    0.91
 -14   2 -11    2.98    0.64
 -16  -2 -11    8.37    0.95
 -16   2 -11   11.89    1.09
 -18  -2 -11    2.23    0.74
 -18   2 -11    3.56    0.74
 -20  -2 -11    0.95    0.74
 -20   2 -11    4.14    0.88
 -22  -2 -11   19.06    1.64
 -22   2 -11   20.85    1.66
 -24  -2 -11   -0.26    0.79
 -24   2 -11    1.52    0.86
 -26  -2 -11    5.42    1.16
 -26   2 -11    5.24    1.16
 -28  -2 -11    6.59    2.12
 -28   2 -11    5.90    1.41
  27  -3 -11    2.39    1.33
  27  -3 -11    5.30    1.65
  27  -3 -11    3.35    1.10
  27   3 -11    4.13    1.75
  27   3 -11    5.10    1.49
  25  -3 -11    1.66    1.20
  25  -3 -11    3.23    1.36
  25  -3 -11    1.06    0.89
  25   3 -11    0.75    1.37
  25   3 -11    1.86    1.19
  23  -3 -11    5.09    1.32
  23  -3 -11    3.17    1.03
  23  -3 -11    4.08    1.20
  23   3 -11    1.40    1.12
  23   3 -11    2.43    1.21
  21  -3 -11    4.38    1.18
  21  -3 -11    6.98    1.41
  21  -3 -11    6.66    1.22
  21   3 -11    5.34    1.23
  21   3 -11    4.64    1.35
  19  -3 -11   -0.10    0.88
  19  -3 -11    1.43    0.88
  19  -3 -11    1.65    0.93
  19   3 -11    0.29    0.98
  19   3 -11   -0.13    0.93
  17  -3 -11   10.39    1.44
  17  -3 -11   11.69    1.35
  17  -3 -11    7.87    1.24
  17   3 -11    8.35    1.43
  17   3 -11    8.44    1.32
  15  -3 -11   15.82    1.50
  15  -3 -11   13.86    1.53
  15  -3 -11   16.31    1.54
  15   3 -11   13.41    1.52
  15   3 -11   10.37    1.48
  13  -3 -11   34.22    2.08
  13  -3 -11   39.89    2.05
  13  -3 -11   40.34    2.18
  13   3 -11   38.99    2.22
  13   3 -11   34.83    2.26
  11  -3 -11    4.19    0.94
  11  -3 -11    3.69    0.86
  11  -3 -11    3.94    0.85
  11   3 -11    4.01    0.98
  11   3 -11    2.60    0.94
   9  -3 -11   21.81    1.58
   9  -3 -11   20.20    1.45
   9  -3 -11   20.89    1.02
   9  -3 -11   20.78    1.49
   9  -3 -11   24.95    1.64
   9   3 -11   19.87    1.67
   9   3 -11   19.38    1.81
   7  -3 -11   33.06    1.81
   7  -3 -11   30.26    1.76
   7  -3 -11   25.02    1.71
   7  -3 -11   31.92    1.69
   7  -3 -11   29.17    1.14
   7   3 -11   29.54    1.30
   7   3 -11   30.16    1.95
   7   3 -11   32.90    2.12
   5  -3 -11   22.40    1.42
   5  -3 -11   21.74    1.46
   5  -3 -11   20.98    1.41
   5  -3 -11   24.80    1.59
   5   3 -11   25.34    1.79
   5   3 -11   24.53    1.12
   3  -3 -11    2.88    0.71
   3  -3 -11    3.13    0.79
   3  -3 -11    2.62    0.69
   3  -3 -11    5.53    0.88
   3   3 -11    2.37    0.48
   3   3 -11    2.54    0.44
   3   3 -11    1.94    0.83
   1  -3 -11   21.30    1.34
   1  -3 -11   25.00    1.57
   1  -3 -11   21.77    1.40
   1   3 -11   26.46    1.17
   1   3 -11   25.15    1.12
   1   3 -11   26.43    1.87
  -1  -3 -11    4.04    0.71
  -1  -3 -11    3.68    0.72
  -1  -3 -11    4.02    0.82
  -1   3 -11    5.05    0.56
  -1   3 -11    6.10    0.61
  -1   3 -11    4.53    0.98
  -3  -3 -11   22.55    1.55
  -3  -3 -11   20.03    0.86
  -3  -3 -11   20.30    1.26
  -3   3 -11   23.51    1.14
  -3   3 -11   24.16    1.11
  -5  -3 -11   25.02    1.05
  -5  -3 -11   25.30    1.37
  -5  -3 -11   26.51    1.66
  -5   3 -11   20.01    1.03
  -7  -3 -11   12.96    0.99
  -7  -3 -11   12.12    1.27
  -7  -3 -11   11.59    0.81
  -7   3 -11   10.48    0.82
  -9  -3 -11   50.39    2.36
  -9  -3 -11   53.42    1.92
  -9   3 -11   50.99    1.95
 -11  -3 -11    7.67    0.80
 -11  -3 -11    6.92    1.05
 -11   3 -11    8.29    0.82
 -13  -3 -11    7.16    0.84
 -13  -3 -11    6.92    1.05
 -13   3 -11    5.13    0.73
 -15  -3 -11   43.41    1.98
 -15  -3 -11   43.80    2.26
 -15   3 -11   36.97    1.77
 -17  -3 -11    0.60    0.63
 -17   3 -11    1.43    0.65
 -19  -3 -11   11.91    1.24
 -19   3 -11   12.95    1.25
 -21  -3 -11    4.40    1.00
 -21   3 -11    3.47    0.89
 -23  -3 -11    0.25    0.82
 -23   3 -11    0.47    0.80
 -25  -3 -11    9.30    1.38
 -25   3 -11    9.59    1.32
 -27  -3 -11   -0.12    0.99
 -27   3 -11    0.51    0.90
  26  -4 -11    3.15    1.29
  26  -4 -11    1.82    1.04
  26   4 -11    4.00    1.27
  26   4 -11    3.56    1.62
  24  -4 -11    3.72    1.22
  24  -4 -11    4.90    1.39
  24   4 -11    1.80    1.20
  24   4 -11    5.55    1.64
  22  -4 -11    2.80    1.28
  22  -4 -11    4.24    1.23
  22   4 -11    2.78    1.39
  22   4 -11    3.73    1.16
  20  -4 -11    4.67    1.26
  20  -4 -11    3.43    1.02
  20   4 -11    5.69    1.30
  20   4 -11    4.90    1.42
  18  -4 -11    6.47    1.15
  18  -4 -11    4.09    1.19
  18   4 -11    5.92    1.43
  18   4 -11    6.36    1.28
  16  -4 -11   13.43    1.50
  16  -4 -11   13.33    1.62
  16   4 -11   17.77    1.93
  14  -4 -11   25.85    1.85
  14  -4 -11   29.02    1.92
  14  -4 -11   24.85    1.70
  14   4 -11   25.36    1.87
  14   4 -11   20.97    1.99
  12  -4 -11    4.08    0.94
  12  -4 -11    3.67    1.02
  12  -4 -11    2.85    0.78
  12  -4 -11    4.45    1.01
  12   4 -11    2.12    0.94
  12   4 -11    1.97    0.84
  10  -4 -11    2.40    0.80
  10  -4 -11    2.77    0.75
  10  -4 -11    3.57    0.90
  10  -4 -11    3.80    0.94
  10   4 -11    3.26    0.93
  10   4 -11    3.06    0.98
   8  -4 -11   29.14    1.86
   8  -4 -11   29.67    1.76
   8  -4 -11   30.70    1.64
   8  -4 -11   27.56    1.74
   8   4 -11   29.18    2.02
   6  -4 -11    3.42    0.70
   6  -4 -11    3.29    0.86
   6  -4 -11    3.75    0.80
   6  -4 -11    3.08    0.79
   6   4 -11    3.59    1.00
   4  -4 -11    3.53    0.67
   4  -4 -11    2.96    0.83
   4  -4 -11    2.89    0.75
   4  -4 -11    2.85    0.81
   4   4 -11    0.46    0.77
   2  -4 -11   24.16    1.48
   2  -4 -11   26.91    1.71
   2  -4 -11   26.91    1.61
   2   4 -11   20.63    1.83
   2   4 -11   27.33    1.29
   0  -4 -11    4.01    0.87
   0  -4 -11    3.13    0.75
   0  -4 -11    4.27    0.70
   0   4 -11    2.85    0.53
   0   4 -11    2.61    0.87
  -2  -4 -11   42.54    1.94
  -2  -4 -11   42.30    1.78
  -2  -4 -11   42.93    2.18
  -2   4 -11   37.35    2.14
  -2   4 -11   35.72    1.53
  -4  -4 -11    4.89    0.77
  -4  -4 -11    3.64    0.91
  -4  -4 -11    3.60    0.50
  -4   4 -11    8.30    0.78
  -6  -4 -11   20.38    1.70
  -6  -4 -11   18.77    1.04
  -6  -4 -11   17.97    1.21
  -6   4 -11   16.11    1.05
  -8  -4 -11    2.49    0.52
  -8  -4 -11    3.33    0.89
  -8   4 -11    3.50    0.61
 -10  -4 -11   24.77    1.74
 -10  -4 -11   23.71    1.31
 -10   4 -11   18.87    1.18
 -12  -4 -11    0.84    0.55
 -12  -4 -11    0.68    0.78
 -12   4 -11   -0.09    0.48
 -14  -4 -11    5.51    1.08
 -14  -4 -11    5.34    0.83
 -14   4 -11    6.29    0.85
 -16  -4 -11    9.95    1.10
 -16  -4 -11    9.95    1.38
 -16   4 -11    8.64    1.01
 -18  -4 -11    3.08    1.06
 -18  -4 -11    2.76    0.83
 -18   4 -11    2.67    0.80
 -20  -4 -11    8.30    1.18
 -20   4 -11    9.15    1.17
 -22  -4 -11    9.90    1.33
 -22   4 -11    6.88    1.13
 -24  -4 -11    2.73    1.03
 -24   4 -11    1.03    0.89
 -26  -4 -11    4.86    1.22
 -26   4 -11    7.52    1.32
  25  -5 -11   12.85    1.68
  25  -5 -11   16.40    2.07
  25   5 -11   11.08    1.69
  25   5 -11    5.75    1.76
  23  -5 -11    6.63    1.28
  23  -5 -11    5.12    1.37
  23   5 -11    7.25    1.75
  23   5 -11    8.05    1.45
  21  -5 -11    6.26    1.55
  21  -5 -11    8.52    1.36
  21   5 -11    5.16    1.34
  21   5 -11   -1.30    1.14
  19  -5 -11   19.69    2.05
  19  -5 -11   18.13    1.77
  19   5 -11   18.29    2.10
  19   5 -11   19.91    1.95
  17  -5 -11    0.93    0.84
  17  -5 -11    0.01    0.86
  17   5 -11    1.02    1.01
  17   5 -11    0.06    0.95
  15  -5 -11   16.96    1.73
  15  -5 -11   16.57    1.69
  15   5 -11   12.90    1.59
  15   5 -11   14.43    1.86
  13  -5 -11    6.11    1.20
  13  -5 -11    5.35    1.13
  13  -5 -11    5.86    1.11
  13   5 -11    4.10    1.29
  13   5 -11    6.07    1.27
  11  -5 -11    0.71    0.80
  11  -5 -11    0.91    0.80
  11  -5 -11    1.33    0.89
  11   5 -11    2.00    0.92
   9  -5 -11   21.18    1.75
   9  -5 -11   23.37    1.82
   9  -5 -11   21.44    1.61
   9   5 -11   15.62    1.70
   7  -5 -11   14.96    1.41
   7  -5 -11   13.22    1.30
   7  -5 -11   11.76    1.41
   7   5 -11   10.13    1.40
   5  -5 -11    3.11    0.89
   5  -5 -11    3.35    0.83
   5  -5 -11    3.49    0.76
   5   5 -11    1.94    0.89
   3  -5 -11   36.74    1.80
   3  -5 -11   36.50    2.10
   3  -5 -11   37.27    1.99
   3   5 -11   37.36    2.30
   3   5 -11   32.19    1.62
   1  -5 -11    2.80    0.91
   1  -5 -11    2.31    0.76
   1  -5 -11    2.94    0.68
   1   5 -11    1.72    0.56
   1   5 -11    2.78    0.91
  -1  -5 -11   17.42    1.42
  -1  -5 -11   17.71    1.66
  -1   5 -11   13.86    1.53
  -1   5 -11   13.94    1.06
  -3  -5 -11   26.29    1.85
  -3  -5 -11   24.69    1.51
  -3   5 -11   25.42    1.38
  -5  -5 -11   17.78    1.67
  -5  -5 -11   21.34    1.34
  -5  -5 -11   19.92    1.13
  -5   5 -11   24.51    1.36
  -7  -5 -11    1.41    0.80
  -7  -5 -11    2.98    0.69
  -7  -5 -11    2.11    0.53
  -7   5 -11    1.95    0.58
  -9  -5 -11   14.55    1.10
  -9  -5 -11   11.67    1.45
  -9   5 -11   18.56    1.27
 -11  -5 -11    7.57    0.89
 -11  -5 -11    7.05    1.20
 -11   5 -11   10.11    1.03
 -13  -5 -11    5.82    1.18
 -13  -5 -11    4.38    0.81
 -13   5 -11    6.31    0.89
 -15  -5 -11    9.25    1.09
 -15  -5 -11    7.69    1.31
 -15   5 -11    9.05    1.06
 -17  -5 -11    4.69    1.19
 -17  -5 -11    5.04    0.97
 -17   5 -11    2.45    0.78
 -19  -5 -11    5.37    1.03
 -19  -5 -11    4.22    1.19
 -19   5 -11    3.35    0.89
 -21  -5 -11    4.91    1.09
 -21   5 -11    6.71    1.14
  23  -5  11    3.21    0.90
 -23  -5 -11    2.03    1.00
 -23   5 -11    1.86    0.93
 -25  -5 -11    4.29    1.35
 -25   5 -11    3.03    1.07
  24  -6 -11    1.01    1.14
  24  -6 -11    2.22    1.35
  24   6 -11    1.13    1.03
  22  -6 -11    0.94    1.02
  22  -6 -11    2.52    1.31
  22   6 -11    0.50    1.08
  22   6 -11    1.90    1.36
  20  -6 -11   14.29    1.81
  20  -6 -11   12.88    1.66
  20   6 -11   11.98    1.92
  20   6 -11   11.71    1.71
  18  -6 -11    7.54    1.37
  18  -6 -11    8.24    1.52
  18   6 -11    7.39    1.39
  18   6 -11    6.94    1.64
  16  -6 -11    2.88    1.15
  16  -6 -11    3.36    1.06
  16  -6 -11    4.20    1.12
  16   6 -11    5.94    1.49
  14  -6 -11    1.62    0.85
  14  -6 -11    1.72    0.91
  14  -6 -11    1.77    0.88
  14   6 -11    0.32    0.95
  12  -6 -11   13.27    1.49
  12  -6 -11   14.83    1.53
  12  -6 -11   14.09    1.62
  12   6 -11   14.05    1.76
  10  -6 -11   14.13    1.46
  10  -6 -11   13.12    1.52
  10  -6 -11   16.09    1.70
  10   6 -11   15.39    1.78
   8  -6 -11    5.69    1.06
   8  -6 -11    4.14    1.12
   8  -6 -11    4.26    0.93
   8   6 -11    3.31    1.07
   6  -6 -11    6.54    0.97
   6  -6 -11    6.02    1.22
   6  -6 -11    5.36    1.04
   6   6 -11    7.87    1.32
   4  -6 -11   16.40    1.72
   4  -6 -11   14.03    1.22
   4  -6 -11   11.01    1.27
   4   6 -11   13.46    1.21
   4   6 -11   11.95    1.52
   2  -6 -11   23.56    1.98
   2  -6 -11   24.23    1.71
   2   6 -11   24.94    1.47
   2   6 -11   22.94    2.02
   0  -6 -11    4.02    0.99
   0  -6 -11    5.31    0.95
   0   6 -11    7.41    0.92
   0   6 -11    7.07    1.31
  -2  -6 -11   19.04    1.79
  -2  -6 -11   15.42    1.39
  -2   6 -11   21.46    1.40
  -4  -6 -11   40.74    1.80
  -4  -6 -11   42.89    2.11
  -4  -6 -11   44.94    2.40
  -4   6 -11   38.10    1.83
  -6  -6 -11    2.64    0.61
  -6  -6 -11    1.02    0.88
  -6  -6 -11    2.73    0.72
  -6   6 -11    3.40    0.72
  -8  -6 -11    2.18    0.64
  -8  -6 -11    3.17    1.08
  -8   6 -11    1.74    0.66
 -10  -6 -11   15.76    1.29
 -10  -6 -11   17.96    1.80
 -10   6 -11   11.84    1.15
 -12  -6 -11    5.74    0.93
 -12  -6 -11    3.46    1.11
 -12   6 -11    4.53    0.86
 -14  -6 -11   12.98    1.27
 -14  -6 -11   11.58    1.53
 -14   6 -11   11.07    1.19
 -16  -6 -11    4.71    1.25
 -16  -6 -11    5.20    0.99
 -16   6 -11    4.68    0.93
 -18  -6 -11    0.89    0.84
 -18  -6 -11   -0.38    0.92
 -18   6 -11   -0.03    0.73
 -20  -6 -11   16.18    1.96
 -20  -6 -11   16.87    1.67
 -20   6 -11   19.21    1.66
 -22  -6 -11    2.07    1.02
 -22   6 -11    3.71    1.00
  24  -6  11    1.30    0.85
 -24   6 -11    0.52    0.90
  23  -7 -11    4.89    1.55
  21  -7 -11    1.08    0.91
  21  -7 -11    1.05    1.26
  21   7 -11    2.26    1.37
  19  -7 -11    9.53    1.70
  19  -7 -11   12.35    1.56
  19   7 -11    5.83    1.67
  17  -7 -11   14.25    1.65
  17  -7 -11   11.82    1.55
  17  -7 -11   13.12    1.74
  17   7 -11    9.66    1.69
  15  -7 -11    6.98    1.29
  15  -7 -11    5.11    1.14
  15  -7 -11    4.53    1.24
  15   7 -11    3.93    1.41
  13  -7 -11   30.40    2.14
  13  -7 -11   27.11    2.07
  13  -7 -11   28.24    2.08
  13   7 -11   23.03    2.26
  11  -7 -11    0.65    0.85
  11  -7 -11    1.71    0.95
  11  -7 -11    3.65    1.01
  11   7 -11    1.43    1.15
   9  -7 -11   10.60    1.30
   9  -7 -11    8.25    1.26
   9  -7 -11    9.64    1.41
   9   7 -11    5.66    1.27
   7  -7 -11   12.73    1.45
   7  -7 -11   18.53    1.82
   7  -7 -11   17.42    1.48
   7   7 -11   17.62    1.87
   5  -7 -11    0.05    0.80
   5  -7 -11   -0.15    0.78
   5   7 -11    0.10    0.82
   5   7 -11   -0.50    0.59
   3  -7 -11    6.13    1.07
   3  -7 -11    7.85    1.27
   3   7 -11    7.33    1.01
   3   7 -11    7.24    1.29
   1  -7 -11   16.75    1.59
   1  -7 -11   23.29    2.05
   1   7 -11   16.41    1.75
   1   7 -11   15.80    1.38
  -1  -7 -11    0.71    0.78
  -1  -7 -11    1.62    0.87
  -1   7 -11    0.88    0.86
  -1   7 -11    0.33    0.62
  -3  -7 -11    8.11    1.15
  -3  -7 -11    9.59    1.48
  -3   7 -11   12.20    1.20
  -5  -7 -11    9.20    1.16
  -5  -7 -11   12.82    1.63
  -5  -7 -11   11.53    1.09
  -5   7 -11    9.25    1.07
  -7  -7 -11    7.09    0.96
  -7  -7 -11    9.99    1.54
  -7   7 -11    8.78    1.05
  -9  -7 -11    4.65    0.87
  -9  -7 -11    2.08    1.08
  -9   7 -11    5.50    0.92
 -11  -7 -11    4.93    1.21
 -11  -7 -11    2.59    0.81
 -11   7 -11    2.45    0.79
 -13  -7 -11    9.49    1.49
 -13  -7 -11    7.40    1.07
 -13   7 -11    6.36    1.02
 -15  -7 -11    2.14    0.85
 -15  -7 -11    0.15    1.05
 -15   7 -11    2.36    0.87
 -17  -7 -11    3.76    1.01
 -17  -7 -11    5.35    1.40
 -17   7 -11    3.66    0.96
 -19  -7 -11    6.23    1.16
 -19  -7 -11    2.10    1.31
 -19   7 -11    2.29    0.93
 -21  -7 -11    6.02    1.58
 -21  -7 -11    6.37    1.24
 -21   7 -11    1.97    0.94
  23  -7  11    1.25    0.88
  22  -8 -11    5.03    1.50
  20  -8 -11    9.00    1.72
  18  -8 -11   -0.08    1.12
  18  -8 -11    0.75    1.01
  18  -8 -11   -0.29    0.90
  18   8 -11    0.12    1.23
  16  -8 -11    6.72    1.32
  16  -8 -11    3.72    1.34
  16  -8 -11    6.92    1.39
  16   8 -11    3.91    1.51
  14  -8 -11   32.25    2.32
  14  -8 -11   31.50    2.27
  14  -8 -11   29.57    2.16
  14   8 -11   34.93    2.63
  12  -8 -11    0.69    0.93
  12  -8 -11   -0.16    0.90
  12  -8 -11   -0.38    0.82
  12   8 -11    1.46    1.16
  10  -8 -11    6.96    1.40
  10  -8 -11    7.66    1.40
  10  -8 -11    6.29    1.21
  10   8 -11    4.36    1.26
   8  -8 -11   15.10    1.69
   8  -8 -11   15.06    1.73
   8   8 -11   15.08    1.95
   6  -8 -11    1.52    0.97
   6  -8 -11    3.65    1.13
   6   8 -11    3.50    0.92
   6   8 -11    3.79    1.29
   4  -8 -11    3.84    1.17
   4  -8 -11    4.57    1.08
   4   8 -11    5.39    1.28
   4   8 -11    5.23    1.02
   2  -8 -11    2.88    0.87
   2  -8 -11    1.67    1.03
   2   8 -11    2.85    1.06
   2   8 -11   -0.14    0.68
   0  -8 -11    8.11    1.20
   0  -8 -11    8.28    1.46
   0   8 -11    5.65    0.98
   0   8 -11    6.12    1.27
  -2  -8 -11   36.25    2.39
  -2  -8 -11   36.69    2.17
  -2   8 -11   35.06    2.00
  -4  -8 -11    0.38    0.90
  -4  -8 -11    0.15    0.73
  -4   8 -11    0.16    0.67
  -6  -8 -11    3.69    1.25
  -6  -8 -11    4.78    0.90
  -6  -8 -11    2.90    1.30
  -6   8 -11    3.69    0.91
  -8  -8 -11    7.57    1.07
  -8  -8 -11    7.28    1.37
  -8   8 -11    6.81    1.06
 -10  -8 -11   10.18    1.66
 -10  -8 -11   10.02    1.22
 -10   8 -11    9.84    1.23
 -12  -8 -11    0.74    0.79
 -12  -8 -11    0.06    0.90
 -12   8 -11   -0.26    0.73
 -14  -8 -11    3.99    1.03
 -14  -8 -11    5.77    1.49
 -14   8 -11    3.62    0.97
 -16  -8 -11   10.21    1.75
 -16  -8 -11    9.80    1.39
 -16   8 -11   10.90    1.33
 -18  -8 -11    0.53    1.22
 -18  -8 -11    0.78    0.90
 -18   8 -11   -0.05    0.85
 -20  -8 -11    4.23    1.49
 -20   8 -11    0.84    0.93
 -19  -9  11    0.09    0.98
  19  -9 -11   -0.15    1.21
  17  -9 -11   -1.81    1.52
  17  -9 -11   -0.70    1.08
  17  -9 -11   -0.71    1.56
 -17  -9  11    0.78    0.98
  17   9 -11    0.84    1.34
  15  -9 -11   10.84    1.66
  15  -9 -11    6.93    1.48
  15  -9 -11   10.41    1.65
  15   9 -11    7.33    1.62
  13  -9 -11    4.99    1.31
  13  -9 -11    2.80    1.21
  13   9 -11    0.34    1.20
  11  -9 -11    5.96    1.46
  11  -9 -11    4.79    1.19
  11   9 -11    8.14    1.67
   9  -9 -11    6.78    1.39
   9  -9 -11    6.73    1.49
   9   9 -11   10.14    1.71
   7  -9 -11    5.41    1.29
   7  -9 -11    9.36    1.54
   7   9 -11    4.28    1.08
   7   9 -11    3.55    1.34
   5  -9 -11    7.65    1.39
   5  -9 -11    7.33    1.39
   5   9 -11    8.86    1.31
   5   9 -11    8.47    1.48
   3  -9 -11    4.89    1.36
   3  -9 -11    3.11    1.03
   3   9 -11    3.16    1.21
   3   9 -11    1.70    0.88
   1  -9 -11    2.96    1.06
   1  -9 -11    5.61    1.39
   1   9 -11    5.29    1.08
   1   9 -11    4.13    1.18
  -1  -9 -11   -0.24    0.87
  -1  -9 -11    0.76    0.90
  -1   9 -11    1.26    0.82
  -3  -9 -11   12.37    1.76
  -3  -9 -11    8.65    1.37
  -3   9 -11    7.76    1.19
  -5  -9 -11    2.06    1.20
  -5  -9 -11    3.62    1.03
  -5   9 -11    3.03    0.93
  -7  -9 -11    1.29    1.09
  -7  -9 -11    1.99    0.84
  -7   9 -11    0.04    0.77
  -9  -9 -11   13.11    1.40
  -9  -9 -11   11.13    1.69
  -9   9 -11   10.93    1.34
 -11  -9 -11   -0.08    1.19
 -11  -9 -11    0.13    0.82
 -11   9 -11    0.49    0.83
 -13  -9 -11    2.72    1.24
 -13  -9 -11    1.67    0.93
 -13   9 -11    2.49    0.95
 -15  -9 -11   14.42    2.12
 -15  -9 -11   13.04    1.54
 -15   9 -11   13.12    1.49
 -17  -9 -11    1.47    1.35
 -17   9 -11    1.66    0.93
 -19  -9 -11    4.33    1.65
  12 -10 -11    5.39    1.67
  12 -10 -11    4.99    1.30
  12  10 -11    8.65    1.75
  10 -10 -11   -0.35    1.02
  10 -10 -11    0.64    1.11
  10  10 -11    0.82    1.24
   8 -10 -11    3.98    1.25
   8 -10 -11    1.10    1.10
   8  10 -11    1.85    1.03
   8  10 -11    1.50    1.12
   6 -10 -11    3.43    1.14
   6 -10 -11    3.73    1.40
   6  10 -11    5.34    1.49
   6  10 -11    3.35    1.09
   4 -10 -11    2.26    1.27
   4 -10 -11    2.51    1.18
   4  10 -11    3.13    1.03
   4  10 -11    4.53    1.39
   2 -10 -11    7.85    1.43
   2 -10 -11    6.45    1.40
   2  10 -11   11.28    1.76
   2  10 -11    8.88    1.35
   0 -10 -11    2.04    1.11
   0 -10 -11   -0.50    0.99
   0  10 -11    0.72    0.88
  -2 -10 -11    2.35    1.11
  -2 -10 -11    1.64    1.10
  -2  10 -11    0.35    0.87
  -4 -10 -11    3.71    1.16
  -4 -10 -11    2.06    1.26
  -4  10 -11    4.96    1.17
  -6 -10 -11    3.18    1.32
   6 -10  11    4.04    0.98
  -6  10 -11    2.95    0.98
  -8 -10 -11    6.38    1.47
  -8  10 -11    5.41    1.15
 -10 -10 -11    3.91    1.10
 -10 -10 -11    5.51    1.59
 -10  10 -11    2.54    1.01
 -12 -10 -11    1.29    1.33
 -12 -10 -11    0.79    1.17
 -12  10 -11    1.05    0.89
 -14 -10 -11    2.81    1.76
 -14  10 -11    1.87    1.71
   7 -11 -11    2.66    1.29
   7  11 -11    1.40    1.14
   7  11 -11    1.00    1.30
   5 -11 -11    8.94    1.65
   5  11 -11   10.26    1.52
   5  11 -11    6.38    1.56
   3 -11 -11    5.15    1.64
   3 -11 -11    8.81    1.58
   3  11 -11    7.14    1.60
   3  11 -11    7.34    1.39
   1 -11 -11    2.84    1.28
   1 -11 -11    3.36    1.34
   1  11 -11    1.83    1.02
  -1 -11 -11    5.63    1.44
  -1 -11 -11    6.70    1.77
  -1  11 -11    5.24    1.25
  -3 -11 -11   -0.08    1.22
  -3 -11 -11    0.09    1.04
   3 -11  11    0.83    0.94
  -3  11 -11   -0.12    0.90
  -5 -11 -11    2.39    2.22
   5 -11  11    2.33    0.97
  -5  11 -11    3.86    1.13
  -7  11 -11    0.99    1.05
  26   0 -12   -0.15    1.13
  26   0 -12   -0.68    1.18
  24   0 -12    3.48    1.35
  24   0 -12    2.53    1.17
  22   0 -12   19.30    2.13
  22   0 -12   20.57    2.08
  20   0 -12    1.70    1.19
  20   0 -12    2.44    1.20
  18   0 -12   13.22    1.66
  18   0 -12   16.53    1.79
  16   0 -12   24.75    2.11
  16   0 -12   20.37    1.97
  14   0 -12    1.10    0.90
  14   0 -12    0.93    0.91
  12   0 -12    7.60    1.23
  12   0 -12    6.61    1.21
  10   0 -12    5.04    1.04
  10   0 -12    3.86    0.46
  10   0 -12    4.92    1.09
   8   0 -12    0.23    0.24
   8   0 -12    1.06    0.80
   8   0 -12   -0.44    0.63
   6   0 -12   70.94    2.93
   6   0 -12   70.59    3.08
   4   0 -12    6.04    1.03
   4   0 -12    5.32    0.99
   2   0 -12   13.41    1.38
   2   0 -12   12.09    1.22
   0   0 -12   13.10    1.37
  -4   0 -12   19.32    1.30
  -6   0 -12    8.76    0.94
  -6   0 -12    9.28    0.61
  -8   0 -12    4.03    0.49
 -10   0 -12    0.60    0.41
 -12   0 -12    4.83    0.67
 -14   0 -12    3.32    0.67
 -16   0 -12    1.03    0.60
 -18   0 -12   14.84    1.26
 -20   0 -12    1.06    0.70
 -22   0 -12    4.08    0.94
 -24   0 -12    4.07    1.05
  27  -1 -12    2.71    1.57
  27   1 -12    1.76    1.55
  25  -1 -12    5.01    1.49
  25  -1 -12   12.41    1.82
  25   1 -12    4.94    1.42
  25   1 -12    7.08    1.80
  23  -1 -12    1.41    1.17
  23  -1 -12    3.10    1.10
  23  -1 -12    3.00    1.30
  23   1 -12    1.20    1.19
  23   1 -12    2.46    1.39
  21  -1 -12    8.10    1.57
  21  -1 -12    7.79    1.47
  21  -1 -12   10.53    1.44
  21   1 -12    5.61    1.54
  21   1 -12    4.88    1.27
  19  -1 -12   13.23    1.47
  19  -1 -12   12.58    1.70
  19  -1 -12   11.82    1.69
  19   1 -12    8.16    1.53
  19   1 -12   10.42    1.56
  17  -1 -12    6.77    1.27
  17  -1 -12    9.40    1.44
  17  -1 -12    7.30    1.24
  17   1 -12    8.62    1.48
  17   1 -12    8.59    1.43
  15  -1 -12    4.35    1.19
  15  -1 -12    5.75    1.15
  15  -1 -12    7.01    1.13
  15   1 -12    4.84    1.10
  15   1 -12    4.48    1.16
  13  -1 -12   19.41    1.77
  13  -1 -12   14.63    1.58
  13  -1 -12   18.60    1.64
  13   1 -12   16.86    1.69
  13   1 -12   13.46    1.64
  11  -1 -12   37.16    1.98
  11  -1 -12   35.57    1.33
  11  -1 -12   32.91    2.00
  11  -1 -12   34.18    2.07
  11   1 -12   25.45    1.86
  11   1 -12   27.90    2.04
   9  -1 -12    2.44    0.78
   9  -1 -12    2.57    0.35
   9  -1 -12    2.48    0.90
   9  -1 -12    2.93    0.88
   9   1 -12    3.08    1.00
   9   1 -12    3.96    0.46
   9   1 -12    4.09    0.97
   7  -1 -12    8.75    1.19
   7  -1 -12    7.77    1.14
   7  -1 -12    7.51    1.07
   7   1 -12   10.92    1.43
   7   1 -12   10.27    1.25
   7   1 -12   13.04    0.66
   5  -1 -12   26.73    1.63
   5  -1 -12   25.04    1.62
   5  -1 -12   26.13    1.76
   5   1 -12   18.72    1.72
   5   1 -12   20.73    0.79
   5   1 -12   18.62    1.63
   5   1 -12   20.97    0.76
   3  -1 -12   14.71    1.28
   3  -1 -12   12.55    1.34
   3  -1 -12   11.84    1.25
   3   1 -12   12.36    1.42
   1  -1 -12   10.25    1.19
   1  -1 -12    9.89    1.04
   1  -1 -12   10.37    1.16
   1  -1 -12   10.75    1.13
   1   1 -12    9.91    1.27
  -1  -1 -12   26.10    1.61
  -3  -1 -12   14.90    1.28
  -3   1 -12   15.28    0.69
  -3   1 -12   14.84    0.66
  -5  -1 -12   11.19    1.13
  -5  -1 -12   11.03    0.54
  -5   1 -12   12.54    0.69
  -7  -1 -12    0.65    0.59
  -7  -1 -12    1.20    0.35
  -7   1 -12    3.10    0.45
  -9  -1 -12   -0.29    0.35
  -9  -1 -12    0.38    0.54
  -9   1 -12    0.30    0.38
 -11  -1 -12    4.17    0.61
 -11   1 -12    5.20    0.67
 -13  -1 -12   12.18    0.99
 -13   1 -12   16.03    1.13
 -15  -1 -12    6.46    0.84
 -15   1 -12    6.47    0.83
 -17  -1 -12   10.33    1.07
 -17   1 -12    9.52    1.04
 -19  -1 -12   20.08    1.51
 -19   1 -12   19.42    1.49
 -21  -1 -12   10.59    1.27
 -21   1 -12    9.30    1.16
 -23  -1 -12    5.81    1.09
 -23   1 -12    4.86    1.03
 -25  -1 -12    0.13    0.86
 -25   1 -12    0.39    0.87
  26  -2 -12   -1.24    1.14
  26   2 -12    0.51    1.27
  24  -2 -12   13.24    1.66
  24  -2 -12   10.96    1.80
  24  -2 -12   12.49    1.82
  24   2 -12   17.04    2.30
  24   2 -12   13.66    1.89
  22  -2 -12   -0.13    0.95
  22  -2 -12   -0.12    1.00
  22  -2 -12    0.70    0.86
  22   2 -12   -0.82    1.14
  22   2 -12   -0.12    0.92
  20  -2 -12    1.30    1.01
  20  -2 -12    2.30    1.12
  20  -2 -12    0.78    0.87
  20   2 -12    3.16    1.17
  20   2 -12    1.02    1.04
  18  -2 -12   14.76    1.73
  18  -2 -12   12.32    1.43
  18  -2 -12   14.00    1.66
  18   2 -12   13.09    1.78
  18   2 -12   13.40    1.66
  16  -2 -12    8.70    1.30
  16  -2 -12    6.73    1.20
  16  -2 -12    8.50    1.42
  16   2 -12   12.47    1.61
  16   2 -12    7.79    1.51
  14  -2 -12    0.46    0.74
  14  -2 -12   -0.20    0.83
  14  -2 -12   -0.29    0.65
  14   2 -12    0.00    0.93
  14   2 -12   -1.10    0.73
  12  -2 -12   24.60    1.78
  12  -2 -12   23.25    1.75
  12  -2 -12   24.11    1.76
  12   2 -12   21.42    1.86
  12   2 -12   16.34    1.72
  10  -2 -12   11.83    1.32
  10  -2 -12   15.47    1.53
  10  -2 -12   12.62    0.75
  10  -2 -12   11.65    1.33
  10   2 -12   16.13    1.67
  10   2 -12   15.60    1.56
   8  -2 -12   -0.70    0.65
   8  -2 -12   -0.11    0.25
   8  -2 -12   -0.14    0.73
   8  -2 -12    0.18    0.66
   8   2 -12    0.42    0.34
   8   2 -12    0.18    0.66
   8   2 -12    1.06    0.77
   6  -2 -12   36.48    2.00
   6  -2 -12   33.34    1.93
   6  -2 -12   36.49    2.02
   6  -2 -12   40.34    1.96
   6   2 -12   37.76    1.34
   6   2 -12   38.46    2.13
   6   2 -12   36.03    2.18
   4  -2 -12    1.31    0.72
   4  -2 -12   -0.02    0.63
   4  -2 -12    0.00    0.65
   4  -2 -12   -0.43    0.64
   4   2 -12    2.09    0.35
   4   2 -12    1.40    0.35
   4   2 -12    1.50    0.88
   2  -2 -12    7.47    0.98
   2  -2 -12    8.15    1.05
   2  -2 -12    8.65    1.04
   2  -2 -12    8.01    1.10
   2   2 -12    6.70    0.50
   2   2 -12    5.35    1.12
   2   2 -12    6.85    0.51
   0  -2 -12   27.75    1.59
   0  -2 -12   27.24    1.70
   0  -2 -12   26.37    1.51
   0   2 -12   28.92    1.97
   0   2 -12   29.10    1.09
   0   2 -12   29.70    1.08
  -2  -2 -12    0.82    0.62
  -2  -2 -12    1.74    0.61
  -2   2 -12    0.33    0.29
  -2   2 -12    0.47    0.30
  -4  -2 -12    7.86    0.89
  -4  -2 -12    7.55    1.02
  -4   2 -12    4.92    0.55
  -4   2 -12    4.21    0.47
  -6  -2 -12   26.35    1.02
  -6  -2 -12   26.36    1.66
  -6   2 -12   29.96    1.23
  -8  -2 -12   12.21    1.23
  -8  -2 -12   10.99    0.78
  -8   2 -12   10.57    0.80
 -10  -2 -12   12.26    0.92
 -10  -2 -12   13.33    1.28
 -10   2 -12   13.79    0.99
 -12  -2 -12   22.20    1.25
 -12   2 -12   22.03    1.24
 -14  -2 -12    6.16    0.82
 -14   2 -12    9.23    0.93
 -16  -2 -12   18.59    1.35
 -16   2 -12   22.04    1.43
 -18  -2 -12    4.90    0.92
 -18   2 -12    2.69    0.76
 -20  -2 -12    1.85    0.78
 -20   2 -12    1.37    0.76
 -22  -2 -12    1.96    0.87
 -22   2 -12    1.44    0.81
 -24  -2 -12    1.33    0.89
 -24   2 -12    1.20    0.88
  25  -3 -12    1.75    1.23
  25   3 -12    2.64    1.55
  23  -3 -12   15.95    1.75
  23  -3 -12   15.89    2.06
  23   3 -12   11.81    1.96
  23   3 -12   20.26    2.23
  21  -3 -12    0.50    1.19
  21  -3 -12    1.02    0.86
  21   3 -12    3.91    1.31
  21   3 -12    2.20    1.20
  19  -3 -12    0.13    0.90
  19  -3 -12    0.10    0.87
  19  -3 -12    1.23    0.96
  19   3 -12    1.26    1.22
  19   3 -12    0.82    1.07
  17  -3 -12   18.04    1.88
  17  -3 -12   13.74    1.63
  17  -3 -12   19.04    1.76
  17   3 -12   14.35    1.85
  17   3 -12   14.93    1.74
  15  -3 -12    5.58    1.27
  15  -3 -12    4.50    1.01
  15  -3 -12    5.13    1.08
  15   3 -12    6.29    1.23
  15   3 -12    7.08    1.44
  13  -3 -12    5.11    1.01
  13  -3 -12    3.34    1.04
  13  -3 -12    0.68    0.91
  13   3 -12    0.76    0.81
  13   3 -12    0.73    0.93
  11  -3 -12   17.34    1.69
  11  -3 -12   16.85    1.52
  11  -3 -12   16.40    1.60
  11   3 -12   22.34    1.95
  11   3 -12   23.97    2.08
   9  -3 -12    9.61    1.26
   9  -3 -12   11.53    0.75
   9  -3 -12   14.71    1.45
   9  -3 -12   11.73    1.36
   9  -3 -12   11.87    1.25
   9   3 -12    9.00    1.40
   9   3 -12   12.41    1.49
   7  -3 -12   12.21    1.31
   7  -3 -12   14.60    1.34
   7  -3 -12   13.78    1.40
   7  -3 -12   14.60    1.47
   7   3 -12   13.64    1.56
   5  -3 -12    8.92    1.10
   5  -3 -12    6.88    1.09
   5  -3 -12    6.96    1.13
   5  -3 -12    6.91    0.99
   5   3 -12   10.07    0.80
   5   3 -12    9.33    1.33
   3  -3 -12   24.34    1.57
   3  -3 -12   24.56    1.62
   3  -3 -12   25.38    1.67
   3   3 -12   23.24    1.06
   3   3 -12   24.40    1.83
   3   3 -12   21.49    1.09
   1  -3 -12   24.60    1.48
   1  -3 -12   23.93    1.55
   1  -3 -12   23.20    1.70
   1   3 -12   24.94    1.11
   1   3 -12   25.25    1.13
   1   3 -12   22.11    1.90
  -1  -3 -12   20.03    1.35
  -1  -3 -12   19.42    1.62
  -1  -3 -12   19.66    1.35
  -1   3 -12   17.46    1.66
  -1   3 -12   16.36    0.93
  -1   3 -12   17.17    0.92
  -3  -3 -12   -0.11    0.60
  -3  -3 -12    0.75    0.58
  -3   3 -12    0.43    0.37
  -5  -3 -12    9.06    1.18
  -5  -3 -12   11.43    1.01
  -5  -3 -12   10.94    0.68
  -5   3 -12   10.06    0.79
  -7  -3 -12   13.07    1.35
  -7  -3 -12   12.01    0.80
  -7   3 -12   12.11    0.91
  -9  -3 -12    4.49    0.95
  -9  -3 -12    5.32    0.64
  -9   3 -12    5.59    0.68
 -11  -3 -12    0.66    0.73
 -11  -3 -12    1.16    0.52
 -11   3 -12    0.67    0.47
 -13  -3 -12    3.46    0.69
 -13  -3 -12    3.56    0.91
 -13   3 -12    3.30    0.68
 -15  -3 -12    3.31    0.73
 -15   3 -12    2.81    0.69
 -17  -3 -12    3.11    0.78
 -17   3 -12    5.29    0.88
 -19  -3 -12    8.56    1.15
 -19   3 -12   10.30    1.16
 -21  -3 -12    2.12    0.89
 -21   3 -12    3.92    0.93
 -23  -3 -12   16.61    1.63
 -23   3 -12   13.35    1.46
  24  -4 -12   13.30    2.06
  24   4 -12   10.19    1.97
  24   4 -12    7.28    1.83
  22  -4 -12    8.18    1.64
  22  -4 -12    8.31    1.44
  22   4 -12    9.64    1.68
  22   4 -12    6.99    1.63
  20  -4 -12   -0.54    1.09
  20  -4 -12    0.84    0.90
  20   4 -12    1.30    1.11
  20   4 -12   -0.29    1.02
  18  -4 -12   -0.29    0.89
  18  -4 -12   -0.95    0.84
  18   4 -12    2.79    1.10
  18   4 -12    2.35    1.18
  16  -4 -12   12.73    1.56
  16  -4 -12    9.07    1.52
  16   4 -12    9.32    1.59
  16   4 -12   13.41    1.65
  14  -4 -12    8.91    1.36
  14  -4 -12    8.39    1.27
  14   4 -12    4.88    1.18
  14   4 -12    5.73    1.34
  12  -4 -12    3.16    1.06
  12  -4 -12    5.75    1.07
  12   4 -12    5.74    1.17
  12   4 -12    6.86    1.34
  10  -4 -12   15.75    1.57
  10  -4 -12   14.19    1.56
  10  -4 -12   12.62    1.41
  10   4 -12    7.90    1.35
   8  -4 -12    9.22    1.23
   8  -4 -12    8.80    1.20
   8  -4 -12   11.37    1.38
   8   4 -12    8.91    1.39
   6  -4 -12   18.32    1.70
   6  -4 -12   20.56    1.52
   6  -4 -12   20.52    1.70
   6   4 -12   19.99    1.97
   4  -4 -12   11.16    1.28
   4  -4 -12   11.35    1.40
   4  -4 -12   12.48    1.23
   4   4 -12    4.45    1.12
   4   4 -12    9.78    0.85
   2  -4 -12   32.98    1.80
   2  -4 -12   32.47    2.07
   2  -4 -12   33.46    1.78
   2   4 -12   33.97    1.49
   2   4 -12   32.38    2.25
   0  -4 -12   23.77    1.70
   0  -4 -12   24.52    1.48
   0  -4 -12   26.80    1.61
   0   4 -12   17.34    1.71
   0   4 -12   16.49    1.05
  -2  -4 -12    9.47    1.08
  -2  -4 -12   11.75    1.40
  -2   4 -12   12.38    0.93
  -4  -4 -12    1.51    0.84
  -4  -4 -12    2.05    0.68
  -4   4 -12    3.51    0.59
  -6  -4 -12   24.90    1.18
  -6  -4 -12   25.29    1.81
  -6   4 -12   20.34    1.18
  -8  -4 -12    3.25    0.57
  -8  -4 -12    4.90    1.05
  -8   4 -12    4.42    0.68
 -10  -4 -12    4.37    1.05
 -10  -4 -12    6.04    0.73
 -10   4 -12    4.43    0.72
 -12  -4 -12    8.47    1.24
 -12  -4 -12    8.02    0.90
 -12   4 -12    6.84    0.86
 -14  -4 -12    7.67    0.96
 -14  -4 -12    6.47    1.23
 -14   4 -12    5.73    0.86
 -16  -4 -12   14.83    1.31
 -16   4 -12   11.75    1.18
 -18  -4 -12   10.39    1.22
 -18   4 -12    9.37    1.16
 -20  -4 -12    0.94    0.83
 -20   4 -12    0.24    0.73
 -22  -4 -12   13.30    1.49
 -22   4 -12   10.05    1.29
  23  -5 -12   -0.01    1.11
  21  -5 -12    8.73    1.44
  21  -5 -12    8.11    1.54
  21   5 -12   10.21    1.96
  21   5 -12    8.59    1.57
  19  -5 -12    7.24    1.40
  19  -5 -12    5.23    1.35
  19   5 -12    7.32    1.55
  19   5 -12    3.72    1.19
  17  -5 -12    3.37    1.27
  17  -5 -12    1.82    0.96
  17   5 -12    2.42    1.20
  17   5 -12    2.20    1.30
  15  -5 -12    4.46    1.12
  15  -5 -12    3.65    1.09
  15   5 -12    2.21    1.18
  15   5 -12    4.12    1.28
  13  -5 -12    7.20    1.23
  13  -5 -12    7.52    1.24
  13  -5 -12    6.80    1.19
  13   5 -12    9.21    1.55
  11  -5 -12   14.64    1.61
  11  -5 -12   14.70    1.54
  11  -5 -12   16.62    1.76
  11   5 -12   16.05    1.86
   9  -5 -12   -0.18    0.74
   9  -5 -12    1.25    0.78
   9  -5 -12    2.16    0.92
   9   5 -12    0.66    0.96
   7  -5 -12   11.15    1.25
   7  -5 -12   12.37    1.38
   7  -5 -12   11.93    1.52
   7   5 -12    7.30    1.36
   5  -5 -12   21.65    1.77
   5  -5 -12   19.68    1.79
   5  -5 -12   20.22    1.56
   5   5 -12   23.79    2.10
   5   5 -12   23.65    1.42
   3  -5 -12    5.67    1.17
   3  -5 -12    6.57    0.96
   3  -5 -12    6.88    1.08
   3   5 -12    5.93    1.22
   3   5 -12    7.36    0.84
   1  -5 -12    1.95    0.81
   1  -5 -12    2.11    0.88
   1   5 -12    0.83    0.52
   1   5 -12    0.14    0.81
  -1  -5 -12   34.04    1.89
  -1  -5 -12   33.46    2.16
  -1   5 -12   35.74    1.65
  -1   5 -12   36.77    2.30
  -3  -5 -12    2.92    1.02
  -3  -5 -12    3.71    0.87
  -3   5 -12    3.60    0.64
  -5  -5 -12   21.28    1.53
  -5  -5 -12   24.04    1.87
  -5  -5 -12   22.11    1.18
  -5   5 -12   24.86    1.38
  -7  -5 -12    1.22    0.50
  -7  -5 -12    0.86    0.84
  -7   5 -12    0.55    0.53
  -9  -5 -12    0.43    0.52
  -9  -5 -12    0.64    0.81
  -9   5 -12    0.53    0.54
 -11  -5 -12   12.60    1.11
 -11  -5 -12   13.37    1.57
 -11   5 -12   16.36    1.29
 -13  -5 -12   14.66    1.23
 -13  -5 -12   11.14    1.56
 -13   5 -12   12.01    1.16
 -15  -5 -12    0.44    0.65
 -15  -5 -12   -0.67    0.84
 -15   5 -12   -0.57    0.56
 -17  -5 -12    8.74    1.17
 -17   5 -12   11.00    1.25
 -19  -5 -12    6.50    1.13
 -19   5 -12    3.19    0.94
 -21  -5 -12    1.27    0.92
 -21   5 -12    0.94    0.83
  22  -6 -12    6.45    1.56
  20  -6 -12    0.97    1.12
  20  -6 -12    2.61    1.20
  20   6 -12    2.44    1.19
  20   6 -12    1.31    1.40
  18  -6 -12   17.31    1.91
  18  -6 -12   17.87    2.03
  18   6 -12   10.87    1.83
  16  -6 -12    0.59    0.87
  16  -6 -12    0.80    1.02
  16   6 -12    0.55    1.04
  14  -6 -12    4.30    1.28
  14  -6 -12    8.66    1.44
  14  -6 -12    4.40    1.11
  14   6 -12    4.77    1.33
  12  -6 -12   21.63    2.01
  12  -6 -12   26.69    2.07
  12  -6 -12   21.09    1.91
  12   6 -12   21.48    2.24
  10  -6 -12    2.47    0.95
  10  -6 -12    0.63    0.80
  10  -6 -12    2.15    1.03
  10   6 -12    4.99    1.36
   8  -6 -12    3.23    1.03
   8  -6 -12    3.49    0.98
   8  -6 -12    5.60    1.25
   8   6 -12    1.38    1.00
   6  -6 -12   14.92    1.66
   6  -6 -12   13.25    1.51
   6  -6 -12   12.90    1.49
   6   6 -12   15.14    1.76
   6   6 -12   14.59    1.28
   4  -6 -12   15.14    1.73
   4  -6 -12   10.99    1.37
   4   6 -12    8.98    1.49
   4   6 -12    7.40    0.94
   2  -6 -12    1.91    0.92
   2  -6 -12    1.44    0.83
   2   6 -12    3.15    0.72
   2   6 -12    2.22    1.00
   0  -6 -12    9.38    1.41
   0  -6 -12    8.48    1.18
   0   6 -12    4.62    1.12
   0   6 -12    5.40    0.83
  -2  -6 -12    2.37    0.84
  -2  -6 -12    2.43    1.04
  -2   6 -12    1.99    0.63
  -4  -6 -12    1.22    0.73
  -4  -6 -12    2.46    1.06
  -4   6 -12    0.11    0.53
  -6  -6 -12   13.45    1.08
  -6  -6 -12   14.05    1.64
  -6   6 -12    9.84    1.01
  -8  -6 -12    9.02    0.96
  -8  -6 -12   11.81    1.61
  -8   6 -12    9.22    1.05
 -10  -6 -12   17.54    1.33
 -10  -6 -12   16.33    1.83
 -10   6 -12   13.69    1.25
 -12  -6 -12   12.44    1.68
 -12  -6 -12   10.85    1.14
 -12   6 -12   11.84    1.18
 -14  -6 -12    0.43    0.69
 -14  -6 -12    1.19    1.05
 -14   6 -12    2.24    0.83
 -16  -6 -12    0.54    1.02
 -16  -6 -12    0.97    0.74
 -16   6 -12    0.75    0.74
 -18  -6 -12   11.58    1.91
 -18  -6 -12   11.42    1.37
 -18   6 -12    8.08    1.16
 -20  -6 -12    1.24    1.03
 -20   6 -12    1.46    0.89
  21  -7 -12    1.60    1.39
  19  -7 -12   15.37    2.07
  17  -7 -12    3.43    1.17
  17  -7 -12    4.08    1.21
  17   7 -12    9.27    1.84
  15  -7 -12    4.81    1.29
  15  -7 -12    8.38    1.45
  15  -7 -12    5.00    1.35
  15   7 -12    4.63    1.52
  13  -7 -12    2.44    1.09
  13  -7 -12    5.29    1.25
  13  -7 -12    5.67    1.31
  13   7 -12    4.51    1.40
  11  -7 -12    5.61    1.19
  11  -7 -12    6.57    1.31
  11  -7 -12    6.29    1.31
  11   7 -12    4.16    1.33
   9  -7 -12   11.47    1.66
   9  -7 -12   14.17    1.67
   9   7 -12   14.42    1.85
   7  -7 -12    4.12    1.13
   7  -7 -12    5.91    1.16
   7   7 -12    9.24    1.18
   7   7 -12    8.57    1.50
   5  -7 -12   18.22    1.92
   5  -7 -12   14.01    1.55
   5   7 -12   13.71    1.32
   5   7 -12   15.33    1.79
   3  -7 -12    5.08    1.18
   3  -7 -12    4.96    1.13
   3   7 -12    9.02    1.11
   3   7 -12    8.81    1.49
   1  -7 -12    3.82    1.09
   1  -7 -12    3.54    1.04
   1   7 -12    7.99    1.50
   1   7 -12    5.26    0.94
  -1  -7 -12   13.66    1.67
  -1  -7 -12   14.20    1.53
  -1   7 -12    8.01    1.04
  -3  -7 -12    3.03    0.92
  -3  -7 -12    3.62    1.09
  -3   7 -12    2.95    0.80
  -5  -7 -12    3.97    1.23
  -5   7 -12    6.79    0.97
  -7  -7 -12   17.10    1.92
  -7  -7 -12   13.90    1.23
  -7   7 -12   13.41    1.27
  -9  -7 -12    4.41    1.28
  -9  -7 -12    4.08    0.82
  -9   7 -12    5.14    0.92
 -11  -7 -12   15.97    1.42
 -11  -7 -12   15.94    1.96
 -11   7 -12   15.11    1.38
 -13  -7 -12    3.72    1.27
 -13  -7 -12    2.60    0.85
 -13   7 -12    4.49    0.98
 -15  -7 -12    1.06    0.76
 -15  -7 -12   -0.30    1.04
 -15   7 -12    1.55    0.83
 -17  -7 -12    6.06    1.15
 -17  -7 -12    4.04    1.37
 -17   7 -12    7.54    1.19
 -19  -7 -12    3.39    1.39
  18  -8 -12    1.74    1.36
  16  -8 -12    6.88    1.54
  16  -8 -12    8.71    2.26
  16  -8 -12   10.28    1.66
  16   8 -12    9.44    2.06
  14  -8 -12    2.49    1.25
  14  -8 -12    1.87    1.04
  14  -8 -12    2.47    1.87
  14   8 -12    2.65    1.52
  12  -8 -12    1.49    1.09
  12  -8 -12    1.31    0.99
  12   8 -12    2.78    1.23
  10  -8 -12   16.04    1.86
  10  -8 -12   21.54    2.15
  10   8 -12   15.36    1.96
   8  -8 -12    6.48    1.40
   8  -8 -12    6.54    1.26
   8   8 -12    6.40    1.48
   8   8 -12    6.78    1.17
   6  -8 -12   22.46    2.06
   6  -8 -12   22.99    2.23
   6   8 -12   21.31    1.79
   6   8 -12   18.49    2.09
   4  -8 -12   -0.34    0.85
   4  -8 -12    0.01    0.89
   4   8 -12    1.02    0.74
   4   8 -12    0.16    1.11
   2  -8 -12    4.52    1.22
   2  -8 -12    5.44    1.21
   2   8 -12    2.91    1.20
   2   8 -12    1.23    0.79
   0  -8 -12   14.05    1.62
   0  -8 -12   15.87    1.84
   0   8 -12   17.39    1.54
  -2  -8 -12    5.09    1.11
  -2  -8 -12    6.06    1.32
  -2   8 -12    2.61    0.85
  -4  -8 -12    5.10    1.36
  -4   8 -12    3.80    0.91
  -6  -8 -12    4.05    1.18
  -6   8 -12    4.85    0.96
  -8  -8 -12    1.17    0.70
  -8  -8 -12    0.74    1.08
  -8   8 -12   -0.71    0.66
 -10  -8 -12    5.95    1.39
 -10  -8 -12    4.53    0.99
 -10   8 -12    5.20    1.01
 -12  -8 -12    1.63    0.84
 -12  -8 -12    2.81    1.27
 -12   8 -12    2.36    0.90
 -14  -8 -12    0.82    1.24
 -14  -8 -12    3.56    1.00
 -14   8 -12    0.78    0.79
 -16  -8 -12   12.32    1.98
 -16   8 -12    9.38    1.97
 -18  -8 -12    2.09    1.41
  13  -9 -12    2.78    1.33
  11  -9 -12    2.00    1.20
  11  -9 -12    0.44    1.02
  11   9 -12    4.09    1.41
   9  -9 -12    1.75    1.17
   9  -9 -12    2.23    1.25
   9   9 -12    0.92    1.17
   9   9 -12    1.21    0.98
   7  -9 -12   13.94    1.82
   7  -9 -12   15.71    1.92
   7   9 -12   12.33    1.47
   7   9 -12   14.82    2.04
   5  -9 -12    5.45    1.47
   5  -9 -12    1.52    1.11
   5   9 -12    2.46    0.92
   5   9 -12    1.55    1.14
   3  -9 -12    1.81    1.19
   3  -9 -12   -0.54    0.94
   3   9 -12   -1.40    0.93
   3   9 -12   -0.21    0.73
   1  -9 -12    5.75    1.48
   1  -9 -12    4.67    1.26
   1   9 -12    4.44    1.04
  -1  -9 -12    5.52    1.28
  -1  -9 -12    8.80    1.57
  -1   9 -12    6.28    1.12
  -3  -9 -12    0.66    1.12
  -3   9 -12    0.81    0.83
  -5  -9 -12    7.21    1.48
  -5   9 -12    7.19    1.18
  -7  -9 -12   16.85    2.12
  -7   9 -12   13.84    1.46
  -9  -9 -12    1.79    0.86
  -9  -9 -12    1.61    1.19
  -9   9 -12    2.09    0.94
 -11  -9 -12   -0.38    1.18
 -11  -9 -12    0.41    1.05
 -11   9 -12    0.57    0.85
 -13  -9 -12    5.22    1.49
 -15  -9 -12    1.41    1.34
   8 -10 -12    2.35    1.26
   6 -10 -12    2.68    1.31
   6  10 -12    2.11    1.42
   6  10 -12    0.52    1.40
   4 -10 -12   13.79    1.80
   4 -10 -12    9.99    1.99
   4  10 -12   11.31    1.85
   4  10 -12    8.45    1.39
   2 -10 -12    4.61    1.26
   2 -10 -12    4.60    1.41
   2  10 -12    5.29    1.17
   0 -10 -12   15.87    1.92
   0 -10 -12   12.51    1.84
   0  10 -12    9.14    1.36
  -2 -10 -12    2.60    1.38
  -2 -10 -12    2.45    1.33
  -2  10 -12    2.05    0.96
  -4 -10 -12    0.57    1.21
  -4  10 -12    1.35    0.94
  -6 -10 -12    5.74    1.79
  24   0 -13    0.47    1.32
  22   0 -13    2.09    1.33
  22   0 -13    0.08    1.14
  20   0 -13   12.41    1.77
  20   0 -13   15.27    2.00
  18   0 -13    0.12    0.99
  18   0 -13    0.09    0.97
  16   0 -13    9.17    1.50
  16   0 -13   10.18    1.60
  14   0 -13   21.61    2.00
  14   0 -13   24.12    2.12
  12   0 -13   11.98    1.51
  12   0 -13   13.49    1.65
  10   0 -13    9.82    0.63
  10   0 -13    9.72    1.35
  10   0 -13    9.64    1.35
   8   0 -13   18.10    1.74
   8   0 -13   17.64    1.65
   6   0 -13    1.82    0.88
   6   0 -13    2.10    0.83
   4   0 -13   13.51    1.42
   4   0 -13   11.43    1.34
   2   0 -13    2.34    0.81
  -6   0 -13    1.11    0.30
  -8   0 -13   39.07    1.43
 -10   0 -13    1.68    0.48
 -12   0 -13   15.03    1.07
 -14   0 -13    3.76    0.71
 -16   0 -13    3.42    0.76
 -18   0 -13    0.68    0.66
 -20   0 -13    4.59    0.94
 -22   0 -13   10.67    1.29
  23  -1 -13    0.39    1.16
  23  -1 -13   -0.52    1.26
  23   1 -13    3.97    1.52
  23   1 -13    3.12    1.87
  21  -1 -13    4.67    1.40
  21  -1 -13    4.12    1.34
  21   1 -13    2.67    1.23
  21   1 -13    6.63    1.44
  19  -1 -13    2.21    1.28
  19  -1 -13    3.30    1.18
  19  -1 -13    2.12    0.90
  19   1 -13    3.94    1.25
  19   1 -13    5.44    1.43
  17  -1 -13   -0.35    0.90
  17  -1 -13    0.22    0.91
  17  -1 -13   -0.55    0.74
  17   1 -13    0.43    1.04
  17   1 -13    0.95    0.98
  15  -1 -13    9.23    1.28
  15  -1 -13   10.21    1.52
  15  -1 -13   10.21    1.47
  15   1 -13    6.10    1.23
  15   1 -13    7.90    1.45
  13  -1 -13   14.24    1.62
  13  -1 -13   18.35    1.72
  13  -1 -13   14.88    1.65
  13   1 -13   19.37    1.95
  13   1 -13   14.59    1.70
  11  -1 -13   11.67    1.38
  11  -1 -13   12.40    1.03
  11  -1 -13   10.84    1.46
  11  -1 -13    9.56    1.36
  11   1 -13    9.43    1.41
  11   1 -13   12.63    1.50
   9  -1 -13    7.89    1.17
   9  -1 -13    7.31    1.19
   9  -1 -13    8.11    1.27
   9   1 -13    7.48    1.36
   9   1 -13    8.61    1.36
   9   1 -13    8.17    0.58
   7  -1 -13    5.41    1.10
   7  -1 -13   10.01    1.31
   7  -1 -13    7.00    1.09
   7   1 -13    8.11    1.31
   7   1 -13    7.76    1.21
   5  -1 -13   24.57    1.64
   5  -1 -13   23.97    1.78
   5  -1 -13   20.79    1.74
   5   1 -13   17.73    1.77
   3  -1 -13   14.41    1.50
   3  -1 -13   20.25    1.63
   3   1 -13   23.91    1.80
   1   1 -13    8.16    1.26
  -1  -1 -13   17.62    1.47
  -3  -1 -13   18.27    1.39
  -5  -1 -13    2.43    0.73
  -5   1 -13    2.41    0.35
  -5   1 -13    1.82    0.35
  -7  -1 -13   12.20    0.68
  -7   1 -13   10.99    0.74
  -9  -1 -13   18.89    0.99
  -9   1 -13   17.50    1.00
 -11  -1 -13   11.30    0.88
 -11   1 -13   11.85    0.93
 -13  -1 -13    0.89    0.53
 -13   1 -13   -0.26    0.49
 -15  -1 -13    9.85    0.98
 -15   1 -13   10.90    1.04
 -17  -1 -13    2.01    0.74
 -17   1 -13    2.20    0.70
 -19  -1 -13    0.76    0.71
 -19   1 -13    2.46    0.80
 -21  -1 -13   -1.47    0.65
 -21   1 -13    1.12    0.74
  24   2 -13   -0.06    2.15
  22  -2 -13    5.14    1.28
  22  -2 -13    4.07    1.71
  22  -2 -13    1.16    1.20
  22   2 -13    3.87    1.35
  22   2 -13    2.96    1.52
  20  -2 -13   12.00    1.84
  20  -2 -13    8.67    1.55
  20  -2 -13    8.24    1.43
  20   2 -13    7.41    1.59
  20   2 -13    9.89    1.65
  18  -2 -13   -0.06    0.89
  18  -2 -13    0.16    0.85
  18  -2 -13    0.18    1.07
  18   2 -13    0.58    1.15
  18   2 -13    0.50    1.07
  16  -2 -13   16.09    1.73
  16  -2 -13   14.41    1.75
  16  -2 -13   14.20    1.63
  16   2 -13   15.34    1.89
  16   2 -13   17.12    1.85
  14  -2 -13    5.14    1.23
  14  -2 -13    4.52    1.14
  14  -2 -13    4.19    1.07
  14   2 -13    1.55    1.03
  14   2 -13    1.66    1.00
  12  -2 -13    7.16    1.12
  12  -2 -13    6.98    1.21
  12  -2 -13    4.86    1.25
  12   2 -13    5.48    1.18
  12   2 -13    5.29    1.31
  10  -2 -13   21.96    1.83
  10  -2 -13   22.59    1.86
  10  -2 -13   21.59    0.91
  10  -2 -13   22.76    1.89
  10   2 -13   16.14    1.70
  10   2 -13   19.15    1.90
   8  -2 -13    7.35    1.15
   8  -2 -13    6.49    1.15
   8  -2 -13    5.67    1.08
   8   2 -13    4.17    1.13
   8   2 -13    2.23    0.93
   6  -2 -13    1.74    0.84
   6  -2 -13    1.94    0.82
   6  -2 -13    1.64    0.83
   6   2 -13    1.79    0.36
   6   2 -13    0.90    0.86
   6   2 -13    1.45    0.36
   4  -2 -13    3.18    0.89
   4  -2 -13    4.27    0.94
   4  -2 -13    4.35    0.94
   4  -2 -13    4.93    0.97
   4   2 -13    5.93    1.15
   4   2 -13    4.84    0.43
   4   2 -13    4.84    0.44
   2  -2 -13   13.22    1.39
   2  -2 -13   12.30    1.25
   2  -2 -13    9.48    1.20
   2   2 -13   11.11    0.59
   2   2 -13   12.13    0.61
   2   2 -13   13.18    1.60
   0  -2 -13    0.09    0.67
   0  -2 -13    0.73    0.64
   0   2 -13    0.46    0.27
   0   2 -13    1.07    0.80
   0   2 -13    0.36    0.25
  -2  -2 -13   15.85    1.49
  -2  -2 -13   18.78    1.36
  -2   2 -13   13.70    0.72
  -2   2 -13   12.84    0.68
  -4  -2 -13    8.67    1.16
  -4   2 -13   10.34    0.68
  -4   2 -13    9.18    0.68
  -6  -2 -13    5.61    0.98
  -6   2 -13    6.11    0.59
  -8  -2 -13    5.09    1.04
  -8  -2 -13    4.50    0.51
  -8   2 -13    1.91    0.48
 -10  -2 -13    3.76    0.57
 -10   2 -13    4.39    0.64
 -12  -2 -13    0.95    0.53
 -12   2 -13    1.59    0.55
 -14  -2 -13   14.11    1.13
 -14   2 -13   19.69    1.31
 -16  -2 -13    0.74    0.63
 -16   2 -13   -0.09    0.58
 -18  -2 -13    4.53    0.89
 -18   2 -13    2.51    0.78
 -20  -2 -13   26.37    1.82
 -20   2 -13   29.53    1.85
  21  -3 -13   -1.02    0.90
  21  -3 -13   -0.35    1.03
  21   3 -13    0.78    1.33
  21   3 -13   -0.34    1.13
  19  -3 -13    9.47    1.67
  19  -3 -13    9.03    1.39
  19   3 -13   11.07    1.73
  19   3 -13    8.60    1.73
  17  -3 -13    0.78    0.98
  17  -3 -13    1.89    0.94
  17   3 -13    2.12    1.04
  17   3 -13    0.92    1.20
  15  -3 -13   18.43    1.93
  15  -3 -13   17.65    1.77
  15   3 -13   14.17    1.93
  15   3 -13   16.03    1.80
  13  -3 -13    3.82    1.09
  13  -3 -13    3.06    1.11
  13   3 -13    4.74    1.26
  13   3 -13    4.96    1.38
  11  -3 -13    1.69    0.97
  11  -3 -13    0.67    0.88
  11   3 -13    2.84    1.09
  11   3 -13    0.00    0.96
   9  -3 -13   18.73    1.69
   9  -3 -13   18.71    1.75
   9   3 -13   13.29    1.72
   7  -3 -13    2.46    0.89
   7  -3 -13    2.57    0.99
   7  -3 -13    4.17    0.99
   7   3 -13    4.65    1.17
   5  -3 -13    1.63    0.88
   5  -3 -13    1.20    0.79
   5  -3 -13    1.87    0.83
   5   3 -13    2.63    0.50
   5   3 -13    1.48    0.98
   3  -3 -13   51.40    2.59
   3  -3 -13   50.49    2.35
   3  -3 -13   55.53    2.47
   3   3 -13   50.47    2.74
   3   3 -13   45.85    1.66
   1  -3 -13    3.31    0.80
   1  -3 -13    1.82    0.72
   1  -3 -13    4.47    0.96
   1   3 -13    5.54    1.22
   1   3 -13    2.57    0.46
  -1  -3 -13    9.00    1.24
  -1  -3 -13    9.40    1.09
  -1   3 -13    7.51    0.63
  -3  -3 -13   22.04    1.48
  -3  -3 -13   22.58    1.82
  -3   3 -13   25.45    1.14
  -5  -3 -13    1.06    0.80
  -5   3 -13    1.98    0.48
  -7  -3 -13   16.31    1.57
  -7  -3 -13   17.88    0.90
  -7   3 -13   14.50    0.98
  -9  -3 -13    5.52    0.62
  -9  -3 -13    5.18    1.04
  -9   3 -13    7.28    0.77
 -11  -3 -13    7.55    0.80
 -11   3 -13    6.58    0.80
 -13  -3 -13   30.87    1.58
 -13   3 -13   28.15    1.54
 -15  -3 -13    6.62    0.93
 -15   3 -13    5.66    0.88
 -17  -3 -13    0.46    0.68
 -17   3 -13    0.02    0.62
 -19  -3 -13   13.06    1.33
 -19   3 -13   13.21    1.33
 -21  -3 -13    5.20    1.71
 -21   3 -13    3.65    1.25
  22  -4 -13    7.18    1.91
  20  -4 -13    6.26    1.39
  20  -4 -13    4.34    1.50
  20   4 -13    6.84    1.78
  20   4 -13    4.45    1.34
  18  -4 -13    0.83    1.04
  18  -4 -13    3.30    1.34
  18   4 -13    2.73    1.29
  18   4 -13    3.06    1.36
  16  -4 -13    7.23    1.46
  16  -4 -13    7.37    1.41
  16   4 -13    8.88    1.51
  16   4 -13   10.16    1.71
  14  -4 -13    3.65    1.09
  14  -4 -13    6.55    1.35
  14   4 -13    7.09    1.47
  14   4 -13    6.16    1.50
  12  -4 -13    1.32    0.94
  12  -4 -13    0.75    0.93
  12   4 -13    2.20    1.19
  10  -4 -13   13.24    1.54
  10  -4 -13   13.25    1.55
  10   4 -13    7.05    1.39
   8  -4 -13   11.01    1.52
   8  -4 -13   12.43    1.47
   8  -4 -13   13.01    1.48
   8   4 -13   13.51    1.70
   6  -4 -13    4.79    1.17
   6  -4 -13    5.71    1.04
   6  -4 -13    4.54    1.00
   6   4 -13    4.76    0.69
   6   4 -13    2.09    1.06
   4  -4 -13    3.87    0.94
   4  -4 -13    2.64    1.00
   4  -4 -13    2.57    0.90
   4   4 -13    3.83    1.21
   4   4 -13    3.47    0.61
   2  -4 -13   12.34    1.52
   2  -4 -13    9.06    1.21
   2   4 -13   11.30    1.54
   2   4 -13   10.60    0.85
   0  -4 -13    5.19    1.15
   0  -4 -13    5.18    0.98
   0   4 -13    3.35    1.01
   0   4 -13    3.36    0.56
  -2  -4 -13    1.38    0.72
  -2  -4 -13    0.98    0.78
  -2   4 -13    2.82    0.56
  -4  -4 -13    4.97    1.06
  -4   4 -13    3.92    0.61
  -6  -4 -13    4.65    1.10
  -6  -4 -13    4.75    0.55
  -6   4 -13    3.33    0.60
  -8  -4 -13    7.03    1.21
  -8  -4 -13    7.23    0.72
  -8   4 -13    7.47    0.83
 -10  -4 -13    3.48    0.63
 -10  -4 -13    1.17    0.88
 -10   4 -13    1.57    0.59
 -12  -4 -13    1.40    0.58
 -12   4 -13    1.48    0.60
 -14  -4 -13   -0.10    0.60
 -14   4 -13    2.34    0.71
 -16  -4 -13    3.33    0.80
 -16   4 -13    3.78    0.86
 -18  -4 -13    0.55    0.74
 -18   4 -13    0.80    0.73
 -20   4 -13    2.66    1.39
  21  -5 -13    5.50    1.51
  19  -5 -13   11.74    1.84
  19  -5 -13    7.88    1.64
  19   5 -13   10.09    1.91
  19   5 -13    5.25    1.70
  17  -5 -13    7.09    1.37
  17  -5 -13    8.81    1.60
  17   5 -13    6.17    1.65
  15  -5 -13    7.39    1.41
  15  -5 -13    8.77    1.49
  15   5 -13    4.98    1.50
  13  -5 -13    6.75    1.36
  13  -5 -13    9.12    1.44
  13   5 -13    8.84    1.62
  11  -5 -13    3.91    1.11
  11  -5 -13    4.86    1.13
  11  -5 -13    3.23    1.10
  11   5 -13    5.56    1.34
   9  -5 -13    4.79    1.16
   9  -5 -13    5.22    1.11
   9  -5 -13    5.78    1.27
   9   5 -13    4.85    1.34
   7  -5 -13   11.39    1.33
   7  -5 -13   12.88    1.51
   7  -5 -13   12.47    1.64
   7   5 -13   10.70    1.60
   7   5 -13   10.85    1.07
   5  -5 -13   26.08    1.91
   5  -5 -13   25.02    2.12
   5   5 -13   26.09    2.33
   5   5 -13   27.20    1.48
   3  -5 -13    6.67    1.34
   3  -5 -13    5.89    1.17
   3   5 -13    3.66    1.22
   3   5 -13    3.14    0.67
   1  -5 -13    9.15    1.41
   1  -5 -13    9.19    1.26
   1   5 -13    5.45    0.78
   1   5 -13    7.57    1.36
  -1  -5 -13    5.14    1.00
  -1  -5 -13    5.42    1.19
  -1   5 -13    7.28    0.80
  -3  -5 -13   20.47    1.87
  -3   5 -13   20.77    1.27
  -5  -5 -13    3.22    1.08
  -5   5 -13    1.16    0.57
  -7  -5 -13   13.38    1.63
  -7  -5 -13   11.26    0.92
  -7   5 -13    7.47    0.86
  -9  -5 -13   16.16    1.75
  -9  -5 -13   17.99    1.21
  -9   5 -13   18.85    1.29
 -11  -5 -13    1.55    0.96
 -11  -5 -13    0.99    0.61
 -11   5 -13    0.64    0.61
 -13  -5 -13    5.99    0.93
 -13  -5 -13    3.95    1.15
 -13   5 -13    2.63    0.74
 -15  -5 -13    9.90    1.11
 -15   5 -13   10.94    1.17
 -17  -5 -13    1.57    0.83
 -17   5 -13    1.09    0.79
  18  -6 -13    1.90    1.17
  16  -6 -13    0.92    1.10
  16  -6 -13    1.95    1.12
  16   6 -13    2.82    1.29
  14  -6 -13   12.62    1.71
  14  -6 -13   11.17    1.58
  14   6 -13   10.82    1.92
  12  -6 -13    8.85    1.45
  12  -6 -13   11.01    1.57
  12  -6 -13    8.81    1.43
  12   6 -13   10.25    1.72
  10  -6 -13    4.13    1.11
  10  -6 -13    6.80    1.35
  10  -6 -13    8.08    1.45
  10   6 -13    2.84    1.20
   8  -6 -13   13.75    1.69
   8  -6 -13   14.05    1.76
   8   6 -13   13.57    1.30
   8   6 -13   12.96    1.85
   6  -6 -13    8.30    1.47
   6  -6 -13    6.91    1.31
   6   6 -13    6.43    0.92
   6   6 -13    5.53    1.32
   4  -6 -13   21.61    1.91
   4  -6 -13   18.24    1.93
   4   6 -13   15.48    1.28
   4   6 -13   13.57    1.77
   2  -6 -13    7.81    1.43
   2  -6 -13    6.34    1.24
   2   6 -13    8.92    1.58
   2   6 -13   10.35    1.06
   0  -6 -13    6.48    1.36
   0  -6 -13    3.58    0.98
   0   6 -13    3.23    0.75
  -2  -6 -13   38.11    2.41
  -2  -6 -13   39.56    2.21
  -2   6 -13   35.96    1.77
  -4  -6 -13    1.30    1.07
  -4   6 -13    4.27    0.78
  -6  -6 -13    0.52    0.85
  -6   6 -13    0.76    0.61
  -8  -6 -13   16.05    1.79
  -8  -6 -13   13.52    1.13
  -8   6 -13   15.88    1.30
 -10  -6 -13    2.27    1.12
 -10  -6 -13    2.99    0.71
 -10   6 -13    1.47    0.69
 -12  -6 -13    2.62    1.13
 -12  -6 -13    2.10    0.72
 -12   6 -13    2.03    0.76
 -14  -6 -13    6.41    1.04
 -14  -6 -13    5.00    1.37
 -14   6 -13    5.58    0.99
 -16  -6 -13    2.00    0.92
 -16   6 -13    2.25    0.83
  17  -7 -13    1.34    1.29
  15  -7 -13    5.74    1.57
  15  -7 -13    4.33    1.36
  13  -7 -13   -0.11    0.96
  13  -7 -13    0.40    1.09
  13   7 -13    2.80    1.39
  11  -7 -13    1.03    1.06
  11  -7 -13    2.57    1.27
  11   7 -13    3.15    1.25
   9  -7 -13    1.76    1.11
   9  -7 -13    2.42    1.14
   9   7 -13    3.79    0.97
   9   7 -13    3.90    1.32
   7  -7 -13    9.69    1.60
   7  -7 -13    9.75    1.51
   7   7 -13    6.45    1.55
   7   7 -13    8.04    1.12
   5  -7 -13    2.50    1.08
   5  -7 -13    4.95    1.33
   5   7 -13    1.68    1.14
   5   7 -13    0.33    0.67
   3  -7 -13    5.29    1.35
   3  -7 -13    5.00    1.16
   3   7 -13    4.04    0.86
   3   7 -13    4.24    1.28
   1  -7 -13    8.10    1.51
   1  -7 -13   10.47    1.44
   1   7 -13    8.96    1.09
   1   7 -13    9.88    1.68
  -1  -7 -13    7.98    1.27
  -1  -7 -13   10.89    1.67
  -1   7 -13   11.60    1.21
  -3  -7 -13    3.28    1.22
  -3   7 -13    2.30    0.72
  -5  -7 -13    3.85    1.18
  -5   7 -13    0.73    0.70
  -7  -7 -13    0.59    1.04
  -7   7 -13    0.96    0.71
  -9  -7 -13    4.03    0.83
  -9  -7 -13    3.99    1.19
  -9   7 -13    4.38    0.91
 -11  -7 -13    2.60    0.81
 -11  -7 -13    3.91    1.35
 -11   7 -13    5.31    1.00
 -13  -7 -13    4.21    1.34
 -13  -7 -13    2.07    0.88
 -13   7 -13    7.09    1.08
 -15  -7 -13   13.74    1.94
  12  -8 -13    8.60    1.53
  10  -8 -13    5.99    1.39
  10  -8 -13    8.40    1.55
  10   8 -13    8.84    1.93
  10   8 -13   11.58    1.66
   8  -8 -13    3.48    1.15
   8  -8 -13    3.53    1.22
   8   8 -13    4.21    1.38
   8   8 -13    0.89    0.87
   6  -8 -13    1.91    1.10
   6  -8 -13    0.74    1.04
   6   8 -13   -1.15    0.99
   6   8 -13   -0.57    0.68
   4  -8 -13    8.95    1.53
   4  -8 -13    4.76    1.18
   4   8 -13   10.15    1.27
   4   8 -13    8.24    1.60
   2  -8 -13    3.95    1.20
   2  -8 -13    1.92    1.18
   2   8 -13    3.31    1.36
   2   8 -13    2.09    0.86
   0  -8 -13    0.04    0.95
   0  -8 -13    0.27    1.07
   0   8 -13    0.29    0.72
  -2  -8 -13    6.68    1.40
  -2   8 -13    4.96    0.98
  -4  -8 -13    5.69    1.47
  -4   8 -13    5.22    1.00
  -6  -8 -13    5.59    1.46
  -6   8 -13    3.61    0.93
  -8  -8 -13    7.41    1.61
  -8   8 -13    5.03    0.99
 -10  -8 -13    1.41    1.17
 -12  -8 -13    1.97    1.25
   9  -9 -13   18.40    3.10
   7  -9 -13    0.25    0.94
   5  -9 -13    0.31    0.94
   3  -9 -13   12.05    1.77
   3  -9 -13   11.94    2.75
   1  -9 -13    0.23    1.02
   1  -9 -13    0.24    1.00
  -1  -9 -13   10.39    1.81
  -3  -9 -13    0.95    1.10
  -5  -9 -13   -0.78    0.96
  -7  -9 -13   12.25    2.20
  20   0 -14    2.03    1.16
  18   0 -14    0.55    1.20
  18   0 -14    3.22    1.30
  16   0 -14    0.00    0.94
  16   0 -14    0.81    1.10
  14   0 -14   -0.08    0.95
  14   0 -14   -0.87    0.99
  12   0 -14   10.78    1.54
  12   0 -14    7.15    1.37
  10   0 -14    1.56    1.00
  10   0 -14    0.24    0.93
   8   0 -14    2.13    1.00
   8   0 -14    1.98    0.98
   6   0 -14   12.83    1.56
   6   0 -14   13.27    1.51
   4   0 -14    1.91    0.86
  -8   0 -14    2.88    0.41
 -10   0 -14   11.70    0.86
 -12   0 -14    0.15    0.49
 -14   0 -14    0.51    0.54
 -16   0 -14   23.11    1.49
 -18   0 -14    6.35    0.99
  21  -1 -14    0.47    1.21
  21   1 -14   -0.31    1.24
  19  -1 -14    9.86    1.68
  19  -1 -14    8.15    1.72
  19   1 -14    7.92    1.57
  19   1 -14    7.20    1.53
  17  -1 -14   10.69    1.65
  17  -1 -14   10.57    1.66
  17   1 -14    6.86    1.57
  17   1 -14    8.99    1.61
  15  -1 -14   -0.22    0.93
  15  -1 -14    0.99    1.09
  15   1 -14    2.00    1.16
  15   1 -14   -0.33    1.01
  13  -1 -14   10.39    1.51
  13  -1 -14    8.06    1.35
  13   1 -14    8.95    1.58
  13   1 -14   12.07    1.61
  11  -1 -14    8.68    1.39
  11  -1 -14    5.93    1.22
  11   1 -14    7.35    1.44
  11   1 -14    7.34    1.30
   9  -1 -14    0.95    0.89
   9  -1 -14    1.94    1.02
   9   1 -14    2.69    1.14
   9   1 -14    3.04    1.05
   7  -1 -14   10.68    1.40
   7  -1 -14   12.13    1.40
   7   1 -14   12.01    1.57
   5  -1 -14    9.12    1.34
   5  -1 -14    9.22    1.24
   5   1 -14    8.61    1.38
   3   1 -14    3.97    1.13
  -7   1 -14    0.63    0.34
  -9  -1 -14    9.41    0.69
  -9   1 -14    6.74    0.66
 -11  -1 -14    9.78    0.81
 -11   1 -14   13.41    1.01
 -13  -1 -14    1.56    0.59
 -13   1 -14    1.44    0.60
 -15  -1 -14   12.66    1.11
 -15   1 -14   11.38    1.08
 -17  -1 -14    0.27    0.68
 -17   1 -14    4.06    0.85
  20   2 -14    3.26    1.51
  18  -2 -14    1.96    1.31
  18  -2 -14    4.48    1.18
  18   2 -14    5.40    1.59
  18   2 -14    8.73    1.62
  16  -2 -14    3.09    1.29
  16  -2 -14    4.87    1.17
  16   2 -14    3.47    1.32
  16   2 -14    0.07    1.10
  14  -2 -14    3.93    1.24
  14  -2 -14    3.00    1.03
  14   2 -14    1.93    1.24
  14   2 -14    2.22    1.10
  12  -2 -14   13.69    1.57
  12  -2 -14   10.73    1.58
  12   2 -14   10.95    1.73
  12   2 -14   12.73    1.72
  10  -2 -14    1.48    1.00
  10  -2 -14   -0.82    0.91
  10  -2 -14    0.62    0.85
  10   2 -14    0.57    0.90
  10   2 -14   -0.39    0.94
   8  -2 -14    0.71    0.91
   8  -2 -14    1.65    0.88
   8  -2 -14   -0.39    0.75
   8   2 -14    0.30    0.33
   8   2 -14    0.53    0.92
   6  -2 -14   18.24    1.70
   6  -2 -14   20.06    1.76
   6  -2 -14   20.04    1.71
   6   2 -14   16.74    1.80
   4  -2 -14    2.47    0.88
   4  -2 -14    1.61    0.76
   4   2 -14    1.07    1.00
   2  -2 -14   23.53    1.72
   2   2 -14   19.39    1.97
   0  -2 -14    0.73    0.80
  -2  -2 -14    4.21    0.99
  -4  -2 -14   14.47    1.47
  -4   2 -14   17.11    0.79
  -6   2 -14    9.85    0.71
  -8  -2 -14    3.94    0.41
  -8   2 -14    2.65    0.51
 -10  -2 -14   20.58    1.06
 -10   2 -14   20.29    1.19
 -12  -2 -14    9.55    0.88
 -12   2 -14    7.85    0.85
 -14  -2 -14   -0.32    0.56
 -14   2 -14   -0.04    0.57
 -16  -2 -14    9.60    1.04
 -16   2 -14    6.81    0.94
 -18  -2 -14    9.75    1.32
 -18   2 -14   10.69    1.75
  19  -3 -14   19.97    2.28
  19   3 -14   18.30    2.63
  17  -3 -14   11.82    1.67
  17  -3 -14    9.17    1.69
  17   3 -14   10.84    1.72
  17   3 -14   15.39    2.15
  15  -3 -14    3.51    1.26
  15  -3 -14    1.37    1.03
  15   3 -14    0.64    1.09
  15   3 -14    2.83    1.16
  13  -3 -14   15.92    1.77
  13  -3 -14   13.46    1.73
  13   3 -14   14.67    1.97
  13   3 -14   15.63    1.94
  11  -3 -14    6.47    1.31
  11  -3 -14    3.29    1.03
  11   3 -14    3.63    1.30
   9  -3 -14   18.46    1.75
   9  -3 -14   13.70    1.63
   9   3 -14   16.76    1.90
   7  -3 -14    0.80    0.77
   7  -3 -14    0.99    0.81
   7   3 -14    0.90    0.92
   7   3 -14    0.86    0.42
   5  -3 -14    3.67    0.95
   5  -3 -14    3.93    1.00
   5  -3 -14    4.06    1.01
   5   3 -14    2.90    0.46
   5   3 -14    2.21    1.02
   3  -3 -14    3.43    0.92
   3  -3 -14    3.31    0.91
   3  -3 -14    3.96    1.09
   3   3 -14    1.58    1.09
   3   3 -14    2.22    0.40
   1  -3 -14    1.32    0.78
   1  -3 -14   -1.81    0.69
   1   3 -14    0.86    0.36
  -1  -3 -14    8.78    1.29
  -1  -3 -14    9.56    1.30
  -1   3 -14    8.86    0.67
  -3  -3 -14    3.93    1.02
  -3   3 -14    2.85    0.47
  -5  -3 -14    6.01    1.13
  -5   3 -14   10.40    0.77
  -7   3 -14    1.29    0.49
  -9  -3 -14    3.61    0.52
  -9   3 -14    4.85    0.69
 -11  -3 -14    3.62    0.61
 -11   3 -14    2.72    0.65
 -13  -3 -14    1.42    0.61
 -13   3 -14    1.19    0.61
 -15  -3 -14    2.92    0.75
 -15   3 -14    2.64    0.75
 -17  -3 -14    1.75    0.87
 -17   3 -14    3.28    1.33
  18  -4 -14   17.51    2.11
  16  -4 -14    0.40    1.15
  16  -4 -14    5.56    1.36
  16   4 -14    5.33    1.56
  16   4 -14    3.41    1.41
  14  -4 -14    1.79    0.97
  14  -4 -14    3.29    1.27
  14   4 -14    3.41    1.48
  12  -4 -14   15.59    1.70
  12  -4 -14   15.38    1.83
  12   4 -14   11.18    1.75
  10  -4 -14    2.32    1.07
  10  -4 -14    0.68    0.93
  10   4 -14    2.76    1.22
   8  -4 -14    6.64    1.27
   8  -4 -14    7.07    1.22
   8   4 -14    7.32    1.56
   8   4 -14    8.73    0.90
   6  -4 -14   14.51    1.59
   6  -4 -14   16.79    2.38
   6  -4 -14   15.01    1.67
   6   4 -14   15.37    1.91
   6   4 -14   13.61    1.03
   4  -4 -14    1.75    1.00
   4  -4 -14    3.00    0.99
   4   4 -14    2.81    0.56
   4   4 -14    3.50    1.24
   2  -4 -14    4.27    1.03
   2  -4 -14    5.17    1.16
   2   4 -14    2.20    0.50
   2   4 -14    4.49    1.18
   0  -4 -14   12.52    1.58
   0  -4 -14   12.86    1.39
   0   4 -14   14.08    0.94
  -2  -4 -14   12.10    1.51
  -2   4 -14   11.80    0.88
  -4  -4 -14   17.14    1.74
  -4   4 -14   13.68    0.97
  -6  -4 -14   14.17    1.59
  -6   4 -14   13.14    1.01
  -8  -4 -14    4.93    1.14
  -8  -4 -14    6.64    0.64
  -8   4 -14    5.07    0.73
 -10  -4 -14   18.22    1.13
 -10   4 -14   19.24    1.30
 -12  -4 -14    7.81    0.87
 -12   4 -14    5.40    0.84
 -14  -4 -14    2.33    0.72
 -14   4 -14    2.45    0.72
 -16  -4 -14   13.74    1.69
  17  -5 -14   13.96    1.87
  15  -5 -14    3.82    1.34
  15  -5 -14    3.73    1.34
  13  -5 -14    0.02    1.10
  13  -5 -14    1.10    1.04
  13   5 -14    4.79    1.54
  11  -5 -14    1.05    0.98
  11  -5 -14    2.85    1.16
  11   5 -14    3.09    1.28
   9  -5 -14    4.66    1.20
   9  -5 -14    3.58    1.24
   9   5 -14    1.63    0.70
   9   5 -14    3.65    1.40
   7  -5 -14   10.53    1.51
   7  -5 -14   10.31    1.52
   7   5 -14   10.34    1.01
   7   5 -14    8.48    1.63
   5  -5 -14    3.35    1.11
   5  -5 -14    0.92    0.92
   5   5 -14    1.66    0.63
   5   5 -14    2.21    1.23
   3  -5 -14   12.81    1.70
   3  -5 -14   14.48    1.55
   3   5 -14    9.49    0.92
   3   5 -14    9.05    1.66
   1  -5 -14   32.64    2.30
   1  -5 -14   30.27    2.09
   1   5 -14   33.97    1.58
  -1  -5 -14    2.60    1.15
  -1   5 -14    3.44    0.65
  -3  -5 -14   15.87    1.81
  -3   5 -14   11.49    0.98
  -5  -5 -14    4.94    1.29
  -5   5 -14    3.08    0.66
  -7  -5 -14    2.76    1.12
  -7   5 -14    2.68    0.66
  -9  -5 -14    3.60    1.22
  -9  -5 -14    6.12    0.76
  -9   5 -14    7.94    0.93
 -11  -5 -14   11.11    1.02
 -11   5 -14    8.69    1.01
 -13  -5 -14    1.24    0.70
 -13   5 -14    1.66    0.73
  12  -6 -14   -0.34    0.91
  10  -6 -14    3.50    1.15
  10  -6 -14    6.03    1.48
  10   6 -14    4.88    1.49
  10   6 -14    3.57    0.89
   8  -6 -14    2.91    1.14
   8  -6 -14    3.33    1.27
   8   6 -14    4.07    0.84
   8   6 -14    5.17    1.47
   6  -6 -14    3.63    1.14
   6  -6 -14    4.20    1.18
   6   6 -14    1.91    0.73
   6   6 -14    2.59    1.25
   4  -6 -14    2.92    1.13
   4  -6 -14    3.47    1.23
   4   6 -14    3.17    0.76
   4   6 -14    3.52    1.27
   2  -6 -14    5.83    1.40
   2  -6 -14    5.47    1.19
   2   6 -14    4.17    1.33
   2   6 -14    3.35    0.74
   0  -6 -14    5.40    1.34
   0   6 -14    3.96    0.74
  -2  -6 -14    5.46    1.23
  -2   6 -14    6.14    0.85
  -4  -6 -14   -0.24    0.86
  -4   6 -14    1.27    0.62
  -6  -6 -14   14.80    1.81
  -6   6 -14   11.76    1.11
  -8  -6 -14    4.34    1.25
  -8   6 -14    1.99    0.72
 -10  -6 -14    5.09    0.84
 -10  -6 -14    5.29    1.39
 -10   6 -14    2.16    0.75
  11  -7 -14    3.46    1.36
   9  -7 -14    2.19    1.10
   7  -7 -14   15.60    1.99
   7  -7 -14   12.64    1.76
   5  -7 -14    4.36    1.24
   5  -7 -14    2.85    1.17
   5   7 -14    5.38    0.99
   5   7 -14    3.95    1.34
   3  -7 -14    1.51    1.15
   3  -7 -14   -0.99    0.87
   3   7 -14    0.14    0.66
   3   7 -14   -1.16    1.09
   1  -7 -14    1.87    1.51
   1  -7 -14    0.01    0.93
   1   7 -14    1.03    0.70
  -1  -7 -14   16.28    2.06
  -1   7 -14   13.02    1.22
  -3  -7 -14    2.07    1.23
  -3   7 -14    3.97    0.87
  -5  -7 -14    5.91    1.46
  -5   7 -14    9.99    1.25
  -7  -7 -14   13.65    1.91
  -9  -7 -14    8.02    1.63
 -11  -7 -14    5.45    1.53
   6  -8 -14    3.88    1.19
   4  -8 -14    0.67    1.10
   2  -8 -14    6.88    1.53
   0  -8 -14    2.08    1.35
  -2  -8 -14    1.10    1.37
  -4  -8 -14    3.00    1.55
  -6  -8 -14    8.07    1.87
  16   0 -15   13.58    1.90
  14   0 -15    1.87    1.04
  14   0 -15    0.62    1.12
  12   0 -15    0.70    1.00
  12   0 -15   -0.37    1.03
  10   0 -15    5.93    1.35
  10   0 -15    5.48    1.31
   8   0 -15    1.66    1.03
   8   0 -15    1.05    1.01
   6   0 -15    0.12    0.94
   4   0 -15    6.47    1.27
 -10   0 -15    0.20    0.35
 -12   0 -15    3.10    0.59
 -14   0 -15   16.55    1.22
  15  -1 -15    3.96    1.35
  15   1 -15    4.40    1.54
  15   1 -15    7.60    1.63
  13  -1 -15    1.94    1.08
  13   1 -15    0.11    1.08
  13   1 -15    2.15    1.19
  11  -1 -15    6.24    1.29
  11  -1 -15    5.29    1.26
  11   1 -15    8.78    1.62
  11   1 -15    7.87    1.55
   9  -1 -15    5.66    1.27
   9  -1 -15    5.11    1.21
   9   1 -15    4.00    1.26
   7  -1 -15    2.80    1.07
   7  -1 -15    1.47    1.02
   7   1 -15    1.06    1.07
   5  -1 -15   11.89    1.53
   5   1 -15   13.03    1.75
  -9   1 -15    3.68    0.49
 -11  -1 -15    0.58    0.39
 -11   1 -15    0.13    0.44
 -13  -1 -15   10.74    0.90
 -13   1 -15    9.09    0.91
  16  -2 -15    5.29    1.51
  16   2 -15    5.75    1.48
  14  -2 -15    4.46    1.38
  14   2 -15    3.59    1.45
  14   2 -15    3.54    1.47
  12  -2 -15    0.00    1.05
  12   2 -15    3.40    1.24
  12   2 -15    4.05    1.38
  10  -2 -15   14.73    1.76
  10   2 -15   15.97    0.78
  10   2 -15   17.12    2.01
   8  -2 -15   -1.34    0.83
   8   2 -15    0.45    1.05
   6  -2 -15    5.65    1.18
   6   2 -15    6.21    1.43
   4   2 -15    5.32    1.32
  -8   2 -15    4.38    0.56
 -10   2 -15    0.87    0.49
 -12  -2 -15   12.77    0.92
 -12   2 -15   14.53    1.09
 -14  -2 -15    0.53    0.56
  15  -3 -15    7.68    1.55
  13  -3 -15    1.33    1.10
  13  -3 -15   -0.02    1.01
  13   3 -15   -0.47    1.14
  11  -3 -15    7.87    1.33
  11  -3 -15    6.65    1.42
  11   3 -15    6.08    0.71
  11   3 -15    4.92    1.35
   9  -3 -15    1.14    1.02
   9  -3 -15    3.02    1.10
   9   3 -15    6.57    0.65
   9   3 -15    6.96    1.57
   7  -3 -15    2.42    0.99
   7  -3 -15    0.68    0.91
   7   3 -15    1.19    0.38
   7   3 -15    1.84    1.06
   5  -3 -15   25.73    2.02
   5   3 -15   22.92    2.25
   3  -3 -15    2.28    0.96
   3   3 -15    1.70    1.16
   1  -3 -15    0.09    0.87
  -1  -3 -15    7.31    1.24
  -1   3 -15    6.53    0.48
  -3   3 -15    2.10    0.40
  -5   3 -15   -0.42    0.37
  -7   3 -15    0.59    0.45
  -9   3 -15   29.66    1.42
 -11  -3 -15    9.37    0.74
 -11   3 -15    6.89    0.84
 -13  -3 -15    0.37    0.52
  12  -4 -15    4.38    1.27
  12  -4 -15    6.66    1.45
  10  -4 -15    5.41    1.29
  10   4 -15    5.05    0.75
  10   4 -15    4.18    1.46
   8  -4 -15    0.69    0.97
   8   4 -15    0.97    1.24
   8   4 -15    1.56    0.54
   6  -4 -15   11.65    1.53
   6   4 -15    5.76    0.66
   6   4 -15    4.66    1.36
   4  -4 -15    7.34    1.40
   4  -4 -15    6.88    1.26
   4   4 -15    3.72    1.32
   4   4 -15    4.02    0.56
   2  -4 -15    9.78    1.49
   2   4 -15   10.37    0.77
   0  -4 -15    2.00    1.05
   0   4 -15    1.76    0.47
  -2  -4 -15   18.31    1.87
  -2   4 -15   14.50    0.95
  -4  -4 -15    8.50    1.43
  -4   4 -15    9.32    0.79
  -6   4 -15   12.00    0.93
  -8   4 -15    5.68    0.75
 -10  -4 -15    2.66    0.52
 -10   4 -15    2.18    0.73
 -12  -4 -15    3.81    0.77
  11  -5 -15    8.81    1.72
   9  -5 -15    4.32    1.27
   7  -5 -15    4.93    1.34
   7  -5 -15    3.18    1.19
   7   5 -15    4.58    1.55
   7   5 -15    6.04    0.82
   5  -5 -15    2.67    1.03
   5  -5 -15    1.39    0.96
   5   5 -15    2.11    0.61
   5   5 -15    2.51    1.37
   3  -5 -15   18.53    1.82
   3  -5 -15   19.27    2.05
   3   5 -15   14.90    2.03
   3   5 -15   15.92    1.10
   1  -5 -15    6.04    1.35
   1   5 -15    4.92    0.69
  -1  -5 -15    2.64    1.15
  -1   5 -15    2.64    0.62
  -3  -5 -15    0.89    1.01
  -3   5 -15    0.22    0.50
  -5  -5 -15    1.20    1.05
  -5   5 -15    0.91    0.56
  -7   5 -15   11.65    1.52
   6  -6 -15    7.88    1.51
   4  -6 -15   -0.25    1.01
   4  -6 -15    1.04    1.13
   2  -6 -15    0.52    1.06
   0  -6 -15    2.30    1.17
  -2  -6 -15    1.17    1.12
  -4  -6 -15    6.68    1.52
  -6  -6 -15    1.84    1.19
  10   0 -16    5.54    1.42
  10   0 -16    6.48    1.35
   8   0 -16    0.95    1.12
   6   0 -16   13.32    1.73
   9  -1 -16    4.85    1.30
   9   1 -16    7.95    1.55
   7   1 -16    6.32    1.48
   8  -2 -16    6.52    1.42
   8   2 -16    7.70    1.61
   6   2 -16    3.66    1.30
   5   3 -16    0.71    1.32
   0   0   0    0.00    0.00
;
_shelx_hkl_checksum              38370
loop_
_space_group_symop_operation_xyz
'x, y, z'
'-x, y, -z'
'x+1/2, y+1/2, z'
'-x+1/2, y+1/2, -z'
loop_
_atom_site_label
_atom_site_type_symbol
_atom_site_fract_x
_atom_site_fract_y
_atom_site_fract_z
_atom_site_U_iso_or_equiv
_atom_site_adp_type
_atom_site_occupancy
_atom_site_site_symmetry_order
_atom_site_calc_flag
_atom_site_refinement_flags_posn
_atom_site_refinement_flags_adp
_atom_site_refinement_flags_occupancy
_atom_site_disorder_assembly
_atom_site_disorder_group
Br1 Br 0.91355(2) 1.05127(3) 0.20884(2) 0.02935(8) Uani 1 1 d . . . . .
S1 S 0.71723(2) 0.37882(6) 1.00803(6) 0.01962(13) Uani 1 1 d . . . . .
N1 N 0.90466(6) 0.51854(17) 0.79242(17) 0.0148(4) Uani 1 1 d . . . . .
N2 N 0.94491(7) 0.59526(19) 0.77935(19) 0.0178(4) Uani 1 1 d . . . . .
O1 O 0.81952(5) 0.52238(13) 0.75614(14) 0.0143(3) Uani 1 1 d . . . . .
O2 O 0.71541(6) 0.46922(16) 0.89726(15) 0.0191(4) Uani 1 1 d . . . . .
O3 O 0.76447(6) 0.32175(17) 1.01650(17) 0.0253(4) Uani 1 1 d . . . . .
O4 O 0.70076(7) 0.45413(19) 1.10388(17) 0.0297(4) Uani 1 1 d . . . . .
C1 C 0.86358(8) 0.5784(2) 0.7545(2) 0.0131(4) Uani 1 1 d . . . . .
C2 C 0.92701(8) 0.7012(2) 0.7345(2) 0.0168(5) Uani 1 1 d . . . . .
C3 C 0.87569(8) 0.6947(2) 0.7151(2) 0.0138(4) Uani 1 1 d . . . . .
C4 C 0.83805(8) 0.7787(2) 0.6571(2) 0.0144(4) Uani 1 1 d . . . . .
H4 H 0.8271 0.8427 0.7159 0.017 Uiso 1 1 calc R U . . .
C5 C 0.79393(8) 0.6938(2) 0.6232(2) 0.0129(4) Uani 1 1 d . . . . .
H5 H 0.8050 0.6383 0.5572 0.016 Uiso 1 1 calc R U . . .
C6 C 0.77947(8) 0.6082(2) 0.7277(2) 0.0135(4) Uani 1 1 d . . . . .
H6 H 0.7718 0.6601 0.7990 0.016 Uiso 1 1 calc R U . . .
C7 C 0.73596(8) 0.5250(2) 0.6974(2) 0.0163(5) Uani 1 1 d . . . . .
H7A H 0.7058 0.5766 0.6968 0.020 Uiso 1 1 calc R U . . .
H7B H 0.7403 0.4914 0.6162 0.020 Uiso 1 1 calc R U . . .
C8 C 0.72885(8) 0.4172(2) 0.7819(2) 0.0170(5) Uani 1 1 d . . . . .
H8A H 0.7026 0.3614 0.7519 0.020 Uiso 1 1 calc R U . . .
H8B H 0.7595 0.3683 0.7894 0.020 Uiso 1 1 calc R U . . .
C9 C 0.91019(8) 0.3913(2) 0.8265(2) 0.0156(4) Uani 1 1 d . . . . .
C10 C 0.87315(8) 0.3306(2) 0.8864(2) 0.0167(5) Uani 1 1 d . . . . .
H10 H 0.8439 0.3739 0.9056 0.020 Uiso 1 1 calc R U . . .
C11 C 0.87887(9) 0.2062(2) 0.9186(2) 0.0226(5) Uani 1 1 d . . . . .
H11 H 0.8534 0.1640 0.9596 0.027 Uiso 1 1 calc R U . . .
C12 C 0.92179(11) 0.1435(3) 0.8909(3) 0.0341(7) Uani 1 1 d . . . . .
H12 H 0.9259 0.0585 0.9128 0.041 Uiso 1 1 calc R U . . .
C13 C 0.95874(10) 0.2057(3) 0.8310(3) 0.0361(7) Uani 1 1 d . . . . .
H13 H 0.9882 0.1629 0.8128 0.043 Uiso 1 1 calc R U . . .
C14 C 0.95320(9) 0.3288(2) 0.7975(3) 0.0250(6) Uani 1 1 d . . . . .
H14 H 0.9784 0.3703 0.7552 0.030 Uiso 1 1 calc R U . . .
C15 C 0.96072(9) 0.8092(2) 0.7127(3) 0.0252(6) Uani 1 1 d . . . . .
H15A H 0.9944 0.7851 0.7335 0.038 Uiso 1 1 calc R U . . .
H15B H 0.9508 0.8802 0.7619 0.038 Uiso 1 1 calc R U . . .
H15C H 0.9590 0.8328 0.6286 0.038 Uiso 1 1 calc R U . . .
C16 C 0.85795(8) 0.8440(2) 0.5482(2) 0.0141(4) Uani 1 1 d . . . . .
C17 C 0.87609(9) 0.7774(2) 0.4524(2) 0.0191(5) Uani 1 1 d . . . . .
H17 H 0.8766 0.6888 0.4558 0.023 Uiso 1 1 calc R U . . .
C18 C 0.89353(8) 0.8376(2) 0.3515(2) 0.0201(5) Uani 1 1 d . . . . .
H18 H 0.9056 0.7910 0.2861 0.024 Uiso 1 1 calc R U . . .
C19 C 0.89289(8) 0.9663(2) 0.3484(2) 0.0187(5) Uani 1 1 d . . . . .
C20 C 0.87595(8) 1.0363(2) 0.4431(2) 0.0189(5) Uani 1 1 d . . . . .
H20 H 0.8763 1.1249 0.4400 0.023 Uiso 1 1 calc R U . . .
C21 C 0.85848(8) 0.9744(2) 0.5424(2) 0.0169(5) Uani 1 1 d . . . . .
H21 H 0.8467 1.0215 0.6078 0.020 Uiso 1 1 calc R U . . .
C22 C 0.74928(8) 0.7647(2) 0.5775(2) 0.0146(4) Uani 1 1 d . . . . .
C23 C 0.72858(9) 0.7320(2) 0.4673(2) 0.0178(5) Uani 1 1 d . . . . .
H23 H 0.7441 0.6704 0.4198 0.021 Uiso 1 1 calc R U . . .
C24 C 0.68564(9) 0.7884(2) 0.4267(2) 0.0224(5) Uani 1 1 d . . . . .
H24 H 0.6719 0.7650 0.3520 0.027 Uiso 1 1 calc R U . . .
C25 C 0.66297(9) 0.8786(3) 0.4950(2) 0.0250(6) Uani 1 1 d . . . . .
H25 H 0.6335 0.9166 0.4678 0.030 Uiso 1 1 calc R U . . .
C26 C 0.68371(9) 0.9134(3) 0.6041(2) 0.0259(6) Uani 1 1 d . . . . .
H26 H 0.6685 0.9760 0.6509 0.031 Uiso 1 1 calc R U . . .
C27 C 0.72675(9) 0.8566(2) 0.6446(2) 0.0211(5) Uani 1 1 d . . . . .
H27 H 0.7408 0.8811 0.7187 0.025 Uiso 1 1 calc R U . . .
C28 C 0.67381(8) 0.2625(2) 0.9734(2) 0.0180(5) Uani 1 1 d . . . . .
C29 C 0.62427(9) 0.2894(3) 0.9877(2) 0.0236(5) Uani 1 1 d . . . . .
H29 H 0.6141 0.3678 1.0184 0.028 Uiso 1 1 calc R U . . .
C30 C 0.59008(9) 0.1990(3) 0.9562(2) 0.0276(6) Uani 1 1 d . . . . .
H30 H 0.5562 0.2165 0.9651 0.033 Uiso 1 1 calc R U . . .
C31 C 0.60425(9) 0.0838(3) 0.9119(2) 0.0271(6) Uani 1 1 d . . . . .
C32 C 0.65422(9) 0.0590(3) 0.9010(2) 0.0247(5) Uani 1 1 d . . . . .
H32 H 0.6645 -0.0202 0.8726 0.030 Uiso 1 1 calc R U . . .
C33 C 0.68925(9) 0.1484(2) 0.9311(2) 0.0217(5) Uani 1 1 d . . . . .
H33 H 0.7232 0.1311 0.9226 0.026 Uiso 1 1 calc R U . . .
C34 C 0.56639(11) -0.0131(3) 0.8781(3) 0.0422(8) Uani 1 1 d . . . . .
H34A H 0.5398 0.0267 0.8329 0.063 Uiso 1 1 calc R U . . .
H34B H 0.5532 -0.0511 0.9503 0.063 Uiso 1 1 calc R U . . .
H34C H 0.5817 -0.0777 0.8291 0.063 Uiso 1 1 calc R U . . .
O1S O 1.0064(3) 0.3522(3) 0.5108(11) 0.0319(14) Uani 0.5 1 d D U P A -1
C1S C 0.97389(19) 0.2505(5) 0.4838(6) 0.0318(12) Uani 0.5 1 d D U P A -1
H1S1 H 0.9636 0.2539 0.3991 0.038 Uiso 0.5 1 calc R U P A -1
H1S2 H 0.9442 0.2558 0.5335 0.038 Uiso 0.5 1 calc R U P A -1
C2S C 1.0009(9) 0.1298(5) 0.509(3) 0.039(2) Uani 0.5 1 d D U P A -1
H2S1 H 1.0107 0.1270 0.5930 0.059 Uiso 0.5 1 calc R U P A -1
H2S2 H 1.0302 0.1253 0.4592 0.059 Uiso 0.5 1 calc R U P A -1
H2S3 H 0.9794 0.0589 0.4909 0.059 Uiso 0.5 1 calc R U P A -1
C3S C 0.9838(2) 0.4733(5) 0.4987(6) 0.0320(12) Uani 0.5 1 d D U P A -1
H3S1 H 0.9557 0.4807 0.5534 0.038 Uiso 0.5 1 calc R U P A -1
H3S2 H 0.9716 0.4855 0.4162 0.038 Uiso 0.5 1 calc R U P A -1
C4S C 1.0226(2) 0.5702(6) 0.5292(5) 0.0414(15) Uani 0.5 1 d D U P A -1
H4S1 H 1.0507 0.5598 0.4765 0.062 Uiso 0.5 1 calc R U P A -1
H4S2 H 1.0333 0.5594 0.6120 0.062 Uiso 0.5 1 calc R U P A -1
H4S3 H 1.0088 0.6541 0.5187 0.062 Uiso 0.5 1 calc R U P A -1
loop_
_atom_site_aniso_label
_atom_site_aniso_U_11
_atom_site_aniso_U_22
_atom_site_aniso_U_33
_atom_site_aniso_U_23
_atom_site_aniso_U_13
_atom_site_aniso_U_12
Br1 0.03056(13) 0.03787(15) 0.01964(12) 0.00803(12) 0.00116(10) -0.01648(12)
S1 0.0209(3) 0.0208(3) 0.0171(3) 0.0058(2) 0.0007(2) -0.0012(2)
N1 0.0120(8) 0.0166(9) 0.0159(9) 0.0013(7) -0.0005(7) -0.0002(7)
N2 0.0123(8) 0.0200(9) 0.0210(10) 0.0008(8) 0.0016(8) -0.0029(7)
O1 0.0108(6) 0.0130(8) 0.0191(8) 0.0034(6) -0.0021(6) 0.0000(5)
O2 0.0228(8) 0.0177(8) 0.0168(9) 0.0057(7) 0.0031(7) 0.0004(7)
O3 0.0184(8) 0.0286(10) 0.0289(10) 0.0103(8) -0.0041(8) -0.0015(7)
O4 0.0386(11) 0.0291(10) 0.0216(10) 0.0037(8) 0.0054(8) -0.0018(9)
C1 0.0131(9) 0.0150(11) 0.0113(10) -0.0013(8) -0.0010(8) -0.0005(7)
C2 0.0147(10) 0.0192(11) 0.0164(11) -0.0017(9) 0.0010(9) -0.0016(8)
C3 0.0131(10) 0.0153(10) 0.0131(11) -0.0001(9) 0.0004(8) -0.0008(8)
C4 0.0142(10) 0.0143(10) 0.0147(11) -0.0003(9) 0.0020(9) 0.0002(8)
C5 0.0133(10) 0.0133(9) 0.0122(10) 0.0012(9) 0.0011(8) 0.0013(8)
C6 0.0118(9) 0.0135(10) 0.0151(11) 0.0021(9) -0.0010(9) 0.0026(8)
C7 0.0148(9) 0.0190(12) 0.0150(10) 0.0050(9) -0.0031(8) -0.0026(8)
C8 0.0170(10) 0.0168(11) 0.0171(12) 0.0037(9) -0.0009(9) -0.0026(8)
C9 0.0157(10) 0.0158(10) 0.0154(11) 0.0006(9) -0.0033(9) 0.0006(8)
C10 0.0147(10) 0.0201(11) 0.0152(11) 0.0002(9) -0.0006(9) 0.0019(8)
C11 0.0225(12) 0.0213(12) 0.0240(13) 0.0054(11) 0.0010(10) -0.0007(9)
C12 0.0385(16) 0.0206(13) 0.0434(19) 0.0098(13) 0.0105(14) 0.0097(11)
C13 0.0268(14) 0.0293(15) 0.052(2) 0.0107(15) 0.0162(14) 0.0155(12)
C14 0.0191(11) 0.0244(12) 0.0316(15) 0.0044(11) 0.0075(11) 0.0047(10)
C15 0.0185(11) 0.0226(12) 0.0345(16) 0.0012(12) -0.0006(11) -0.0055(9)
C16 0.0117(9) 0.0159(10) 0.0147(11) 0.0012(9) 0.0001(9) -0.0009(8)
C17 0.0216(11) 0.0153(10) 0.0205(12) -0.0021(10) 0.0020(10) -0.0007(9)
C18 0.0184(11) 0.0264(12) 0.0157(12) -0.0021(10) 0.0025(9) -0.0036(9)
C19 0.0134(10) 0.0257(12) 0.0171(12) 0.0049(10) -0.0004(9) -0.0064(9)
C20 0.0167(9) 0.0178(11) 0.0222(11) 0.0034(11) -0.0006(9) -0.0035(9)
C21 0.0167(10) 0.0151(11) 0.0189(12) 0.0001(10) 0.0003(9) -0.0010(8)
C22 0.0148(10) 0.0145(10) 0.0146(11) 0.0063(9) 0.0004(9) 0.0000(8)
C23 0.0220(11) 0.0135(10) 0.0178(12) 0.0039(9) -0.0003(10) -0.0006(9)
C24 0.0251(12) 0.0227(12) 0.0193(13) 0.0087(11) -0.0073(10) -0.0062(10)
C25 0.0189(11) 0.0258(13) 0.0301(14) 0.0153(12) -0.0013(11) 0.0046(10)
C26 0.0251(12) 0.0267(13) 0.0262(14) 0.0071(12) 0.0042(11) 0.0109(10)
C27 0.0231(11) 0.0229(12) 0.0172(12) 0.0027(10) 0.0004(10) 0.0046(9)
C28 0.0165(10) 0.0212(11) 0.0163(12) 0.0074(10) 0.0027(9) -0.0011(9)
C29 0.0203(11) 0.0299(14) 0.0205(13) 0.0094(11) 0.0052(10) 0.0062(10)
C30 0.0141(11) 0.0430(16) 0.0257(14) 0.0138(13) -0.0003(10) 0.0002(11)
C31 0.0232(11) 0.0373(16) 0.0207(12) 0.0166(12) -0.0070(10) -0.0076(10)
C32 0.0284(11) 0.0230(12) 0.0228(12) 0.0064(12) -0.0006(10) -0.0018(11)
C33 0.0185(11) 0.0227(12) 0.0239(13) 0.0063(11) 0.0029(10) 0.0034(9)
C34 0.0339(15) 0.0505(19) 0.0420(19) 0.0215(16) -0.0172(14) -0.0195(14)
O1S 0.028(4) 0.0378(16) 0.030(4) -0.002(2) -0.003(3) -0.0062(19)
C1S 0.022(2) 0.036(3) 0.037(3) -0.005(3) -0.006(2) -0.001(2)
C2S 0.029(2) 0.041(2) 0.048(7) -0.019(6) -0.019(4) 0.003(6)
C3S 0.038(3) 0.036(2) 0.022(3) -0.003(3) -0.001(3) -0.003(2)
C4S 0.053(3) 0.043(3) 0.028(3) 0.000(3) 0.014(3) -0.019(3)
loop_
_atom_type_symbol
_atom_type_description
_atom_type_scat_dispersion_real
_atom_type_scat_dispersion_imag
_atom_type_scat_source
C C 0.0033 0.0016 'International Tables Vol C Tables 4.2.6.8 and 6.1.1.4'
H H 0.0000 0.0000 'International Tables Vol C Tables 4.2.6.8 and 6.1.1.4'
N N 0.0061 0.0033 'International Tables Vol C Tables 4.2.6.8 and 6.1.1.4'
O O 0.0106 0.0060 'International Tables Vol C Tables 4.2.6.8 and 6.1.1.4'
S S 0.1246 0.1234 'International Tables Vol C Tables 4.2.6.8 and 6.1.1.4'
Br Br -0.2901 2.4595 'International Tables Vol C Tables 4.2.6.8 and 6.1.1.4'
loop_
_geom_angle_atom_site_label_1
_geom_angle_atom_site_label_2
_geom_angle_atom_site_label_3
_geom_angle
O4 S1 O3 118.92(12)
O4 S1 O2 104.01(11)
O3 S1 O2 109.67(10)
O4 S1 C28 110.62(12)
O3 S1 C28 108.45(11)
O2 S1 C28 104.12(10)
C1 N1 N2 109.92(17)
C1 N1 C9 128.48(19)
N2 N1 C9 121.10(18)
C2 N2 N1 104.98(17)
C1 O1 C6 112.53(16)
C8 O2 S1 117.41(14)
O1 C1 N1 121.40(18)
O1 C1 C3 129.20(19)
N1 C1 C3 109.38(19)
N2 C2 C3 112.0(2)
N2 C2 C15 119.7(2)
C3 C2 C15 128.3(2)
C1 C3 C2 103.7(2)
C1 C3 C4 121.28(19)
C2 C3 C4 134.8(2)
C3 C4 C16 112.16(18)
C3 C4 C5 106.21(17)
C16 C4 C5 110.84(18)
C22 C5 C6 110.14(18)
C22 C5 C4 114.01(18)
C6 C5 C4 111.36(17)
O1 C6 C7 105.11(17)
O1 C6 C5 110.14(17)
C7 C6 C5 112.49(18)
C8 C7 C6 114.39(18)
O2 C8 C7 107.58(18)
C10 C9 C14 120.6(2)
C10 C9 N1 120.4(2)
C14 C9 N1 119.0(2)
C9 C10 C11 119.8(2)
C12 C11 C10 119.9(2)
C11 C12 C13 119.7(2)
C14 C13 C12 120.9(2)
C13 C14 C9 119.1(2)
C17 C16 C21 118.3(2)
C17 C16 C4 121.5(2)
C21 C16 C4 120.2(2)
C16 C17 C18 121.5(2)
C19 C18 C17 118.6(2)
C18 C19 C20 121.7(2)
C18 C19 Br1 119.6(2)
C20 C19 Br1 118.59(19)
C19 C20 C21 118.7(2)
C20 C21 C16 121.2(2)
C27 C22 C23 118.8(2)
C27 C22 C5 121.9(2)
C23 C22 C5 119.3(2)
C24 C23 C22 120.8(2)
C25 C24 C23 120.0(2)
C24 C25 C26 119.6(2)
C27 C26 C25 120.2(2)
C22 C27 C26 120.6(2)
C33 C28 C29 121.5(2)
C33 C28 S1 119.77(18)
C29 C28 S1 118.7(2)
C30 C29 C28 118.5(3)
C31 C30 C29 121.6(2)
C30 C31 C32 118.5(2)
C30 C31 C34 120.6(3)
C32 C31 C34 120.9(3)
C33 C32 C31 121.1(3)
C28 C33 C32 118.8(2)
C1S O1S C3S 113.6(5)
O1S C1S C2S 108.1(8)
O1S C3S C4S 107.3(5)
loop_
_geom_bond_atom_site_label_1
_geom_bond_atom_site_label_2
_geom_bond_distance
Br1 C19 1.904(2)
S1 O4 1.422(2)
S1 O3 1.4284(18)
S1 O2 1.5779(18)
S1 C28 1.759(2)
N1 C1 1.356(3)
N1 N2 1.380(3)
N1 C9 1.424(3)
N2 C2 1.332(3)
O1 C1 1.343(2)
O1 C6 1.460(3)
O2 C8 1.462(3)
C1 C3 1.364(3)
C2 C3 1.416(3)
C2 C15 1.499(3)
C3 C4 1.509(3)
C4 C16 1.515(3)
C4 C5 1.552(3)
C5 C22 1.520(3)
C5 C6 1.545(3)
C6 C7 1.520(3)
C7 C8 1.508(3)
C9 C10 1.382(3)
C9 C14 1.392(3)
C10 C11 1.389(3)
C11 C12 1.387(4)
C12 C13 1.388(4)
C13 C14 1.379(4)
C16 C17 1.387(3)
C16 C21 1.398(3)
C17 C18 1.393(4)
C18 C19 1.379(4)
C19 C20 1.384(3)
C20 C21 1.388(3)
C22 C27 1.388(3)
C22 C23 1.400(3)
C23 C24 1.391(3)
C24 C25 1.384(4)
C25 C26 1.397(4)
C26 C27 1.394(3)
C28 C33 1.379(4)
C28 C29 1.392(3)
C29 C30 1.388(4)
C30 C31 1.388(4)
C31 C32 1.395(3)
C31 C34 1.510(4)
C32 C33 1.392(4)
O1S C1S 1.434(6)
O1S C3S 1.442(6)
C1S C2S 1.514(11)
C3S C4S 1.521(6)
loop_
_geom_torsion_atom_site_label_1
_geom_torsion_atom_site_label_2
_geom_torsion_atom_site_label_3
_geom_torsion_atom_site_label_4
_geom_torsion
C1 N1 N2 C2 0.7(3)
C9 N1 N2 C2 173.1(2)
O4 S1 O2 C8 -177.92(16)
O3 S1 O2 C8 53.88(18)
C28 S1 O2 C8 -62.00(18)
C6 O1 C1 N1 171.9(2)
C6 O1 C1 C3 -10.0(3)
N2 N1 C1 O1 178.84(19)
C9 N1 C1 O1 7.1(4)
N2 N1 C1 C3 0.4(3)
C9 N1 C1 C3 -171.4(2)
N1 N2 C2 C3 -1.4(3)
N1 N2 C2 C15 177.7(2)
O1 C1 C3 C2 -179.5(2)
N1 C1 C3 C2 -1.2(3)
O1 C1 C3 C4 -3.9(4)
N1 C1 C3 C4 174.4(2)
N2 C2 C3 C1 1.7(3)
C15 C2 C3 C1 -177.4(2)
N2 C2 C3 C4 -173.0(2)
C15 C2 C3 C4 7.9(5)
C1 C3 C4 C16 -136.9(2)
C2 C3 C4 C16 37.0(4)
C1 C3 C4 C5 -15.7(3)
C2 C3 C4 C5 158.2(3)
C3 C4 C5 C22 172.62(19)
C16 C4 C5 C22 -65.3(2)
C3 C4 C5 C6 47.2(2)
C16 C4 C5 C6 169.30(18)
C1 O1 C6 C7 163.57(18)
C1 O1 C6 C5 42.2(2)
C22 C5 C6 O1 168.76(18)
C4 C5 C6 O1 -63.7(2)
C22 C5 C6 C7 51.9(3)
C4 C5 C6 C7 179.37(18)
O1 C6 C7 C8 44.6(3)
C5 C6 C7 C8 164.43(19)
S1 O2 C8 C7 -166.87(14)
C6 C7 C8 O2 66.6(2)
C1 N1 C9 C10 -36.3(4)
N2 N1 C9 C10 152.7(2)
C1 N1 C9 C14 143.1(3)
N2 N1 C9 C14 -27.9(3)
C14 C9 C10 C11 0.2(4)
N1 C9 C10 C11 179.7(2)
C9 C10 C11 C12 0.3(4)
C10 C11 C12 C13 -0.1(5)
C11 C12 C13 C14 -0.7(5)
C12 C13 C14 C9 1.2(5)
C10 C9 C14 C13 -0.9(4)
N1 C9 C14 C13 179.6(3)
C3 C4 C16 C17 58.3(3)
C5 C4 C16 C17 -60.2(3)
C3 C4 C16 C21 -121.6(2)
C5 C4 C16 C21 119.9(2)
C21 C16 C17 C18 -1.3(3)
C4 C16 C17 C18 178.8(2)
C16 C17 C18 C19 0.6(4)
C17 C18 C19 C20 0.7(4)
C17 C18 C19 Br1 -177.04(17)
C18 C19 C20 C21 -1.1(3)
Br1 C19 C20 C21 176.68(16)
C19 C20 C21 C16 0.2(3)
C17 C16 C21 C20 0.9(3)
C4 C16 C21 C20 -179.2(2)
C6 C5 C22 C27 68.6(3)
C4 C5 C22 C27 -57.5(3)
C6 C5 C22 C23 -107.9(2)
C4 C5 C22 C23 126.1(2)
C27 C22 C23 C24 -1.4(3)
C5 C22 C23 C24 175.2(2)
C22 C23 C24 C25 0.4(4)
C23 C24 C25 C26 0.7(4)
C24 C25 C26 C27 -0.7(4)
C23 C22 C27 C26 1.3(4)
C5 C22 C27 C26 -175.1(2)
C25 C26 C27 C22 -0.3(4)
O4 S1 C28 C33 -148.0(2)
O3 S1 C28 C33 -15.9(2)
O2 S1 C28 C33 100.8(2)
O4 S1 C28 C29 33.1(2)
O3 S1 C28 C29 165.19(19)
O2 S1 C28 C29 -78.1(2)
C33 C28 C29 C30 -1.2(4)
S1 C28 C29 C30 177.68(19)
C28 C29 C30 C31 0.4(4)
C29 C30 C31 C32 0.9(4)
C29 C30 C31 C34 -179.9(3)
C30 C31 C32 C33 -1.5(4)
C34 C31 C32 C33 179.4(3)
C29 C28 C33 C32 0.7(4)
S1 C28 C33 C32 -178.18(18)
C31 C32 C33 C28 0.7(4)
C3S O1S C1S C2S -175.8(14)
C1S O1S C3S C4S -179.6(8)
