#------------------------------------------------------------------------------
#$Date: 2016-03-22 14:21:36 +0200 (Tue, 22 Mar 2016) $
#$Revision: 178987 $
#$URL: svn://www.crystallography.net/cod/cif/1/54/29/1542917.cif $
#------------------------------------------------------------------------------
#
# This file is available in the Crystallography Open Database (COD),
# http://www.crystallography.net/
#
# All data on this site have been placed in the public domain by the
# contributors.
#
data_1542917
loop_
_publ_author_name
'N. Golovnev'
'M. Molokeev'
'A. Samoilo'
'V. Atuchin'
_publ_section_title
;
 Influence of alkyl substituents in 1,3-diethyl-2-thiobarbituric acid on
 the coordination environment in M(H2O)2(1,3-diethyl-2-thiobarbiturate)2 M
 = Ca2+, Sr2+
;
_journal_issue                   6
_journal_name_full               'Journal of Coordination Chemistry'
_journal_page_first              957
_journal_page_last               965
_journal_paper_doi               10.1080/00958972.2016.1149168
_journal_volume                  69
_journal_year                    2016
_chemical_formula_moiety         'C16 H26 Ca N4 O6 S2'
_chemical_formula_sum            'C16 H26 Ca N4 O6 S2'
_chemical_formula_weight         474.61
_chemical_name_systematic
;
Catena-bis (mu~2~-1,3-diethyl-2-thiobarbiturato-O,O')-diaqua-calcium
;
_space_group_crystal_system      orthorhombic
_space_group_IT_number           61
_space_group_name_Hall           '-P 2ac 2ab'
_space_group_name_H-M_alt        'P b c a'
_symmetry_space_group_name_Hall  '-P 2ac 2ab'
_symmetry_space_group_name_H-M   'P b c a'
_atom_sites_solution_hydrogens   mixed
_audit_creation_method           SHELXL-2014/7
_cell_angle_alpha                90
_cell_angle_beta                 90
_cell_angle_gamma                90
_cell_formula_units_Z            4
_cell_length_a                   9.3535(4)
_cell_length_b                   13.8812(7)
_cell_length_c                   16.9106(8)
_cell_measurement_temperature    298(2)
_cell_volume                     2195.64(18)
_computing_structure_refinement  'SHELXL-2014/7 (Sheldrick, 2014)'
_diffrn_ambient_temperature      298(2)
_diffrn_measured_fraction_theta_full 1.000
_diffrn_measured_fraction_theta_max 0.961
_diffrn_measurement_device_type  'SMART APEXII'
_diffrn_measurement_method       'phi and omega scans'
_diffrn_radiation_monochromator  graphite
_diffrn_radiation_source         'fine-focus sealed tube'
_diffrn_radiation_type           MoK\a
_diffrn_radiation_wavelength     0.71073
_diffrn_reflns_av_R_equivalents  0.0238
_diffrn_reflns_av_unetI/netI     0.0161
_diffrn_reflns_laue_measured_fraction_full 1.000
_diffrn_reflns_laue_measured_fraction_max 0.961
_diffrn_reflns_limit_h_max       12
_diffrn_reflns_limit_h_min       -12
_diffrn_reflns_limit_k_max       19
_diffrn_reflns_limit_k_min       -19
_diffrn_reflns_limit_l_max       23
_diffrn_reflns_limit_l_min       -23
_diffrn_reflns_number            19984
_diffrn_reflns_point_group_measured_fraction_full 1.000
_diffrn_reflns_point_group_measured_fraction_max 0.961
_diffrn_reflns_theta_full        25.000
_diffrn_reflns_theta_max         29.810
_diffrn_reflns_theta_min         2.409
_exptl_absorpt_coefficient_mu    0.515
_exptl_absorpt_correction_T_max  0.7459
_exptl_absorpt_correction_T_min  0.6613
_exptl_absorpt_correction_type   multi-scan
_exptl_absorpt_process_details
'SADABS-2004/1. Bruker AXS Inc., Madison, Wisconsin, USA, 2004'
_exptl_crystal_colour            colourless
_exptl_crystal_density_diffrn    1.436
_exptl_crystal_description       bulk
_exptl_crystal_F_000             1000
_exptl_crystal_size_max          0.450
_exptl_crystal_size_mid          0.450
_exptl_crystal_size_min          0.100
_refine_diff_density_max         0.240
_refine_diff_density_min         -0.236
_refine_diff_density_rms         0.051
_refine_ls_extinction_coef       .
_refine_ls_extinction_method     none
_refine_ls_goodness_of_fit_ref   1.011
_refine_ls_hydrogen_treatment    mixed
_refine_ls_matrix_type           full
_refine_ls_number_parameters     140
_refine_ls_number_reflns         3024
_refine_ls_number_restraints     2
_refine_ls_restrained_S_all      1.010
_refine_ls_R_factor_all          0.0372
_refine_ls_R_factor_gt           0.0295
_refine_ls_shift/su_max          0.001
_refine_ls_shift/su_mean         0.000
_refine_ls_structure_factor_coef Fsqd
_refine_ls_weighting_details
'w=1/[\s^2^(Fo^2^)+(0.0483P)^2^+0.6233P] where P=(Fo^2^+2Fc^2^)/3'
_refine_ls_weighting_scheme      calc
_refine_ls_wR_factor_gt          0.0810
_refine_ls_wR_factor_ref         0.0875
_reflns_Friedel_coverage         0.000
_reflns_friedel_fraction_full    .
_reflns_friedel_fraction_max     .
_reflns_number_gt                2568
_reflns_number_total             3024
_reflns_threshold_expression     'I > 2\s(I)'
_cod_data_source_file            CaH2O2Detba2.cif
_cod_data_source_block           c
_cod_database_code               1542917
_shelx_shelxl_version_number     2014/7
_shelx_space_group_comment
;
The symmetry employed for this shelxl refinement is uniquely defined
by the following loop, which should always be used as a source of
symmetry information in preference to the above space-group names.
They are only intended as comments.
;
_shelx_estimated_absorpt_t_min   0.801
_shelx_estimated_absorpt_t_max   0.950
_shelx_res_file
;

    c.res created by SHELXL-2014/7


TITL c in Pbca
CELL 0.71073   9.3535  13.8812  16.9106  90.000  90.000  90.000
ZERR   4.00   0.0004   0.0007   0.0008   0.000   0.000   0.000
LATT  1
SYMM 0.5-X, -Y, 0.5+Z
SYMM -X, 0.5+Y, 0.5-Z
SYMM 0.5+X, 0.5-Y, -Z
SFAC C H N O S CA
UNIT 64 104 16 24 8 4
TEMP 23.000
SIZE 0.45 0.45 0.10

DFIX 0.8 0.01 O H1 O H2

L.S. 4
BOND
FMAP 2
PLAN 20

ACTA 50

WGHT    0.048300    0.623300
FVAR       0.16895   0.06190
CA    6    0.500000    0.000000    0.500000    10.50000    0.02545    0.01905 =
         0.03066    0.00044    0.00471   -0.00055
S     5    0.597501    0.410707    0.732527    11.00000    0.03534    0.04736 =
         0.03740   -0.01236   -0.01051   -0.00146
N1    3    0.383796    0.409657    0.627240    11.00000    0.02610    0.02162 =
         0.02978   -0.00405   -0.00219    0.00243
N3    3    0.490602    0.261153    0.652592    11.00000    0.02764    0.02556 =
         0.02934    0.00020   -0.00296    0.00438
O1    4    0.435780    0.128542    0.578823    11.00000    0.04227    0.02262 =
         0.04776   -0.00631    0.00143    0.00400
O2    4    0.203161    0.423408    0.537415    11.00000    0.03812    0.03402 =
         0.05257   -0.00265   -0.01780    0.01076
C2    1    0.483304    0.357543    0.667331    11.00000    0.02465    0.02806 =
         0.02512   -0.00294    0.00073    0.00043
C4    1    0.411487    0.215907    0.591189    11.00000    0.02834    0.02275 =
         0.03079   -0.00274    0.00241   -0.00009
C5    1    0.313016    0.272444    0.551684    11.00000    0.03400    0.02644 =
         0.03492   -0.00474   -0.01027   -0.00088
AFIX  43
H5    2    0.258426    0.244725    0.511746    11.00000   -1.20000
AFIX   0
C6    1    0.292711    0.368880    0.569429    11.00000    0.02550    0.02712 =
         0.03222   -0.00120   -0.00497    0.00143
C7    1    0.364342    0.513731    0.643200    11.00000    0.03786    0.02319 =
         0.04011   -0.00860   -0.00272    0.00475
AFIX  23
H7A   2    0.395680    0.527696    0.696664    11.00000   -1.20000
H7B   2    0.263502    0.529456    0.639643    11.00000   -1.20000
AFIX   0
C8    1    0.446855    0.576222    0.585983    11.00000    0.05358    0.02870 =
         0.06222   -0.00034   -0.00073   -0.00563
AFIX  33
H8A   2    0.431139    0.642838    0.598513    11.00000   -1.20000
H8B   2    0.546990    0.561880    0.590049    11.00000   -1.20000
H8C   2    0.414846    0.563640    0.533043    11.00000   -1.20000
AFIX   0
C9    1    0.580119    0.197431    0.702615    11.00000    0.03930    0.03515 =
         0.03671    0.00916   -0.00362    0.00712
AFIX  23
H9A   2    0.533967    0.135083    0.707007    11.00000   -1.20000
H9B   2    0.586314    0.224738    0.755303    11.00000   -1.20000
AFIX   0
C10   1    0.729243    0.183506    0.670584    11.00000    0.03648    0.05020 =
         0.06477    0.00981   -0.00368    0.01337
AFIX  33
H10A  2    0.782000    0.141821    0.705231    11.00000   -1.20000
H10B  2    0.724123    0.155072    0.618913    11.00000   -1.20000
H10C  2    0.776491    0.244764    0.667228    11.00000   -1.20000
AFIX   0
O     4    0.387169    0.067353    0.386875    11.00000    0.04582    0.07177 =
         0.04578    0.01838   -0.00315    0.00877
H1    2    0.440431    0.080521    0.352003    11.00000   -1.20000
H2    2    0.308658    0.069855    0.368563    11.00000   -1.20000
HKLF 4

REM  c in Pbca
REM R1 =  0.0295 for    2568 Fo > 4sig(Fo)  and  0.0372 for all    3024 data
REM    140 parameters refined using      2 restraints

END

WGHT      0.0420      0.6399

REM Highest difference peak  0.240,  deepest hole -0.236,  1-sigma level  0.051
Q1    1   0.3631  0.2503  0.5732  11.00000  0.05    0.24
Q2    1   0.4433  0.2391  0.6275  11.00000  0.05    0.22
Q3    1   0.3945  0.5426  0.6139  11.00000  0.05    0.21
Q4    1   0.2936  0.3132  0.5697  11.00000  0.05    0.20
Q5    1   0.3370  0.3873  0.6086  11.00000  0.05    0.19
Q6    1   0.4825  0.3083  0.6604  11.00000  0.05    0.19
Q7    1   0.3345  0.3235  0.5472  11.00000  0.05    0.19
Q8    1   0.4232  0.3801  0.6528  11.00000  0.05    0.18
Q9    1   0.7894  0.2291  0.6251  11.00000  0.05    0.17
Q10   1   0.5006  0.3831  0.7080  11.00000  0.05    0.17
Q11   1   0.3061  0.2646  0.5264  11.00000  0.05    0.16
Q12   1   0.5331  0.2368  0.6681  11.00000  0.05    0.15
Q13   1   0.5484  0.5493  0.5478  11.00000  0.05    0.15
Q14   1   0.5414  0.3743  0.7638  11.00000  0.05    0.15
Q15   1   0.6901  0.3837  0.8169  11.00000  0.05    0.15
Q16   1   0.5388  0.2830  0.6157  11.00000  0.05    0.14
Q17   1   0.6528  0.2225  0.6577  11.00000  0.05    0.14
Q18   1   0.9086  0.2384  0.6401  11.00000  0.05    0.14
Q19   1   0.5891  0.1388  0.3493  11.00000  0.05    0.14
Q20   1   0.7676  0.2751  0.7700  11.00000  0.05    0.14
;
_shelx_res_checksum              58736
_shelx_hkl_file
;
   1   0   0    0.54    0.07
   2   0   0  548.47    8.41
  -2   0   0  577.02    8.34
   2   0   0  597.68    8.16
  -3   0   0    0.08    0.05
   3   0   0    0.01    0.05
   3   0   0   -0.06    0.06
   4   0   0    0.98    0.15
  -4   0   0    1.17    0.13
   4   0   0    1.03    0.12
   5   0   0    0.00    0.11
  -5   0   0   -0.01    0.09
   5   0   0   -0.11    0.07
   6   0   0   50.40    1.21
   6   0   0   50.07    1.08
  -6   0   0   51.13    1.07
   7   0   0    0.13    0.14
  -7   0   0   -0.03    0.11
   7   0   0   -0.06    0.08
   8   0   0   29.13    1.00
   8   0   0   30.96    0.88
   9   0   0   -0.01    0.11
   9   0   0    0.00    0.16
  10   0   0  149.83    3.14
 -11   0   0    0.08    0.19
 -12   0   0    6.17    0.67
   1  -1   0    0.06    0.03
   1   1   0    0.05    0.03
   1   1   0    0.18    0.04
   1  -1   0    0.03    0.03
   1   1   0    0.17    0.03
   2   1   0   33.57    0.62
   2   1   0   33.73    0.65
  -2   1   0   34.67    0.61
   2   1   0   33.77    0.60
   2  -1   0   34.14    0.65
   2  -1   0   32.97    0.62
   3   1   0   -0.01    0.05
  -3  -1   0    0.02    0.04
   3   1   0    0.09    0.04
   3  -1   0    0.02    0.04
  -3   1   0    0.12    0.06
   3  -1   0    0.03    0.05
   4  -1   0    2.32    0.22
   4   1   0    2.32    0.16
  -4  -1   0    2.26    0.16
   4   1   0    2.29    0.19
  -4   1   0    2.43    0.18
   4  -1   0    2.19    0.16
   5  -1   0    0.07    0.09
  -5   1   0    0.13    0.09
  -5  -1   0    0.05    0.07
   5   1   0    0.17    0.09
   5  -1   0   -0.16    0.05
   5   1   0    0.06    0.06
   6   1   0    9.21    0.38
   6  -1   0    8.74    0.38
   6  -1   0    8.67    0.46
   6   1   0    8.49    0.44
  -6  -1   0    9.17    0.38
  -6   1   0    9.17    0.39
   7  -1   0    0.06    0.13
   7   1   0   -0.02    0.10
   7  -1   0    0.13    0.10
  -7  -1   0    0.00    0.10
   7   1   0   -0.04    0.08
   8  -1   0   15.03    0.59
   8  -1   0   14.87    0.70
   8   1   0   16.12    0.60
   8   1   0   15.10    0.69
   9  -1   0    0.07    0.11
   9   1   0   -0.12    0.11
   9   1   0   -0.11    0.12
   9  -1   0   -0.01    0.16
 -10   1   0    1.66    0.34
  10   1   0    0.92    0.27
 -11  -1   0   -0.10    0.18
 -11   1   0    0.20    0.20
  11   1   0    0.05    0.20
 -12  -1   0    3.03    0.49
 -12   1   0    2.75    0.47
   0  -2   0  185.82    2.69
   0   2   0  182.83    2.71
  -1   2   0    0.03    0.03
   1   2   0    0.05    0.03
  -1   2   0   -0.01    0.03
   1   2   0    0.02    0.03
   1   2   0   -0.02    0.02
   2  -2   0   74.71    1.25
   2   2   0   74.23    1.21
   2   2   0   75.17    1.26
  -2   2   0   76.83    1.21
   2  -2   0   77.91    1.26
   2   2   0   74.80    1.24
  -3   2   0    0.15    0.09
   3  -2   0   -0.06    0.07
   3   2   0   -0.11    0.07
   3  -2   0    0.11    0.10
   3   2   0   -0.03    0.06
   4   2   0   77.52    1.35
  -4  -2   0   77.36    1.39
  -4   2   0   78.01    1.33
   4   2   0   74.53    1.43
   4  -2   0   77.98    1.39
   4  -2   0   78.04    1.45
  -5  -2   0    0.00    0.08
   5  -2   0    0.16    0.09
  -5   2   0    0.16    0.10
   5   2   0    0.11    0.10
   5   2   0   -0.15    0.05
   5  -2   0    0.02    0.09
  -6   2   0    5.39    0.30
   6   2   0    5.33    0.35
   6  -2   0    5.67    0.37
  -6  -2   0    5.49    0.31
   6   2   0    5.21    0.29
   6  -2   0    5.72    0.32
   7  -2   0   -0.20    0.07
  -7  -2   0   -0.12    0.09
   7   2   0   -0.05    0.11
   7  -2   0   -0.10    0.10
   7   2   0   -0.12    0.07
   8  -2   0   45.38    1.14
   8   2   0   43.56    1.26
   8  -2   0   41.22    1.24
   8   2   0   44.49    1.10
   9  -2   0    0.06    0.12
  -9   2   0   -0.07    0.13
   9   2   0   -0.29    0.12
  10   2   0    7.23    0.57
  10  -2   0    7.84    0.49
 -10   2   0    8.03    0.58
  11   2   0   -0.15    0.20
 -11   2   0    0.01    0.20
 -12  -2   0    0.56    0.28
 -12   2   0    0.17    0.26
   0  -3   0    0.34    0.09
   0   3   0    0.14    0.09
   0   3   0    0.62    0.08
  -1   3   0    0.01    0.05
  -1  -3   0    0.10    0.04
   1   3   0    0.02    0.04
  -1   3   0    0.02    0.05
   1  -3   0    0.05    0.04
   2   3   0   78.84    1.31
   2   3   0   79.70    1.37
   2   3   0   81.71    1.31
   2  -3   0   78.86    1.36
  -2   3   0   78.71    1.31
  -2   3   0   80.75    1.31
  -3   3   0    0.04    0.07
   3   3   0    0.22    0.07
   3  -3   0   -0.07    0.06
   3   3   0   -0.05    0.06
  -3   3   0    0.02    0.07
   3   3   0   -0.09    0.05
   4   3   0    2.62    0.19
   4   3   0    2.47    0.20
   4  -3   0    2.47    0.20
   4  -3   0    2.45    0.21
  -4   3   0    2.59    0.18
   4   3   0    3.53    0.19
   5   3   0    0.07    0.10
   5   3   0    0.11    0.07
  -5   3   0   -0.07    0.09
   5  -3   0    0.03    0.07
   5  -3   0    0.01    0.10
  -5  -3   0    0.02    0.07
   6   3   0   17.47    0.64
  -6  -3   0   17.61    0.58
  -6   3   0   17.36    0.52
   6  -3   0   17.75    0.59
   6   3   0   17.19    0.54
   6  -3   0   16.48    0.64
  -7   3   0    0.03    0.12
   7   3   0   -0.05    0.13
   7   3   0    0.17    0.10
  -7  -3   0    0.10    0.12
   7  -3   0   -0.04    0.10
   8  -3   0   15.77    0.63
   8   3   0   17.12    0.74
   8   3   0   15.88    0.59
  -8   3   0   16.91    0.71
   9  -3   0   -0.08    0.11
   9   3   0    0.19    0.17
  -9   3   0   -0.14    0.12
 -10   3   0    6.28    0.60
  10   3   0    6.80    0.55
  10  -3   0    5.97    0.45
  11   3   0    0.10    0.21
 -11   3   0   -0.10    0.20
 -12   3   0    7.31    0.70
 -12  -3   0    7.31    0.71
   0   4   0   53.55    0.99
   0   4   0   54.70    0.87
   0  -4   0   53.88    0.96
   1   4   0   -0.05    0.04
   1  -4   0    0.07    0.07
  -1   4   0   -0.01    0.07
  -1  -4   0    0.17    0.07
   1   4   0   -0.01    0.07
  -1   4   0    0.12    0.06
  -2   4   0   17.46    0.44
  -2   4   0   16.96    0.42
   2   4   0   16.94    0.48
   2  -4   0   17.63    0.47
   2   4   0   17.30    0.42
  -2  -4   0   17.49    0.43
   3  -4   0    0.07    0.08
   3   4   0   -0.10    0.06
   3   4   0   -0.11    0.05
  -3   4   0    0.03    0.07
   3   4   0   -0.04    0.07
   4  -4   0  106.21    1.88
   4   4   0  106.00    1.88
   4   4   0  106.35    1.87
  -4   4   0  104.81    1.85
   4   4   0  107.17    1.79
  -4   4   0  107.56    1.77
   5   4   0   -0.06    0.06
  -5   4   0   -0.04    0.09
   5   4   0   -0.06    0.07
   5  -4   0    0.05    0.07
  -5   4   0   -0.13    0.07
   5   4   0   -0.09    0.07
  -6   4   0  177.28    3.06
   6   4   0  177.54    2.90
   6  -4   0  179.28    3.02
  -6   4   0  173.41    2.84
   6   4   0  175.92    3.06
  -6  -4   0  180.85    3.03
  -7  -4   0   -0.09    0.10
   7   4   0   -0.08    0.10
   7   4   0   -0.01    0.08
   7  -4   0    0.18    0.13
  -7   4   0   -0.15    0.09
  -8  -4   0   39.64    1.08
   8   4   0   37.20    0.98
   8   4   0   37.81    1.16
  -8   4   0   40.34    1.17
   8  -4   0   39.63    1.09
   9  -4   0    0.16    0.14
  -9   4   0    0.06    0.15
   9   4   0    0.10    0.15
  10   4   0   -0.02    0.18
  10  -4   0    0.31    0.18
 -10   4   0    0.25    0.20
 -11   4   0   -0.20    0.18
  11   4   0    0.13    0.23
 -12   4   0   13.90    0.84
   0   5   0    0.11    0.05
   0  -5   0   -0.06    0.05
   0   5   0   -0.03    0.07
  -1  -5   0    0.03    0.04
   1   5   0    0.07    0.07
   1   5   0    0.06    0.05
  -1   5   0    0.09    0.07
  -1   5   0    0.07    0.06
   1  -5   0    0.15    0.07
  -2   5   0   12.47    0.38
   2   5   0   12.02    0.42
   2   5   0   11.61    0.34
  -2   5   0   12.37    0.35
  -2  -5   0   12.49    0.37
  -3   5   0    0.08    0.07
   3   5   0    0.16    0.07
   3  -5   0    0.02    0.07
   3   5   0   -0.07    0.05
  -3  -5   0   -0.02    0.05
  -3   5   0    0.02    0.07
   4   5   0    9.13    0.39
   4  -5   0    8.34    0.38
  -4   5   0    9.13    0.34
   4   5   0    9.33    0.38
  -4   5   0    8.86    0.37
   4   5   0    9.21    0.34
   5   5   0    0.05    0.09
   5  -5   0    0.19    0.10
  -5   5   0    0.00    0.08
   5   5   0    0.06    0.07
   5   5   0    0.07    0.08
  -5   5   0   -0.05    0.08
  -6  -5   0   28.52    0.83
   6   5   0   28.22    0.74
  -6   5   0   27.27    0.70
  -6   5   0   28.23    0.84
   6   5   0   26.22    0.83
   6  -5   0   26.91    0.81
  -7  -5   0    0.06    0.11
   7   5   0   -0.04    0.13
   7   5   0    0.03    0.08
   7  -5   0    0.07    0.10
  -7   5   0    0.08    0.12
  -8   5   0    0.76    0.22
   8   5   0    0.54    0.20
  -8  -5   0    0.92    0.21
   8  -5   0    0.98    0.21
  -9   5   0    0.05    0.16
   9  -5   0    0.14    0.14
   9   5   0   -0.09    0.16
  10   5   0    0.27    0.21
  10  -5   0   -0.07    0.14
 -10   5   0   -0.05    0.16
 -11   5   0   -0.03    0.19
  11   5   0   -0.19    0.19
  11  -5   0   -0.11    0.15
 -12   5   0   -0.23    0.22
  12   5   0   -0.13    0.24
   0   6   0  409.15    6.09
   0  -6   0  438.49    6.33
   0   6   0  436.61    6.40
   1  -6   0   -0.02    0.06
  -1   6   0   -0.03    0.06
  -1  -6   0    0.02    0.05
   1   6   0    0.11    0.08
   1   6   0    0.02    0.05
  -1   6   0    0.03    0.05
  -2   6   0    3.80    0.20
   2  -6   0    3.80    0.24
  -2   6   0    4.40    0.24
  -2  -6   0    3.82    0.22
   2   6   0    3.88    0.25
   2   6   0    3.53    0.19
   3   6   0   -0.13    0.05
  -3  -6   0    0.19    0.08
  -3   6   0   -0.06    0.07
  -3   6   0   -0.09    0.07
   3  -6   0    0.09    0.08
   3   6   0    0.06    0.07
  -4  -6   0  254.51    3.95
   4  -6   0  261.54    4.10
   4   6   0  253.18    4.11
  -4   6   0  253.58    3.97
   4   6   0  253.22    3.97
  -4   6   0  256.07    3.95
   5  -6   0    0.06    0.10
  -5   6   0    0.04    0.09
   5   6   0   -0.01    0.07
   5   6   0   -0.02    0.07
   5   6   0    0.23    0.10
  -5   6   0   -0.12    0.09
   6  -6   0  106.96    2.09
   6   6   0  105.68    2.07
   6   6   0  107.31    2.09
  -6   6   0  109.06    2.08
   6   6   0  106.09    1.94
   7  -6   0    0.05    0.10
   7   6   0    0.30    0.11
  -7   6   0   -0.08    0.12
  -7  -6   0    0.15    0.13
   7   6   0    0.11    0.13
   8  -6   0   12.29    0.60
  -8   6   0   14.02    0.66
   8   6   0   11.94    0.62
  -8  -6   0   13.04    0.63
  -9   6   0   -0.07    0.15
   9   6   0    0.03    0.15
   9  -6   0   -0.28    0.10
  10  -6   0   13.71    0.70
  10   6   0   13.01    0.76
 -10   6   0   12.18    0.72
 -11   6   0    0.18    0.20
  11  -6   0    0.17    0.19
  11   6   0   -0.16    0.21
 -12   6   0    2.08    0.42
  12   6   0    2.45    0.47
   0  -7   0   -0.17    0.06
   0   7   0   -0.01    0.05
   0   7   0   -0.05    0.08
   1  -7   0    0.24    0.09
  -1  -7   0   -0.03    0.06
   1   7   0    0.14    0.06
  -1   7   0    0.00    0.07
   1   7   0    0.14    0.10
  -1   7   0   -0.15    0.05
  -2  -7   0   21.84    0.59
  -2   7   0   21.63    0.54
   2  -7   0   22.69    0.65
  -2   7   0   21.14    0.61
   2   7   0   21.32    0.52
   3  -7   0    0.17    0.10
   3   7   0    0.06    0.07
  -3   7   0    0.03    0.09
  -3   7   0   -0.10    0.08
   3   7   0    0.17    0.10
  -3  -7   0    0.07    0.07
   4   7   0    5.27    0.34
  -4   7   0    5.27    0.30
   4  -7   0    5.27    0.33
  -4  -7   0    4.89    0.27
   4   7   0    5.02    0.30
  -4   7   0    6.09    0.31
   5  -7   0   -0.03    0.10
   5   7   0   -0.07    0.10
  -5   7   0    0.04    0.11
  -5  -7   0   -0.03    0.07
   5   7   0   -0.07    0.09
  -5   7   0    0.04    0.10
  -6   7   0   15.72    0.62
   6   7   0   15.47    0.55
   6  -7   0   16.78    0.66
   6   7   0   16.24    0.63
   6   7   0   14.93    0.63
   7   7   0    0.04    0.09
   7  -7   0   -0.10    0.10
  -7  -7   0    0.00    0.13
   7   7   0   -0.08    0.11
  -7   7   0    0.06    0.13
   8   7   0    1.08    0.25
  -8   7   0    1.80    0.31
  -8  -7   0    1.36    0.27
   8  -7   0    1.71    0.29
   9  -7   0    0.06    0.14
   9   7   0    0.04    0.16
  -9   7   0   -0.07    0.15
  10  -7   0    2.66    0.38
 -10   7   0    2.78    0.42
  10   7   0    2.74    0.44
  11  -7   0    0.05    0.19
  11   7   0   -0.20    0.22
 -11   7   0   -0.01    0.23
   0   8   0   61.91    1.32
   0  -8   0   61.88    1.27
   0   8   0   62.01    1.07
   1  -8   0   -0.06    0.07
  -1   8   0    0.01    0.06
   1   8   0    0.00    0.08
  -1   8   0   -0.15    0.07
  -1  -8   0    0.00    0.06
   1   8   0    0.01    0.05
   2   8   0  125.72    2.34
   2  -8   0  127.26    2.29
  -2  -8   0  128.16    2.21
  -2   8   0  130.15    2.10
  -2   8   0  132.16    2.29
   2   8   0  127.83    2.07
   3  -8   0   -0.04    0.08
  -3   8   0    0.17    0.11
   3   8   0   -0.12    0.06
  -3  -8   0    0.02    0.07
  -3   8   0    0.02    0.09
   3   8   0   -0.12    0.09
   4   8   0  115.35    2.25
  -4   8   0  115.81    2.11
  -4  -8   0  115.04    2.07
  -4   8   0  119.83    2.09
   4   8   0  117.42    2.07
   4  -8   0  119.86    2.24
   5   8   0   -0.06    0.10
   5   8   0   -0.09    0.10
  -5  -8   0   -0.02    0.07
   5  -8   0    0.02    0.12
  -5   8   0   -0.10    0.11
  -5   8   0    0.05    0.11
  -6  -8   0  120.55    2.19
   6   8   0  117.78    2.38
   6   8   0  121.80    2.30
   6  -8   0  121.19    2.38
  -6   8   0  118.93    2.28
  -7   8   0    0.08    0.15
   7   8   0   -0.14    0.11
   7  -8   0   -0.01    0.12
   7   8   0    0.08    0.14
   8  -8   0   12.27    0.63
  -8  -8   0   12.40    0.65
   8   8   0   11.71    0.64
  -8   8   0   14.13    0.67
   9  -8   0   -0.06    0.13
  -9   8   0    0.00    0.16
   9   8   0   -0.03    0.17
  10  -8   0    5.46    0.53
  10   8   0    5.76    0.60
 -10   8   0    4.94    0.55
  11   8   0    0.12    0.25
 -11   8   0   -0.18    0.21
  11  -8   0    0.10    0.19
   0  -9   0   -0.01    0.08
   0   9   0    0.05    0.09
   0   9   0   -0.02    0.05
   1   9   0    0.15    0.07
  -1   9   0    0.07    0.07
   1   9   0    0.04    0.10
  -1  -9   0    0.01    0.08
   1  -9   0    0.12    0.10
  -1   9   0    0.04    0.09
   2  -9   0   88.30    1.77
  -2  -9   0   90.85    1.71
  -2   9   0   86.18    1.55
   2   9   0   89.32    1.53
   2   9   0   91.48    1.84
  -2   9   0   89.84    1.76
  -3  -9   0   -0.04    0.09
   3   9   0   -0.14    0.09
  -3   9   0    0.17    0.13
   3  -9   0   -0.12    0.09
   3   9   0    0.05    0.08
  -3   9   0    0.02    0.10
   4   9   0   16.52    0.55
  -4   9   0   16.23    0.57
  -4   9   0   16.54    0.60
  -4  -9   0   16.92    0.58
   4  -9   0   16.30    0.65
   4   9   0   15.83    0.66
   5  -9   0   -0.11    0.13
  -5  -9   0   -0.10    0.09
   5   9   0   -0.12    0.10
   5   9   0   -0.16    0.10
  -5   9   0    0.12    0.14
  -5   9   0    0.09    0.12
   6  -9   0   79.02    1.79
   6   9   0   77.65    1.81
  -6   9   0   75.83    1.66
   6   9   0   77.73    1.67
  -6  -9   0   77.64    1.60
  -7   9   0    0.11    0.15
   7   9   0   -0.10    0.13
   7   9   0   -0.19    0.13
   7  -9   0   -0.09    0.11
   8  -9   0   13.83    0.69
  -8  -9   0   13.86    0.73
  -8   9   0   13.32    0.67
   8   9   0   15.04    0.71
  -9   9   0    0.05    0.18
  -9  -9   0   -0.06    0.17
   9  -9   0    0.01    0.16
   9   9   0   -0.11    0.17
  10  -9   0    0.32    0.22
 -10   9   0   -0.01    0.21
  10   9   0    0.28    0.25
  11  -9   0    0.20    0.22
  11   9   0    0.15    0.27
   0 -10   0  128.39    2.34
   0  10   0  127.70    2.42
  -1 -10   0    0.23    0.11
   1 -10   0    0.04    0.10
   1  10   0   -0.11    0.10
  -1  10   0    0.00    0.11
  -2  10   0   20.34    0.70
   2 -10   0   19.44    0.70
   2  10   0   18.91    0.72
  -2 -10   0   20.15    0.66
  -3  10   0    0.03    0.12
  -3 -10   0    0.05    0.10
   3  10   0    0.14    0.12
   3 -10   0    0.03    0.11
  -4  10   0   28.50    0.86
   4 -10   0   29.44    0.94
   4  10   0   27.93    0.94
  -4 -10   0   28.22    0.82
  -5  10   0    0.07    0.14
  -5 -10   0    0.04    0.11
   5 -10   0    0.05    0.14
   5  10   0    0.18    0.17
   6  10   0    9.51    0.58
   6 -10   0   11.32    0.60
   7  10   0   -0.02    0.13
   7 -10   0    0.19    0.17
   8 -10   0   10.37    0.63
  -8 -10   0   11.67    0.69
   9 -10   0   -0.16    0.14
  -9 -10   0    0.00    0.19
  10 -10   0   11.36    0.71
   0  11   0    0.06    0.13
   0 -11   0    0.08    0.11
   1 -11   0   -0.07    0.09
  -1  11   0    0.03    0.13
  -1 -11   0   -0.15    0.08
   1  11   0   -0.05    0.10
  -2 -11   0   -0.02    0.09
   2  11   0   -0.14    0.12
  -2  11   0    0.05    0.12
   2 -11   0    0.08    0.12
   3  11   0    0.02    0.11
  -3 -11   0   -0.19    0.09
   3 -11   0    0.03    0.13
  -3  11   0   -0.10    0.12
   4 -11   0    0.08    0.14
  -4  11   0   -0.06    0.14
   4  11   0   -0.02    0.12
  -4 -11   0    0.18    0.13
   5 -11   0    0.24    0.17
  -5 -11   0    0.59    0.18
   5  11   0    0.36    0.20
   6  11   0   14.74    0.73
   6 -11   0   12.88    0.68
   7  11   0    0.03    0.17
   7 -11   0   -0.08    0.15
   8 -11   0    5.33    0.53
   8  11   0    4.11    0.49
   9 -11   0   -0.16    0.15
  -9 -11   0    0.37    0.24
  10 -11   0    1.46    0.34
   0 -12   0  105.82    2.14
   0  12   0  107.27    2.23
   1 -12   0   -0.07    0.12
  -1  12   0    0.06    0.13
   1  12   0    0.13    0.13
  -1 -12   0   -0.03    0.09
   2  12   0   23.01    0.87
   2 -12   0   21.69    0.81
  -2  12   0   21.75    0.80
  -2 -12   0   23.01    0.78
   3  12   0   -0.03    0.13
   3 -12   0    0.10    0.13
  -3 -12   0   -0.06    0.10
  -3  12   0    0.19    0.16
  -4  12   0    0.83    0.23
   4 -12   0    0.87    0.23
   4  12   0    0.51    0.20
  -4 -12   0    0.38    0.17
   5  12   0    0.10    0.17
   5 -12   0   -0.23    0.12
  -5 -12   0   -0.07    0.11
   6 -12   0   13.90    0.72
   6  12   0   12.78    0.72
   7  12   0    0.08    0.17
   7 -12   0    0.04    0.17
   8  12   0   30.52    1.20
   8 -12   0   31.92    1.19
  -9 -12   0    0.05    0.21
   9 -12   0   -0.01    0.19
   0  13   0   -0.10    0.12
   0 -13   0    0.28    0.16
   1  13   0    0.27    0.17
   1 -13   0    0.01    0.13
  -1  13   0    0.08    0.15
  -1 -13   0    0.06    0.12
   2 -13   0   51.19    1.38
   2  13   0   50.13    1.43
  -2 -13   0   49.55    1.29
  -2  13   0   50.16    1.37
  -3  13   0   -0.04    0.14
   3 -13   0   -0.09    0.13
   3  13   0   -0.12    0.11
  -3 -13   0    0.06    0.13
  -4 -13   0    3.01    0.34
  -4  13   0    3.47    0.39
   4  13   0    2.48    0.37
   4 -13   0    3.21    0.40
   5 -13   0   -0.07    0.16
   5  13   0   -0.05    0.16
   6  13   0    0.85    0.27
   6 -13   0    0.58    0.23
   7 -13   0    0.04    0.18
   7  13   0   -0.06    0.17
   8  13   0    8.18    0.65
   8 -13   0    8.00    0.62
  -9 -13   0   -0.06    0.25
   9 -13   0    0.12    0.20
   0 -14   0  101.56    2.20
   0  14   0  105.17    2.32
  -1  14   0   -0.05    0.13
   1 -14   0   -0.13    0.14
  -1 -14   0    0.14    0.15
   1  14   0   -0.03    0.17
  -2  14   0   26.22    0.96
   2  14   0   24.45    0.98
   2 -14   0   26.14    0.97
  -2 -14   0   24.64    0.88
  -3  14   0   -0.01    0.16
   3  14   0    0.04    0.16
   3 -14   0    0.05    0.16
  -3 -14   0    0.26    0.16
   4 -14   0    7.68    0.55
  -4 -14   0    6.66    0.46
  -4  14   0    7.38    0.51
   4  14   0    7.08    0.55
   5  14   0    0.13    0.17
   5 -14   0    0.04    0.18
   6  14   0    4.06    0.52
   6 -14   0    4.47    0.51
   7 -14   0    0.01    0.18
   7  14   0   -0.07    0.18
   8 -14   0    0.58    0.26
   8  14   0    0.63    0.30
   0  15   0    0.36    0.20
   0 -15   0    0.01    0.15
  -1  15   0    0.30    0.20
   1 -15   0    0.17    0.18
   1  15   0    0.00    0.16
  -1 -15   0    0.06    0.15
  -2  15   0    6.78    0.52
   2  15   0    5.96    0.59
  -2 -15   0    6.57    0.47
   2 -15   0    7.01    0.52
  -3  15   0    0.21    0.19
  -3 -15   0   -0.11    0.13
   3  15   0    0.12    0.19
   3 -15   0    0.05    0.16
   4 -15   0    0.49    0.22
   4  15   0    0.56    0.23
   5 -15   0    0.11    0.18
   5  15   0    0.01    0.19
   6 -15   0   -0.10    0.16
   6  15   0    0.17    0.21
   7  15   0    0.29    0.23
   7 -15   0   -0.04    0.18
   0  16   0    7.70    0.59
   0 -16   0    6.02    0.50
   1  16   0   -0.04    0.16
   1 -16   0   -0.19    0.14
  -1 -16   0   -0.01    0.15
  -1  16   0   -0.17    0.16
   2 -16   0    6.72    0.53
  -2  16   0    6.01    0.58
   2  16   0    6.02    0.60
  -2 -16   0    6.59    0.50
   3 -16   0   -0.05    0.15
   3  16   0    0.18    0.20
  -3 -16   0   -0.27    0.14
  -3  16   0    0.18    0.19
   4 -16   0   48.93    1.54
   4  16   0   47.84    1.59
   5 -16   0    0.30    0.22
   5  16   0    0.05    0.21
   6 -16   0   13.07    0.80
   6  16   0   11.77    0.79
   0  17   0    0.20    0.20
   0 -17   0    0.09    0.18
   1  17   0    0.10    0.20
  -1  17   0    0.29    0.22
  -1 -17   0    0.10    0.19
   1 -17   0    0.38    0.22
   2  17   0    3.99    0.53
  -2 -17   0    3.95    0.46
  -2  17   0    4.07    0.51
   2 -17   0    3.52    0.47
  -3  17   0   -0.17    0.18
   3  17   0    0.26    0.24
   3 -17   0    0.13    0.20
   4  17   0    0.40    0.23
   4 -17   0    0.31    0.24
   0 -18   0    3.62    0.49
   0  18   0    2.98    0.49
   1  18   0    0.14    0.20
  -1 -18   0   -0.28    0.19
  -1  18   0   -0.03    0.22
   1 -18   0    0.17    0.21
  -2  18   0    0.41    0.27
  -2 -18   0    0.54    0.24
   2  18   0    0.69    0.30
   2 -18   0    0.17    0.22
   3 -18   0   -0.21    0.18
   0 -19   0    0.08    0.22
  -1 -19   0    0.05    0.23
  -2  19   0    1.07    0.37
   1   0   1   -0.01    0.02
  -1   0   1    0.07    0.03
   1   0  -1    0.05    0.03
  -1   0  -1    0.04    0.03
   2   0  -1    0.19    0.09
   2   0   1    0.12    0.08
   2   0  -1    0.14    0.07
  -2   0  -1    0.14    0.08
   2   0   1    0.11    0.06
  -3   0  -1    0.15    0.08
   3   0  -1   -0.02    0.06
  -3   0   1    0.14    0.06
   3   0   1    0.10    0.08
   3   0  -1   -0.05    0.07
   4   0   1    0.18    0.06
  -4   0  -1    0.03    0.06
  -4   0   1    0.01    0.04
   4   0  -1   -0.03    0.04
   4   0  -1    0.17    0.08
   4   0   1   -0.11    0.06
  -5   0  -1    0.04    0.08
   5   0   1   -0.09    0.06
   5   0  -1    0.07    0.08
  -5   0   1    0.02    0.06
   5   0   1   -0.08    0.05
   5   0  -1    0.07    0.06
   6   0   1   -0.10    0.10
  -6   0  -1   -0.07    0.09
   6   0  -1    0.19    0.12
   6   0   1    0.13    0.08
  -6   0   1    0.12    0.09
   6   0  -1    0.08    0.09
   7   0   1    0.08    0.13
   7   0  -1    0.10    0.09
   7   0   1    0.28    0.11
   7   0  -1    0.07    0.14
  -7   0  -1    0.09    0.13
   8   0  -1    0.00    0.11
   8   0   1   -0.07    0.13
   8   0   1   -0.06    0.09
   8   0  -1    0.02    0.15
   9   0   1    0.00    0.12
   9   0   1   -0.02    0.15
   9   0  -1   -0.10    0.15
   9   0  -1    0.15    0.12
  -9   0   1   -0.12    0.12
 -10   0   1    0.14    0.18
  10   0   1    0.33    0.25
  10   0  -1    0.03    0.15
  11   0   1    0.17    0.23
 -11   0   1   -0.11    0.18
 -12   0   1   -0.06    0.19
 -12   0  -1    0.16    0.21
   0  -1   1    0.15    0.04
   0   1  -1    0.17    0.04
   1  -1   1   71.04    1.10
  -1  -1  -1   70.55    1.13
   1   1  -1   71.12    1.11
   1   1  -1   70.56    1.10
   1   1  -1   72.37    1.10
   1  -1   1   73.60    1.09
  -1   1  -1   72.30    1.14
   1  -1  -1   72.05    1.12
   1   1   1   70.99    1.11
   2   1  -1   22.63    0.48
   2   1  -1   22.70    0.45
   2  -1   1   23.09    0.46
  -2   1   1   22.58    0.50
  -2  -1  -1   23.08    0.50
   2  -1   1   23.47    0.50
   2   1  -1   23.00    0.50
  -2   1  -1   23.84    0.51
   2  -1  -1   23.64    0.49
   2   1   1   23.25    0.43
   2   1   1   23.08    0.50
   3  -1   1   50.69    0.90
   3   1  -1   49.29    0.96
   3   1  -1   49.90    0.87
  -3  -1  -1   50.59    0.94
   3   1  -1   49.87    0.92
  -3   1   1   49.60    0.84
   3  -1   1   49.03    0.96
   3  -1  -1   48.47    0.93
   3   1   1   49.07    0.96
  -3   1  -1   51.44    0.94
   3   1   1   50.76    0.87
   3  -1  -1   50.34    0.98
   4  -1   1   22.32    0.61
   4   1  -1   22.66    0.62
   4  -1   1   22.58    0.54
   4   1  -1   21.81    0.55
  -4   1   1   22.75    0.50
  -4  -1  -1   22.33    0.57
  -4  -1   1   22.46    0.52
   4  -1  -1   23.47    0.58
   4   1   1   22.36    0.52
  -4   1  -1   22.65    0.57
   4  -1  -1   22.24    0.62
   4   1   1   22.13    0.61
   5   1  -1   71.96    1.45
   5  -1   1   71.92    1.33
   5   1  -1   71.09    1.35
  -5  -1  -1   71.41    1.37
  -5   1   1   71.49    1.27
   5  -1   1   70.90    1.44
   5   1   1   71.80    1.30
  -5   1  -1   72.36    1.37
   5  -1  -1   71.38    1.46
   5  -1  -1   72.22    1.38
   5   1   1   71.72    1.45
  -5  -1   1   72.90    1.31
   6  -1   1    0.21    0.09
  -6  -1  -1    0.05    0.09
  -6   1   1    0.02    0.11
   6   1  -1    0.15    0.09
   6  -1   1    0.06    0.11
   6   1  -1   -0.21    0.07
   6   1   1   -0.04    0.10
   6  -1  -1   -0.05    0.08
  -6  -1   1    0.04    0.08
   6   1   1   -0.01    0.07
  -6   1  -1    0.06    0.11
   6  -1  -1    0.04    0.12
   7   1  -1    1.71    0.26
   7  -1   1    1.92    0.28
   7   1  -1    1.84    0.23
   7  -1   1    1.92    0.23
  -7  -1  -1    2.30    0.26
  -7   1  -1    2.30    0.28
   7  -1  -1    2.35    0.31
   7   1   1    1.90    0.21
  -7  -1   1    2.20    0.23
   7   1   1    1.73    0.26
   7  -1  -1    1.82    0.23
  -8   1   1   22.36    0.84
   8   1  -1   23.24    0.87
   8  -1   1   22.07    0.72
   8  -1   1   21.46    0.84
   8   1  -1   22.97    0.75
   8  -1  -1   22.35    0.87
   8  -1  -1   22.05    0.75
   8   1   1   23.28    0.72
   8   1   1   21.74    0.84
   9   1  -1    9.17    0.49
   9  -1   1    8.76    0.58
  -9   1   1    8.32    0.55
   9  -1   1    8.90    0.47
   9   1  -1    8.27    0.57
   9  -1  -1    8.91    0.50
   9   1   1    9.36    0.60
 -10   1   1   11.27    0.68
  10  -1   1   11.54    0.70
 -10  -1   1   11.33    0.68
  10  -1  -1   11.74    0.60
  10   1   1   11.86    0.71
 -11   1   1    9.56    0.66
 -11   1  -1   10.32    0.68
 -11  -1   1    9.78    0.67
  11   1   1   10.07    0.69
 -12   1   1    1.72    0.37
 -12  -1  -1    2.20    0.41
 -12  -1   1    2.40    0.45
  12   1   1    1.23    0.37
 -12   1  -1    1.87    0.38
   0   2   1  306.32    4.35
   0  -2  -1  307.38    4.31
   0   2   1  286.40    4.29
   0   2  -1  305.65    4.37
   1   2  -1  100.63    1.56
  -1   2   1  101.74    1.51
  -1   2   1  100.54    1.55
   1  -2   1  102.51    1.56
   1   2  -1   98.99    1.57
   1  -2   1  102.92    1.50
  -1  -2  -1  102.61    1.50
   1   2  -1  100.05    1.50
   1   2   1   99.35    1.54
   1  -2  -1  100.08    1.56
  -1   2  -1  102.28    1.57
   1   2   1   98.45    1.58
   2  -2   1   22.97    0.48
   2   2  -1   22.69    0.48
  -2   2   1   22.78    0.41
   2   2  -1   22.30    0.47
   2  -2   1   22.29    0.48
  -2   2   1   22.20    0.49
   2   2  -1   22.47    0.48
   2   2   1   22.49    0.42
   2   2   1   22.08    0.49
   2   2   1   21.22    0.49
  -2   2  -1   23.30    0.50
   2  -2  -1   22.15    0.49
   3   2  -1  424.07    6.11
   3  -2   1  431.71    6.12
  -3  -2  -1  424.07    6.18
  -3   2   1  416.02    6.11
   3   2  -1  407.42    6.10
  -3   2   1  425.39    6.02
   3  -2   1  415.24    6.10
   3   2  -1  424.96    6.11
   3   2   1  420.26    6.12
  -3   2  -1  417.07    6.13
   3  -2  -1  412.68    6.13
   3   2   1  411.99    6.03
   4  -2   1  117.54    2.02
   4   2  -1  120.78    1.94
   4   2  -1  116.05    2.02
  -4   2   1  118.81    1.85
  -4  -2  -1  117.31    2.00
   4   2  -1  114.78    1.95
  -4   2   1  118.52    2.02
   4  -2   1  116.72    1.95
   4   2   1  118.65    2.03
  -4   2  -1  119.15    1.97
   4   2   1  117.39    1.89
   4  -2  -1  117.36    1.99
  -5   2   1   11.67    0.47
  -5  -2  -1   12.36    0.45
  -5   2   1   12.39    0.38
   5  -2   1   12.24    0.48
   5   2  -1   12.66    0.49
   5   2  -1   12.80    0.43
   5  -2   1   12.73    0.43
   5   2   1   12.41    0.39
   5  -2  -1   12.67    0.45
  -5   2  -1   12.91    0.45
   5   2   1   12.12    0.48
  -5  -2   1   12.69    0.42
   6   2  -1    0.46    0.12
   6  -2   1    0.50    0.13
  -6   2   1    0.85    0.15
   6   2  -1    0.42    0.15
  -6   2   1    0.61    0.17
  -6  -2  -1    0.51    0.14
   6  -2   1    0.49    0.16
   6   2   1    0.71    0.18
  -6   2  -1    0.60    0.16
  -6  -2   1    0.55    0.13
   6  -2  -1    0.79    0.16
   6   2   1    0.64    0.12
   7  -2   1    5.11    0.32
   7   2  -1    4.42    0.30
  -7   2   1    4.79    0.36
  -7  -2  -1    5.04    0.33
   7  -2   1    4.86    0.37
   7   2  -1    5.23    0.38
   7   2   1    5.07    0.38
   7  -2  -1    4.86    0.32
  -7  -2   1    5.47    0.33
   7   2   1    5.03    0.30
  -7   2  -1    5.42    0.37
   8   2  -1   21.58    0.73
   8   2  -1   22.39    0.85
   8  -2   1   21.81    0.85
  -8  -2  -1   23.54    0.77
   8  -2   1   22.06    0.73
  -8   2   1   22.02    0.84
   8   2   1   22.66    0.86
   8  -2  -1   22.28    0.76
   8   2   1   21.51    0.69
   9   2  -1    0.13    0.18
   9   2  -1   -0.05    0.12
  -9   2   1    0.18    0.16
   9  -2   1    0.08    0.18
   9  -2   1    0.21    0.13
   9   2   1    0.12    0.17
   9  -2  -1    0.10    0.13
 -10   2   1   41.16    1.33
  10  -2   1   40.78    1.37
  10   2  -1   41.21    1.37
  10  -2  -1   39.80    1.20
 -10   2  -1   41.86    1.33
  10   2   1   39.53    1.35
 -11   2   1    9.45    0.67
  11   2   1    8.49    0.65
 -11  -2   1   10.07    0.67
 -11   2  -1    9.85    0.67
 -12   2   1    0.11    0.23
 -12  -2   1   -0.15    0.20
 -12   2  -1   -0.05    0.19
  12   2   1   -0.08    0.23
   0  -3  -1   -0.05    0.03
   0  -3   1   -0.01    0.03
   0   3   1    0.03    0.05
   0   3  -1    0.02    0.06
   0   3   1   -0.09    0.03
   1   3  -1   31.21    0.54
   1  -3   1   29.93    0.62
  -1  -3  -1   32.01    0.57
  -1   3   1   30.39    0.59
  -1   3   1   32.35    0.61
   1   3   1   30.93    0.64
  -1   3  -1   31.01    0.53
   1   3   1   31.02    0.59
  -1   3  -1   31.60    0.63
   1  -3  -1   31.40    0.62
   2   3  -1   12.07    0.33
   2   3  -1   11.97    0.35
  -2   3   1   12.13    0.35
  -2   3   1   11.96    0.30
   2   3  -1   12.05    0.32
   2  -3   1   11.60    0.34
   2  -3   1   12.45    0.33
   2   3   1   12.01    0.36
   2   3   1   12.31    0.34
  -2   3  -1   12.90    0.35
   2   3   1   12.21    0.29
   3   3  -1   51.26    0.99
  -3   3   1   50.28    1.00
  -3   3   1   52.39    0.89
   3   3  -1   52.47    0.99
   3  -3   1   52.43    1.00
   3   3  -1   51.79    0.97
   3  -3   1   51.36    0.99
   3  -3  -1   52.44    1.02
   3   3   1   52.44    1.02
  -3   3  -1   53.84    0.98
   3   3   1   51.83    1.01
   3   3   1   51.57    0.91
   4  -3   1    3.60    0.24
   4  -3   1    3.85    0.23
  -4  -3  -1    3.55    0.24
   4   3  -1    3.99    0.23
   4   3  -1    3.96    0.25
   4   3  -1    4.63    0.24
  -4   3   1    4.04    0.25
  -4   3   1    4.05    0.19
   4  -3  -1    4.13    0.24
   4   3   1    3.94    0.20
   4   3   1    3.51    0.24
  -4   3  -1    4.10    0.24
   5   3  -1  201.97    3.23
  -5   3   1  197.76    3.30
   5  -3   1  200.88    3.25
   5   3  -1  200.62    3.32
   5   3  -1  204.32    3.24
   5  -3   1  207.54    3.33
  -5   3   1  203.79    3.09
  -5  -3  -1  207.76    3.32
   5  -3  -1  200.57    3.29
   5   3   1  202.63    3.33
  -5   3  -1  203.59    3.22
   5   3   1  203.76    3.16
   6  -3   1   32.91    0.93
   6   3  -1   33.31    0.93
  -6  -3  -1   34.38    0.89
   6  -3   1   32.23    0.85
  -6   3   1   32.94    0.72
   6   3  -1   33.32    0.84
   6   3   1   32.65    0.78
   6  -3  -1   34.94    0.90
  -6   3  -1   34.30    0.82
  -6  -3   1   34.00    0.84
   6   3   1   32.48    0.92
  -7   3   1   45.19    1.20
   7  -3   1   47.40    1.12
   7   3  -1   44.55    1.21
   7   3  -1   46.28    1.09
  -7  -3  -1   47.71    1.15
   7  -3   1   45.34    1.21
   7   3   1   46.07    1.04
  -7  -3   1   46.45    1.09
   7  -3  -1   46.54    1.15
   7   3   1   45.04    1.22
   8   3  -1    0.15    0.16
   8  -3   1   -0.03    0.15
  -8   3   1   -0.08    0.12
   8   3  -1    0.20    0.13
   8  -3   1    0.06    0.11
  -8  -3  -1    0.05    0.13
   8   3   1    0.04    0.14
   8  -3  -1    0.02    0.12
   9  -3   1   28.55    1.06
  -9   3   1   27.20    1.01
   9   3  -1   27.84    0.89
   9  -3   1   29.51    0.93
   9   3  -1   28.66    1.05
   9   3   1   29.13    1.06
  -9   3  -1   30.57    1.04
   9  -3  -1   30.44    0.97
  10   3  -1    1.04    0.29
 -10   3   1    1.27    0.30
  10  -3   1    0.94    0.23
 -10   3  -1    1.45    0.30
  10   3   1    0.78    0.26
  10  -3  -1    0.91    0.23
 -11   3   1   11.17    0.73
  11   3   1   10.08    0.70
 -11  -3   1   11.21    0.72
  11  -3  -1   11.60    0.65
 -11   3  -1   11.53    0.72
 -12   3   1    0.16    0.23
 -12  -3   1    0.14    0.23
 -12   3  -1   -0.11    0.22
  12   3   1    0.18    0.24
   0   4   1  729.05   10.07
   0   4   1  623.47    9.71
   0  -4   1  700.95    9.86
   0   4  -1  703.90    9.94
   0  -4  -1  691.50   10.07
  -1   4   1   12.35    0.33
  -1   4   1   11.93    0.34
   1   4  -1   11.95    0.26
  -1  -4  -1   12.09    0.32
   1  -4   1   12.34    0.36
   1   4  -1   12.00    0.37
   1   4   1   11.83    0.37
   1   4   1   11.57    0.31
  -1   4  -1   11.67    0.36
   1  -4  -1   11.60    0.35
  -1   4  -1   12.33    0.27
  -2   4   1    1.47    0.14
  -2  -4  -1    1.32    0.10
   2  -4   1    1.29    0.14
   2   4  -1    1.13    0.12
   2   4  -1    1.14    0.14
  -2   4   1    1.31    0.12
   2   4  -1    1.15    0.11
   2   4   1    1.22    0.15
  -2   4  -1    1.32    0.12
   2   4   1    1.25    0.13
  -2   4  -1    1.13    0.13
   2  -4  -1    1.03    0.13
  -3   4   1   21.99    0.57
   3   4  -1   22.23    0.58
   3  -4   1   22.11    0.58
  -3   4   1   22.29    0.49
   3   4  -1   22.24    0.55
   3   4  -1   22.27    0.55
  -3   4  -1   22.14    0.54
   3   4   1   21.99    0.50
   3  -4  -1   22.12    0.58
  -3   4  -1   22.87    0.55
   3   4   1   22.32    0.56
   3   4   1   21.12    0.59
  -4   4   1  158.88    2.64
   4   4  -1  160.50    2.64
   4  -4   1  156.92    2.64
   4   4  -1  159.75    2.63
   4   4  -1  162.73    2.60
  -4   4   1  163.63    2.49
   4  -4   1  163.23    2.64
   4  -4  -1  162.21    2.67
   4   4   1  159.05    2.65
  -4   4  -1  162.50    2.59
   4   4   1  161.44    2.52
   4   4   1  159.19    2.67
   5   4  -1    1.20    0.16
  -5   4   1    1.17    0.14
   5  -4   1    1.11    0.17
   5   4  -1    1.55    0.18
   5  -4   1    1.09    0.19
  -5  -4  -1    1.32    0.19
   5   4  -1    1.27    0.19
  -5   4   1    1.45    0.20
  -5   4  -1    1.31    0.18
   5  -4  -1    1.30    0.19
   5   4   1    1.09    0.14
   5   4   1    1.21    0.18
  -6  -4  -1  140.75    2.50
   6  -4   1  133.39    2.43
  -6   4   1  139.95    2.53
   6   4  -1  139.38    2.52
   6  -4   1  140.71    2.53
   6   4  -1  138.77    2.40
   6   4   1  139.73    2.32
  -6  -4   1  141.65    2.45
  -6   4  -1  137.65    2.35
   6   4   1  136.45    2.53
   6  -4  -1  137.77    2.48
   7  -4   1    0.12    0.16
   7  -4   1   -0.17    0.08
   7   4  -1   -0.01    0.12
  -7   4   1    0.02    0.12
  -7  -4  -1   -0.05    0.11
   7   4  -1   -0.15    0.07
   7   4   1   -0.03    0.12
  -7  -4   1    0.03    0.11
   7   4   1    0.07    0.08
   7  -4  -1   -0.01    0.10
  -8  -4  -1    1.86    0.28
   8  -4   1    1.50    0.24
   8   4  -1    1.97    0.26
  -8   4   1    2.29    0.34
   8   4  -1    1.66    0.30
  -8   4  -1    1.72    0.29
   8  -4  -1    1.75    0.26
   8   4   1    1.40    0.27
   9  -4   1    2.71    0.34
  -9   4   1    2.59    0.37
   9   4  -1    2.54    0.37
   9   4   1    1.71    0.32
   9  -4  -1    2.76    0.35
  -9   4  -1    2.31    0.35
  10  -4   1   15.79    0.71
  10   4  -1   15.76    0.82
 -10   4   1   15.04    0.79
  10   4   1   15.33    0.81
 -10   4  -1   16.26    0.80
  10  -4  -1   15.23    0.72
  11   4  -1    0.15    0.21
 -11   4   1    0.24    0.23
  11   4   1   -0.08    0.21
  11  -4  -1    0.22    0.17
 -11   4  -1    0.43    0.22
 -12   4   1    1.43    0.38
 -12  -4   1    0.63    0.32
  12   4   1    0.33    0.31
 -12   4  -1    1.10    0.33
   0  -5   1    0.05    0.05
   0  -5  -1   -0.01    0.04
   0   5   1    0.04    0.05
   0   5  -1    0.03    0.06
   0   5   1    0.02    0.04
  -1   5   1  103.89    1.73
  -1   5   1  102.77    1.66
  -1  -5  -1  104.90    1.69
   1  -5   1  103.52    1.75
   1   5  -1  103.37    1.56
  -1  -5   1  105.34    1.73
  -1   5  -1  102.20    1.57
   1   5   1  103.50    1.65
   1  -5  -1  104.84    1.74
  -1   5  -1  101.38    1.75
   1   5   1  101.20    1.77
   2   5  -1  154.41    2.35
   2   5  -1  150.37    2.52
  -2   5   1  153.35    2.42
  -2   5   1  153.53    2.43
  -2  -5  -1  155.78    2.40
   2  -5   1  152.92    2.50
  -2   5  -1  158.16    2.35
  -2  -5   1  151.86    2.45
   2   5   1  153.60    2.54
  -2   5  -1  153.62    2.48
   2  -5  -1  153.68    2.50
   2   5   1  153.60    2.40
  -3   5   1  134.28    2.16
   3   5  -1  136.00    2.18
   3  -5   1  136.68    2.28
  -3  -5  -1  135.10    2.15
   3   5  -1  131.96    2.29
   3   5  -1  135.11    2.22
  -3   5   1  135.83    2.22
   3  -5  -1  134.37    2.28
   3   5   1  133.75    2.31
  -3   5  -1  138.95    2.24
   3   5   1  135.39    2.22
  -3   5  -1  131.65    2.16
  -4   5   1   18.00    0.47
   4   5  -1   17.94    0.52
  -4   5   1   16.91    0.55
   4  -5   1   17.23    0.55
   4   5  -1   17.75    0.53
   4   5  -1   17.53    0.56
  -4   5  -1   18.44    0.53
   4   5   1   17.49    0.47
   4   5   1   17.52    0.57
   4  -5  -1   16.24    0.55
  -4   5  -1   16.95    0.52
   4   5   1   17.01    0.54
  -5   5   1    0.84    0.16
   5   5  -1    0.55    0.12
  -5   5   1    0.90    0.14
   5  -5   1    0.62    0.14
   5   5  -1    0.74    0.15
   5   5  -1    0.69    0.15
   5   5   1    0.61    0.15
   5  -5  -1    0.53    0.14
   5   5   1    0.69    0.16
  -5   5  -1    0.89    0.16
   5   5   1    0.78    0.13
  -5   5  -1    0.83    0.16
   6   5  -1    1.22    0.20
   6   5  -1    0.65    0.18
  -6   5   1    1.31    0.23
   6   5  -1    0.88    0.16
  -6  -5  -1    0.67    0.17
   6  -5   1    1.23    0.20
  -6   5  -1    0.64    0.17
   6  -5  -1    0.43    0.14
   6   5   1    0.95    0.15
  -6   5  -1    0.84    0.18
   6   5   1    1.00    0.20
   7  -5   1   13.31    0.56
  -7  -5  -1   13.57    0.60
  -7   5   1   13.39    0.61
   7   5  -1   13.61    0.53
   7   5  -1   13.02    0.60
  -7  -5   1   12.97    0.56
   7   5   1   13.47    0.49
   7   5   1   12.94    0.61
  -7   5  -1   14.13    0.61
   7  -5  -1   13.04    0.58
   8   5  -1   22.44    0.86
  -8  -5  -1   22.72    0.82
  -8   5   1   22.22    0.85
   8  -5   1   22.15    0.79
   8   5  -1   22.61    0.74
  -8  -5   1   23.50    0.80
  -8   5  -1   24.11    0.87
   8   5   1   21.37    0.85
   8  -5  -1   22.77    0.81
   9  -5   1   24.62    0.89
   9   5  -1   24.26    0.96
  -9   5   1   26.39    0.99
   9  -5  -1   26.86    0.94
  -9   5  -1   25.02    0.95
   9   5   1   24.81    0.98
  10  -5   1    1.10    0.25
 -10   5   1    1.11    0.31
  10   5  -1    1.07    0.32
  10  -5  -1    1.13    0.26
 -10   5  -1    1.15    0.28
  10   5   1    1.52    0.33
 -11   5   1    4.92    0.57
  11   5  -1    5.87    0.63
 -11   5  -1    6.20    0.63
  11   5   1    6.80    0.67
  11  -5  -1    5.97    0.50
 -12   5   1   -0.02    0.22
 -12   5  -1   -0.19    0.20
  12   5   1    0.11    0.26
 -12  -5   1   -0.01    0.20
   0  -6  -1  102.18    1.72
   0   6   1  100.38    1.62
   0   6   1  100.11    1.76
   0   6  -1   99.54    1.78
   0   6  -1   99.80    1.50
   0  -6   1  100.71    1.74
  -1   6   1    2.07    0.17
  -1   6   1    1.79    0.14
   1   6  -1    2.05    0.11
   1   6  -1    1.55    0.18
  -1  -6  -1    2.18    0.16
   1  -6   1    2.05    0.20
   1   6   1    2.34    0.15
   1  -6  -1    2.19    0.18
  -1  -6   1    2.11    0.17
  -1   6  -1    2.36    0.19
  -1   6  -1    1.94    0.12
   1   6   1    2.19    0.21
   2   6  -1    0.04    0.05
   2   6  -1   -0.05    0.07
  -2   6   1    0.15    0.09
   2  -6   1   -0.06    0.06
  -2   6   1   -0.08    0.07
  -2  -6  -1    0.08    0.07
   2   6   1    0.02    0.08
   2  -6  -1    0.04    0.08
  -2  -6   1   -0.06    0.05
   2   6   1    0.00    0.06
  -2   6  -1    0.11    0.06
  -2   6  -1    0.43    0.12
   3   6  -1    1.21    0.18
  -3   6   1    1.28    0.17
  -3  -6  -1    1.17    0.14
   3  -6   1    0.92    0.15
  -3   6   1    1.32    0.16
   3   6  -1    1.21    0.15
   3  -6  -1    0.98    0.16
   3   6   1    1.36    0.19
  -3   6  -1    1.21    0.15
  -3  -6   1    1.21    0.15
  -3   6  -1    1.17    0.16
   3   6   1    1.09    0.15
   4   6  -1    4.74    0.31
  -4  -6  -1    5.07    0.25
   4   6  -1    4.55    0.27
  -4   6   1    5.05    0.26
  -4   6   1    4.35    0.29
   4  -6   1    4.64    0.30
   4   6  -1    4.84    0.28
  -4   6  -1    4.20    0.28
  -4   6  -1    4.70    0.27
   4   6   1    4.17    0.27
   4   6   1    4.61    0.30
   4  -6  -1    4.32    0.30
   5   6  -1    7.40    0.39
   5   6  -1    6.99    0.37
   5  -6   1    7.14    0.38
  -5   6   1    7.42    0.39
  -5   6   1    6.73    0.31
   5   6  -1    7.57    0.36
  -5   6  -1    7.31    0.37
   5   6   1    8.06    0.41
  -5   6  -1    7.53    0.36
   5   6   1    7.75    0.33
   5   6   1    7.80    0.39
   5  -6  -1    7.72    0.40
   6   6  -1   12.17    0.53
   6   6  -1   11.94    0.47
  -6   6   1   11.94    0.54
  -6  -6  -1   11.27    0.54
   6   6  -1   11.81    0.53
   6  -6   1   12.10    0.53
  -6   6  -1   10.57    0.50
   6  -6  -1   10.87    0.52
  -6   6  -1   12.05    0.47
   6   6   1   12.19    0.54
   6   6   1   11.68    0.44
  -7  -6  -1    4.74    0.38
   7  -6   1    4.90    0.36
  -7   6   1    5.04    0.40
   7   6  -1    4.77    0.32
   7   6  -1    5.42    0.40
   7  -6  -1    5.16    0.37
   7   6   1    4.77    0.37
  -7  -6   1    5.55    0.39
  -7   6  -1    5.51    0.40
  -8   6   1    0.85    0.23
  -8  -6  -1    1.21    0.26
   8   6  -1    0.63    0.21
   8   6  -1    0.95    0.20
   8  -6   1    0.63    0.18
  -8  -6   1    0.98    0.22
   8   6   1    0.87    0.24
  -8   6  -1    0.69    0.22
   8  -6  -1    0.48    0.19
  -9   6   1    0.40    0.21
   9  -6   1    0.37    0.17
   9   6  -1    0.31    0.19
  -9  -6  -1    0.58    0.22
  -9   6  -1    0.39    0.19
   9   6   1    0.32    0.20
   9  -6  -1    0.31    0.17
  10  -6   1    1.84    0.31
  10   6  -1    1.71    0.37
 -10   6   1    1.27    0.32
 -10   6  -1    1.25    0.31
  10  -6  -1    1.74    0.32
  10   6   1    1.14    0.32
 -11   6   1    3.11    0.47
  11   6  -1    2.85    0.46
  11   6   1    2.69    0.46
  11  -6  -1    3.32    0.43
 -11   6  -1    2.84    0.45
 -12   6   1   -0.11    0.24
 -12   6  -1    0.32    0.29
 -12  -6   1    0.42    0.26
  12   6   1    0.37    0.31
   0   7   1    0.07    0.07
   0  -7  -1    0.04    0.08
   0   7   1    0.08    0.08
   0  -7   1    0.26    0.10
   0   7  -1    0.00    0.09
   0   7  -1    0.05    0.05
  -1   7   1   75.47    1.32
  -1   7   1   76.93    1.45
   1   7  -1   76.09    1.50
  -1  -7  -1   76.74    1.40
   1  -7   1   75.89    1.46
   1   7  -1   75.30    1.21
   1   7   1   75.97    1.49
  -1   7  -1   75.92    1.47
   1   7   1   76.95    1.31
  -1   7  -1   73.59    1.22
  -1  -7   1   75.53    1.43
   1  -7  -1   76.63    1.45
  -2   7   1    4.95    0.28
  -2   7   1    4.92    0.26
   2   7  -1    4.66    0.20
   2  -7   1    4.83    0.29
  -2  -7  -1    5.28    0.26
   2   7  -1    4.83    0.30
   2   7   1    4.59    0.23
   2  -7  -1    5.08    0.29
  -2   7  -1    4.91    0.23
  -2   7  -1    5.34    0.30
  -2  -7   1    5.07    0.27
   2   7   1    5.26    0.31
   3   7  -1  183.72    2.85
   3  -7   1  181.23    3.06
   3   7  -1  176.58    3.08
  -3   7   1  182.46    2.94
  -3  -7  -1  180.98    2.90
  -3   7   1  183.26    2.95
   3   7   1  182.83    2.91
  -3  -7   1  185.15    2.98
  -3   7  -1  181.09    2.86
  -3   7  -1  186.19    3.01
   3   7   1  181.93    3.10
   3  -7  -1  181.51    3.05
  -4   7   1    0.33    0.11
  -4  -7  -1    0.24    0.09
   4   7  -1    0.01    0.09
   4   7  -1    0.11    0.09
  -4   7   1    0.44    0.14
   4  -7   1    0.42    0.13
   4   7   1    0.43    0.13
  -4   7  -1    0.39    0.12
  -4   7  -1    0.23    0.12
   4   7   1    0.24    0.11
   4  -7  -1    0.28    0.12
  -4  -7   1    0.55    0.13
   5   7  -1   12.13    0.53
  -5   7   1   13.00    0.53
  -5   7   1   13.74    0.47
   5   7  -1   13.27    0.51
  -5  -7  -1   12.62    0.45
   5   7  -1   12.36    0.48
   5  -7   1   12.98    0.55
   5   7   1   12.72    0.55
  -5   7  -1   12.49    0.50
  -5   7  -1   13.25    0.50
   5   7   1   13.44    0.54
   5  -7  -1   13.36    0.56
   6   7  -1    0.75    0.16
   6   7  -1    1.03    0.21
  -6   7   1    1.02    0.21
   6  -7   1    0.79    0.18
  -6  -7  -1    0.85    0.16
   6   7  -1    1.04    0.20
  -6   7  -1    0.81    0.19
   6   7   1    0.52    0.17
   6   7   1    0.62    0.18
   6  -7  -1    0.75    0.18
  -6   7  -1    1.02    0.20
   7   7  -1   24.62    0.78
   7  -7   1   27.01    0.89
   7   7  -1   25.61    0.87
  -7  -7  -1   25.87    0.91
   7   7  -1   26.95    0.88
  -7   7   1   25.41    0.87
   7  -7  -1   25.61    0.88
  -7   7  -1   25.61    0.85
   7   7   1   27.13    0.90
   8  -7   1    4.14    0.43
  -8   7   1    3.85    0.42
   8   7  -1    3.73    0.41
  -8  -7  -1    3.80    0.43
   8   7   1    4.50    0.46
   8  -7  -1    4.24    0.43
  -8   7  -1    4.64    0.45
  -8  -7   1    3.72    0.40
   9   7  -1   -0.15    0.14
   9  -7   1    0.17    0.15
  -9   7   1   -0.06    0.17
  -9  -7  -1    0.29    0.20
   9  -7  -1    0.02    0.14
  -9   7  -1    0.34    0.20
   9   7   1   -0.27    0.13
  10   7  -1    0.38    0.23
  10  -7   1    0.25    0.19
 -10   7   1    0.25    0.22
  10   7   1    0.43    0.24
 -10   7  -1    0.16    0.21
  10  -7  -1    0.45    0.22
  11   7  -1    4.54    0.58
 -11   7   1    4.91    0.58
  11  -7   1    5.21    0.54
  11  -7  -1    4.72    0.52
 -11   7  -1    5.25    0.58
  11   7   1    3.83    0.54
  12  -7  -1    2.07    0.40
 -12   7  -1    2.08    0.43
   0   8  -1  165.40    2.84
   0  -8  -1  168.76    2.75
   0   8   1  165.24    2.82
   0   8  -1  164.27    2.44
   0   8   1  161.26    2.56
   0  -8   1  165.84    2.77
  -1  -8  -1   19.62    0.58
  -1   8   1   19.85    0.62
   1   8  -1   19.55    0.65
   1   8  -1   20.08    0.43
  -1   8   1   19.86    0.52
   1  -8   1   19.91    0.63
   1  -8  -1   18.99    0.60
   1   8   1   20.19    0.50
  -1   8  -1   19.94    0.64
  -1   8  -1   19.87    0.44
   1   8   1   18.93    0.63
  -1  -8   1   19.82    0.60
  -2   8   1   -0.06    0.08
   2   8  -1    0.08    0.09
  -2  -8  -1    0.01    0.07
   2  -8   1   -0.04    0.07
  -2   8   1    0.02    0.09
   2   8  -1    0.04    0.06
   2   8   1   -0.01    0.09
  -2   8  -1    0.34    0.12
  -2  -8   1    0.01    0.07
   2  -8  -1    0.10    0.09
   2   8   1    0.11    0.07
  -2   8  -1   -0.09    0.07
  -3   8   1    7.44    0.36
   3  -8   1    7.15    0.39
   3   8  -1    7.46    0.41
  -3   8   1    8.04    0.37
  -3  -8  -1    7.80    0.35
   3   8  -1    7.59    0.31
  -3  -8   1    7.36    0.36
  -3   8  -1    7.67    0.39
   3   8   1    7.52    0.34
   3  -8  -1    7.06    0.39
  -3   8  -1    8.10    0.34
   3   8   1    7.58    0.41
   4  -8   1   52.20    1.26
  -4   8   1   54.01    1.15
   4   8  -1   51.34    1.27
   4   8  -1   51.40    1.11
  -4   8   1   52.73    1.18
  -4  -8  -1   52.91    1.11
  -4  -8   1   54.61    1.18
   4   8   1   54.55    1.31
   4  -8  -1   53.67    1.27
  -4   8  -1   51.31    1.18
   4   8   1   54.29    1.16
  -4   8  -1   53.18    1.12
   5  -8   1   11.56    0.54
  -5   8   1   12.58    0.54
   5   8  -1   12.28    0.57
  -5   8   1   12.65    0.47
  -5  -8  -1   12.36    0.46
   5   8  -1   12.65    0.50
  -5   8  -1   13.18    0.52
  -5   8  -1   12.19    0.50
   5  -8  -1   11.95    0.56
   5   8   1   11.42    0.50
  -5  -8   1   11.57    0.48
   5   8   1   11.64    0.56
   6   8  -1   10.41    0.51
   6  -8   1   10.49    0.54
  -6   8   1    9.47    0.51
   6   8  -1    9.90    0.53
   6   8   1   10.03    0.51
  -6   8  -1    9.14    0.48
   6   8   1   10.01    0.54
  -6  -8   1    9.93    0.47
   6  -8  -1    9.98    0.53
   7   8  -1    1.86    0.29
  -7  -8  -1    2.24    0.34
   7   8  -1    1.92    0.29
   7   8  -1    1.70    0.24
   7  -8   1    2.25    0.32
  -7   8   1    1.76    0.29
   7   8   1    1.69    0.28
  -7   8  -1    2.22    0.30
   7  -8  -1    1.80    0.28
  -8  -8  -1    6.31    0.48
  -8   8   1    5.74    0.47
   8   8  -1    5.61    0.45
   8  -8   1    5.45    0.43
  -8   8  -1    6.13    0.44
   8   8   1    5.79    0.47
  -8  -8   1    5.63    0.46
   8  -8  -1    5.04    0.42
  -9   8   1   -0.02    0.17
   9   8  -1   -0.17    0.14
   9  -8   1   -0.02    0.14
  -9  -8  -1    0.11    0.19
  -9   8  -1   -0.06    0.17
   9  -8  -1   -0.06    0.13
   9   8   1   -0.01    0.18
  10   8  -1    9.83    0.67
 -10   8   1    9.06    0.65
  10  -8   1   10.11    0.63
 -10   8  -1    8.72    0.62
  10   8   1    8.81    0.64
  10  -8  -1    8.89    0.60
 -11   8   1    0.65    0.30
  11   8  -1    0.65    0.30
  11  -8   1    0.44    0.22
  11   8   1    0.48    0.28
  11  -8  -1    0.39    0.21
 -11   8  -1    0.47    0.28
   0   9  -1   -0.10    0.08
   0   9   1    0.01    0.09
   0  -9   1   -0.10    0.07
   0   9   1    0.03    0.06
   0  -9  -1    0.05    0.09
  -1   9   1   38.09    0.97
  -1  -9  -1   38.85    0.93
   1  -9   1   37.94    0.97
  -1   9   1   37.50    0.81
   1   9   1   36.76    0.79
   1  -9  -1   37.46    0.95
   1   9   1   37.61    1.00
  -1  -9   1   36.86    0.93
  -1   9  -1   37.05    0.98
  -2   9   1    6.66    0.32
  -2  -9  -1    6.98    0.34
   2   9  -1    6.84    0.40
  -2   9   1    6.58    0.37
   2  -9   1    6.50    0.38
  -2  -9   1    6.88    0.36
   2  -9  -1    6.30    0.38
   2   9   1    7.02    0.41
  -2   9  -1    6.36    0.38
   2   9   1    6.66    0.30
  -3  -9  -1  130.86    2.28
  -3   9   1  134.22    2.35
   3  -9   1  124.83    2.41
   3   9  -1  129.68    2.47
  -3   9   1  132.53    2.26
   3   9  -1  131.52    2.15
   3  -9  -1  131.24    2.43
  -3   9  -1  132.06    2.18
  -3   9  -1  131.38    2.38
   3   9   1  129.74    2.22
   3   9   1  125.47    2.46
  -3  -9   1  131.26    2.33
  -4  -9  -1   14.05    0.51
   4   9  -1   13.89    0.49
  -4   9   1   15.26    0.57
   4   9  -1   13.55    0.61
   4  -9   1   14.93    0.61
  -4   9   1   14.90    0.55
  -4  -9   1   14.09    0.54
   4   9   1   13.94    0.52
   4   9   1   14.42    0.63
   4  -9  -1   14.29    0.61
  -4   9  -1   13.90    0.56
  -4   9  -1   14.49    0.52
   5   9  -1    0.46    0.17
   5   9  -1    0.19    0.14
   5  -9   1    0.54    0.17
  -5   9   1    0.35    0.18
  -5  -9  -1    0.48    0.14
  -5  -9   1    0.59    0.16
   5  -9  -1    0.27    0.16
   5   9   1    0.30    0.14
  -5   9  -1    0.30    0.16
   5   9   1    0.37    0.18
  -5   9  -1    0.64    0.18
  -6   9   1    0.14    0.15
   6   9  -1    0.00    0.12
   6  -9   1    0.25    0.16
   6   9  -1    0.02    0.14
   6  -9  -1   -0.05    0.14
   6   9   1    0.14    0.16
  -6   9  -1    0.24    0.16
   6   9   1    0.21    0.14
  -6  -9   1    0.23    0.13
   7  -9   1    6.15    0.45
  -7   9   1    5.84    0.44
   7   9  -1    5.51    0.41
   7   9  -1    5.53    0.44
   7   9   1    5.80    0.43
   7  -9  -1    5.19    0.43
   7   9   1    5.70    0.46
  -7   9  -1    5.41    0.41
   8   9  -1    5.03    0.48
  -8   9   1    4.33    0.46
   8  -9   1    5.54    0.46
  -8  -9  -1    4.22    0.48
   8   9  -1    5.51    0.52
  -8   9  -1    4.56    0.46
   8  -9  -1    4.95    0.49
   8   9   1    4.42    0.46
   9   9  -1    0.41    0.23
  -9   9   1    0.83    0.26
   9  -9   1    0.27    0.20
  -9  -9  -1    0.94    0.28
   9  -9  -1    0.34    0.20
   9   9   1    0.33    0.22
 -10   9   1   -0.01    0.21
  10  -9   1    0.50    0.23
  10  -9  -1    0.12    0.19
  10   9   1    0.18    0.23
  11  -9   1    6.54    0.55
 -11   9   1    6.38    0.66
  11  -9  -1    5.76    0.60
  11   9   1    5.78    0.65
   0 -10   1   34.18    0.94
   0 -10  -1   34.94    0.93
   0  10   1   37.20    1.00
   0  10  -1   36.36    1.01
   1  10  -1    3.95    0.33
  -1  10   1    3.53    0.34
   1 -10   1    3.31    0.33
  -1 -10  -1    3.22    0.27
  -1 -10   1    3.41    0.27
  -1  10  -1    3.36    0.33
   1 -10  -1    3.15    0.32
   1  10   1    3.44    0.34
   2  10  -1    2.61    0.31
   2 -10   1    2.91    0.31
  -2 -10  -1    3.43    0.27
  -2  10   1    2.87    0.30
  -2  10  -1    2.89    0.31
  -2 -10   1    2.44    0.26
   2  10   1    2.33    0.30
   2 -10  -1    3.25    0.33
  -3 -10  -1    2.59    0.26
   3  10  -1    1.90    0.28
   3 -10   1    2.90    0.32
  -3  10   1    2.77    0.30
  -3 -10   1    2.40    0.27
  -3  10  -1    3.04    0.33
   3  10   1    2.83    0.33
   3 -10  -1    3.06    0.33
  -4 -10  -1   78.09    1.58
   4 -10   1   77.45    1.74
   4  10  -1   77.63    1.78
  -4  10   1   80.14    1.65
  -4 -10   1   78.46    1.63
   4  10   1   79.24    1.81
   4  10   1   77.56    1.56
  -4  10  -1   80.26    1.68
   4 -10  -1   79.11    1.76
  -5  10   1    1.17    0.24
  -5 -10  -1    1.10    0.20
   5 -10   1    1.21    0.26
   5  10  -1    0.84    0.22
  -5  10  -1    1.39    0.24
   5 -10  -1    1.40    0.26
  -5 -10   1    1.49    0.23
   5  10   1    0.96    0.24
   5  10   1    1.18    0.21
   6  10  -1   23.46    0.91
   6 -10   1   25.56    0.92
  -6 -10   1   24.23    0.80
   6  10   1   24.74    0.83
   6  10   1   24.09    0.92
   6 -10  -1   23.71    0.90
   7 -10   1    4.17    0.45
   7  10  -1    4.46    0.47
   7  10   1    4.08    0.45
   7 -10  -1    3.51    0.41
   7  10   1    4.10    0.42
   8  10  -1    0.26    0.19
   8 -10   1    0.35    0.19
  -8 -10  -1    0.45    0.23
   8 -10  -1    0.46    0.20
   9 -10   1    0.12    0.18
  -9 -10  -1    0.35    0.23
   9 -10  -1    0.10    0.16
  10 -10   1    1.07    0.30
  10 -10  -1    1.20    0.30
  11 -10   1    0.60    0.27
   0  11   1   -0.13    0.10
   0 -11   1   -0.13    0.10
   0  11  -1    0.07    0.12
   0 -11  -1   -0.03    0.09
   1 -11   1    8.61    0.47
   1  11  -1    8.54    0.50
  -1 -11  -1    8.95    0.45
  -1  11   1    8.39    0.47
  -1  11  -1    8.96    0.49
   1 -11  -1    7.82    0.44
  -1 -11   1    8.98    0.46
   1  11   1    9.07    0.50
  -2 -11  -1    2.79    0.30
  -2  11   1    2.91    0.32
   2 -11   1    2.93    0.33
   2  11  -1    2.95    0.35
   2  11   1    3.02    0.35
  -2 -11   1    3.12    0.32
  -2  11  -1    2.99    0.35
   2 -11  -1    2.62    0.31
   3  11  -1   10.86    0.58
  -3 -11  -1   11.84    0.51
   3 -11   1   11.46    0.57
  -3  11   1   10.41    0.52
  -3  11  -1   10.15    0.53
   3  11   1   10.09    0.56
   3 -11  -1   11.27    0.56
  -3 -11   1   10.69    0.51
   4  11  -1    0.49    0.19
   4 -11   1    0.39    0.16
  -4 -11  -1    0.44    0.16
  -4  11   1    0.23    0.16
  -4 -11   1    0.33    0.16
   4  11   1    0.47    0.18
  -4  11  -1    0.43    0.18
   4 -11  -1    0.51    0.19
   5  11  -1  143.82    2.88
   5 -11   1  144.26    2.84
  -5  11  -1  144.43    2.71
  -5 -11   1  144.76    2.66
   5 -11  -1  142.00    2.83
   5  11   1  144.18    2.90
   6 -11   1   -0.04    0.12
   6  11  -1   -0.01    0.14
  -6 -11   1    0.03    0.13
   6  11   1    0.25    0.18
   6 -11  -1    0.05    0.14
   7  11  -1    8.20    0.57
   7 -11   1    7.03    0.53
   7 -11  -1    8.13    0.56
   7  11   1    8.22    0.57
   8 -11   1    1.86    0.35
  -8 -11  -1    1.38    0.34
   8  11  -1    1.14    0.30
   8 -11  -1    1.54    0.31
   9 -11   1   12.66    0.73
  -9 -11  -1   11.74    0.76
   9 -11  -1   12.23    0.74
  -9 -11   1   12.78    0.77
  10 -11   1    0.16    0.21
  10 -11  -1    0.15    0.22
   0  12  -1   10.03    0.56
   0  12   1    9.24    0.52
   0 -12   1    8.45    0.48
   0 -12  -1    9.83    0.51
   1 -12   1    1.46    0.26
  -1 -12  -1    2.04    0.28
   1  12  -1    1.67    0.29
  -1  12   1    1.78    0.27
   1 -12  -1    1.46    0.24
   1  12   1    1.09    0.23
  -1 -12   1    1.44    0.24
  -1  12  -1    1.90    0.29
   2 -12   1    0.35    0.17
  -2  12   1    0.27    0.15
  -2 -12  -1    0.20    0.14
   2  12  -1    0.32    0.16
  -2 -12   1    0.09    0.11
   2  12   1    0.45    0.18
  -2  12  -1    0.15    0.14
   2 -12  -1    0.24    0.15
   3  12  -1   12.77    0.65
  -3 -12  -1   12.80    0.56
   3 -12   1   13.18    0.64
  -3  12   1   13.60    0.61
  -3 -12   1   12.25    0.56
  -3  12  -1   11.99    0.60
   3  12   1   12.10    0.64
   3 -12  -1   12.87    0.62
  -4  12   1   10.90    0.56
   4  12  -1   10.09    0.60
  -4 -12  -1   11.46    0.53
   4 -12   1   10.70    0.59
  -4 -12   1   11.08    0.54
   4  12   1   12.07    0.65
  -4  12  -1   11.41    0.58
   4 -12  -1   10.88    0.59
   5  12  -1    1.44    0.29
   5 -12   1    1.11    0.26
   5 -12  -1    1.06    0.25
  -5 -12   1    1.25    0.24
  -5  12  -1    1.18    0.25
   5  12   1    1.75    0.31
   6 -12   1    6.14    0.49
   6  12  -1    8.01    0.57
   6 -12  -1    5.43    0.46
   6  12   1    6.30    0.52
   7  12  -1    4.20    0.50
   7 -12   1    4.94    0.52
   7  12   1    5.26    0.56
   7 -12  -1    5.02    0.52
   8 -12   1    1.46    0.32
   8  12  -1    1.50    0.34
  -8 -12  -1    1.50    0.36
   8 -12  -1    1.26    0.31
   9 -12   1    0.06    0.18
  -9 -12  -1   -0.05    0.24
  -9 -12   1    0.19    0.25
   9 -12  -1    0.05    0.19
   0  13   1   -0.14    0.12
   0 -13   1   -0.06    0.12
   0  13  -1    0.13    0.16
   0 -13  -1   -0.12    0.12
   1 -13   1    0.63    0.20
  -1 -13  -1    0.68    0.20
   1  13  -1    0.71    0.22
  -1  13   1    0.94    0.23
   1  13   1    0.61    0.21
   1 -13  -1    0.58    0.19
  -1  13  -1    0.63    0.21
  -1 -13   1    0.78    0.21
   2  13  -1    0.74    0.23
  -2 -13  -1    0.70    0.19
  -2  13   1    0.74    0.21
   2 -13   1    0.74    0.23
  -2 -13   1    0.45    0.17
   2 -13  -1    0.58    0.21
  -2  13  -1    0.59    0.20
   2  13   1    0.70    0.21
   3  13  -1    4.48    0.47
  -3 -13  -1    4.94    0.38
  -3  13   1    4.25    0.43
   3 -13   1    5.68    0.45
  -3 -13   1    4.90    0.38
   3 -13  -1    4.84    0.47
   3  13   1    4.29    0.46
  -3  13  -1    4.73    0.46
  -4  13   1    0.31    0.18
   4 -13   1    0.16    0.15
  -4 -13  -1    0.10    0.14
   4  13  -1    0.20    0.18
   4 -13  -1    0.27    0.17
   4  13   1    0.26    0.18
  -4  13  -1    0.21    0.18
  -4 -13   1    0.19    0.15
   5  13  -1   15.84    0.80
   5 -13   1   13.60    0.71
   5  13   1   14.30    0.77
  -5 -13   1   13.14    0.63
   5 -13  -1   15.65    0.76
   6  13  -1   -0.05    0.17
   6 -13   1    0.02    0.16
   6 -13  -1    0.07    0.15
   6  13   1    0.19    0.20
   7  13  -1    3.70    0.49
   7 -13   1    4.85    0.53
   7  13   1    4.28    0.53
   7 -13  -1    4.84    0.54
   8 -13   1    7.16    0.60
   8  13  -1    8.08    0.64
   8 -13  -1    9.18    0.66
   8  13   1    8.72    0.67
   9 -13   1    7.27    0.70
  -9 -13  -1    8.16    0.69
   9 -13  -1    7.81    0.63
  -9 -13   1    7.70    0.65
   0 -14  -1   42.16    1.21
   0  14   1   42.31    1.28
   0  14  -1   38.03    1.24
   0 -14   1   37.79    1.18
   1 -14   1    0.61    0.22
  -1  14   1    0.61    0.22
  -1 -14  -1    0.72    0.21
   1  14  -1    0.50    0.22
  -1  14  -1    0.83    0.23
  -1 -14   1    0.37    0.18
   1  14   1    0.36    0.22
   1 -14  -1    0.51    0.21
  -2  14   1    9.14    0.56
   2 -14   1    8.73    0.56
  -2 -14  -1    9.62    0.53
   2  14  -1    9.49    0.60
   2  14   1    9.31    0.60
  -2 -14   1    9.06    0.53
  -2  14  -1    9.31    0.58
   2 -14  -1    9.00    0.57
  -3  14   1    1.15    0.26
   3  14  -1    0.58    0.21
  -3 -14  -1    0.59    0.20
   3 -14   1    0.86    0.24
  -3 -14   1    0.88    0.21
  -3  14  -1    0.67    0.23
   3  14   1    0.99    0.25
   3 -14  -1    0.70    0.24
   4 -14   1    3.34    0.42
   4  14  -1    3.19    0.43
   4  14   1    3.90    0.48
   4 -14  -1    2.97    0.39
  -4  14  -1    3.28    0.41
  -4 -14   1    4.26    0.42
   5  14  -1   -0.14    0.16
   5 -14   1    0.38    0.20
   5 -14  -1    0.32    0.21
   5  14   1    0.10    0.18
   6  14  -1    9.20    0.65
   6 -14   1    8.82    0.62
   6  14   1    9.04    0.64
   6 -14  -1    7.86    0.60
   7  14  -1    0.58    0.28
   7 -14   1    1.12    0.30
   7  14   1    0.42    0.25
   7 -14  -1    0.72    0.27
   8  14  -1    0.21    0.23
   8 -14   1   -0.21    0.18
   8 -14  -1    0.38    0.25
   8  14   1   -0.01    0.23
   0  15  -1   -0.13    0.15
   0  15   1    0.30    0.20
   0 -15   1   -0.04    0.14
   0 -15  -1   -0.15    0.14
   1  15  -1   32.96    1.18
  -1  15   1   32.16    1.13
   1 -15   1   31.90    1.11
  -1 -15  -1   33.55    1.09
  -1 -15   1   32.16    1.09
   1 -15  -1   32.22    1.10
  -1  15  -1   31.31    1.14
   1  15   1   33.25    1.18
  -2 -15  -1    2.64    0.35
   2  15  -1    2.78    0.42
   2 -15   1    2.34    0.36
  -2  15   1    2.96    0.40
   2 -15  -1    2.45    0.39
  -2 -15   1    2.39    0.34
   2  15   1    3.09    0.43
  -2  15  -1    3.11    0.42
  -3  15   1    6.94    0.51
  -3 -15  -1    6.60    0.47
   3  15  -1    6.16    0.60
   3 -15   1    6.63    0.51
  -3  15  -1    6.24    0.50
   3 -15  -1    5.94    0.49
  -3 -15   1    6.90    0.49
   3  15   1    6.78    0.56
   4  15  -1    1.76    0.35
   4 -15   1    1.72    0.35
  -4  15  -1    1.51    0.31
   4  15   1    2.31    0.39
   4 -15  -1    1.25    0.30
  -4 -15   1    1.10    0.26
   5 -15   1    3.19    0.45
   5  15  -1    3.19    0.48
   5 -15  -1    4.46    0.52
   5  15   1    4.31    0.54
   6  15  -1   -0.13    0.18
   6 -15   1    0.33    0.22
   6 -15  -1    0.40    0.23
   6  15   1    0.08    0.23
   7  15  -1    4.29    0.56
   7 -15   1    4.25    0.53
   7  15   1    3.99    0.54
   7 -15  -1    5.48    0.60
   0 -16  -1    0.41    0.21
   0 -16   1    0.20    0.19
   0  16  -1   -0.06    0.17
   0  16   1    0.36    0.22
   1 -16   1    0.31    0.22
  -1  16   1    0.04    0.18
   1  16  -1   -0.03    0.16
  -1 -16  -1    0.11    0.18
   1  16   1    0.24    0.22
  -1 -16   1   -0.19    0.15
   1 -16  -1    0.13    0.16
  -1  16  -1    0.03    0.19
   2 -16   1    0.35    0.22
  -2  16   1    0.39    0.22
  -2 -16  -1    0.02    0.17
   2  16  -1    0.37    0.21
   2  16   1    0.68    0.25
  -2 -16   1    0.38    0.19
   2 -16  -1    0.55    0.22
  -2  16  -1    0.65    0.25
   3  16  -1    4.58    0.54
   3 -16   1    4.29    0.50
  -3  16   1    4.12    0.49
   3  16   1    4.85    0.55
   3 -16  -1    4.26    0.49
  -3  16  -1    5.23    0.54
  -3 -16   1    4.23    0.46
   4  16  -1    0.19    0.21
   4 -16   1   -0.11    0.17
   4 -16  -1    0.14    0.20
   4  16   1    0.06    0.20
   5  16  -1    0.24    0.20
   5 -16   1    0.04    0.20
   5  16   1    0.07    0.21
   5 -16  -1   -0.04    0.20
   6 -16   1    0.13    0.22
   6  16  -1    0.15    0.25
   6 -16  -1    0.41    0.24
   6  16   1    0.35    0.23
   0  17  -1    0.06    0.18
   0 -17   1    0.05    0.19
   0  17   1    0.25    0.23
   0 -17  -1    0.00    0.17
  -1 -17  -1   11.44    0.67
   1  17  -1    9.90    0.70
   1 -17   1   10.32    0.66
  -1  17   1   10.71    0.70
  -1 -17   1   10.10    0.64
  -1  17  -1   10.80    0.72
   1  17   1   10.99    0.72
   1 -17  -1   10.04    0.66
   2 -17   1    1.61    0.33
  -2  17   1    1.32    0.32
  -2 -17  -1    1.35    0.29
   2  17  -1    1.37    0.34
   2 -17  -1    1.48    0.32
   2  17   1    1.68    0.37
  -2  17  -1    1.31    0.32
  -2 -17   1    0.94    0.28
   3 -17   1    8.56    0.63
   3  17  -1    9.48    0.70
  -3 -17   1    9.80    0.62
   3 -17  -1   10.11    0.67
   3  17   1    8.88    0.68
  -3  17  -1   10.60    0.69
   4 -17   1    0.12    0.21
   4  17  -1   -0.12    0.17
   4 -17  -1    0.40    0.25
   4  17   1   -0.04    0.22
   5 -17  -1    0.36    0.25
   0  18   1    2.62    0.45
   0  18  -1    2.89    0.48
   0 -18  -1    2.95    0.44
   0 -18   1    2.54    0.41
   1 -18   1    0.12    0.21
   1  18  -1    0.48    0.27
  -1 -18  -1    0.25    0.22
  -1  18   1    0.48    0.28
  -1 -18   1   -0.04    0.19
   1  18   1    0.49    0.26
  -1  18  -1    0.17    0.25
   1 -18  -1    0.19    0.23
   2 -18   1   -0.01    0.20
  -2  18   1    0.06    0.21
   2  18  -1    0.27    0.24
  -2  18  -1   -0.18    0.22
   2 -18  -1   -0.05    0.18
   2  18   1    0.48    0.25
  -2 -18   1    0.13    0.19
   3 -18   1    6.72    0.67
  -3  18  -1    7.26    0.69
   3 -18  -1    7.31    0.60
   0 -19   1    0.37    0.25
   0 -19  -1   -0.13    0.21
  -1 -19  -1   12.66    0.76
  -1  19   1   13.02    0.83
  -1 -19   1   12.37    0.76
  -2  19   1    0.02    0.24
  -2 -19   1    0.08    0.23
   0   0  -2   28.87    0.51
   0   0   2   29.43    0.51
   1   0  -2  223.70    3.32
   1   0   2  232.20    3.31
  -1   0   2  231.98    3.31
  -1   0  -2  228.19    3.38
   2   0   2   49.92    0.89
   2   0   2   50.05    0.79
  -2   0  -2   51.24    0.92
   2   0  -2   49.91    0.88
  -2   0   2   49.11    0.89
   3   0   2  122.26    2.02
   3   0   2  125.21    1.90
  -3   0   2  126.32    2.02
  -3   0  -2  124.36    2.04
  -3   0   2  123.94    1.86
   3   0  -2  124.79    2.00
   4   0  -2  267.71    4.14
  -4   0   2  269.03    4.11
   4   0   2  271.28    3.97
  -4   0  -2  268.46    4.12
   4   0   2  265.00    4.11
  -4   0   2  269.77    3.92
   4   0  -2  259.53    4.07
   5   0   2   10.13    0.34
   5   0  -2    9.28    0.38
  -5   0  -2    9.44    0.40
   5   0   2    9.75    0.42
   5   0  -2    9.23    0.43
  -5   0   2    9.36    0.30
  -6   0   2  166.15    2.66
   6   0  -2  166.60    2.96
  -6   0  -2  173.09    2.88
   6   0   2  167.32    2.93
   6   0  -2  167.94    2.84
   6   0   2  167.94    2.73
   7   0   2   43.61    1.18
  -7   0  -2   42.67    1.09
  -7   0   2   44.02    1.17
   7   0  -2   42.66    1.07
   7   0   2   44.67    1.00
   8   0  -2    6.44    0.40
  -8   0   2    6.07    0.45
  -8   0  -2    6.62    0.45
   8   0   2    6.01    0.35
   8   0   2    6.38    0.46
   9   0  -2   -0.07    0.12
   9   0   2   -0.05    0.15
  -9   0   2    0.07    0.16
 -10   0   2    0.41    0.23
  10   0   2    0.04    0.20
  10   0  -2    0.22    0.18
 -11   0   2    5.09    0.56
  11   0   2    3.64    0.52
  12   0   2    0.48    0.32
 -12   0   2    0.08    0.24
   0   1   2    0.03    0.04
   0  -1  -2    0.12    0.04
   0   1  -2    0.14    0.05
   0   1  -2    0.04    0.03
   1   1  -2  624.85    8.89
  -1  -1  -2  610.73    8.73
   1   1  -2  549.76    8.87
   1  -1   2  629.33    8.89
   1  -1   2  616.24    8.81
  -1  -1   2  630.72    8.90
   1  -1  -2  597.47    8.95
  -1   1  -2  580.66    8.66
   2   1  -2  390.77    5.60
  -2  -1  -2  390.05    5.66
  -2   1   2  382.46    5.58
   2  -1   2  394.16    5.56
   2   1  -2  368.95    5.59
   2  -1   2  385.42    5.53
   2   1   2  390.36    5.59
  -2  -1   2  398.28    5.56
  -2   1  -2  385.38    5.67
   2  -1  -2  375.95    5.60
   3   1  -2   18.00    0.48
  -3   1   2   17.42    0.48
   3   1  -2   17.62    0.46
   3   1  -2   17.78    0.39
   3  -1   2   17.65    0.41
   3  -1   2   18.23    0.48
  -3  -1  -2   17.52    0.48
   3   1   2   17.29    0.48
  -3   1  -2   17.51    0.49
   3   1   2   17.75    0.37
   3  -1  -2   17.83    0.46
   4  -1   2   39.96    0.89
   4  -1   2   40.49    0.80
  -4   1   2   39.96    0.90
   4   1  -2   39.23    0.90
   4   1  -2   38.65    0.85
  -4   1   2   40.71    0.71
  -4  -1  -2   40.96    0.88
  -4   1  -2   41.02    0.89
   4   1   2   40.79    0.76
   4   1   2   41.02    0.91
   4  -1  -2   40.42    0.87
  -4  -1   2   40.67    0.77
   5  -1   2   10.05    0.36
   5  -1   2   10.73    0.44
   5   1  -2   10.26    0.44
  -5  -1  -2   10.34    0.42
  -5   1   2   10.27    0.31
   5   1  -2   10.50    0.40
  -5  -1   2   10.53    0.34
  -5   1  -2   10.51    0.43
   5   1   2   10.01    0.44
   5  -1  -2   10.50    0.41
   5   1   2   10.21    0.34
  -6  -1  -2    1.34    0.21
  -6   1   2    1.66    0.17
   6   1  -2    1.31    0.20
   6  -1   2    1.46    0.23
   6  -1   2    1.61    0.19
  -6   1   2    1.54    0.24
   6   1  -2    1.18    0.21
   6  -1  -2    1.22    0.19
   6   1   2    1.37    0.17
  -6   1  -2    1.38    0.22
   6   1   2    0.99    0.19
  -6  -1   2    1.50    0.17
   7   1  -2    3.38    0.36
  -7  -1  -2    3.79    0.35
   7   1  -2    3.88    0.29
  -7   1   2    3.62    0.37
   7  -1   2    3.99    0.39
   7  -1   2    3.84    0.27
   7   1   2    4.13    0.26
   7  -1  -2    3.38    0.32
  -7   1  -2    3.78    0.36
   7   1   2    3.56    0.37
  -8   1   2   39.28    1.16
  -8  -1  -2   39.31    1.08
   8   1  -2   37.40    1.04
   8   1  -2   38.22    1.18
   8  -1   2   38.24    1.16
   8  -1   2   39.41    0.99
   8   1   2   38.24    1.16
  -8  -1   2   35.05    1.10
   8  -1  -2   38.48    1.06
   8   1   2   37.86    0.95
  -9   1   2   12.55    0.66
   9   1  -2   12.35    0.58
   9  -1   2   11.19    0.65
   9  -1  -2   12.04    0.59
   9   1   2   11.47    0.66
  -9  -1   2   12.67    0.67
  10   1  -2    5.79    0.43
 -10   1   2    5.42    0.55
  10  -1   2    4.61    0.54
 -10  -1   2    4.81    0.52
  10   1   2    5.21    0.55
  10  -1  -2    5.15    0.48
 -11   1   2    4.69    0.54
  11  -1   2    4.46    0.55
  11   1   2    4.14    0.53
 -11  -1   2    4.08    0.51
  11  -1  -2    4.06    0.46
 -12   1   2   -0.16    0.19
  12   1   2    0.45    0.29
 -12  -1   2    0.24    0.25
 -12   1  -2    0.54    0.26
   0   2  -2  147.45    2.26
   0   2   2  148.24    2.24
   0  -2   2  148.77    2.24
   0   2   2  150.51    2.23
   0  -2  -2  150.47    2.19
  -1   2   2   20.03    0.37
   1  -2   2   19.50    0.41
   1  -2   2   20.02    0.37
   1   2  -2   19.72    0.42
   1   2  -2   20.47    0.43
  -1   2   2   19.90    0.44
   1  -2  -2   20.17    0.42
   1   2   2   19.59    0.43
  -1   2  -2   20.56    0.46
   1   2   2   20.03    0.44
  -1  -2   2   19.70    0.37
  -2  -2  -2  149.86    2.34
   2  -2   2  145.16    2.25
  -2   2   2  146.01    2.30
   2   2  -2  147.65    2.29
   2   2  -2  147.04    2.26
   2  -2   2  149.65    2.25
   2   2  -2  148.82    2.26
   2   2   2  145.63    2.29
   2   2   2  147.93    2.15
  -2   2  -2  150.69    2.33
   3  -2   2   35.72    0.74
  -3   2   2   35.39    0.57
   3   2  -2   35.32    0.74
   3   2  -2   34.99    0.69
   3  -2   2   34.02    0.69
  -3  -2  -2   35.04    0.77
  -3   2   2   34.40    0.76
   3   2  -2   33.59    0.74
  -3   2  -2   35.33    0.76
   3  -2  -2   34.21    0.74
   3   2   2   34.04    0.76
   3   2   2   34.59    0.62
   4   2  -2  272.15    4.11
  -4   2   2  265.95    4.11
   4  -2   2  264.40    4.02
   4   2  -2  268.44    4.00
   4  -2   2  268.45    4.09
  -4   2   2  269.70    3.86
  -4  -2  -2  268.87    4.13
   4   2  -2  259.60    4.07
   4   2   2  262.69    3.92
   4   2   2  264.36    4.11
  -4   2  -2  267.86    4.12
   4  -2  -2  263.43    4.09
   5  -2   2    0.37    0.12
  -5   2   2    0.30    0.08
   5   2  -2    0.36    0.10
   5  -2   2    0.35    0.09
  -5  -2  -2    0.24    0.11
  -5   2   2    0.30    0.11
   5   2  -2    0.25    0.11
  -5   2  -2    0.21    0.12
   5   2   2    0.12    0.07
   5   2   2    0.22    0.11
   5  -2  -2    0.06    0.08
  -5  -2   2    0.20    0.08
   6  -2   2   59.42    1.23
  -6  -2  -2   60.58    1.30
   6   2  -2   58.71    1.27
   6   2  -2   58.38    1.35
   6  -2   2   61.34    1.36
  -6   2   2   60.05    1.36
   6   2   2   60.27    1.37
   6  -2  -2   60.34    1.30
   6   2   2   58.00    1.15
  -6   2  -2   58.99    1.27
  -6  -2   2   59.27    1.18
  -7   2   2    0.78    0.19
   7   2  -2    1.40    0.21
   7  -2   2    1.24    0.18
  -7  -2  -2    0.94    0.20
   7   2  -2    1.29    0.24
   7  -2   2    1.15    0.23
   7   2   2    0.87    0.20
   7   2   2    1.10    0.17
   7  -2  -2    1.40    0.22
  -7   2  -2    1.14    0.23
  -8   2   2   20.55    0.80
   8  -2   2   20.08    0.81
   8   2  -2   19.71    0.71
  -8  -2  -2   20.13    0.74
   8   2  -2   19.93    0.81
   8  -2   2   19.94    0.68
   8  -2  -2   20.10    0.73
   8   2   2   19.10    0.80
   9   2  -2    2.92    0.40
   9  -2   2    3.72    0.36
   9  -2   2    3.41    0.43
  -9   2   2    3.20    0.39
   9   2  -2    3.29    0.36
  -9  -2   2    3.00    0.39
   9  -2  -2    3.61    0.39
   9   2   2    3.01    0.41
  10  -2   2    2.01    0.39
 -10   2   2    2.04    0.36
  10   2  -2    2.63    0.35
  10  -2  -2    2.74    0.37
  10   2   2    2.73    0.41
 -10  -2   2    1.96    0.35
  11  -2   2    2.48    0.43
 -11   2   2    1.62    0.35
 -11  -2   2    1.82    0.37
  11  -2  -2    1.86    0.32
  11   2   2    1.97    0.39
 -12   2   2    2.97    0.48
  12   2   2    2.22    0.45
 -12  -2   2    3.47    0.52
 -12   2  -2    2.67    0.45
   0  -3   2    0.02    0.04
   0  -3  -2    0.12    0.04
   0   3   2    0.00    0.04
   0   3  -2   -0.05    0.06
   0   3   2    0.15    0.06
   1   3  -2  157.08    2.46
  -1   3   2  157.11    2.44
  -1   3   2  156.24    2.39
  -1  -3  -2  163.25    2.35
   1  -3   2  159.32    2.44
   1  -3   2  159.39    2.31
   1   3  -2  159.51    2.31
   1   3  -2  159.10    2.45
  -1   3  -2  162.96    2.48
   1   3   2  161.94    2.48
   1   3   2  158.82    2.42
   1  -3  -2  157.49    2.43
   2  -3   2   29.86    0.58
   2   3  -2   29.63    0.63
  -2   3   2   28.62    0.64
  -2   3   2   29.56    0.54
   2   3  -2   28.85    0.58
   2  -3   2   29.52    0.62
   2   3  -2   29.07    0.62
  -2  -3  -2   29.88    0.53
   2   3   2   28.86    0.66
   2  -3  -2   30.03    0.64
  -2   3  -2   29.53    0.65
   2   3   2   28.89    0.63
   3   3  -2    0.38    0.09
   3   3  -2    0.63    0.11
   3  -3   2    0.38    0.09
   3   3  -2    0.41    0.10
  -3  -3  -2    0.44    0.11
   3  -3   2    0.43    0.10
  -3   3   2    0.42    0.07
  -3   3   2    0.34    0.09
  -3   3  -2    0.45    0.12
   3   3   2    0.61    0.11
   3  -3  -2    0.49    0.10
   3   3   2    0.47    0.07
  -4   3   2  131.60    1.97
   4  -3   2  128.80    2.15
  -4  -3  -2  128.19    2.23
   4   3  -2  130.76    2.20
   4   3  -2  130.05    2.14
   4  -3   2  132.05    2.19
   4   3  -2  128.38    2.17
  -4   3   2  129.60    2.22
   4  -3  -2  127.96    2.20
   4   3   2  128.81    2.03
   4   3   2  129.30    2.22
  -4   3  -2  132.69    2.19
  -5   3   2   19.63    0.63
  -5   3   2   18.60    0.42
  -5  -3  -2   18.13    0.60
   5   3  -2   18.97    0.57
   5   3  -2   18.43    0.61
   5   3  -2   18.64    0.53
   5  -3   2   17.97    0.55
   5  -3   2   18.33    0.60
   5  -3  -2   18.72    0.59
  -5   3  -2   19.37    0.59
   5   3   2   18.60    0.62
   5   3   2   18.77    0.48
   6  -3   2   56.12    1.29
   6   3  -2   53.04    1.19
   6  -3   2   54.58    1.18
  -6   3   2   54.00    1.28
  -6  -3  -2   56.20    1.26
   6   3  -2   52.73    1.27
  -6  -3   2   54.94    1.15
   6   3   2   54.00    1.07
  -6   3  -2   57.24    1.21
   6   3   2   54.95    1.30
   6  -3  -2   54.23    1.23
  -7   3   2   -0.09    0.10
   7  -3   2   -0.12    0.08
   7   3  -2    0.01    0.13
  -7  -3  -2    0.05    0.12
   7  -3   2    0.01    0.13
   7   3  -2   -0.09    0.07
   7   3   2   -0.02    0.08
   7  -3  -2    0.00    0.10
  -7   3  -2    0.03    0.15
  -7  -3   2    0.15    0.12
   7   3   2    0.19    0.12
   8   3  -2   14.80    0.60
   8  -3   2   15.20    0.60
  -8   3   2   13.95    0.66
   8  -3   2   15.45    0.70
   8   3  -2   14.19    0.68
  -8  -3  -2   14.61    0.63
   8  -3  -2   14.77    0.62
   8   3   2   13.94    0.68
   9   3  -2   -0.22    0.13
  -9   3   2    0.23    0.19
   9  -3   2    0.48    0.16
   9  -3   2   -0.09    0.16
   9   3  -2    0.19    0.14
   9   3   2    0.05    0.15
   9  -3  -2    0.27    0.16
  10  -3   2   -0.09    0.18
 -10   3   2    0.08    0.18
  10   3   2    0.01    0.16
  10  -3  -2   -0.06    0.15
 -10  -3   2    0.25    0.19
 -11   3   2    1.09    0.32
 -11   3  -2    0.56    0.25
 -11  -3   2    1.56    0.36
  11  -3  -2    1.19    0.28
  11   3   2    0.96    0.30
 -12   3   2    2.35    0.45
  12   3   2    2.67    0.49
 -12   3  -2    2.08    0.42
 -12  -3   2    3.37    0.51
   0  -4  -2  138.02    2.11
   0  -4   2  135.13    2.15
   0   4   2  134.56    2.12
   0   4   2  137.49    2.16
   1   4  -2    0.30    0.05
  -1  -4  -2    0.23    0.06
  -1   4   2    0.23    0.06
   1  -4   2    0.40    0.08
  -1   4   2    0.41    0.09
   1   4  -2    0.43    0.09
   1   4   2    0.28    0.08
   1  -4  -2    0.29    0.07
  -1   4  -2    0.32    0.09
   1   4   2    0.35    0.07
  -1   4  -2    0.27    0.05
  -1  -4   2    0.23    0.06
  -2   4   2  112.19    1.76
   2  -4   2  112.84    1.74
  -2  -4  -2  111.91    1.73
  -2   4   2  111.31    1.84
   2   4  -2  111.37    1.87
   2   4  -2  112.03    1.74
   2  -4   2  111.39    1.85
   2   4  -2  108.43    1.84
   2   4   2  111.40    1.83
   2  -4  -2  113.63    1.87
  -2   4  -2  112.34    1.87
   2   4   2  111.22    1.90
  -3  -4  -2    3.88    0.17
   3   4  -2    3.70    0.21
   3  -4   2    3.70    0.22
   3  -4   2    4.00    0.21
  -3   4   2    3.86    0.17
   3   4  -2    3.51    0.20
  -3   4   2    4.22    0.25
   3   4  -2    3.80    0.22
   3   4   2    4.26    0.25
  -3   4  -2    3.59    0.23
   3   4   2    3.87    0.22
   3  -4  -2    3.57    0.22
  -4   4   2    9.10    0.40
   4   4  -2    9.24    0.36
   4  -4   2    9.65    0.37
   4  -4   2    9.46    0.38
  -4   4   2    9.74    0.28
   4   4  -2    9.46    0.37
  -4  -4  -2    9.50    0.41
   4   4  -2    9.86    0.38
   4   4   2    9.32    0.39
   4   4   2    9.17    0.29
  -4   4  -2    9.08    0.37
   4  -4  -2    9.30    0.39
   5   4  -2   23.76    0.66
  -5  -4  -2   25.94    0.75
   5  -4   2   23.86    0.67
  -5   4   2   24.54    0.73
  -5   4   2   24.31    0.53
   5   4  -2   23.56    0.70
   5   4  -2   24.02    0.67
   5  -4   2   25.36    0.72
  -5   4  -2   25.00    0.68
   5   4   2   24.71    0.73
   5  -4  -2   24.54    0.71
   5   4   2   23.76    0.57
  -6  -4  -2   12.18    0.53
  -6   4   2   12.77    0.56
   6   4  -2   11.81    0.48
   6  -4   2   11.79    0.52
   6  -4   2   12.30    0.49
   6   4  -2   12.36    0.54
   6   4  -2   11.93    0.47
   6  -4  -2   12.55    0.52
  -6   4  -2   13.33    0.51
   6   4   2   12.53    0.41
   6   4   2   12.00    0.54
  -7  -4  -2    3.80    0.36
   7  -4   2    3.14    0.35
  -7   4   2    3.37    0.36
   7   4  -2    4.43    0.36
   7  -4   2    3.71    0.30
   7   4  -2    4.36    0.31
  -7  -4   2    4.17    0.31
   7  -4  -2    4.14    0.33
  -7   4  -2    4.08    0.34
   7   4   2    4.56    0.36
   8   4  -2   32.26    0.95
   8   4  -2   34.23    1.08
  -8  -4  -2   32.74    1.01
   8  -4   2   33.74    0.97
  -8   4   2   33.54    1.07
   8  -4   2   31.45    1.04
   8   4   2   33.95    1.09
   8  -4  -2   34.77    1.03
   9   4  -2   -0.11    0.13
   9   4  -2   -0.03    0.11
   9  -4   2    0.08    0.17
   9  -4   2    0.17    0.14
  -9   4   2    0.05    0.18
   9  -4  -2    0.41    0.17
   9   4   2    0.21    0.18
 -10   4   2   27.10    1.07
  10   4  -2   27.79    1.11
  10  -4  -2   27.80    1.00
 -10   4  -2   27.01    1.04
 -10  -4   2   26.86    1.05
  10   4   2   28.69    1.13
 -11   4   2    0.12    0.23
 -11   4  -2    0.23    0.20
 -11  -4   2    0.01    0.18
  11   4   2    0.44    0.26
  11  -4  -2    0.27    0.18
 -12   4   2   12.21    0.82
  12   4   2   11.46    0.81
 -12   4  -2   12.93    0.82
 -12  -4   2   11.32    0.79
   0   5   2    0.10    0.07
   0  -5  -2    0.06    0.06
   0   5   2    0.00    0.06
   0   5  -2    0.06    0.08
   0  -5   2   -0.13    0.04
   1   5  -2   82.79    1.52
   1  -5   2   81.78    1.49
  -1  -5  -2   86.91    1.42
   1   5  -2   81.90    1.27
  -1   5   2   83.71    1.45
  -1   5   2   83.95    1.45
  -1   5  -2   84.93    1.51
  -1  -5   2   84.46    1.48
   1   5   2   86.34    1.53
   1  -5  -2   84.70    1.47
   1   5   2   85.91    1.43
  -1   5  -2   86.33    1.28
  -2   5   2    1.65    0.13
   2  -5   2    1.66    0.18
  -2  -5  -2    1.73    0.12
  -2   5   2    1.70    0.17
   2   5  -2    1.71    0.18
   2   5  -2    1.89    0.13
  -2   5  -2    1.77    0.12
   2   5   2    1.75    0.19
  -2   5  -2    1.65    0.18
  -2  -5   2    1.83    0.16
   2  -5  -2    1.46    0.16
   2   5   2    1.70    0.17
   3   5  -2   10.50    0.40
  -3   5   2   10.99    0.41
  -3  -5  -2   10.87    0.32
   3   5  -2   11.07    0.36
   3   5  -2   11.54    0.40
  -3   5   2   11.15    0.33
   3  -5   2   11.01    0.41
   3   5   2   10.28    0.38
  -3   5  -2   10.86    0.40
  -3   5  -2   10.60    0.35
   3   5   2   10.74    0.43
   3  -5  -2   10.78    0.41
   4   5  -2    5.93    0.30
  -4   5   2    5.32    0.31
   4  -5   2    6.20    0.32
  -4  -5  -2    5.40    0.23
   4   5  -2    5.86    0.31
   4  -5   2    5.50    0.30
  -4   5   2    5.84    0.24
   4   5  -2    5.58    0.29
   4   5   2    5.76    0.31
  -4   5  -2    5.61    0.31
   4  -5  -2    6.03    0.32
   4   5   2    6.31    0.34
   5   5  -2    0.28    0.11
   5  -5   2    0.14    0.11
   5  -5   2    0.47    0.15
  -5   5   2    0.49    0.15
   5   5  -2    0.61    0.15
  -5   5   2    0.54    0.11
   5   5  -2    0.46    0.13
  -5  -5  -2    0.20    0.13
  -5   5  -2    0.31    0.14
   5   5   2    0.03    0.10
   5  -5  -2    0.51    0.14
   5   5   2    0.21    0.08
   6   5  -2   27.57    0.78
   6   5  -2   28.50    0.80
   6   5  -2   28.59    0.85
  -6   5   2   26.99    0.84
  -6  -5  -2   28.10    0.86
   6  -5   2   26.90    0.80
   6  -5   2   28.11    0.84
   6   5   2   27.17    0.67
  -6   5  -2   28.62    0.78
   6   5   2   26.97    0.85
   6  -5  -2   27.49    0.84
  -7  -5  -2    9.53    0.52
   7   5  -2   11.27    0.56
  -7   5   2   11.03    0.57
   7  -5   2   11.24    0.57
   7  -5   2   11.03    0.51
   7   5  -2   11.33    0.50
   7   5   2   11.27    0.57
   7  -5  -2   12.01    0.56
  -7  -5   2   10.64    0.49
   8   5  -2    0.11    0.12
   8  -5   2    0.12    0.13
  -8  -5  -2    0.10    0.14
  -8   5   2    0.02    0.14
   8   5  -2   -0.02    0.16
   8  -5  -2   -0.03    0.11
  -8   5  -2   -0.07    0.11
   8   5   2   -0.20    0.12
   9   5  -2    0.14    0.18
  -9   5   2   -0.08    0.16
   9   5  -2    0.09    0.13
   9  -5   2    0.09    0.14
  -9  -5  -2    0.12    0.17
   9  -5  -2   -0.06    0.11
   9   5   2   -0.11    0.14
  -9   5  -2   -0.13    0.13
 -10   5   2    0.26    0.21
  10  -5   2    0.40    0.19
  10   5  -2    0.20    0.20
 -10   5  -2    0.56    0.23
  10  -5  -2    0.37    0.19
  10   5   2    0.43    0.21
 -11   5   2    5.73    0.61
  11  -5  -2    5.49    0.54
 -11   5  -2    6.30    0.63
  11   5   2    5.81    0.63
 -11  -5   2    5.63    0.61
 -12   5   2    2.25    0.45
 -12  -5   2    2.92    0.49
 -12   5  -2    2.70    0.47
  12   5   2    2.19    0.46
  12  -5  -2    2.55    0.41
   0   6  -2   36.88    0.86
   0  -6   2   37.51    0.83
   0  -6  -2   37.29    0.79
   0   6   2   36.64    0.83
   0   6   2   37.26    0.76
   1  -6   2   11.83    0.42
  -1  -6  -2   12.25    0.37
   1   6  -2   11.63    0.25
   1   6  -2   11.91    0.44
  -1   6   2   12.04    0.39
  -1   6   2   12.03    0.40
  -1  -6   2   12.24    0.41
   1   6   2   12.00    0.37
   1   6   2   11.36    0.42
  -1   6  -2   11.29    0.42
  -1   6  -2   12.09    0.27
   1  -6  -2   12.41    0.42
   2   6  -2  274.47    4.35
  -2   6   2  279.12    4.23
  -2  -6  -2  280.72    4.17
   2   6  -2  278.77    4.06
  -2   6   2  277.23    4.22
   2  -6   2  273.63    4.30
  -2  -6   2  282.11    4.29
  -2   6  -2  279.98    4.06
  -2   6  -2  277.32    4.32
   2   6   2  280.22    4.37
   2  -6  -2  279.64    4.30
   2   6   2  277.60    4.20
  -3   6   2    9.13    0.38
   3   6  -2    8.77    0.40
  -3   6   2    9.30    0.33
   3  -6   2    9.58    0.40
   3   6  -2    8.44    0.31
  -3  -6  -2    9.68    0.32
   3   6   2    9.26    0.37
  -3  -6   2    9.45    0.38
  -3   6  -2    9.04    0.32
   3   6   2    9.10    0.41
   3  -6  -2    9.95    0.41
  -3   6  -2    9.95    0.40
  -4   6   2    0.23    0.09
  -4   6   2   -0.03    0.10
  -4  -6  -2    0.24    0.08
   4   6  -2    0.37    0.11
   4   6  -2    0.23    0.11
   4   6  -2    0.12    0.09
   4  -6   2    0.07    0.08
   4  -6  -2    0.17    0.10
  -4   6  -2    0.21    0.09
   4   6   2    0.12    0.09
   4   6   2    0.40    0.14
  -4   6  -2    0.16    0.11
  -5   6   2   11.22    0.50
   5  -6   2   11.21    0.48
  -5   6   2   10.87    0.37
   5   6  -2   10.85    0.46
   5   6  -2   11.50    0.46
   5   6  -2   10.44    0.47
  -5  -6  -2   10.82    0.37
   5  -6  -2   10.62    0.48
  -5   6  -2   10.89    0.46
  -5   6  -2   10.58    0.44
   5   6   2   11.28    0.49
   5   6   2   11.03    0.51
   6   6  -2   -0.18    0.07
  -6  -6  -2   -0.01    0.11
   6  -6   2    0.22    0.12
   6   6  -2    0.02    0.08
  -6   6   2    0.15    0.15
   6   6  -2   -0.10    0.08
  -6   6  -2    0.15    0.14
  -6   6  -2   -0.09    0.10
   6   6   2    0.10    0.11
   6  -6  -2    0.05    0.11
   6   6   2    0.00    0.08
   7  -6   2    4.58    0.35
  -7  -6  -2    3.76    0.39
  -7   6   2    4.33    0.41
   7   6  -2    4.22    0.32
   7   6  -2    3.70    0.38
   7   6  -2    3.86    0.32
   7  -6  -2    3.90    0.39
   7   6   2    3.72    0.38
  -7   6  -2    4.17    0.39
  -8  -6  -2   39.73    1.18
   8  -6   2   37.68    1.10
   8   6  -2   39.85    1.19
   8   6  -2   41.03    1.09
  -8   6   2   39.00    1.19
   8  -6  -2   39.98    1.17
   8   6   2   38.49    1.20
  -8   6  -2   39.39    1.15
   9  -6   2    0.62    0.20
  -9   6   2    0.73    0.25
   9   6  -2    0.57    0.22
  -9  -6  -2    0.55    0.20
  -9   6  -2    0.89    0.25
   9  -6  -2    0.60    0.20
   9   6   2    0.93    0.27
  10   6  -2   28.57    1.11
  10  -6   2   27.22    0.98
 -10   6   2   26.39    1.07
  10  -6  -2   26.16    1.01
  10   6   2   26.70    1.09
 -10   6  -2   26.16    1.04
 -11   6   2   -0.06    0.23
  11   6   2    0.20    0.22
 -11  -6   2    0.05    0.21
  11  -6  -2    0.30    0.20
 -11   6  -2    0.00    0.20
  12  -6  -2   10.66    0.71
 -12   6  -2   11.27    0.78
 -12  -6   2   12.14    0.80
   0   7   2   -0.02    0.06
   0   7   2   -0.05    0.05
   0  -7   2    0.00    0.06
   0   7  -2    0.14    0.09
   0  -7  -2    0.11    0.07
  -1   7   2  122.95    2.06
   1   7  -2  124.83    2.22
  -1   7   2  124.25    2.14
   1   7  -2  123.10    1.84
   1  -7   2  124.16    2.17
  -1  -7  -2  127.49    2.09
   1   7   2  126.36    2.04
  -1  -7   2  124.91    2.15
  -1   7  -2  120.77    1.84
   1   7   2  126.26    2.21
  -1   7  -2  124.49    2.20
   1  -7  -2  125.52    2.15
  -2   7   2   34.21    0.79
  -2  -7  -2   34.71    0.76
   2   7  -2   31.73    0.85
   2  -7   2   33.70    0.85
   2   7  -2   33.07    0.64
  -2   7   2   33.15    0.78
  -2   7  -2   33.61    0.85
   2  -7  -2   32.62    0.83
  -2  -7   2   32.06    0.80
  -2   7  -2   33.51    0.66
   2   7   2   32.90    0.87
   2   7   2   32.70    0.75
  -3  -7  -2    0.45    0.10
  -3   7   2    0.51    0.14
   3   7  -2    0.73    0.12
  -3   7   2    0.37    0.11
   3  -7   2    0.65    0.15
   3   7  -2    0.44    0.13
   3   7   2    0.48    0.12
  -3  -7   2    0.46    0.12
   3  -7  -2    0.24    0.12
   3   7   2    0.34    0.12
  -3   7  -2    0.67    0.12
  -3   7  -2    1.21    0.19
   4   7  -2    8.34    0.43
  -4   7   2    8.95    0.36
   4   7  -2    8.96    0.37
  -4  -7  -2    8.75    0.34
   4  -7   2    9.34    0.43
  -4   7   2    9.10    0.43
  -4  -7   2    9.12    0.41
   4   7   2    9.07    0.46
  -4   7  -2    8.72    0.41
   4   7   2    8.95    0.41
  -4   7  -2    8.72    0.37
   4  -7  -2    9.65    0.45
  -5   7   2    2.90    0.31
   5   7  -2    2.53    0.26
   5   7  -2    2.27    0.25
   5  -7   2    2.64    0.30
   5   7  -2    2.55    0.28
  -5  -7  -2    3.24    0.22
  -5   7  -2    2.87    0.27
   5   7   2    2.81    0.29
  -5   7  -2    2.60    0.28
   5  -7  -2    2.89    0.31
   5   7   2    2.26    0.28
   6  -7   2    3.72    0.36
  -6   7   2    4.13    0.34
  -6  -7  -2    3.84    0.40
   6   7  -2    4.36    0.31
   6   7  -2    4.34    0.33
   6   7  -2    3.83    0.32
   6   7   2    4.02    0.38
  -6   7  -2    4.16    0.32
   6  -7  -2    4.06    0.33
  -6   7  -2    4.71    0.33
   7   7  -2    7.54    0.42
   7  -7   2    6.71    0.43
   7   7  -2    7.08    0.44
   7   7  -2    7.26    0.46
  -7  -7  -2    6.53    0.47
  -7   7   2    7.97    0.49
   7   7   2    7.64    0.48
  -7   7  -2    7.31    0.45
   7  -7  -2    7.06    0.45
  -8   7   2    7.83    0.53
   8  -7   2    8.56    0.50
   8   7  -2    6.93    0.43
   8   7  -2    8.00    0.52
  -8  -7  -2    8.29    0.54
  -8   7  -2    9.48    0.54
   8   7   2    8.89    0.55
   8  -7  -2    8.01    0.51
  -8  -7   2    8.10    0.50
   9   7  -2    3.28    0.43
  -9  -7  -2    3.17    0.41
  -9   7   2    3.48    0.44
   9  -7   2    2.70    0.36
   9  -7  -2    3.59    0.41
  -9   7  -2    3.36    0.41
   9   7   2    4.14    0.47
 -10   7   2    0.11    0.22
  10  -7   2    0.43    0.19
  10   7  -2    0.35    0.24
  10  -7  -2    0.96    0.26
  10   7   2    0.35    0.22
 -10   7  -2    0.57    0.25
 -11   7   2    0.33    0.27
 -11  -7   2    0.36    0.26
  11   7   2    0.27    0.26
  11  -7  -2    0.45    0.21
 -11   7  -2    0.18    0.25
  12  -7  -2    2.53    0.43
 -12   7  -2    1.98    0.43
   0   8  -2   90.87    1.77
   0  -8  -2   90.73    1.67
   0  -8   2   90.39    1.71
   0   8   2   88.54    1.72
   0   8   2   89.56    1.57
   1   8  -2   80.53    1.25
  -1   8   2   81.47    1.49
  -1   8   2   80.84    1.58
  -1  -8  -2   82.65    1.53
   1   8  -2   82.92    1.67
   1  -8   2   83.79    1.62
   1   8   2   82.87    1.47
   1  -8  -2   82.83    1.59
   1   8   2   81.59    1.64
  -1   8  -2   81.85    1.26
  -1  -8   2   83.21    1.59
  -1   8  -2   81.10    1.63
   2   8  -2   35.56    0.96
  -2   8   2   37.91    0.89
   2  -8   2   35.90    0.93
  -2  -8  -2   36.55    0.84
   2   8  -2   35.56    0.69
  -2   8   2   37.27    0.86
   2  -8  -2   37.62    0.93
  -2  -8   2   37.35    0.91
   2   8   2   35.70    0.82
   2   8   2   36.39    0.97
  -2   8  -2   35.08    0.92
  -2   8  -2   36.21    0.72
  -3   8   2   25.25    0.71
   3   8  -2   24.31    0.59
   3  -8   2   24.97    0.76
   3   8  -2   24.27    0.77
  -3  -8  -2   24.16    0.64
  -3   8   2   24.11    0.67
   3   8   2   24.67    0.79
  -3   8  -2   25.92    0.61
   3  -8  -2   26.61    0.78
  -3  -8   2   24.64    0.72
   3   8   2   24.26    0.68
  -3   8  -2   24.35    0.74
   4  -8   2   12.79    0.54
  -4   8   2   12.84    0.53
   4   8  -2   13.40    0.46
   4   8  -2   12.89    0.56
  -4  -8  -2   12.91    0.44
  -4   8   2   13.36    0.47
   4   8   2   12.61    0.50
  -4   8  -2   12.67    0.46
  -4   8  -2   13.46    0.53
   4  -8  -2   12.92    0.56
  -4  -8   2   12.86    0.51
   4   8   2   12.27    0.56
   5   8  -2    2.77    0.32
   5   8  -2    2.59    0.27
   5  -8   2    2.17    0.28
  -5   8   2    2.65    0.31
  -5  -8  -2    2.32    0.23
   5   8   2    2.66    0.29
  -5  -8   2    2.55    0.27
  -5   8  -2    2.65    0.27
  -5   8  -2    2.57    0.28
   5   8   2    1.92    0.28
   5  -8  -2    2.43    0.30
   6  -8   2    0.23    0.14
   6   8  -2    0.49    0.18
   6   8  -2    0.35    0.17
   6   8  -2    0.90    0.18
  -6   8   2    0.34    0.18
   6  -8  -2    0.59    0.18
   6   8   2    0.21    0.14
   6   8   2    0.16    0.12
  -6   8  -2    0.16    0.14
  -6   8  -2    0.46    0.16
   7   8  -2    0.53    0.19
   7   8  -2    0.31    0.15
   7  -8   2    0.51    0.19
  -7  -8  -2    0.68    0.23
   7   8  -2    0.64    0.21
  -7   8   2    0.59    0.21
   7  -8  -2    0.46    0.18
  -7   8  -2    0.58    0.19
   7   8   2    0.09    0.15
  -8  -8  -2    2.06    0.36
   8   8  -2    2.04    0.33
   8   8  -2    2.21    0.33
  -8   8   2    2.18    0.35
   8  -8   2    2.84    0.37
  -8   8  -2    2.43    0.34
   8  -8  -2    2.48    0.35
   8   8   2    2.40    0.36
   9  -8   2    0.38    0.20
  -9   8   2    0.17    0.19
   9   8  -2    0.26    0.21
  -9  -8  -2    0.49    0.23
  -9   8  -2    0.00    0.18
   9   8   2    0.40    0.23
   9  -8  -2    0.36    0.19
  10   8  -2    7.37    0.59
 -10   8   2    7.60    0.59
  10  -8   2    7.22    0.54
 -10   8  -2    8.26    0.58
  10  -8  -2    6.74    0.53
  10   8   2    7.99    0.60
 -11   8   2    0.28    0.25
 -11   8  -2    0.28    0.26
  11  -8  -2    0.75    0.28
  11   8   2    0.60    0.29
 -11  -8   2    0.88    0.30
   0   9   2    0.04    0.09
   0  -9   2   -0.01    0.08
   0  -9  -2   -0.13    0.07
   0   9  -2    0.16    0.11
   0   9   2    0.09    0.08
  -1   9   2   21.85    0.69
  -1   9   2   21.39    0.60
  -1  -9  -2   23.25    0.66
   1   9  -2   22.84    0.75
   1  -9   2   22.51    0.71
   1   9   2   22.17    0.73
   1   9   2   22.69    0.60
  -1   9  -2   22.19    0.73
  -1  -9   2   21.85    0.69
   1  -9  -2   22.11    0.69
   2   9  -2   12.61    0.55
  -2  -9  -2   12.81    0.47
  -2   9   2   12.57    0.50
   2  -9   2   13.07    0.54
  -2   9   2   12.92    0.47
   2   9   2   13.26    0.45
   2   9   2   13.76    0.57
  -2   9  -2   13.76    0.56
  -2  -9   2   12.66    0.51
   2  -9  -2   13.06    0.53
  -3   9   2   39.34    0.95
   3  -9   2   36.74    1.01
   3   9  -2   36.26    1.04
  -3   9   2   37.06    0.93
  -3  -9  -2   38.10    0.90
  -3   9  -2   38.88    1.01
   3   9   2   37.42    0.90
   3   9   2   37.07    1.05
  -3  -9   2   37.69    0.97
   3  -9  -2   37.74    1.02
  -4   9   2   46.79    1.13
   4   9  -2   47.36    1.24
  -4   9   2   44.78    1.07
   4  -9   2   47.16    1.21
  -4  -9  -2   47.91    1.05
   4   9   2   46.53    1.10
  -4  -9   2   48.09    1.15
   4  -9  -2   47.28    1.21
  -4   9  -2   46.48    1.16
   5   9  -2   61.60    1.50
   5  -9   2   59.85    1.46
  -5   9   2   60.93    1.42
   5   9   2   61.93    1.39
  -5  -9   2   62.42    1.39
   5   9   2   61.43    1.52
  -5   9  -2   60.24    1.39
   5  -9  -2   59.87    1.47
   6   9  -2   24.83    0.89
  -6   9   2   23.49    0.83
   6  -9   2   24.36    0.88
   6   9   2   25.48    0.85
   6   9   2   24.59    0.91
  -6   9  -2   24.58    0.79
  -6  -9   2   24.86    0.81
   6  -9  -2   25.86    0.91
   7  -9   2    0.94    0.23
  -7  -9  -2    0.72    0.24
   7   9  -2    0.70    0.23
  -7   9   2    0.80    0.24
   7  -9  -2    0.58    0.20
   7   9   2    0.61    0.20
  -7  -9   2    0.75    0.19
  -8   9   2    7.77    0.54
   8   9  -2    8.14    0.54
   8  -9   2    7.88    0.53
  -8  -9  -2    7.58    0.56
   8   9   2    8.12    0.55
   8  -9  -2    7.99    0.54
  -9  -9  -2    2.33    0.38
   9  -9   2    1.51    0.30
  -9   9   2    1.59    0.34
   9   9   2    1.65    0.35
   9  -9  -2    1.70    0.32
 -10   9   2   -0.03    0.21
  10  -9   2   -0.07    0.17
  10  -9  -2   -0.07    0.18
  10   9   2   -0.18    0.17
 -11   9   2   -0.16    0.25
  11  -9   2    0.47    0.23
  11  -9  -2    0.09    0.19
  11   9   2    0.33    0.25
   0  10  -2    1.72    0.27
   0 -10   2    1.74    0.25
   0  10   2    0.99    0.20
   0 -10  -2    1.31    0.21
   0  10   2    1.50    0.18
   1  10  -2    1.09    0.21
  -1  10   2    1.54    0.23
   1 -10   2    1.34    0.22
  -1  10   2    1.39    0.18
  -1 -10  -2    0.88    0.17
  -1  10  -2    1.61    0.25
  -1 -10   2    1.15    0.19
   1  10   2    1.30    0.17
   1  10   2    0.86    0.19
   1 -10  -2    1.64    0.23
  -2  10   2   30.59    0.79
   2 -10   2   30.61    0.91
  -2  10   2   28.13    0.84
  -2 -10  -2   29.93    0.81
   2  10  -2   30.14    0.94
  -2 -10   2   29.78    0.86
   2 -10  -2   30.74    0.90
  -2  10  -2   30.28    0.91
   2  10   2   29.93    0.93
   2  10   2   30.61    0.76
  -3 -10  -2    3.36    0.26
   3 -10   2    2.90    0.32
  -3  10   2    3.24    0.31
  -3  10   2    3.12    0.31
   3  10  -2    3.04    0.35
   3  10   2    3.05    0.25
  -3  10  -2    2.26    0.29
  -3 -10   2    2.83    0.30
   3 -10  -2    2.69    0.33
   3  10   2    2.50    0.32
   4  10  -2   85.38    1.90
  -4 -10  -2   88.04    1.68
  -4  10   2   87.24    1.72
   4 -10   2   85.72    1.87
  -4  10   2   85.78    1.74
  -4  10  -2   86.83    1.81
   4  10   2   85.15    1.70
  -4 -10   2   83.43    1.75
   4 -10  -2   84.34    1.86
   4  10   2   85.19    1.91
  -5  10   2   18.02    0.69
   5 -10   2   18.17    0.74
   5  10  -2   17.12    0.74
  -5  10  -2   17.21    0.68
   5  10   2   19.19    0.68
  -5 -10   2   17.00    0.66
   5  10   2   17.99    0.77
   5 -10  -2   16.96    0.73
  -6  10   2   79.03    1.77
   6  10  -2   79.29    1.86
   6 -10   2   77.95    1.83
   6  10   2   81.02    1.75
  -6 -10   2   76.20    1.70
   6  10   2   76.75    1.88
   6 -10  -2   77.52    1.84
   7  10  -2    5.24    0.50
   7 -10   2    5.28    0.51
  -7 -10  -2    5.44    0.54
  -7  10   2    5.13    0.49
   7  10   2    4.84    0.50
   7  10   2    5.14    0.42
  -7 -10   2    6.27    0.42
   7 -10  -2    4.59    0.47
   8 -10   2   10.06    0.61
   8  10  -2   10.59    0.63
  -8  10   2    9.04    0.59
  -8 -10  -2   10.07    0.65
   8 -10  -2    9.39    0.60
   8  10   2    9.72    0.60
   9 -10   2    0.01    0.17
  -9 -10  -2    0.07    0.22
  -9  10   2    0.00    0.19
   9 -10  -2    0.03    0.17
   9  10   2    0.11    0.20
  10 -10   2    1.46    0.33
  10 -10  -2    1.49    0.32
  11 -10   2    0.17    0.21
   0 -11   2   -0.13    0.08
   0  11  -2    0.03    0.12
   0  11   2   -0.01    0.11
   0 -11  -2    0.00    0.09
  -1 -11  -2    5.78    0.36
   1  11  -2    5.84    0.42
   1 -11   2    5.67    0.40
  -1  11   2    6.04    0.40
  -1  11  -2    5.71    0.41
   1 -11  -2    6.35    0.40
  -1 -11   2    5.44    0.37
   1  11   2    6.46    0.42
  -2 -11  -2   12.40    0.52
  -2  11   2   12.74    0.55
   2 -11   2   11.45    0.56
   2  11  -2   12.52    0.60
  -2 -11   2   12.38    0.55
   2  11   2   12.07    0.60
   2 -11  -2   12.68    0.58
  -2  11  -2   11.84    0.58
   3 -11   2    1.57    0.26
  -3  11   2    1.54    0.25
   3  11  -2    1.45    0.26
  -3 -11  -2    1.59    0.23
   3  11   2    1.41    0.26
  -3 -11   2    1.81    0.25
  -3  11  -2    1.48    0.26
   3 -11  -2    1.99    0.29
   4  11  -2    0.48    0.18
  -4 -11  -2    0.40    0.15
   4 -11   2    0.57    0.19
  -4  11   2    0.33    0.16
  -4 -11   2    0.36    0.16
   4  11   2    0.43    0.18
  -4  11  -2    0.29    0.17
   4 -11  -2    0.35    0.17
   5 -11   2    5.84    0.44
   5  11  -2    6.47    0.49
   5  11   2    5.41    0.45
   5 -11  -2    5.70    0.45
  -5  11  -2    6.37    0.44
  -5 -11   2    6.04    0.40
   6  11  -2    6.18    0.48
   6 -11   2    4.53    0.46
  -6 -11   2    6.14    0.42
   6 -11  -2    5.55    0.45
   6  11   2    6.16    0.49
   7 -11   2   16.65    0.79
   7  11  -2   17.31    0.82
   7 -11  -2   16.08    0.79
   7  11   2   18.79    0.87
  -8 -11  -2    0.39    0.24
   8  11  -2    0.96    0.27
   8 -11   2    0.29    0.18
   8 -11  -2    0.43    0.22
  -9 -11  -2    0.86    0.32
   9 -11   2    1.34    0.31
   9 -11  -2    0.73    0.26
 -10 -11  -2   -0.06    0.21
  10 -11   2   -0.06    0.18
  10 -11  -2   -0.18    0.17
   0 -12  -2    0.04    0.12
   0  12  -2    0.15    0.14
   0  12   2    0.02    0.14
   0 -12   2    0.07    0.11
   1  12  -2    0.34    0.17
  -1 -12  -2    0.46    0.16
  -1  12   2    0.66    0.18
   1 -12   2    0.62    0.19
  -1  12  -2    0.04    0.14
  -1 -12   2    0.26    0.14
   1 -12  -2    0.45    0.17
   1  12   2    0.55    0.19
  -2  12   2    4.96    0.38
  -2 -12  -2    4.28    0.34
   2 -12   2    5.10    0.40
   2  12  -2    4.77    0.39
  -2  12  -2    4.72    0.39
   2 -12  -2    4.81    0.38
  -2 -12   2    4.86    0.37
   2  12   2    5.48    0.43
  -3 -12  -2    0.44    0.16
  -3  12   2    0.27    0.16
   3  12  -2    0.26    0.16
   3 -12   2    0.24    0.17
   3  12   2    0.27    0.17
  -3  12  -2    0.23    0.18
  -3 -12   2    0.17    0.13
   3 -12  -2    0.37    0.18
   4  12  -2   48.07    1.39
   4 -12   2   45.64    1.32
  -4 -12   2   46.94    1.24
   4 -12  -2   47.90    1.34
   4  12   2   46.41    1.37
  -4  12  -2   47.54    1.30
   5  12  -2    4.35    0.46
   5 -12   2    3.84    0.43
  -5  12  -2    4.66    0.45
  -5 -12   2    4.63    0.37
   5  12   2    4.70    0.49
   5 -12  -2    3.77    0.42
   6  12  -2   37.67    1.25
   6 -12   2   37.83    1.23
  -6 -12   2   37.65    1.11
   6  12   2   35.25    1.24
   6 -12  -2   34.34    1.19
   7 -12   2    0.23    0.18
   7  12  -2    0.14    0.18
   7 -12  -2    0.23    0.19
   7  12   2    0.03    0.18
   8 -12   2    5.17    0.55
  -8 -12  -2    4.01    0.54
   8  12  -2    3.79    0.49
   8 -12  -2    5.08    0.55
  -9 -12  -2    5.03    0.62
   9 -12   2    6.93    0.66
   9 -12  -2    4.67    0.54
 -10 -12  -2    0.49    0.31
   0  13  -2    0.03    0.16
   0 -13   2   -0.06    0.12
   0  13   2   -0.18    0.14
   0 -13  -2    0.06    0.13
  -1 -13  -2    2.17    0.30
  -1  13   2    2.42    0.33
   1  13  -2    2.35    0.35
   1 -13   2    2.41    0.33
   1 -13  -2    2.07    0.31
  -1  13  -2    2.77    0.38
   1  13   2    2.76    0.36
  -1 -13   2    2.37    0.32
   2 -13   2    1.51    0.28
  -2 -13  -2    2.13    0.29
  -2  13   2    1.86    0.29
   2  13  -2    1.80    0.32
  -2 -13   2    1.87    0.29
  -2  13  -2    2.22    0.33
   2  13   2    1.79    0.32
   2 -13  -2    1.34    0.26
  -3 -13  -2    0.01    0.12
   3  13  -2   -0.08    0.13
  -3  13   2   -0.21    0.12
   3 -13   2    0.08    0.15
   3  13   2    0.01    0.14
  -3  13  -2    0.09    0.16
   3 -13  -2    0.03    0.15
  -3 -13   2   -0.03    0.12
   4  13  -2    1.24    0.29
   4 -13   2    1.44    0.28
   4 -13  -2    1.17    0.27
   4  13   2    1.45    0.30
  -4  13  -2    1.02    0.24
  -4 -13   2    2.00    0.29
   5  13  -2    0.29    0.19
   5 -13   2   -0.17    0.13
   5 -13  -2    0.02    0.18
   5  13   2   -0.15    0.13
  -5 -13   2    0.14    0.15
  -5  13  -2    0.36    0.19
   6 -13   2    4.20    0.48
   6  13  -2    3.29    0.44
   6  13   2    3.97    0.49
   6 -13  -2    3.71    0.45
   7  13  -2    3.46    0.47
   7 -13   2    3.28    0.45
   7  13   2    2.99    0.44
   7 -13  -2    2.80    0.42
  -8 -13  -2    1.32    0.37
   8  13  -2    0.89    0.30
   8 -13   2    0.67    0.28
   8 -13  -2    1.09    0.29
   9 -13   2    1.79    0.37
  -9 -13  -2    2.37    0.45
   0  14  -2   51.32    1.49
   0 -14   2   50.21    1.40
   0 -14  -2   53.15    1.39
   0  14   2   52.88    1.47
  -1  14   2    6.48    0.49
  -1 -14  -2    5.80    0.43
   1 -14   2    6.32    0.46
   1  14  -2    5.97    0.48
   1 -14  -2    6.38    0.48
  -1  14  -2    6.07    0.48
  -1 -14   2    6.64    0.46
   1  14   2    5.66    0.54
   2  14  -2    5.95    0.50
  -2 -14  -2    5.35    0.41
  -2  14   2    5.42    0.44
   2 -14   2    5.63    0.45
   2 -14  -2    5.52    0.44
  -2 -14   2    6.04    0.44
  -2  14  -2    5.38    0.52
   2  14   2    5.77    0.48
   3 -14   2    0.23    0.17
   3  14  -2    0.07    0.15
  -3  14   2    0.22    0.18
  -3  14  -2    0.12    0.17
   3  14   2    0.18    0.20
  -3 -14   2   -0.06    0.13
   3 -14  -2   -0.13    0.16
   4 -14   2   13.55    0.72
   4  14  -2   15.12    0.79
   4  14   2   15.10    0.80
  -4  14  -2   15.80    0.76
   4 -14  -2   14.32    0.74
  -4 -14   2   15.26    0.71
   5 -14   2    4.08    0.47
   5  14  -2    4.07    0.49
   5 -14  -2    3.04    0.44
   5  14   2    4.45    0.51
  -5 -14   2    4.36    0.44
   6  14  -2    5.04    0.57
   6 -14   2    4.14    0.49
   6  14   2    4.82    0.56
   6 -14  -2    4.22    0.50
   7  14  -2    0.80    0.29
   7 -14   2    0.63    0.27
   7 -14  -2    1.12    0.30
   7  14   2    0.72    0.29
   8 -14   2    1.11    0.32
   8  14  -2    1.42    0.36
  -8 -14  -2    0.97    0.36
   8 -14  -2    1.48    0.35
   9  14  -2    0.53    0.29
   0 -15  -2    0.16    0.16
   0 -15   2   -0.07    0.14
   0  15   2   -0.06    0.15
   0  15  -2    0.07    0.17
  -1  15   2   -0.03    0.17
   1  15  -2    0.11    0.19
  -1 -15  -2   -0.05    0.15
   1 -15   2   -0.18    0.13
   1  15   2    0.08    0.18
  -1  15  -2   -0.27    0.14
   1 -15  -2   -0.06    0.15
  -1 -15   2   -0.12    0.11
   2  15  -2    4.19    0.50
  -2  15   2    4.01    0.46
   2 -15   2    3.93    0.45
  -2 -15  -2    3.84    0.41
   2 -15  -2    4.13    0.46
   2  15   2    4.05    0.50
  -2 -15   2    3.93    0.43
  -2  15  -2    4.09    0.47
   3 -15   2    0.04    0.18
  -3  15   2    0.17    0.19
   3  15  -2    0.07    0.18
  -3  15  -2    0.12    0.18
  -3 -15   2   -0.04    0.15
   3  15   2   -0.01    0.17
   3 -15  -2   -0.15    0.15
   4 -15   2    2.18    0.37
   4  15  -2    2.13    0.39
  -4  15  -2    3.09    0.42
   4 -15  -2    2.71    0.41
   4  15   2    3.24    0.47
  -4 -15   2    2.73    0.36
   5 -15   2    3.15    0.44
   5  15  -2    3.54    0.48
   5 -15  -2    2.92    0.44
   5  15   2    2.79    0.44
   6 -15   2    5.12    0.56
   6  15  -2    6.39    0.65
   6  15   2    5.92    0.63
   6 -15  -2    5.89    0.61
   7 -15   2   -0.06    0.18
   7  15  -2   -0.22    0.19
   7  15   2    0.05    0.22
   7 -15  -2   -0.03    0.21
   0  16   2   28.50    1.10
   0  16  -2   29.37    1.14
   0 -16  -2   27.46    1.02
   0 -16   2   26.52    1.04
  -1  16   2    1.02    0.28
   1  16  -2    0.87    0.27
   1 -16   2    0.66    0.25
  -1 -16  -2    0.53    0.20
  -1 -16   2    0.39    0.20
  -1  16  -2    0.53    0.23
   1  16   2    0.68    0.26
   1 -16  -2    0.70    0.23
   2 -16   2   15.20    0.80
  -2 -16  -2   14.81    0.72
   2  16  -2   15.13    0.84
  -2  16   2   15.79    0.80
  -2  16  -2   15.95    0.83
   2  16   2   15.71    0.84
   2 -16  -2   15.73    0.79
  -2 -16   2   14.27    0.73
   3 -16   2    0.24    0.21
   3  16  -2    0.10    0.19
  -3 -16   2    1.00    0.26
   3 -16  -2    0.84    0.26
  -3  16  -2    0.58    0.24
   3  16   2    0.39    0.25
   4  16  -2    3.73    0.52
   4 -16   2    3.04    0.44
   4  16   2    2.86    0.45
   4 -16  -2    3.61    0.49
  -4 -16   2    3.00    0.40
  -4  16  -2    2.99    0.43
   5 -16   2    1.23    0.31
   5  16  -2    0.74    0.28
   5 -16  -2    0.65    0.26
   5  16   2    0.97    0.31
   6  16  -2    0.87    0.30
   6 -16   2    0.80    0.30
   6  16   2    0.56    0.27
   6 -16  -2    1.04    0.31
   0  17   2    0.17    0.21
   0 -17  -2    0.16    0.18
   0 -17   2   -0.03    0.17
   0  17  -2    0.10    0.20
  -1  17   2    0.23    0.24
   1 -17   2    0.01    0.18
  -1 -17  -2    0.32    0.22
   1  17  -2    0.12    0.21
   1  17   2    0.16    0.22
  -1 -17   2    0.25    0.22
  -1  17  -2    0.26    0.23
   1 -17  -2    0.42    0.23
   2 -17   2    0.08    0.21
   2  17  -2    0.30    0.24
  -2  17   2    0.25    0.23
  -2  17  -2    0.14    0.21
  -2 -17   2   -0.03    0.17
   2  17   2    0.06    0.22
   2 -17  -2    0.00    0.20
   3  17  -2    3.04    0.47
   3 -17   2    3.57    0.49
   3  17   2    4.65    0.57
  -3 -17   2    3.79    0.46
  -3  17  -2    5.07    0.58
   3 -17  -2    3.70    0.49
   4 -17   2    0.22    0.21
   4  17  -2    0.28    0.24
   4  17   2    0.81    0.30
   4 -17  -2    0.35    0.24
   5 -17  -2    2.31    0.42
   0  18  -2   19.27    1.00
   0  18   2   22.28    1.06
   0 -18  -2   20.88    0.94
   0 -18   2   20.08    0.95
   1 -18   2   -0.15    0.17
   1  18  -2    0.18    0.24
  -1  18   2    0.36    0.27
   1 -18  -2    0.14    0.22
  -1 -18   2    0.42    0.23
  -1  18  -2   -0.09    0.20
   1  18   2    0.15    0.23
   2 -18   2   13.44    0.81
  -2  18   2   15.92    0.87
   2  18  -2   14.27    0.89
   2 -18  -2   13.91    0.80
  -2  18  -2   14.41    0.84
   2  18   2   12.83    0.85
  -2 -18   2   13.76    0.77
  -3  18  -2    0.29    0.26
  -3 -18   2    0.11    0.20
   3 -18  -2   -0.07    0.21
   0 -19  -2    0.09    0.22
  -1  19   2    3.98    0.55
   1 -19  -2    2.25    0.41
   0   0  -3    0.03    0.03
   0   0   3    0.07    0.05
   0   0  -3    0.15    0.05
  -1   0  -3    0.10    0.06
   1   0  -3   -0.02    0.04
   1   0   3   -0.02    0.03
  -1   0   3    0.11    0.06
   1   0  -3   -0.02    0.03
   2   0   3    0.10    0.10
   2   0  -3    0.11    0.10
  -2   0   3    0.26    0.11
   2   0   3    0.35    0.07
  -2   0  -3    0.60    0.14
  -3   0  -3    0.14    0.12
  -3   0   3   -0.20    0.08
   3   0   3   -0.10    0.06
   3   0  -3   -0.07    0.09
   3   0   3    0.12    0.10
  -4   0   3   -0.10    0.08
   4   0   3    0.18    0.10
   4   0  -3   -0.19    0.06
   4   0   3    0.08    0.06
  -4   0   3    0.05    0.05
  -4   0  -3   -0.06    0.09
  -5   0  -3   -0.14    0.07
   5   0   3    0.00    0.08
  -5   0   3   -0.04    0.05
  -5   0   3   -0.02    0.08
   5   0   3    0.17    0.07
   5   0  -3    0.10    0.07
   6   0  -3    0.05    0.09
   6   0   3   -0.09    0.09
  -6   0   3    0.07    0.12
  -6   0  -3   -0.01    0.12
   6   0   3   -0.11    0.06
   7   0  -3    0.10    0.11
  -7   0   3    0.00    0.12
  -7   0  -3   -0.10    0.12
   7   0   3    0.04    0.09
   7   0   3    0.05    0.13
  -8   0  -3   -0.01    0.16
  -8   0   3    0.17    0.15
   8   0  -3    0.08    0.12
   8   0   3   -0.08    0.14
   9   0   3   -0.05    0.15
   9   0  -3   -0.02    0.13
  -9   0   3    0.20    0.17
 -10   0   3    0.01    0.17
  10   0   3    0.06    0.18
  10   0  -3    0.06    0.14
  11   0   3   -0.12    0.18
  11   0  -3   -0.03    0.15
 -11   0   3    0.29    0.22
  12   0   3    0.04    0.25
 -12   0   3    0.35    0.27
   0   1  -3    0.15    0.04
   0  -1  -3    0.09    0.04
   0  -1  -3    0.01    0.02
   0   1   3    0.00    0.04
   0  -1   3   -0.01    0.03
   0   1  -3    0.14    0.06
   1  -1   3  494.81    7.05
  -1  -1  -3  482.59    7.02
   1   1  -3  491.06    7.08
   1  -1   3  491.46    7.22
  -1   1   3  485.20    6.94
   1   1  -3  464.03    6.95
   1   1   3  498.00    6.94
   1  -1  -3  482.94    7.04
  -1  -1   3  494.80    6.97
  -1   1  -3  473.10    7.04
   2   1  -3  454.47    6.48
  -2   1   3  459.98    6.55
   2  -1   3  461.94    6.51
   2  -1   3  454.06    6.53
  -2  -1  -3  448.39    6.63
   2   1  -3  434.21    6.56
   2   1   3  460.62    6.54
  -2  -1   3  465.11    6.51
  -2   1  -3  440.24    6.65
   2  -1  -3  452.02    6.56
  -3  -1  -3   25.84    0.64
   3   1  -3   25.80    0.61
   3  -1   3   26.30    0.53
   3  -1   3   26.15    0.61
   3   1  -3   24.99    0.50
  -3   1   3   26.30    0.63
   3   1   3   26.21    0.47
   3   1   3   25.81    0.63
  -3   1  -3   26.50    0.66
   3  -1  -3   26.07    0.61
  -3  -1   3   25.57    0.61
   4  -1   3   29.99    0.63
  -4   1   3   30.34    0.75
   4  -1   3   29.54    0.74
  -4  -1  -3   29.49    0.75
   4   1  -3   30.41    0.59
   4   1  -3   29.23    0.72
  -4  -1   3   31.10    0.75
   4   1   3   30.14    0.59
  -4   1  -3   30.74    0.77
   4  -1  -3   29.57    0.72
   4   1   3   31.38    0.77
  -5  -1  -3   47.59    1.07
  -5   1   3   47.25    0.81
   5  -1   3   48.59    0.95
   5   1  -3   46.80    1.04
   5  -1   3   47.60    1.08
  -5   1   3   48.99    1.10
   5   1   3   45.91    0.89
  -5  -1   3   47.33    1.08
   5   1   3   46.89    1.10
  -5   1  -3   47.85    1.09
   5  -1  -3   46.26    1.04
  -5  -1   3   46.78    0.89
  -6  -1  -3   67.81    1.44
  -6   1   3   66.58    1.46
   6  -1   3   65.49    1.27
   6   1  -3   66.44    1.39
   6  -1   3   66.33    1.45
  -6  -1   3   66.40    1.44
   6  -1  -3   66.67    1.40
   6   1   3   63.92    1.22
  -6  -1   3   65.72    1.21
   6   1   3   65.68    1.46
  -6   1  -3   66.44    1.43
   7   1  -3   50.75    1.21
   7  -1   3   49.02    1.27
   7  -1   3   48.58    1.09
  -7  -1  -3   49.64    1.23
  -7   1   3   50.21    1.29
  -7  -1   3   49.46    1.27
  -7   1  -3   49.62    1.24
   7   1   3   50.91    1.30
   7   1   3   49.72    1.05
   7  -1  -3   49.58    1.21
  -8  -1  -3   24.09    0.85
   8   1  -3   24.13    0.81
   8  -1   3   24.32    0.90
  -8   1   3   24.89    0.90
   8  -1   3   24.81    0.74
   8   1   3   24.60    0.91
  -8  -1   3   22.29    0.85
   8  -1  -3   25.53    0.84
  -8   1  -3   25.54    0.87
   9  -1   3   38.54    1.24
   9   1  -3   37.79    1.11
  -9   1   3   38.22    1.22
   9  -1  -3   36.69    1.10
  -9  -1   3   36.19    1.19
   9   1   3   37.34    1.22
  10   1  -3    3.94    0.42
 -10   1   3    4.54    0.52
  10  -1   3    3.94    0.49
  10  -1  -3    4.17    0.44
  10   1   3    4.51    0.51
 -10  -1   3    4.04    0.48
  11   1  -3    7.23    0.53
  11  -1   3    6.22    0.63
 -11   1   3    7.61    0.61
 -11  -1   3    8.35    0.64
  11   1   3    7.83    0.62
  11  -1  -3    7.75    0.55
  12  -1   3    6.07    0.67
 -12   1   3    5.09    0.61
  12   1   3    5.35    0.64
 -12  -1   3    5.38    0.63
   0  -2   3   59.19    0.91
   0   2   3   57.74    1.02
   0  -2  -3   56.55    0.98
   0  -2  -3   57.90    0.93
   0  -2   3   56.24    0.98
   0   2  -3   56.45    1.02
  -1   2   3   11.68    0.26
  -1   2   3   11.90    0.36
   1  -2   3   11.49    0.27
  -1  -2  -3   11.69    0.34
   1  -2   3   11.79    0.30
   1   2  -3   10.52    0.31
   1   2  -3   11.95    0.33
   1  -2  -3   11.85    0.31
  -1   2  -3   12.02    0.37
   1   2   3   11.51    0.34
  -1  -2   3   12.14    0.29
  -2  -2  -3  433.26    6.46
   2  -2   3  446.20    6.30
   2   2  -3  440.99    6.35
   2   2  -3  421.09    6.39
  -2   2   3  435.67    6.38
   2  -2   3  442.87    6.33
   2   2   3  443.64    6.37
  -2  -2   3  447.85    6.30
   2  -2  -3  446.71    6.39
  -2   2  -3  434.50    6.47
   3  -2   3    0.94    0.12
  -3   2   3    0.59    0.11
  -3  -2  -3    1.18    0.15
   3   2  -3    0.71    0.11
   3  -2   3    0.93    0.11
   3   2  -3    1.13    0.11
   3   2   3    1.10    0.07
   3   2   3    0.93    0.13
  -3   2  -3    1.14    0.16
  -3  -2   3    0.89    0.12
   3  -2  -3    0.81    0.12
   4   2  -3   20.36    0.49
  -4  -2  -3   20.47    0.61
   4   2  -3   21.85    0.59
   4  -2   3   21.37    0.59
  -4   2   3   19.35    0.59
   4  -2   3   20.66    0.52
   4   2   3   20.32    0.60
   4   2   3   20.32    0.43
  -4  -2   3   19.52    0.57
  -4   2  -3   19.97    0.61
  -5   2   3   14.13    0.30
   5   2  -3   14.07    0.53
   5  -2   3   13.86    0.51
   5   2  -3   14.97    0.51
   5   2  -3   14.00    0.41
   5  -2   3   14.32    0.45
  -5   2   3   13.69    0.53
  -5  -2  -3   14.47    0.53
  -5  -2   3   13.53    0.50
   5  -2  -3   15.21    0.52
   5   2   3   13.96    0.38
  -5   2  -3   14.76    0.54
   5   2   3   14.31    0.53
   6   2  -3   84.78    1.77
   6  -2   3   86.49    1.75
   6  -2   3   84.68    1.59
  -6   2   3   83.43    1.75
  -6  -2  -3   88.20    1.74
   6   2  -3   87.66    1.70
  -6  -2   3   88.50    1.75
   6  -2  -3   84.34    1.70
   6   2   3   89.01    1.79
  -6  -2   3   84.11    1.53
  -6   2  -3   85.55    1.72
   6   2   3   87.14    1.51
   7  -2   3    0.64    0.19
   7   2  -3    0.66    0.16
  -7  -2  -3    0.38    0.16
  -7   2   3    0.36    0.15
   7  -2   3    0.84    0.16
  -7   2  -3    0.46    0.20
   7  -2  -3    0.15    0.12
   7   2   3    0.68    0.19
  -7  -2   3    0.37    0.16
   8  -2   3    2.50    0.28
  -8  -2  -3    2.38    0.32
   8  -2   3    1.97    0.31
  -8   2   3    1.95    0.30
   8   2  -3    2.01    0.28
  -8   2  -3    2.42    0.33
   8  -2  -3    1.91    0.27
  -8  -2   3    1.96    0.30
   8   2   3    1.57    0.28
   9   2  -3   10.38    0.56
  -9   2   3   11.60    0.65
   9  -2   3   11.23    0.65
  -9  -2   3   12.15    0.65
   9  -2  -3   11.14    0.58
   9   2   3   12.39    0.68
  10  -2   3    0.20    0.21
 -10   2   3   -0.12    0.17
  10   2  -3    0.03    0.15
  10  -2  -3    0.42    0.19
 -10  -2   3    0.08    0.19
  10   2   3   -0.06    0.18
  11  -2   3   -0.16    0.19
 -11   2   3    0.15    0.21
  11  -2  -3    0.43    0.19
 -11  -2   3    0.16    0.20
  11   2   3    0.21    0.22
 -12   2   3    5.49    0.64
 -12  -2   3    8.53    0.68
  12   2   3    7.71    0.75
 -12   2  -3    6.94    0.70
   0   3  -3    0.21    0.12
   0  -3   3    0.04    0.09
   0   3   3    0.17    0.09
   0  -3  -3    0.12    0.08
  -1   3   3  112.63    1.84
   1  -3   3  114.15    1.81
   1   3  -3  111.11    1.83
   1  -3   3  113.05    1.68
  -1  -3  -3  113.47    1.69
  -1   3   3  115.06    1.75
   1   3  -3  112.86    1.83
  -1  -3   3  115.53    1.69
   1   3   3  112.63    1.85
   1   3   3  112.86    1.83
   1  -3  -3  112.45    1.80
  -1   3  -3  113.40    1.87
   2  -3   3   48.21    0.90
   2   3  -3   46.42    0.92
  -2  -3  -3   46.53    0.96
  -2   3   3   47.77    0.94
   2  -3   3   47.72    0.84
   2   3  -3   47.64    0.90
  -2   3   3   46.43    0.78
  -2  -3  -3   48.17    0.75
   2  -3  -3   47.58    0.92
  -2   3  -3   47.49    0.96
   2   3   3   46.95    0.93
  -2  -3   3   46.40    0.84
   3   3  -3    2.06    0.16
  -3  -3  -3    1.62    0.18
   3  -3   3    1.74    0.16
   3  -3   3    2.06    0.16
  -3   3   3    1.84    0.09
   3   3  -3    1.88    0.15
   3   3  -3    1.95    0.18
  -3   3   3    1.66    0.18
   3  -3  -3    1.84    0.18
   3   3   3    1.87    0.09
   3   3   3    1.57    0.17
  -3   3  -3    1.61    0.19
   4   3  -3  112.65    1.99
   4   3  -3  116.74    1.99
   4  -3   3  113.89    1.93
   4   3  -3  116.54    1.92
  -4   3   3  113.38    2.03
  -4   3   3  115.89    1.70
  -4  -3  -3  113.13    2.05
   4  -3   3  115.81    1.98
   4   3   3  115.93    1.78
   4   3   3  112.12    2.02
  -4   3  -3  116.78    2.03
   4  -3  -3  115.40    2.02
   5  -3   3   27.04    0.75
   5  -3   3   26.83    0.69
   5   3  -3   27.59    0.67
   5   3  -3   26.71    0.73
   5   3  -3   27.63    0.77
  -5  -3  -3   28.01    0.79
  -5   3   3   26.57    0.78
   5   3   3   27.67    0.78
   5   3   3   26.32    0.58
  -5   3  -3   28.12    0.77
   5  -3  -3   25.75    0.74
  -6  -3  -3    2.38    0.28
   6   3  -3    2.37    0.29
   6   3  -3    2.36    0.25
   6  -3   3    2.13    0.22
   6  -3   3    2.20    0.28
  -6   3   3    2.75    0.31
   6   3  -3    2.52    0.21
   6   3   3    2.26    0.17
  -6   3  -3    2.45    0.29
   6  -3  -3    2.58    0.28
   6   3   3    2.59    0.29
  -7  -3  -3    1.74    0.26
   7  -3   3    1.89    0.23
   7   3  -3    1.51    0.23
  -7   3   3    1.45    0.25
   7  -3   3    1.49    0.26
   7   3  -3    1.19    0.24
  -7   3  -3    2.28    0.30
   7  -3  -3    1.44    0.24
   7   3   3    1.80    0.27
   8   3  -3    0.52    0.16
  -8  -3  -3    0.67    0.21
   8  -3   3    0.17    0.17
   8  -3   3    0.62    0.17
  -8   3   3    0.04    0.15
   8   3   3    0.70    0.21
   8  -3  -3    0.83    0.21
  -8  -3   3    0.57    0.21
  -9  -3  -3   10.25    0.58
  -9   3   3   10.84    0.63
   9   3  -3   11.84    0.58
   9  -3   3   11.01    0.65
   9   3   3   11.50    0.65
  -9  -3   3   10.53    0.60
   9  -3  -3    9.65    0.55
 -10   3   3    1.08    0.30
  10  -3   3    1.36    0.32
  10   3  -3    1.23    0.26
  10  -3  -3    1.45    0.28
  10   3   3    1.35    0.31
 -10  -3   3    1.51    0.32
 -11   3   3    1.05    0.32
  11  -3   3    1.23    0.34
 -11  -3   3    1.39    0.33
  11  -3  -3    0.80    0.24
  11   3   3    1.23    0.33
 -12   3   3    1.12    0.36
  12   3   3    0.36    0.27
  12  -3  -3    1.30    0.31
 -12   3  -3    1.36    0.33
 -12  -3   3    1.05    0.36
   0  -4   3   28.65    0.63
   0   4   3   29.42    0.64
   0   4   3   27.26    0.62
   0  -4  -3   28.81    0.58
   0   4  -3   28.13    0.65
   1  -4   3  227.97    3.25
  -1  -4  -3  227.03    3.35
   1  -4   3  228.80    3.47
   1   4  -3  225.29    3.50
  -1   4   3  222.71    3.46
  -1   4   3  230.56    3.42
   1  -4  -3  229.80    3.45
   1   4   3  231.23    3.52
  -1   4  -3  227.85    3.52
  -1  -4   3  232.42    3.26
   1   4   3  227.43    3.45
  -1  -4   3  221.56    3.47
  -2  -4  -3   55.24    0.90
   2  -4   3   53.93    1.04
   2   4  -3   55.25    1.06
   2  -4   3   56.18    0.94
  -2   4   3   54.73    0.94
   2   4  -3   53.62    1.05
  -2   4   3   53.87    1.06
   2   4   3   53.47    1.09
  -2  -4   3   53.77    0.93
   2  -4  -3   53.84    1.05
   2   4   3   54.21    1.05
  -2   4  -3   53.70    1.08
  -3  -4  -3    0.38    0.12
   3   4  -3    0.70    0.12
   3   4  -3    0.43    0.10
   3  -4   3    0.61    0.12
   3  -4   3    0.71    0.11
  -3   4   3    0.54    0.08
  -3   4   3    0.54    0.13
   3   4  -3    0.38    0.10
  -3  -4  -3    0.45    0.07
  -3   4  -3    0.74    0.14
   3   4   3    0.92    0.15
   3  -4  -3    0.58    0.12
  -4  -4  -3    0.68    0.15
   4   4  -3    0.34    0.11
   4  -4   3    0.35    0.11
  -4   4   3    0.60    0.15
   4   4  -3    0.59    0.12
  -4   4   3    0.47    0.07
   4   4  -3    0.46    0.11
   4  -4   3    0.73    0.13
   4   4   3    0.60    0.08
   4   4   3    0.50    0.13
   4  -4  -3    0.68    0.13
  -4   4  -3    0.59    0.16
  -5   4   3   20.41    0.68
   5   4  -3   19.85    0.58
   5  -4   3   20.32    0.61
   5   4  -3   21.43    0.65
  -5  -4  -3   21.37    0.69
   5  -4   3   20.67    0.64
   5   4  -3   20.98    0.63
   5   4   3   19.88    0.66
  -5   4  -3   21.27    0.65
   5   4   3   19.48    0.48
   5  -4  -3   20.09    0.65
   6   4  -3   10.89    0.50
   6  -4   3   10.88    0.46
   6   4  -3   11.08    0.44
   6  -4   3   11.12    0.51
  -6  -4  -3   11.23    0.52
   6   4  -3   10.60    0.46
  -6   4   3   10.64    0.52
   6   4   3   11.00    0.53
   6  -4  -3   11.25    0.50
  -6   4  -3   10.90    0.49
  -7  -4  -3    4.06    0.35
   7  -4   3    4.79    0.33
  -7   4   3    5.47    0.40
   7   4  -3    4.60    0.38
   7  -4   3    4.74    0.38
   7   4  -3    4.72    0.33
  -7  -4   3    4.69    0.32
   7  -4  -3    4.83    0.36
   7   4   3    5.12    0.39
  -7   4  -3    5.02    0.39
   8  -4   3    3.59    0.35
  -8  -4  -3    3.63    0.39
  -8   4   3    2.61    0.35
   8   4  -3    3.30    0.35
   8   4  -3    3.39    0.41
   8  -4   3    3.42    0.40
   8   4   3    2.32    0.34
   8  -4  -3    2.75    0.34
  -9  -4  -3    0.42    0.20
   9  -4   3    0.53    0.18
   9  -4   3    0.29    0.19
  -9   4   3    0.19    0.18
   9   4  -3    0.33    0.16
  -9  -4   3    0.32    0.19
   9  -4  -3    0.50    0.18
   9   4   3    0.39    0.20
  10  -4   3    0.52    0.24
 -10   4   3    0.47    0.23
  10  -4  -3    0.36    0.19
  10   4   3    0.37    0.23
 -10  -4   3    0.76    0.26
 -11   4   3    1.20    0.35
  11  -4  -3    0.78    0.26
 -11   4  -3    0.56    0.25
  11   4   3    0.36    0.25
 -11  -4   3    0.75    0.28
 -12   4   3    1.72    0.41
  12   4   3    1.19    0.37
 -12   4  -3    1.53    0.38
 -12  -4   3    1.85    0.40
  12  -4  -3    1.93    0.38
   0  -5  -3   -0.02    0.04
   0   5   3    0.05    0.06
   0  -5   3    0.00    0.04
   0   5  -3    0.01    0.07
   0   5   3   -0.01    0.05
  -1   5   3    6.71    0.27
   1   5  -3    6.97    0.31
  -1   5   3    6.82    0.30
  -1  -5  -3    7.04    0.24
  -1  -5   3    6.69    0.29
  -1  -5   3    6.94    0.17
   1   5   3    7.72    0.32
   1   5   3    7.09    0.29
   1  -5  -3    6.72    0.28
  -2   5   3  279.83    4.30
   2   5  -3  275.95    4.35
  -2   5   3  282.19    4.20
   2  -5   3  283.42    4.10
  -2  -5  -3  286.06    4.14
   2  -5   3  277.86    4.31
   2   5  -3  285.95    4.11
  -2  -5   3  279.88    4.32
   2  -5  -3  284.12    4.31
   2   5   3  286.57    4.39
  -2   5  -3  285.83    4.36
   2   5   3  279.44    4.27
  -3   5   3  158.11    2.65
   3   5  -3  160.29    2.65
   3   5  -3  162.08    2.53
  -3  -5  -3  164.38    2.45
   3  -5   3  157.30    2.63
  -3   5   3  161.26    2.47
   3   5  -3  160.24    2.66
   3  -5   3  164.60    2.53
   3  -5  -3  160.82    2.67
  -3   5  -3  161.02    2.67
   3   5   3  158.85    2.71
   3   5   3  158.84    2.63
  -4   5   3  143.17    2.49
   4   5  -3  143.73    2.40
   4  -5   3  146.88    2.40
  -4  -5  -3  143.08    2.24
   4  -5   3  143.26    2.45
  -4   5   3  143.63    2.23
  -4  -5  -3  144.89    2.56
   4   5  -3  146.91    2.47
   4   5  -3  140.18    2.45
   4   5   3  144.51    2.48
  -4   5  -3  144.38    2.47
   4  -5  -3  146.19    2.50
   5   5  -3   59.72    1.25
   5  -5   3   59.63    1.27
  -5   5   3   59.27    1.32
   5  -5   3   59.09    1.26
  -5  -5  -3   59.57    1.36
   5   5  -3   59.01    1.27
   5   5  -3   58.29    1.26
   5  -5  -3   59.76    1.31
   5   5   3   58.60    1.08
  -5   5  -3   59.80    1.28
   5   5   3   59.32    1.33
  -6   5   3   38.72    1.06
   6   5  -3   36.19    0.97
   6  -5   3   38.74    1.02
   6  -5   3   38.74    0.99
   6   5  -3   38.71    0.96
  -6  -5  -3   38.82    1.07
   6   5  -3   39.98    1.04
   6   5   3   39.35    1.07
  -6   5  -3   38.99    0.99
   6  -5  -3   39.08    1.05
   7  -5   3   81.19    1.71
  -7   5   3   83.17    1.83
   7   5  -3   83.28    1.68
   7   5  -3   84.02    1.80
   7   5  -3   84.03    1.73
   7  -5   3   79.74    1.77
  -7  -5  -3   83.40    1.83
   7   5   3   83.10    1.84
   7  -5  -3   80.40    1.78
  -7   5  -3   81.48    1.69
  -8  -5  -3   55.86    1.46
   8  -5   3   57.50    1.37
  -8   5   3   56.74    1.50
   8   5  -3   54.88    1.46
   8   5  -3   56.02    1.37
   8  -5   3   56.20    1.46
   8   5   3   56.56    1.51
   8  -5  -3   56.20    1.44
   9  -5   3    1.83    0.32
  -9   5   3    1.64    0.33
   9  -5   3    1.46    0.26
  -9  -5  -3    1.66    0.30
   9   5  -3    2.19    0.30
   9  -5  -3    1.62    0.30
  -9  -5   3    1.78    0.32
  -9   5  -3    1.77    0.30
   9   5   3    1.28    0.29
 -10   5   3   -0.11    0.16
 -10   5  -3    0.01    0.16
  10   5   3    0.10    0.18
  10  -5  -3    0.10    0.15
 -10  -5   3    0.10    0.20
 -11   5   3    2.30    0.42
  11  -5  -3    2.27    0.38
 -11  -5   3    1.87    0.39
  11   5   3    1.26    0.35
 -11   5  -3    1.43    0.34
 -12   5   3    4.65    0.60
 -12   5  -3    3.83    0.55
  12   5   3    4.92    0.64
  12  -5  -3    3.12    0.45
 -12  -5   3    4.03    0.55
   0   6   3   57.54    1.14
   0   6   3   57.59    1.11
   0  -6   3   56.77    1.15
   0  -6  -3   57.27    1.09
   0   6  -3   58.53    1.19
  -1   6   3    8.31    0.35
   1   6  -3    8.85    0.38
   1  -6   3    8.41    0.35
  -1  -6  -3    9.01    0.31
  -1   6   3    8.84    0.33
  -1   6  -3    8.95    0.38
   1   6   3    9.21    0.34
  -1  -6   3    7.99    0.34
   1  -6  -3    8.75    0.34
  -2   6   3   20.55    0.60
   2   6  -3   21.42    0.63
  -2  -6  -3   21.23    0.51
   2  -6   3   20.01    0.60
   2   6  -3   20.62    0.45
  -2   6   3   20.90    0.53
   2  -6  -3   20.66    0.60
  -2   6  -3   20.95    0.45
  -2   6  -3   21.76    0.63
   2   6   3   20.01    0.62
   2   6   3   20.41    0.57
  -2  -6   3   21.14    0.60
   3   6  -3    5.36    0.30
   3   6  -3    4.93    0.24
   3  -6   3    4.76    0.28
   3   6  -3    4.71    0.30
  -3   6   3    4.67    0.23
  -3   6   3    5.28    0.31
  -3  -6  -3    5.05    0.22
   3  -6  -3    4.99    0.30
  -3   6  -3    5.29    0.32
  -3   6  -3    5.48    0.24
   3   6   3    5.31    0.32
   3   6   3    5.12    0.29
   4  -6   3    4.60    0.30
  -4  -6  -3    4.57    0.22
   4   6  -3    4.80    0.29
  -4   6   3    5.30    0.34
   4  -6   3    4.47    0.27
   4   6  -3    4.78    0.30
  -4   6   3    4.61    0.23
   4   6  -3    5.51    0.29
   4   6   3    4.44    0.31
   4   6   3    4.71    0.29
  -4   6  -3    5.28    0.33
   4  -6  -3    4.90    0.32
   5   6  -3    4.89    0.31
  -5  -6  -3    4.31    0.34
   5   6  -3    4.57    0.31
  -5  -6  -3    5.49    0.25
  -5   6   3    4.67    0.34
   5  -6   3    4.66    0.31
   5   6  -3    4.80    0.31
   5  -6   3    5.03    0.32
  -5   6  -3    5.20    0.34
   5  -6  -3    5.24    0.34
   5   6   3    4.75    0.33
   6  -6   3    3.24    0.32
   6  -6   3    3.20    0.33
  -6   6   3    3.06    0.34
   6   6  -3    3.35    0.28
   6   6  -3    3.34    0.32
   6   6  -3    3.08    0.31
  -6  -6  -3    2.60    0.32
   6   6   3    3.24    0.34
   6  -6  -3    2.92    0.32
  -6   6  -3    3.34    0.33
  -7  -6  -3    0.84    0.22
   7   6  -3    0.86    0.21
   7   6  -3    0.99    0.20
   7  -6   3    1.14    0.21
  -7   6   3    0.80    0.22
   7   6  -3    1.26    0.21
   7   6   3    0.79    0.21
  -7   6  -3    1.08    0.21
  -7   6  -3    1.18    0.23
   7  -6  -3    1.21    0.24
   8  -6   3    1.04    0.23
  -8  -6  -3    1.44    0.29
   8   6  -3    1.51    0.29
   8   6  -3    1.23    0.23
  -8   6   3    1.24    0.28
   8   6   3    0.95    0.26
   8  -6  -3    1.02    0.23
  -8   6  -3    1.32    0.25
  -9   6   3    0.79    0.26
   9  -6   3    0.97    0.23
   9   6  -3    0.80    0.21
  -9  -6  -3    0.72    0.25
  -9   6  -3    0.70    0.22
   9   6   3    0.40    0.21
  -9  -6   3    0.65    0.23
   9  -6  -3    1.12    0.25
 -10   6   3   -0.02    0.17
 -10  -6   3   -0.03    0.18
  10   6   3    0.08    0.20
  10  -6  -3    0.25    0.18
 -10   6  -3    0.13    0.19
 -11   6   3    0.95    0.34
 -11  -6   3    1.02    0.32
 -11   6  -3    1.78    0.37
  11   6   3    1.08    0.33
  11  -6  -3    0.74    0.25
 -12  -6   3    0.51    0.31
 -12   6  -3    0.19    0.27
  12  -6  -3    0.24    0.21
   0   7   3    0.07    0.07
   0  -7   3   -0.02    0.06
   0   7  -3   -0.02    0.07
   0   7   3    0.00    0.06
   0  -7  -3    0.01    0.06
  -1   7   3  110.29    1.94
  -1  -7  -3  114.50    1.89
  -1   7   3  107.07    1.91
   1  -7   3  107.16    1.98
   1   7  -3  110.37    2.04
   1   7   3  112.97    2.03
   1   7   3  113.15    1.91
  -1   7  -3  112.93    2.04
   1  -7  -3  111.27    1.95
  -1  -7   3  113.32    1.99
   2   7  -3   72.83    1.50
  -2   7   3   71.06    1.36
   2  -7   3   73.17    1.46
   2   7  -3   73.93    1.20
  -2  -7  -3   74.57    1.33
  -2   7   3   72.94    1.42
  -2   7  -3   73.81    1.20
   2   7   3   74.68    1.51
   2   7   3   71.92    1.38
  -2  -7   3   74.44    1.46
   2  -7  -3   72.21    1.44
  -2   7  -3   72.08    1.47
   3   7  -3   61.07    1.14
   3   7  -3   60.50    1.35
  -3   7   3   63.65    1.20
  -3  -7  -3   63.17    1.16
  -3   7   3   60.70    1.30
   3  -7   3   61.17    1.32
  -3   7  -3   62.02    1.13
   3  -7  -3   63.21    1.34
  -3   7  -3   62.63    1.34
   3   7   3   63.73    1.29
   3   7   3   63.38    1.39
  -3  -7   3   64.14    1.32
   4   7  -3   74.67    1.59
   4   7  -3   79.37    1.46
  -4   7   3   78.25    1.60
   4   7  -3   80.91    1.59
  -4  -7  -3   79.00    1.39
  -4   7   3   77.60    1.41
   4  -7   3   78.18    1.60
   4  -7  -3   77.22    1.61
  -4   7  -3   77.81    1.58
  -4   7  -3   77.04    1.43
   4   7   3   76.81    1.65
   4   7   3   77.40    1.56
   5   7  -3   17.50    0.61
   5  -7   3   16.68    0.62
  -5   7   3   17.65    0.66
   5   7  -3   16.47    0.63
   5   7  -3   17.00    0.58
   5  -7  -3   17.21    0.65
  -5   7  -3   17.34    0.62
   5   7   3   17.19    0.67
  -5   7  -3   17.77    0.57
   5   7   3   16.99    0.63
   6   7  -3   11.26    0.51
  -6   7   3   11.61    0.56
  -6  -7  -3   13.21    0.63
   6   7  -3   11.30    0.53
   6   7  -3   11.94    0.53
   6  -7   3   11.79    0.54
  -6   7  -3   11.44    0.50
  -6   7  -3   12.16    0.53
   6   7   3   11.72    0.56
   6  -7  -3   11.91    0.56
   7   7  -3   37.90    1.07
   7  -7   3   35.41    1.04
  -7   7   3   35.86    1.09
   7   7  -3   34.28    1.00
   7   7  -3   36.49    1.03
  -7  -7  -3   35.54    1.13
   7  -7  -3   36.93    1.10
   7   7   3   33.83    1.07
  -7   7  -3   35.23    1.01
   8   7  -3    0.15    0.13
   8   7  -3    0.13    0.17
   8  -7   3    0.28    0.16
  -8   7   3    0.11    0.17
  -8  -7  -3    0.24    0.17
   8  -7  -3   -0.06    0.13
   8   7   3    0.07    0.16
  -8   7  -3    0.09    0.14
  -9   7   3    1.28    0.31
  -9  -7  -3    2.10    0.36
   9   7  -3    1.75    0.34
   9  -7   3    1.87    0.31
   9  -7  -3    2.15    0.34
  -9   7  -3    1.74    0.31
   9   7   3    2.33    0.37
 -10   7   3    0.33    0.24
  10  -7   3    0.09    0.16
  10   7   3   -0.16    0.16
 -10  -7   3    0.33    0.21
  10  -7  -3    0.06    0.16
 -10   7  -3   -0.08    0.18
 -11   7   3    4.76    0.58
  11   7   3    3.77    0.53
  11  -7  -3    3.94    0.50
 -11   7  -3    4.35    0.53
 -11  -7   3    4.64    0.55
 -12   7  -3    1.13    0.36
   0  -8   3    5.20    0.31
   0  -8  -3    5.99    0.31
   0   8  -3    5.94    0.35
   0   8   3    4.80    0.31
   0   8   3    5.29    0.28
  -1  -8  -3    3.15    0.22
  -1   8   3    2.87    0.23
   1   8  -3    2.73    0.28
   1  -8   3    3.08    0.25
  -1   8   3    3.16    0.25
   1   8   3    3.20    0.30
   1  -8  -3    2.79    0.23
  -1  -8   3    3.02    0.25
  -1   8  -3    3.49    0.28
   1   8   3    3.65    0.23
   2  -8   3   25.11    0.75
  -2  -8  -3   25.84    0.65
  -2   8   3   25.47    0.71
  -2   8   3   25.76    0.69
   2   8  -3   25.55    0.78
   2   8   3   26.30    0.69
  -2  -8   3   26.49    0.75
  -2   8  -3   25.97    0.78
   2  -8  -3   25.72    0.74
  -3   8   3    2.54    0.24
   3  -8   3    2.52    0.27
   3   8  -3    2.23    0.18
  -3   8   3    2.51    0.27
  -3  -8  -3    2.78    0.20
   3   8  -3    2.93    0.31
   3   8   3    3.21    0.25
  -3  -8   3    2.53    0.26
   3  -8  -3    2.84    0.29
  -3   8  -3    2.82    0.20
   3   8   3    2.68    0.29
  -3   8  -3    2.66    0.28
  -4   8   3   12.34    0.44
   4   8  -3   12.02    0.54
  -4  -8  -3   12.70    0.42
  -4   8   3   12.47    0.54
   4  -8   3   11.81    0.53
   4   8  -3   12.05    0.44
   4   8   3   12.58    0.57
  -4   8  -3   10.78    0.50
   4  -8  -3   12.43    0.54
  -4  -8   3   12.44    0.52
   4   8   3   12.43    0.51
  -4   8  -3   12.95    0.44
   5  -8   3    3.77    0.31
   5   8  -3    3.67    0.31
   5   8  -3    4.20    0.29
  -5   8   3    3.95    0.38
  -5   8  -3    3.43    0.34
   5  -8  -3    3.17    0.34
  -5  -8   3    4.22    0.32
   5   8   3    4.07    0.32
   5   8   3    4.15    0.40
  -5   8  -3    3.41    0.28
   6   8  -3   41.65    1.10
   6   8  -3   41.18    1.07
   6  -8   3   42.30    1.16
   6   8  -3   42.53    1.17
  -6   8   3   43.68    1.18
  -6  -8  -3   42.48    1.24
   6  -8  -3   42.38    1.19
   6   8   3   41.38    1.15
  -6   8  -3   42.38    1.11
  -6   8  -3   41.91    1.06
   7  -8   3    3.44    0.37
   7   8  -3    4.08    0.40
   7   8  -3    3.14    0.34
  -7   8   3    3.36    0.39
   7   8  -3    3.76    0.38
  -7  -8  -3    3.07    0.39
   7   8   3    3.14    0.37
   7  -8  -3    3.96    0.42
  -7   8  -3    3.73    0.36
  -8  -8  -3    0.32    0.20
  -8   8   3    0.09    0.18
   8   8  -3   -0.02    0.16
   8   8  -3   -0.11    0.11
   8  -8   3   -0.10    0.12
   8  -8  -3    0.10    0.13
  -8   8  -3   -0.05    0.14
   8   8   3    0.24    0.18
   9  -8   3    3.29    0.40
   9   8  -3    3.73    0.47
  -9  -8  -3    3.05    0.42
  -9   8   3    3.17    0.43
   9  -8  -3    3.66    0.44
   9   8   3    2.80    0.42
  -9   8  -3    3.37    0.41
 -10   8   3    2.85    0.44
  10  -8   3    2.66    0.38
 -10   8  -3    3.52    0.46
  10   8   3    2.94    0.46
  10  -8  -3    3.63    0.46
 -10  -8   3    3.36    0.43
 -11   8   3    0.11    0.26
  11   8   3    0.34    0.27
  11  -8  -3    0.58    0.27
   0  -9   3   -0.03    0.08
   0   9   3   -0.07    0.08
   0   9   3   -0.05    0.08
   0  -9  -3    0.12    0.10
   0   9  -3    0.01    0.10
  -1  -9  -3   94.73    1.74
  -1   9   3   93.92    1.80
   1   9  -3   92.34    1.89
  -1   9   3   91.41    1.71
   1  -9   3   93.87    1.85
   1   9   3   92.92    1.87
   1  -9  -3   93.09    1.80
   1   9   3   93.34    1.69
  -1   9  -3   92.97    1.88
  -1  -9   3   94.20    1.83
  -2   9   3    0.06    0.11
   2  -9   3    0.07    0.09
  -2  -9  -3   -0.04    0.07
  -2   9   3    0.08    0.11
   2   9  -3    0.02    0.11
  -2  -9   3    0.12    0.11
   2   9   3    0.04    0.10
   2  -9  -3    0.08    0.11
   2   9   3    0.16    0.09
  -2   9  -3    0.17    0.13
   3  -9   3   32.10    0.92
  -3   9   3   29.84    0.80
  -3   9   3   30.42    0.85
  -3  -9  -3   30.63    0.77
   3   9  -3   29.38    0.91
  -3   9  -3   30.20    0.90
   3   9   3   29.87    0.93
  -3  -9   3   31.51    0.88
   3   9   3   30.83    0.82
   3  -9  -3   31.57    0.91
   4   9  -3   28.52    0.92
  -4   9   3   30.20    0.89
  -4  -9  -3   29.78    0.75
  -4   9   3   28.84    0.78
   4  -9   3   30.20    0.92
   4   9   3   30.57    0.85
   4  -9  -3   29.77    0.92
  -4   9  -3   29.26    0.89
  -4  -9   3   30.36    0.88
   4   9   3   28.66    0.94
  -5   9   3    9.99    0.53
   5  -9   3    8.25    0.49
   5   9  -3    8.91    0.50
  -5   9  -3   10.07    0.50
   5  -9  -3    8.76    0.51
   5   9   3    8.42    0.51
  -5  -9   3    8.34    0.46
   5   9   3    8.84    0.47
   6  -9   3    0.33    0.17
  -6   9   3    0.34    0.19
   6   9  -3    0.19    0.15
   6  -9  -3    0.11    0.14
  -6   9  -3    0.46    0.17
   6   9   3    0.22    0.15
  -6  -9   3    0.09    0.13
   6   9   3    0.17    0.16
   7   9  -3   35.01    1.10
  -7  -9  -3   34.58    1.17
  -7   9   3   32.77    1.08
   7  -9   3   34.90    1.10
   7   9   3   33.54    1.08
   7  -9  -3   33.78    1.11
  -7  -9   3   32.36    1.01
   8   9  -3    0.13    0.14
   8  -9   3    0.08    0.16
  -8  -9  -3    0.28    0.21
   8   9  -3    0.01    0.17
  -8   9   3    0.20    0.21
   8   9   3    0.11    0.19
   8  -9  -3    0.09    0.15
  -9   9   3   19.35    0.90
   9  -9   3   19.97    0.86
  -9  -9  -3   18.80    0.91
   9  -9  -3   19.13    0.89
   9   9   3   19.52    0.91
 -10  -9  -3    1.25    0.33
 -10   9   3    1.07    0.35
  10  -9   3    1.40    0.31
  10   9   3    0.94    0.31
  10  -9  -3    0.56    0.26
 -11   9   3    1.77    0.41
  11   9   3    1.47    0.39
  11  -9  -3    1.40    0.35
   0 -10  -3    0.35    0.13
   0  10   3    0.18    0.12
   0 -10   3    0.44    0.15
   0  10   3    0.61    0.14
   0  10  -3    0.22    0.15
   1 -10   3    0.66    0.17
   1  10  -3    1.13    0.22
  -1  10   3    0.69    0.17
  -1  10   3    1.15    0.17
  -1 -10  -3    0.96    0.18
   1 -10  -3    1.06    0.20
   1  10   3    1.02    0.17
  -1 -10   3    0.90    0.19
  -1  10  -3    1.17    0.23
   1  10   3    0.79    0.19
  -2  10   3    0.87    0.19
   2  10  -3    0.69    0.19
  -2 -10  -3    0.97    0.17
  -2  10   3    0.99    0.18
   2 -10   3    1.05    0.21
   2  10   3    1.05    0.21
  -2 -10   3    0.61    0.17
  -2  10  -3    0.56    0.18
   2 -10  -3    0.87    0.19
   2  10   3    0.69    0.15
  -3  10   3    1.41    0.21
   3 -10   3    1.03    0.21
  -3  10   3    1.17    0.22
   3  10  -3    1.47    0.25
  -3 -10  -3    1.27    0.19
  -3 -10   3    1.10    0.21
   3 -10  -3    1.67    0.26
  -3  10  -3    1.36    0.24
   3  10   3    1.62    0.22
   3  10   3    1.59    0.26
   4  10  -3    3.94    0.40
   4 -10   3    3.50    0.37
  -4  10   3    4.00    0.38
   4  10   3    3.98    0.41
  -4  10  -3    4.11    0.39
   4  10   3    4.74    0.34
   4 -10  -3    4.06    0.40
  -4 -10   3    4.03    0.34
   5 -10   3    2.48    0.33
  -5  10   3    2.00    0.31
   5  10  -3    2.10    0.31
   5 -10  -3    2.24    0.32
  -5 -10   3    1.83    0.27
   5  10   3    2.34    0.33
  -5  10  -3    2.74    0.34
   5  10   3    2.32    0.30
   6  10  -3    1.59    0.29
   6 -10   3    1.54    0.28
  -6  10   3    0.98    0.25
   6  10   3    1.58    0.30
   6 -10  -3    1.34    0.27
   6  10   3    1.16    0.24
  -6  10  -3    1.28    0.25
  -6 -10   3    1.30    0.24
   7 -10   3    0.18    0.16
  -7  10   3    0.34    0.22
  -7 -10  -3    0.25    0.19
   7  10  -3    0.13    0.16
   7 -10  -3    0.14    0.14
  -7 -10   3    0.30    0.17
   7  10   3    0.16    0.16
  -8 -10  -3    0.70    0.27
   8  10  -3    0.28    0.20
  -8  10   3    0.49    0.25
   8 -10   3    0.27    0.18
   8  10   3    0.24    0.20
   8 -10  -3    0.78    0.24
  -9 -10  -3    0.20    0.24
  -9  10   3   -0.21    0.17
   9 -10   3   -0.24    0.15
   9  10   3    0.20    0.22
   9 -10  -3   -0.05    0.15
  10 -10   3    1.26    0.30
 -10 -10  -3    1.73    0.39
 -10  10   3    0.73    0.30
  10  10   3    1.53    0.36
  10 -10  -3    1.50    0.34
  11  10   3    0.35    0.30
   0 -11  -3   -0.12    0.09
   0  11  -3   -0.11    0.12
   0 -11   3    0.03    0.11
   0  11   3    0.05    0.11
  -1 -11  -3   31.44    0.87
  -1  11   3   31.29    0.93
   1  11  -3   30.37    0.98
   1 -11   3   30.20    0.93
   1  11   3   29.46    0.95
   1 -11  -3   29.89    0.90
  -1 -11   3   28.52    0.90
  -1  11  -3   31.14    0.98
  -2 -11  -3   54.61    1.24
   2 -11   3   56.36    1.39
  -2  11   3   56.21    1.33
   2  11  -3   52.58    1.41
  -2 -11   3   55.51    1.34
   2  11   3   55.00    1.41
  -2  11  -3   57.58    1.42
   2 -11  -3   55.48    1.36
  -3 -11  -3    3.91    0.30
  -3  11   3    4.00    0.33
   3  11  -3    3.86    0.40
   3 -11   3    4.55    0.37
   3  11   3    3.76    0.40
  -3 -11   3    3.88    0.37
  -3  11  -3    4.19    0.41
   3 -11  -3    4.64    0.37
   4 -11   3   93.75    2.05
   4  11  -3   95.12    2.10
  -4  11  -3   93.25    2.00
   4  11   3   94.35    2.11
   4 -11  -3   95.27    2.05
  -4 -11   3   88.65    1.93
   5  11  -3    0.07    0.15
   5 -11   3    0.11    0.13
   5 -11  -3    0.18    0.15
  -5  11  -3    0.07    0.15
   5  11   3    0.16    0.16
  -5 -11   3    0.05    0.12
   6  11  -3   18.18    0.81
   6 -11   3   18.95    0.81
  -6  11  -3   17.28    0.73
  -6 -11   3   18.24    0.73
   6 -11  -3   18.22    0.82
   6  11   3   18.06    0.83
  -7 -11  -3    6.72    0.57
   7 -11   3    6.82    0.51
   7  11  -3    6.66    0.52
  -7 -11   3    6.38    0.46
   7 -11  -3    7.08    0.52
   8 -11   3    5.15    0.53
  -8 -11  -3    5.91    0.61
   8  11  -3    6.79    0.54
   8 -11  -3    7.31    0.56
  -9 -11  -3    5.26    0.62
   9 -11   3    5.83    0.58
   9 -11  -3    5.79    0.59
  10 -11   3    0.26    0.23
 -10 -11  -3    0.36    0.29
  10 -11  -3    0.06    0.20
   0 -12  -3    8.08    0.45
   0 -12   3    7.81    0.47
   0  12  -3    7.47    0.49
   0  12   3    6.84    0.45
   1  12  -3    6.34    0.47
   1 -12   3    5.70    0.41
  -1  12   3    5.62    0.42
  -1 -12  -3    6.16    0.39
   1 -12  -3    6.29    0.41
  -1 -12   3    5.55    0.40
  -1  12  -3    5.80    0.45
   1  12   3    6.44    0.46
  -2  12   3    8.12    0.47
  -2 -12  -3    8.55    0.45
   2 -12   3    7.85    0.49
   2  12  -3    8.98    0.54
  -2 -12   3    7.78    0.47
   2 -12  -3    7.48    0.48
  -2  12  -3    8.15    0.51
   2  12   3    8.12    0.52
  -3 -12  -3    2.17    0.27
   3 -12   3    2.28    0.31
  -3  12   3    2.52    0.32
   3  12  -3    2.40    0.36
  -3  12  -3    2.04    0.31
  -3 -12   3    1.96    0.29
   3  12   3    2.50    0.35
   3 -12  -3    2.40    0.34
   4 -12   3    0.44    0.19
   4  12  -3    0.64    0.21
  -4 -12   3    0.38    0.16
   4  12   3    0.55    0.20
  -4  12  -3    0.86    0.25
   4 -12  -3    0.69    0.22
   5  12  -3    0.26    0.16
   5 -12   3    0.44    0.20
   5  12   3    0.02    0.15
  -5  12  -3    0.30    0.19
  -5 -12   3    0.18    0.14
   5 -12  -3    0.06    0.15
   6  12  -3    0.34    0.22
   6 -12   3    1.14    0.27
   6 -12  -3    0.77    0.24
   6  12   3    1.10    0.29
  -6 -12   3    1.32    0.27
   7  12  -3    0.93    0.27
  -7 -12  -3    1.15    0.32
   7 -12   3    1.25    0.30
   7 -12  -3    1.00    0.26
  -8 -12  -3    0.28    0.24
   8  12  -3    0.45    0.23
   8 -12   3    0.56    0.25
   8 -12  -3    0.31    0.21
   9 -12   3    4.04    0.51
  -9 -12  -3    3.47    0.55
   9 -12  -3    3.93    0.51
 -10 -12  -3    2.64    0.48
   0 -13  -3   -0.13    0.12
   0  13   3    0.00    0.14
   0 -13   3   -0.14    0.10
   0  13  -3   -0.03    0.14
  -1  13   3   69.78    1.65
  -1 -13  -3   66.66    1.54
   1 -13   3   66.04    1.64
   1  13  -3   64.51    1.69
   1  13   3   67.31    1.69
   1 -13  -3   68.39    1.61
  -1 -13   3   63.79    1.60
  -1  13  -3   66.67    1.70
  -2  13   3   22.58    0.83
   2 -13   3   20.49    0.83
  -2 -13  -3   23.51    0.79
   2  13  -3   21.49    0.89
  -2 -13   3   20.13    0.80
  -2  13  -3   21.71    0.87
   2 -13  -3   23.04    0.86
   2  13   3   22.46    0.89
   3 -13   3   17.36    0.78
  -3  13   3   20.57    0.77
   3  13  -3   19.86    0.86
  -3  13  -3   18.06    0.80
   3  13   3   18.10    0.82
   3 -13  -3   18.28    0.79
  -3 -13   3   19.10    0.77
   4  13  -3   13.75    0.72
   4 -13   3   12.60    0.67
   4  13   3   12.70    0.71
  -4 -13   3   13.16    0.63
  -4  13  -3   13.72    0.69
   4 -13  -3   11.57    0.64
   5  13  -3   16.02    0.81
   5 -13   3   16.34    0.79
  -5  13  -3   17.98    0.79
   5  13   3   15.74    0.81
   5 -13  -3   16.54    0.80
  -5 -13   3   16.38    0.73
   6 -13   3    0.49    0.22
   6  13  -3    0.17    0.18
  -6 -13   3    0.20    0.16
   6  13   3    0.38    0.20
   6 -13  -3    0.40    0.21
   7 -13   3    7.95    0.59
   7  13  -3    8.01    0.62
   7 -13  -3    6.94    0.56
   7  13   3    8.24    0.64
  -8 -13  -3    0.43    0.28
   8  13  -3    0.52    0.28
   8 -13   3    0.58    0.26
   8 -13  -3    0.58    0.24
  -9 -13  -3   18.41    1.03
   9 -13   3   18.35    0.95
   0  14  -3    3.74    0.43
   0 -14   3    4.10    0.44
   0  14   3    3.64    0.43
   0 -14  -3    4.28    0.43
   1 -14   3    5.41    0.45
  -1 -14  -3    5.23    0.40
   1  14  -3    4.26    0.47
  -1  14   3    5.32    0.45
  -1 -14   3    4.92    0.41
   1  14   3    4.06    0.45
   1 -14  -3    5.27    0.42
  -1  14  -3    4.08    0.46
   2  14  -3    0.04    0.17
  -2  14   3    0.01    0.16
  -2 -14  -3    0.04    0.14
   2 -14   3    0.08    0.15
  -2  14  -3   -0.07    0.16
  -2 -14   3   -0.20    0.11
   2  14   3   -0.07    0.15
   2 -14  -3    0.09    0.15
   3 -14   3    0.46    0.20
  -3  14   3    0.54    0.19
   3  14  -3    0.95    0.27
   3  14   3    1.08    0.27
   3 -14  -3    0.55    0.21
  -3 -14   3    0.71    0.21
  -3  14  -3    0.97    0.26
   4  14  -3    3.07    0.43
   4 -14   3    3.35    0.43
   4  14   3    2.48    0.39
  -4  14  -3    3.81    0.45
   4 -14  -3    3.21    0.42
  -4 -14   3    3.48    0.41
   5  14  -3    0.01    0.19
   5 -14   3    0.05    0.15
   5  14   3    0.26    0.20
  -5 -14   3    0.05    0.15
   5 -14  -3    0.12    0.17
  -5  14  -3   -0.04    0.16
   6 -14   3    5.27    0.56
   6  14  -3    6.38    0.63
   6  14   3    6.30    0.63
   6 -14  -3    5.35    0.56
   7 -14   3    0.02    0.20
   7  14  -3   -0.10    0.17
   7 -14  -3   -0.09    0.18
   7  14   3   -0.18    0.19
  -8 -14  -3    0.60    0.31
   8 -14   3   -0.01    0.19
   8  14  -3    0.36    0.25
   8 -14  -3    0.05    0.20
   0 -15  -3    0.08    0.14
   0  15  -3    0.13    0.18
   0 -15   3   -0.02    0.14
   0  15   3    0.28    0.20
  -1 -15  -3    3.87    0.42
   1  15  -3    4.98    0.53
  -1  15   3    5.02    0.51
   1 -15   3    4.37    0.47
  -1 -15   3    4.08    0.46
  -1  15  -3    5.79    0.56
   1  15   3    4.71    0.51
   1 -15  -3    5.78    0.47
   2  15  -3    8.95    0.62
   2 -15   3    8.37    0.57
  -2  15   3    9.88    0.61
   2  15   3    7.96    0.59
  -2 -15   3    7.65    0.53
   2 -15  -3    8.35    0.55
  -2  15  -3    6.65    0.55
   3 -15   3    6.41    0.52
   3  15  -3    6.43    0.54
  -3  15  -3    6.86    0.53
   3 -15  -3    7.02    0.52
   3  15   3    6.17    0.61
  -3 -15   3    6.74    0.49
   4 -15   3    2.56    0.39
   4  15  -3    2.71    0.42
  -4  15  -3    3.41    0.45
  -4 -15   3    3.26    0.40
   4 -15  -3    2.08    0.37
   4  15   3    3.79    0.50
   5 -15   3   20.44    0.94
   5  15  -3   20.97    1.00
   5 -15  -3   20.90    0.95
  -5 -15   3   19.37    0.85
   5  15   3   19.83    0.97
   6 -15   3   -0.03    0.19
   6  15  -3    0.45    0.24
   6  15   3    0.18    0.21
   6 -15  -3    0.34    0.24
   7  15  -3    3.61    0.53
   7 -15   3    4.22    0.54
   7 -15  -3    3.91    0.53
   7  15   3    4.90    0.61
   0  16  -3    3.16    0.46
   0  16   3    4.14    0.49
   0 -16  -3    3.82    0.44
   0 -16   3    4.54    0.49
   1  16  -3    2.18    0.40
  -1  16   3    1.98    0.36
  -1 -16  -3    1.55    0.29
   1 -16   3    2.10    0.36
  -1  16  -3    1.46    0.33
   1 -16  -3    2.04    0.35
   1  16   3    2.21    0.39
  -1 -16   3    1.82    0.33
  -2  16   3    3.48    0.44
   2 -16   3    4.21    0.49
   2  16  -3    3.36    0.47
  -2 -16   3    3.53    0.43
  -2  16  -3    4.12    0.50
   2  16   3    3.67    0.48
   2 -16  -3    3.72    0.45
   3  16  -3   -0.08    0.18
   3 -16   3    0.36    0.22
  -3 -16   3    0.03    0.15
   3  16   3    0.15    0.22
   3 -16  -3    0.19    0.19
  -3  16  -3    0.37    0.23
   4 -16   3    0.63    0.25
   4  16  -3    0.41    0.25
   4  16   3    0.33    0.25
  -4 -16   3    0.35    0.19
  -4  16  -3    0.24    0.22
   4 -16  -3    0.05    0.17
   5  16  -3    0.73    0.27
   5 -16   3    0.55    0.25
  -5 -16   3    0.41    0.20
   5  16   3    0.64    0.27
   5 -16  -3    0.65    0.27
   6 -16   3    0.27    0.23
   6  16  -3    0.49    0.28
   6 -16  -3    0.00    0.22
   6  16   3    0.14    0.24
   0 -17  -3   -0.03    0.18
   0  17  -3    0.04    0.19
   0 -17   3   -0.27    0.15
   0  17   3    0.17    0.23
  -1  17   3    3.50    0.48
   1  17  -3    3.02    0.47
   1 -17   3    2.91    0.42
  -1 -17   3    2.54    0.40
   1  17   3    2.35    0.42
   1 -17  -3    3.48    0.45
  -1  17  -3    3.64    0.50
   2 -17   3    2.86    0.43
   2  17  -3    2.34    0.42
  -2  17   3    2.27    0.39
  -2 -17   3    2.34    0.39
  -2  17  -3    2.07    0.40
   2  17   3    1.97    0.40
   2 -17  -3    2.59    0.40
   3  17  -3   17.10    0.93
   3 -17   3   16.36    0.87
   3  17   3   18.87    0.97
   3 -17  -3   16.91    0.86
  -3  17  -3   16.28    0.88
  -3 -17   3   16.90    0.84
   4  17  -3    5.08    0.61
   4 -17   3    4.82    0.57
   4 -17  -3    4.76    0.55
   4  17   3    4.30    0.57
  -4  17  -3    4.65    0.56
  -4 -17   3    5.31    0.55
   0 -18   3    0.85    0.29
   0  18  -3    0.63    0.28
   0  18   3    0.68    0.28
   0 -18  -3    0.59    0.26
   1  18  -3    1.98    0.41
  -1  18   3    1.73    0.38
   1 -18   3    2.47    0.42
  -1  18  -3    1.42    0.36
   1  18   3    1.99    0.39
  -1 -18   3    1.15    0.33
   1 -18  -3    2.05    0.39
   2  18  -3    1.40    0.38
   2 -18   3    2.09    0.40
  -2 -18   3    2.93    0.42
   2 -18  -3    3.12    0.46
  -2  18  -3    1.54    0.37
   2  18   3    2.35    0.45
   3 -18  -3   -0.02    0.22
  -3 -18   3    0.20    0.20
  -3  18  -3   -0.02    0.22
  -1  19   3    0.63    0.31
   1 -19  -3    0.09    0.24
   0   0  -4  111.73    1.69
   0   0  -4  109.22    1.77
   1   0  -4  923.80   13.75
   1   0  -4  884.15   13.43
  -1   0  -4  912.89   14.01
   1   0   4  950.81   13.50
  -1   0   4  956.39   13.82
   1   0   4 1000.00   14.01
   2   0   4    0.17    0.07
   2   0   4    0.20    0.04
  -2   0  -4    0.15    0.09
   2   0  -4    0.19    0.07
  -2   0   4    0.29    0.09
   2   0  -4    0.07    0.04
   3   0  -4   19.97    0.53
   3   0   4   20.17    0.40
  -3   0  -4   20.87    0.58
   3   0   4   19.07    0.53
  -3   0   4   19.89    0.55
  -4   0  -4   48.23    1.08
   4   0   4   48.90    1.06
   4   0   4   49.58    0.87
   4   0  -4   48.78    1.04
  -4   0   4   48.77    0.79
  -4   0   4   49.64    1.06
  -5   0  -4   88.59    1.73
   5   0  -4   87.30    1.66
   5   0   4   85.88    1.46
   5   0   4   86.61    1.70
  -5   0   4   87.52    1.69
  -5   0   4   87.19    1.37
  -6   0   4    1.16    0.21
  -6   0  -4    1.44    0.23
   6   0  -4    0.99    0.19
   6   0   4    1.31    0.16
   6   0   4    0.98    0.19
   7   0  -4    1.89    0.26
  -7   0  -4    2.69    0.34
  -7   0   4    1.92    0.28
   7   0   4    1.89    0.28
  -8   0  -4    0.89    0.25
   8   0   4    0.72    0.22
   8   0  -4    1.24    0.23
  -8   0   4    1.25    0.28
   9   0   4   75.45    1.89
   9   0  -4   77.94    1.79
  -9   0   4   76.38    1.88
  10   0   4   28.72    1.13
 -10   0   4   28.23    1.10
  10   0  -4   31.96    1.07
  11   0  -4    0.18    0.17
 -11   0   4    0.03    0.23
  11   0   4   -0.15    0.20
 -12   0   4   13.60    0.87
  12   0   4   13.68    0.87
   0  -1  -4    0.43    0.11
   0  -1  -4    0.71    0.08
   0  -1   4    0.56    0.11
   0   1  -4    0.34    0.09
   0   1  -4    0.47    0.14
   0   1   4    0.51    0.13
   1   1  -4   82.78    1.36
   1  -1   4   83.99    1.32
   1  -1   4   85.90    1.37
   1   1  -4   85.80    1.39
  -1   1   4   85.30    1.43
  -1  -1  -4   83.47    1.43
   1  -1  -4   83.18    1.32
  -1   1  -4   83.01    1.46
   1   1   4   84.22    1.42
  -1  -1   4   86.17    1.38
   1  -1  -4   84.53    1.37
   2  -1   4  401.11    5.74
   2  -1   4  399.03    5.66
  -2   1   4  394.66    5.79
   2   1  -4  397.79    5.69
   2   1  -4  386.86    5.79
  -2  -1  -4  394.66    5.87
  -2  -1   4  395.52    5.74
   2  -1  -4  393.22    5.78
   2   1   4  402.88    5.78
  -2   1  -4  386.19    5.90
   3  -1   4   73.95    1.33
  -3  -1  -4   74.26    1.39
  -3   1   4   71.95    1.36
   3  -1   4   73.75    1.20
   3   1  -4   73.71    1.18
   3   1  -4   70.98    1.33
  -3   1  -4   76.03    1.43
   3   1   4   74.66    1.37
   3  -1  -4   74.01    1.34
   3   1   4   72.72    1.11
  -3  -1   4   73.09    1.33
   4  -1   4  110.24    1.93
  -4  -1  -4  109.77    1.98
   4   1  -4  108.83    1.71
   4  -1   4  106.65    1.76
  -4   1   4  112.65    1.96
   4   1  -4  111.06    1.94
  -4  -1   4  112.19    1.93
   4  -1  -4  109.13    1.93
  -4   1  -4  110.11    2.00
   4   1   4  108.51    1.69
   4   1   4  110.60    1.96
   5   1  -4    0.37    0.12
  -5   1   4    0.21    0.12
   5  -1   4    0.15    0.11
  -5  -1  -4    0.43    0.14
   5  -1   4    0.41    0.09
   5   1   4    0.11    0.10
  -5  -1   4    0.40    0.08
   5  -1  -4    0.39    0.12
  -5   1  -4    0.28    0.14
  -5  -1   4    0.45    0.14
   5   1   4    0.27    0.08
  -6  -1  -4    6.85    0.40
   6  -1   4    6.59    0.40
   6   1  -4    6.52    0.37
   6  -1   4    7.19    0.32
  -6   1   4    7.24    0.43
   6  -1  -4    7.01    0.38
   6   1   4    6.75    0.40
  -6  -1   4    6.67    0.40
  -6   1  -4    6.86    0.42
   6   1   4    7.38    0.29
   7   1  -4   11.35    0.52
  -7   1   4   11.16    0.57
   7  -1   4   11.14    0.56
   7  -1   4   11.36    0.44
  -7  -1  -4   11.63    0.56
   7  -1  -4   11.46    0.52
   7   1   4   11.17    0.56
  -7  -1   4   12.15    0.58
  -7   1  -4   11.55    0.59
   8  -1   4   16.73    0.74
   8   1  -4   18.72    0.72
  -8  -1  -4   18.35    0.76
  -8   1   4   19.09    0.79
   8  -1  -4   19.08    0.73
  -8  -1   4   19.07    0.78
   8   1   4   18.79    0.79
  -8   1  -4   17.84    0.76
   9   1  -4   10.54    0.57
   9  -1   4    9.46    0.60
  -9   1   4    9.65    0.60
  -9  -1  -4   10.04    0.60
   9   1   4    9.82    0.61
  -9  -1   4   10.17    0.61
   9  -1  -4   11.19    0.59
  10   1  -4    0.07    0.15
  10  -1   4    0.23    0.20
 -10   1   4   -0.14    0.17
  10  -1  -4    0.06    0.16
 -10  -1   4    0.02    0.19
  10   1   4    0.19    0.20
 -11   1   4    0.13    0.23
  11   1  -4   -0.16    0.14
  11  -1   4   -0.33    0.16
  11   1   4   -0.05    0.19
 -11  -1   4    0.04    0.21
  11  -1  -4   -0.06    0.15
  12  -1   4    5.10    0.63
 -12   1   4    4.17    0.57
  12   1   4    5.28    0.63
 -12  -1   4    5.04    0.62
  12  -1  -4    6.21    0.60
   0   2  -4  109.06    1.69
   0  -2  -4  105.50    1.62
   0   2  -4  106.76    1.74
   0  -2   4  106.15    1.63
   0  -2  -4  104.53    1.70
   1   2  -4  106.83    1.73
   1  -2   4  108.52    1.70
   1   2  -4  109.33    1.75
  -1   2   4  109.18    1.79
   1  -2   4  107.43    1.66
  -1  -2  -4  107.24    1.78
   1  -2  -4  105.63    1.66
   1   2   4  106.64    1.77
   1  -2  -4  108.74    1.71
  -1  -2   4  107.11    1.67
  -1   2  -4  106.82    1.80
   2  -2   4  198.45    2.93
   2   2  -4  195.96    2.95
  -2   2   4  194.17    3.04
   2  -2   4  196.49    2.94
   2   2  -4  187.36    3.01
  -2  -2  -4  197.11    3.08
  -2  -2   4  198.28    2.95
  -2   2  -4  194.15    3.10
   2  -2  -4  192.75    3.00
   2   2   4  195.40    3.03
  -3   2   4    0.28    0.10
  -3  -2  -4    0.47    0.12
   3   2  -4    0.51    0.08
   3  -2   4    0.67    0.10
   3   2  -4    0.61    0.12
   3  -2   4    0.37    0.09
   3  -2  -4    0.70    0.12
  -3   2  -4    0.58    0.15
  -3  -2   4    0.58    0.11
   3   2   4    0.36    0.10
   4  -2   4  258.15    3.92
   4   2  -4  257.83    3.89
   4  -2   4  268.89    4.05
  -4   2   4  257.50    4.08
  -4  -2  -4  265.17    4.15
   4   2  -4  259.00    4.07
   4   2   4  259.64    4.08
  -4  -2   4  267.96    4.03
   4  -2  -4  259.85    4.07
  -4   2  -4  257.40    4.14
   4   2   4  254.74    3.76
   5   2  -4    1.26    0.18
  -5   2   4    0.95    0.18
   5  -2   4    0.82    0.13
   5  -2   4    0.70    0.15
   5   2  -4    0.94    0.12
  -5  -2  -4    0.97    0.18
  -5   2  -4    0.90    0.19
  -5  -2   4    0.62    0.14
   5   2   4    1.17    0.11
   5  -2  -4    0.88    0.16
   5   2   4    0.82    0.16
  -6  -2  -4   22.91    0.76
  -6   2   4   22.55    0.77
   6  -2   4   23.95    0.76
   6  -2   4   22.80    0.62
   6   2  -4   22.79    0.72
  -6  -2   4   23.85    0.76
   6   2   4   22.30    0.76
  -6  -2   4   22.85    0.58
   6   2   4   22.41    0.54
   6  -2  -4   22.62    0.72
  -6   2  -4   22.78    0.76
  -7  -2  -4    2.62    0.32
  -7   2   4    2.94    0.34
   7  -2   4    2.56    0.25
   7   2  -4    2.79    0.31
   7  -2   4    1.32    0.24
   7   2   4    2.05    0.29
  -7  -2   4    1.75    0.27
  -7   2  -4    2.38    0.32
   7  -2  -4    2.41    0.29
   8  -2   4   14.04    0.67
   8   2  -4   12.76    0.59
  -8   2   4   12.73    0.64
  -8  -2  -4   13.10    0.64
  -8   2  -4   15.07    0.69
   8  -2  -4   14.26    0.63
   8   2   4   12.61    0.64
  -8  -2   4   13.13    0.64
  -9   2   4    1.71    0.31
  -9  -2  -4    1.70    0.31
   9   2  -4    1.42    0.26
   9  -2   4    1.50    0.31
   9  -2  -4    1.72    0.28
  -9  -2   4    1.81    0.32
   9   2   4    1.91    0.32
 -10   2   4   31.38    1.19
  10   2  -4   33.85    1.11
  10  -2   4   33.46    1.22
  10  -2  -4   33.55    1.12
 -10  -2   4   32.54    1.18
  10   2   4   33.59    1.22
  11   2  -4    1.74    0.32
 -11   2   4    2.00    0.41
  11  -2   4    1.54    0.36
 -11  -2   4    1.66    0.37
  11   2   4    1.00    0.29
  11  -2  -4    1.86    0.33
 -12   2   4   16.28    0.93
  12  -2   4   15.62    0.94
  12  -2  -4   16.66    0.85
  12   2   4   14.72    0.92
 -12  -2   4   17.29    0.96
   0   3  -4    0.00    0.07
   0  -3   4   -0.04    0.03
   0  -3  -4   -0.07    0.04
   0  -3  -4    0.00    0.04
   0  -3   4    0.04    0.05
   1   3  -4   70.50    1.25
   1  -3   4   70.71    1.11
  -1   3   4   68.11    1.27
   1  -3   4   68.86    1.21
  -1  -3  -4   70.88    1.09
  -1  -3  -4   69.34    1.27
   1   3  -4   68.60    1.24
  -1   3   4   70.79    1.16
  -1  -3   4   71.43    1.13
   1   3   4   69.61    1.27
   1  -3  -4   72.27    1.21
  -1   3  -4   72.51    1.30
  -2   3   4  515.01    7.17
   2   3  -4  505.86    7.33
   2  -3   4  512.30    7.28
  -2  -3  -4  494.90    7.42
  -2   3   4  486.12    7.33
   2  -3   4  507.28    7.18
   2   3  -4  488.28    7.34
  -2  -3   4  518.34    7.19
   2  -3  -4  505.52    7.32
  -2   3  -4  492.59    7.42
   2   3   4  501.45    7.32
  -3  -3  -4   80.56    1.19
  -3  -3  -4   78.72    1.52
  -3   3   4   79.83    1.50
   3   3  -4   78.47    1.47
   3  -3   4   78.78    1.39
   3  -3   4   81.13    1.41
   3   3  -4   80.07    1.40
   3  -3  -4   79.44    1.47
  -3   3  -4   81.29    1.53
   3   3   4   79.24    1.49
  -3  -3   4   82.45    1.41
   4  -3   4    5.68    0.26
   4  -3   4    5.97    0.30
   4   3  -4    5.29    0.29
  -4  -3  -4    5.82    0.33
  -4   3   4    5.69    0.32
   4   3  -4    5.18    0.25
   4   3   4    5.36    0.31
  -4   3  -4    5.16    0.34
   4   3   4    5.88    0.18
  -4  -3   4    6.28    0.31
   4  -3  -4    5.39    0.30
  -5   3   4    4.45    0.32
   5   3  -4    4.85    0.30
   5  -3   4    4.34    0.26
  -5  -3  -4    4.77    0.33
   5  -3   4    4.73    0.30
   5   3  -4    4.84    0.25
   5   3   4    4.16    0.30
  -5   3  -4    4.57    0.35
   5   3   4    4.68    0.19
   5  -3  -4    4.21    0.29
  -5  -3   4    4.93    0.30
   6  -3   4   34.42    0.95
   6  -3   4   34.87    0.85
   6   3  -4   35.33    0.81
  -6  -3  -4   34.14    0.97
   6   3  -4   35.20    0.93
  -6   3   4   35.06    0.99
  -6   3  -4   34.50    0.97
  -6  -3   4   34.29    0.94
   6   3   4   34.51    0.98
   6  -3  -4   34.51    0.95
  -7   3   4    3.17    0.36
   7   3  -4    3.43    0.33
  -7  -3  -4    3.12    0.34
   7  -3   4    3.08    0.25
   7  -3   4    3.74    0.37
   7   3   4    2.95    0.35
  -7   3  -4    2.99    0.35
   7  -3  -4    3.05    0.32
  -7  -3   4    3.63    0.36
   8  -3   4   52.48    1.41
  -8   3   4   52.91    1.43
   8  -3   4   53.43    1.23
   8   3  -4   54.08    1.34
  -8  -3  -4   49.34    1.35
  -8   3  -4   50.83    1.33
   8   3   4   51.33    1.42
   8  -3  -4   52.55    1.35
  -8  -3   4   51.56    1.38
  -9   3   4    1.08    0.27
  -9  -3  -4    1.27    0.29
   9  -3   4    1.31    0.28
   9   3  -4    1.76    0.28
  -9  -3   4    1.46    0.29
   9  -3  -4    1.84    0.30
   9   3   4    1.23    0.29
 -10   3   4    0.73    0.26
  10  -3   4    0.84    0.27
  10   3  -4    1.20    0.27
  10   3   4    1.11    0.29
  10  -3  -4    1.00    0.25
 -10  -3   4    0.84    0.26
 -11   3   4    3.45    0.49
  11  -3   4    3.77    0.52
  11   3   4    3.39    0.49
  11  -3  -4    3.18    0.42
 -11  -3   4    3.22    0.47
 -12   3   4    5.95    0.67
  12  -3   4    6.08    0.68
  12   3   4    6.29    0.71
 -12  -3   4    7.52    0.74
 -12   3  -4    6.95    0.68
  12  -3  -4    6.71    0.56
   0   4   4   13.42    0.43
   0   4  -4   13.11    0.42
   0   4   4   13.93    0.40
   0  -4  -4   13.64    0.35
   0  -4   4   13.56    0.41
   1   4  -4   59.14    1.14
  -1   4   4   58.67    1.04
  -1  -4  -4   58.61    0.98
   1  -4   4   58.28    1.10
  -1   4   4   58.88    1.15
   1  -4   4   59.00    0.93
   1   4   4   58.70    1.13
  -1   4  -4   58.59    1.16
   1   4   4   59.42    1.14
  -1  -4   4   60.53    0.95
  -1  -4   4   58.44    1.13
   1  -4  -4   60.33    1.08
  -2   4   4   48.69    1.03
   2   4  -4   48.06    0.98
  -2  -4  -4   47.61    1.03
  -2   4   4   49.05    0.86
  -2  -4  -4   48.45    0.80
   2  -4   4   48.79    0.86
   2  -4   4   48.34    0.96
   2   4   4   48.59    1.00
   2  -4  -4   49.20    0.98
  -2   4  -4   48.37    1.03
  -2  -4   4   48.90    0.87
  -3   4   4   20.58    0.42
  -3   4   4   20.85    0.62
   3   4  -4   20.64    0.59
  -3  -4  -4   20.59    0.40
  -3  -4  -4   20.08    0.62
   3   4  -4   20.36    0.55
   3  -4   4   20.61    0.52
   3  -4   4   20.67    0.56
   3  -4  -4   21.39    0.59
  -3  -4   4   20.20    0.52
  -3   4  -4   20.93    0.62
   3   4   4   20.28    0.60
   4   4  -4   93.13    1.67
  -4  -4  -4   94.15    1.46
  -4  -4  -4   94.16    1.82
   4   4  -4   95.07    1.75
  -4   4   4   93.52    1.42
  -4   4   4   92.11    1.78
   4  -4   4   92.73    1.68
   4  -4   4   93.84    1.68
  -4   4  -4   94.88    1.78
   4   4   4   93.89    1.77
  -4  -4   4   95.55    1.68
   4  -4  -4   95.05    1.76
   5  -4   4   12.11    0.48
   5   4  -4   11.87    0.43
   5   4  -4   12.57    0.49
  -5  -4  -4   11.70    0.52
   5  -4   4   12.50    0.45
  -5   4   4   11.44    0.52
  -5   4  -4   12.58    0.52
  -5  -4   4   12.24    0.47
   5   4   4   12.59    0.33
   5  -4  -4   12.23    0.50
   5   4   4   12.79    0.53
  -6   4   4   37.38    1.05
   6   4  -4   37.11    0.89
   6   4  -4   38.78    1.00
   6  -4   4   37.94    1.00
  -6  -4  -4   36.91    1.04
   6  -4   4   37.23    0.92
   6   4   4   37.65    1.05
   6  -4  -4   37.81    1.02
  -6  -4   4   37.90    0.99
  -6   4  -4   36.13    0.99
  -7  -4  -4    0.18    0.16
   7   4  -4    0.08    0.10
   7  -4   4    0.15    0.11
   7  -4   4   -0.05    0.12
  -7   4   4    0.22    0.16
   7   4   4    0.03    0.13
   7  -4  -4   -0.19    0.09
  -7   4  -4    0.04    0.18
  -7  -4   4    0.04    0.14
  -8  -4  -4    3.86    0.41
   8  -4   4    4.23    0.44
   8   4  -4    3.74    0.38
  -8   4   4    3.94    0.43
   8  -4   4    3.73    0.31
  -8   4  -4    3.39    0.38
  -8  -4   4    4.38    0.44
   8   4   4    3.93    0.43
   8  -4  -4    3.55    0.39
   9   4  -4    0.36    0.17
  -9  -4  -4    0.60    0.23
  -9   4   4    0.67    0.24
   9  -4   4    0.58    0.23
   9  -4  -4    0.72    0.21
  -9  -4   4    0.39    0.21
   9   4   4    0.38    0.22
  10   4  -4    0.12    0.16
 -10   4   4    0.59    0.25
  10  -4   4    0.37    0.22
  10   4   4    0.41    0.24
 -10  -4   4    0.38    0.24
  10  -4  -4    0.22    0.16
 -11   4   4    0.23    0.23
  11  -4   4    0.66    0.28
  11   4   4   -0.01    0.19
  11  -4  -4    0.09    0.18
 -11  -4   4    0.10    0.24
 -12   4   4    0.16    0.28
  12   4   4    0.40    0.27
 -12   4  -4    0.89    0.32
  12  -4  -4    0.47    0.24
 -12  -4   4    0.59    0.33
   0  -5   4   -0.05    0.06
   0  -5  -4   -0.09    0.05
   0   5   4    0.25    0.09
   0   5  -4    0.39    0.13
   0   5   4   -0.03    0.07
  -1   5   4   43.79    0.88
  -1  -5  -4   45.63    0.83
   1   5  -4   42.83    0.96
   1  -5   4   45.34    0.71
   1  -5   4   43.18    0.93
  -1   5   4   43.84    0.96
  -1   5  -4   43.79    0.98
  -1  -5   4   45.10    0.95
  -1  -5   4   45.04    0.72
   1   5   4   45.22    0.94
   1   5   4   44.33    0.95
   1  -5  -4   45.12    0.90
  -2  -5  -4   67.01    1.10
   2   5  -4   64.09    1.29
   2  -5   4   66.34    1.10
  -2   5   4   64.64    1.30
   2  -5   4   65.28    1.27
  -2   5   4   66.01    1.16
   2   5  -4   66.46    1.29
   2   5   4   67.19    1.29
   2  -5  -4   68.05    1.28
   2   5   4   66.82    1.33
  -2   5  -4   67.20    1.33
  -2  -5   4   67.12    1.11
  -3  -5  -4    0.07    0.05
   3   5  -4    0.11    0.07
   3  -5   4    0.09    0.07
  -3   5   4    0.00    0.05
   3  -5   4    0.05    0.08
  -3   5   4   -0.06    0.09
   3   5  -4   -0.05    0.07
  -3  -5  -4    0.02    0.08
  -3   5  -4    0.31    0.13
   3   5   4    0.09    0.08
  -3  -5   4    0.00    0.07
   3  -5  -4    0.12    0.08
   4   5  -4    1.40    0.19
  -4  -5  -4    1.38    0.21
  -4  -5  -4    1.43    0.11
  -4   5   4    1.33    0.11
   4   5  -4    1.39    0.18
  -4   5   4    1.33    0.20
   4  -5   4    1.70    0.20
   4  -5   4    1.35    0.18
   4   5   4    1.33    0.19
  -4  -5   4    1.29    0.17
   4  -5  -4    1.28    0.19
  -4   5  -4    1.42    0.21
   5   5  -4    0.25    0.11
   5  -5   4    0.26    0.12
   5  -5   4    0.13    0.10
  -5   5   4    0.15    0.13
   5   5  -4    0.22    0.10
  -5  -5  -4    0.34    0.14
   5   5   4    0.32    0.13
  -5  -5   4    0.36    0.13
  -5   5  -4    0.18    0.15
   5  -5  -4    0.11    0.10
   6   5  -4    7.03    0.37
  -6  -5  -4    7.36    0.46
   6  -5   4    7.47    0.41
  -6   5   4    8.52    0.48
   6   5  -4    7.87    0.42
   6  -5   4    7.42    0.40
   6   5   4    7.58    0.44
   6  -5  -4    8.49    0.45
  -6  -5   4    6.89    0.40
  -6   5  -4    6.89    0.43
   7  -5   4    8.56    0.45
   7  -5   4    9.19    0.51
   7   5  -4    9.55    0.49
  -7   5   4    9.80    0.55
  -7  -5  -4    9.82    0.54
   7  -5  -4    9.63    0.52
  -7  -5   4   10.29    0.52
  -7   5  -4   10.15    0.52
   7   5   4    9.57    0.54
   8  -5   4   15.88    0.71
  -8   5   4   15.30    0.73
  -8  -5  -4   16.34    0.74
   8   5  -4   16.59    0.69
   8  -5   4   15.59    0.63
   8   5   4   15.24    0.73
  -8  -5   4   15.85    0.69
   8  -5  -4   16.48    0.71
   9  -5   4    0.40    0.23
   9   5  -4    0.29    0.16
  -9  -5  -4    0.35    0.19
  -9   5   4    0.35    0.21
  -9  -5   4    0.33    0.20
   9   5   4    0.23    0.19
   9  -5  -4    0.08    0.14
  10   5  -4    0.23    0.18
  10  -5   4    0.49    0.26
 -10   5   4    0.79    0.30
  10   5   4    0.42    0.23
 -10  -5   4    0.56    0.24
  10  -5  -4    0.47    0.21
 -11   5   4   -0.17    0.20
 -11   5  -4    0.20    0.19
  11   5   4    0.56    0.28
  11  -5  -4    0.18    0.18
 -11  -5   4    0.14    0.24
 -12   5  -4    1.32    0.36
 -12  -5   4    1.30    0.38
  12  -5  -4    1.30    0.32
   0   6   4   14.21    0.47
   0   6   4   14.06    0.47
   0  -6   4   14.86    0.48
   0   6  -4   14.03    0.50
   0  -6  -4   14.14    0.42
  -1   6   4   54.04    1.12
   1   6  -4   52.46    1.15
  -1   6   4   54.20    1.07
   1  -6   4   52.00    1.11
  -1  -6  -4   54.61    1.01
  -1  -6   4   55.51    1.14
  -1   6  -4   54.68    1.17
   1   6   4   54.52    1.11
   1  -6  -4   53.54    1.08
   1   6   4   54.41    1.14
   2  -6   4  195.69    3.18
   2   6  -4  194.29    3.22
   2  -6   4  195.89    2.91
  -2  -6  -4  196.90    2.98
  -2   6   4  192.35    3.18
  -2   6   4  196.84    3.06
   2   6   4  195.83    3.15
  -2   6  -4  197.02    3.24
   2  -6  -4  201.46    3.18
  -2  -6   4  198.98    3.21
  -2  -6   4  197.69    2.90
   2   6   4  194.46    3.24
   3   6  -4   12.50    0.48
   3  -6   4   13.34    0.39
  -3   6   4   12.69    0.38
  -3   6   4   12.43    0.50
  -3  -6  -4   13.57    0.36
   3  -6   4   13.04    0.48
   3   6  -4   13.30    0.49
   3   6   4   13.07    0.48
  -3  -6   4   12.92    0.38
   3  -6  -4   12.95    0.49
  -3   6  -4   12.85    0.50
   3   6   4   12.59    0.51
   4  -6   4   57.99    1.27
  -4  -6  -4   62.03    1.40
  -4   6   4   59.36    1.07
   4   6  -4   57.78    1.27
  -4  -6  -4   59.67    1.06
   4   6  -4   60.22    1.30
   4  -6   4   62.20    1.20
  -4   6   4   60.16    1.33
   4   6   4   60.32    1.31
  -4   6  -4   59.46    1.31
  -4  -6   4   59.38    1.17
   4  -6  -4   59.16    1.31
  -5   6   4    1.35    0.24
   5   6  -4    1.24    0.20
   5   6  -4    1.10    0.19
  -5  -6  -4    1.13    0.21
   5  -6   4    1.26    0.19
   5  -6   4    1.51    0.21
   5  -6  -4    1.31    0.21
  -5   6  -4    1.69    0.25
  -5  -6   4    1.39    0.20
   5   6   4    0.67    0.15
   6  -6   4   70.70    1.52
   6   6  -4   69.90    1.51
  -6  -6  -4   70.48    1.65
   6  -6   4   68.63    1.52
   6   6  -4   72.57    1.57
  -6   6   4   70.36    1.61
  -6   6  -4   72.36    1.56
   6  -6  -4   71.13    1.60
   6   6   4   69.59    1.60
  -6  -6   4   74.27    1.52
   7  -6   4    0.37    0.18
  -7   6   4    0.33    0.18
   7  -6   4    0.21    0.12
  -7  -6  -4    0.50    0.18
   7   6  -4    0.16    0.14
   7   6  -4    0.20    0.12
  -7  -6   4    0.20    0.16
  -7   6  -4    0.81    0.20
   7   6   4    0.41    0.19
   7  -6  -4    0.35    0.15
   8  -6   4   25.43    0.85
   8  -6   4   23.72    0.89
  -8  -6  -4   24.05    0.93
  -8   6   4   22.30    0.91
   8   6  -4   24.23    0.85
   8   6   4   24.99    0.96
   8  -6  -4   23.52    0.89
  -8  -6   4   23.39    0.85
  -9  -6  -4    3.07    0.41
   9  -6   4    2.69    0.34
  -9   6   4    2.20    0.37
   9   6  -4    2.82    0.36
   9   6   4    3.16    0.43
   9  -6  -4    3.35    0.42
  -9  -6   4    2.26    0.35
  -9   6  -4    2.64    0.35
 -10  -6  -4    0.55    0.26
 -10   6   4    0.88    0.28
  10   6   4    1.22    0.33
  10  -6  -4    0.78    0.25
 -10  -6   4    1.10    0.29
 -10   6  -4    0.85    0.25
 -11   6   4    2.23    0.43
 -11   6  -4    1.24    0.33
  11   6   4    1.62    0.38
  11  -6  -4    1.61    0.33
 -11  -6   4    1.71    0.36
 -12  -6   4    1.44    0.38
  12  -6  -4    1.60    0.35
 -12   6  -4    1.70    0.39
   0   7   4   -0.12    0.06
   0  -7  -4    0.05    0.07
   0  -7   4   -0.08    0.05
   0   7   4    0.08    0.07
   0   7  -4   -0.16    0.08
  -1   7   4    0.11    0.08
  -1   7   4    0.11    0.09
   1  -7   4    0.13    0.08
  -1  -7  -4    0.52    0.11
   1   7  -4    0.20    0.11
   1  -7  -4    0.32    0.10
   1   7   4    0.33    0.12
   1   7   4    0.48    0.12
  -1  -7   4    0.11    0.08
  -1   7  -4    0.11    0.11
   2   7  -4  114.99    2.12
  -2  -7  -4  112.53    1.88
  -2   7   4  114.98    1.96
  -2   7   4  112.66    2.05
   2  -7   4  116.08    2.08
   2   7   4  114.78    2.02
   2   7   4  114.84    2.12
  -2  -7   4  114.61    2.08
  -2  -7   4  113.00    1.75
   2  -7  -4  113.83    2.04
  -2   7  -4  113.83    2.11
  -2   7  -4  114.09    1.75
   3   7  -4    4.45    0.30
  -3   7   4    4.96    0.32
   3  -7   4    4.79    0.30
  -3  -7  -4    4.85    0.23
  -3   7   4    4.87    0.25
  -3  -7   4    4.62    0.22
  -3   7  -4    4.95    0.23
   3  -7  -4    5.11    0.32
  -3  -7   4    4.45    0.30
  -3   7  -4    4.58    0.32
   3   7   4    4.40    0.29
   3   7   4    4.39    0.32
  -4  -7  -4   13.48    0.39
   4   7  -4   12.65    0.52
  -4   7   4   12.64    0.55
   4   7  -4   12.81    0.52
   4  -7   4   12.23    0.51
  -4   7   4   12.70    0.40
   4   7   4   12.96    0.52
  -4  -7   4   12.95    0.43
   4  -7  -4   12.82    0.54
  -4   7  -4   13.09    0.44
   4   7   4   12.09    0.55
  -4   7  -4   12.90    0.54
   5  -7   4    2.69    0.30
   5   7  -4    3.07    0.29
  -5  -7  -4    2.76    0.33
   5   7  -4    2.59    0.29
   5   7  -4    2.58    0.29
  -5   7   4    2.11    0.29
  -5   7  -4    2.38    0.29
   5  -7  -4    2.16    0.27
   5   7   4    2.26    0.28
  -5   7  -4    2.33    0.24
   6   7  -4    5.22    0.36
   6   7  -4    5.17    0.36
  -6  -7  -4    5.45    0.43
   6  -7   4    6.07    0.39
  -6   7   4    5.44    0.40
  -6   7  -4    5.08    0.34
  -6  -7   4    6.02    0.36
   6  -7  -4    5.09    0.39
  -6   7  -4    5.52    0.39
   6   7   4    5.02    0.38
   7  -7   4   17.19    0.68
  -7  -7  -4   18.30    0.78
  -7   7   4   15.60    0.71
   7   7  -4   17.12    0.67
   7   7  -4   17.34    0.68
   7  -7  -4   15.58    0.70
  -7   7  -4   16.61    0.66
  -7   7  -4   16.22    0.66
  -7  -7   4   15.05    0.64
   7   7   4   17.09    0.74
  -8  -7  -4    9.42    0.60
   8   7  -4    9.06    0.52
   8  -7   4    8.85    0.51
  -8   7   4    8.22    0.55
   8   7   4    8.82    0.58
   8  -7  -4    9.17    0.55
  -8  -7   4    8.62    0.52
  -8   7  -4    8.78    0.52
   9  -7   4    1.64    0.28
  -9  -7  -4    1.64    0.33
   9   7  -4    1.72    0.29
  -9   7   4    1.41    0.33
  -9  -7   4    1.15    0.28
   9  -7  -4    1.37    0.29
  -9   7  -4    1.45    0.30
   9   7   4    1.40    0.32
 -10  -7  -4    1.94    0.38
 -10   7   4    1.38    0.36
 -10   7  -4    2.00    0.35
  10  -7  -4    1.68    0.33
  10   7   4    1.95    0.37
 -10  -7   4    1.89    0.36
 -11   7   4    0.76    0.29
  11   7   4    1.59    0.38
 -11  -7   4    0.72    0.32
  11  -7  -4    0.37    0.23
 -11   7  -4    0.81    0.29
 -12   7  -4    1.64    0.38
   0  -8  -4    3.74    0.25
   0   8  -4    4.17    0.30
   0  -8   4    4.13    0.29
   0   8   4    4.13    0.28
   0   8   4    3.88    0.26
   1   8  -4    3.84    0.30
   1  -8   4    3.92    0.28
  -1   8   4    3.53    0.27
  -1  -8  -4    3.82    0.24
  -1   8   4    3.26    0.25
   1  -8  -4    3.70    0.27
   1   8   4    3.73    0.28
   1   8   4    3.16    0.24
  -1  -8   4    3.29    0.26
  -1   8  -4    3.37    0.32
  -2   8   4   14.83    0.50
  -2   8   4   14.26    0.54
   2   8  -4   15.01    0.59
  -2  -8  -4   14.23    0.45
   2  -8   4   14.37    0.55
   2  -8  -4   14.26    0.53
   2   8   4   14.74    0.58
   2   8   4   14.37    0.51
  -2  -8   4   14.32    0.54
  -2   8  -4   14.57    0.58
  -3   8   4    1.17    0.21
  -3  -8  -4    0.90    0.13
   3  -8   4    0.95    0.18
   3   8  -4    1.11    0.20
  -3   8   4    1.23    0.17
  -3   8  -4    1.18    0.22
   3   8   4    1.27    0.19
   3  -8  -4    0.86    0.18
  -3  -8   4    0.93    0.17
   3   8   4    1.28    0.21
  -4   8   4    9.18    0.48
   4  -8   4    9.65    0.48
   4   8  -4    9.27    0.48
  -4  -8   4    8.67    0.44
   4   8   4    9.48    0.49
   4   8   4    9.23    0.45
   4  -8  -4    8.60    0.46
  -4   8  -4    8.78    0.47
   5  -8   4    1.60    0.25
  -5  -8  -4    1.68    0.27
  -5   8   4    1.60    0.27
   5   8  -4    1.44    0.23
   5   8  -4    2.06    0.24
   5   8  -4    1.65    0.25
  -5   8  -4    2.36    0.25
   5  -8  -4    1.38    0.24
  -5   8  -4    2.07    0.29
   5   8   4    1.56    0.24
   6   8  -4    8.49    0.48
  -6  -8  -4    8.57    0.53
   6   8  -4    8.25    0.46
   6  -8   4    8.23    0.47
  -6   8   4    8.52    0.51
  -6   8  -4    8.40    0.43
   6   8   4    9.03    0.51
  -6   8  -4    9.22    0.49
   6  -8  -4    7.64    0.48
   7  -8   4    0.91    0.23
  -7  -8  -4    0.94    0.25
   7   8  -4    0.97    0.23
  -7   8   4    1.26    0.28
   7   8  -4    0.77    0.20
   7  -8  -4    1.23    0.25
  -7   8  -4    0.92    0.22
  -7   8  -4    1.29    0.23
   7   8   4    1.57    0.29
  -7  -8   4    1.74    0.27
   8   8  -4   13.29    0.63
  -8   8   4   12.86    0.71
  -8  -8  -4   12.89    0.72
   8  -8   4   12.53    0.64
   8   8   4   12.43    0.69
   8  -8  -4   13.33    0.69
  -9   8   4    1.98    0.37
  -9  -8  -4    2.46    0.42
   9  -8   4    2.21    0.34
   9   8  -4    2.79    0.36
   9   8   4    1.88    0.35
   9  -8  -4    2.11    0.34
 -10  -8  -4    2.27    0.41
 -10   8   4    2.39    0.44
  10  -8  -4    3.02    0.43
  10   8   4    3.58    0.50
 -11   8   4    0.44    0.28
  11   8   4   -0.09    0.22
  11  -8  -4    0.26    0.22
   0   9  -4   -0.12    0.09
   0   9   4    0.03    0.10
   0  -9   4   -0.06    0.07
   0  -9  -4    0.04    0.09
   0   9   4    0.03    0.08
  -1   9   4   52.19    1.16
   1   9  -4   51.31    1.28
  -1  -9  -4   53.94    1.13
   1  -9   4   51.23    1.23
  -1   9   4   52.72    1.19
   1   9   4   53.60    1.26
  -1   9  -4   53.72    1.29
  -1  -9   4   53.18    1.24
   1   9   4   52.33    1.14
   1  -9  -4   52.84    1.18
  -2   9   4  121.41    2.24
   2  -9   4  123.22    2.32
   2   9  -4  122.77    2.38
  -2   9   4  124.42    2.22
  -2  -9  -4  125.65    2.14
  -2   9  -4  122.58    2.35
   2   9   4  124.91    2.37
  -2  -9   4  124.45    2.31
   2   9   4  122.78    2.20
   2  -9  -4  127.23    2.30
  -3   9   4   55.09    1.18
  -3  -9  -4   56.43    1.13
   3   9  -4   54.52    1.36
   3  -9   4   53.74    1.31
  -3   9   4   55.45    1.29
   3   9   4   56.24    1.25
   3  -9  -4   54.72    1.31
   3   9   4   54.13    1.36
  -3   9  -4   56.79    1.35
  -3  -9   4   55.78    1.30
  -4   9   4    2.44    0.31
   4  -9   4    2.87    0.32
   4   9  -4    2.90    0.33
   4   9   4    2.58    0.29
  -4  -9   4    2.35    0.29
   4  -9  -4    2.67    0.32
   4   9   4    2.92    0.36
  -4   9  -4    2.77    0.33
   5  -9   4    7.12    0.44
  -5   9   4    6.92    0.46
   5   9  -4    7.07    0.45
   5  -9  -4    7.10    0.46
   5   9   4    6.35    0.46
  -5   9  -4    7.25    0.45
  -5  -9   4    7.23    0.44
   5   9   4    7.41    0.44
   6  -9   4   35.47    1.08
  -6  -9  -4   36.87    1.19
   6   9  -4   35.33    1.08
  -6   9   4   35.12    1.09
   6  -9  -4   33.29    1.08
  -6   9  -4   35.13    1.04
   6   9   4   35.35    1.07
  -6  -9   4   34.45    1.04
  -7  -9  -4   41.28    1.33
   7   9  -4   43.03    1.25
   7   9  -4   45.31    1.24
  -7   9   4   44.03    1.30
   7  -9   4   44.55    1.27
   7   9   4   44.15    1.29
   7  -9  -4   43.11    1.29
   8   9  -4   28.00    0.97
  -8  -9  -4   28.12    1.10
   8  -9   4   30.26    1.04
  -8   9   4   26.47    1.03
   8  -9  -4   27.76    1.04
   8   9   4   27.99    1.05
  -9  -9  -4    0.19    0.19
  -9   9   4   -0.13    0.19
   9  -9   4    0.23    0.17
   9   9   4    0.04    0.20
   9  -9  -4    0.14    0.16
  10  -9   4    0.12    0.17
 -10   9   4    0.27    0.27
 -10  -9  -4    0.18    0.25
  10   9   4   -0.30    0.19
  10  -9  -4    0.06    0.18
 -11   9   4   -0.06    0.25
  11   9   4    0.17    0.26
   0  10   4  108.28    2.11
   0 -10   4  104.91    2.10
   0  10  -4  106.51    2.17
   0 -10  -4  109.30    2.02
   0  10   4  107.90    1.97
   1  10  -4    2.22    0.29
  -1  10   4    2.41    0.28
  -1 -10  -4    2.08    0.24
  -1  10   4    2.39    0.26
   1 -10   4    2.69    0.31
  -1 -10   4    2.01    0.27
   1  10   4    1.96    0.28
   1 -10  -4    2.18    0.26
   1  10   4    1.96    0.23
  -1  10  -4    1.86    0.28
  -2  10   4   83.26    1.69
  -2 -10  -4   87.28    1.63
  -2  10   4   83.50    1.69
   2  10  -4   86.03    1.85
   2 -10   4   83.83    1.79
   2  10   4   83.67    1.82
   2 -10  -4   83.18    1.74
  -2 -10   4   82.29    1.76
   2  10   4   85.10    1.66
  -2  10  -4   81.52    1.81
  -3  10   4   11.56    0.49
   3 -10   4   11.82    0.56
   3  10  -4   11.86    0.58
  -3  10   4   12.83    0.56
  -3 -10  -4   11.76    0.46
   3  10   4   11.83    0.60
  -3 -10   4   11.66    0.55
   3 -10  -4   11.97    0.56
  -3  10  -4   11.40    0.56
   3  10   4   12.37    0.52
  -4  10   4   27.73    0.89
   4 -10   4   26.90    0.90
   4  10  -4   25.02    0.90
   4  10   4   25.48    0.92
  -4  10  -4   26.51    0.90
   4 -10  -4   25.94    0.89
   4  10   4   27.50    0.84
  -4 -10   4   25.52    0.85
   5  10  -4    2.98    0.37
   5 -10   4    3.46    0.37
  -5  10   4    3.19    0.38
   5  10   4    3.67    0.37
   5  10   4    3.06    0.38
  -5  10  -4    2.67    0.33
  -5 -10   4    2.71    0.33
   5 -10  -4    3.34    0.38
   6 -10   4    6.79    0.48
   6  10  -4    7.26    0.49
  -6 -10  -4    7.38    0.54
  -6  10   4    7.71    0.50
  -6  10  -4    6.51    0.46
   6  10   4    7.21    0.47
   6 -10  -4    6.49    0.47
  -6 -10   4    7.91    0.48
  -7 -10  -4    1.52    0.32
  -7  10   4    1.41    0.30
   7  10  -4    2.59    0.36
   7 -10   4    2.18    0.34
   7  10   4    2.78    0.37
  -7 -10   4    1.82    0.30
   7 -10  -4    1.93    0.32
   8 -10   4    7.43    0.53
  -8  10   4    7.64    0.58
  -8 -10  -4    8.32    0.63
   8 -10  -4    7.12    0.53
  -8 -10   4    7.37    0.50
   8  10   4    7.72    0.55
  -9 -10  -4    0.43    0.26
   9 -10   4    0.32    0.19
  -9  10   4    0.15    0.23
   9  10   4    0.28    0.23
   9 -10  -4    0.23    0.19
 -10  10   4   21.07    1.01
 -10 -10  -4   20.21    1.02
  10 -10   4   19.21    0.91
  10 -10  -4   19.26    0.96
  10  10   4   20.01    0.98
   0  11   4    0.16    0.14
   0 -11  -4   -0.06    0.10
   0  11   4   -0.02    0.09
   0 -11   4   -0.07    0.09
   0  11  -4   -0.03    0.13
   1  11  -4   32.13    1.03
  -1  11   4   32.16    0.95
  -1 -11  -4   32.01    0.88
   1 -11   4   32.89    0.99
  -1  11   4   33.54    0.88
  -1  11  -4   30.23    1.00
   1  11   4   32.17    0.99
  -1 -11   4   31.01    0.96
   1 -11  -4   31.49    0.93
   1  11   4   32.79    0.87
  -2  11   4    2.89    0.31
  -2 -11  -4    2.19    0.26
  -2  11   4    3.18    0.32
   2  11  -4    2.81    0.35
   2 -11   4    2.90    0.34
   2  11   4    2.54    0.33
   2 -11  -4    2.42    0.30
  -2  11  -4    3.30    0.37
   2  11   4    3.15    0.30
  -2 -11   4    2.66    0.33
   3 -11   4    0.10    0.14
  -3  11   4    0.10    0.14
  -3  11   4    0.05    0.12
   3  11  -4   -0.09    0.11
   3  11   4   -0.12    0.11
   3 -11  -4   -0.05    0.11
   3  11   4   -0.03    0.13
  -3 -11   4    0.14    0.12
  -3  11  -4    0.23    0.16
  -4  11   4    3.92    0.39
   4 -11   4    3.22    0.37
   4  11  -4    4.02    0.43
   4  11   4    3.56    0.41
   4 -11  -4    3.93    0.41
   4  11   4    3.83    0.37
  -4 -11   4    3.59    0.37
  -4  11  -4    3.48    0.39
   5 -11   4    1.04    0.24
   5  11  -4    1.66    0.30
  -5  11   4    1.65    0.29
   5 -11  -4    1.51    0.28
  -5  11  -4    1.23    0.26
  -5 -11   4    1.26    0.25
   5  11   4    1.80    0.31
   5  11   4    1.78    0.27
   6 -11   4    1.08    0.26
  -6  11   4    0.89    0.26
   6  11  -4    1.06    0.26
  -6 -11   4    0.79    0.22
  -6  11  -4    0.92    0.24
   6  11   4    1.19    0.28
   6  11   4    0.96    0.23
   6 -11  -4    1.04    0.25
  -7 -11  -4    0.79    0.28
   7 -11   4    0.53    0.21
   7  11  -4    0.78    0.23
  -7 -11   4    0.88    0.23
   7 -11  -4    1.10    0.28
   7  11   4    0.97    0.26
   8 -11   4    0.16    0.17
   8  11  -4   -0.12    0.17
  -8 -11  -4    0.11    0.22
   8 -11  -4    0.04    0.16
   8  11   4    0.18    0.20
   9 -11   4    0.56    0.25
  -9 -11  -4    0.96    0.33
   9 -11  -4    0.67    0.27
 -10 -11  -4    2.24    0.44
  10 -11   4    3.18    0.45
   0 -12  -4   45.98    1.17
   0  12  -4   45.18    1.31
   0 -12   4   44.23    1.23
   0  12   4   44.59    1.24
  -1  12   4    0.39    0.16
   1 -12   4    0.26    0.16
   1  12  -4    0.39    0.19
  -1 -12  -4    0.14    0.14
  -1  12  -4    0.22    0.18
   1 -12  -4    0.55    0.18
  -1 -12   4    0.59    0.19
   1  12   4    0.38    0.16
   2 -12   4   16.84    0.73
  -2  12   4   17.52    0.70
  -2 -12  -4   18.71    0.65
   2  12  -4   18.77    0.80
  -2  12  -4   18.20    0.78
   2 -12  -4   17.45    0.71
  -2 -12   4   16.94    0.71
   2  12   4   17.18    0.76
   3  12  -4    1.62    0.29
   3 -12   4    1.95    0.30
  -3  12   4    1.60    0.26
  -3  12  -4    1.56    0.29
  -3 -12   4    1.79    0.28
   3 -12  -4    1.72    0.28
   3  12   4    1.71    0.30
   4  12  -4    8.38    0.54
   4 -12   4    8.13    0.52
  -4  12  -4    8.66    0.53
   4  12   4    7.78    0.53
  -4 -12   4    7.68    0.48
   4 -12  -4    7.53    0.50
   5 -12   4    1.12    0.24
   5  12  -4    1.08    0.28
   5 -12  -4    1.27    0.29
  -5 -12   4    1.89    0.30
  -5  12  -4    1.12    0.26
   5  12   4    1.20    0.28
   6  12  -4    0.02    0.15
   6 -12   4   -0.13    0.13
  -6  12  -4    0.29    0.20
  -6 -12   4    0.01    0.13
   6 -12  -4    0.12    0.18
   6  12   4    0.15    0.18
   7  12  -4    0.43    0.22
   7 -12   4    0.10    0.19
  -7 -12  -4    0.40    0.24
  -7 -12   4   -0.33    0.10
   7 -12  -4    0.05    0.18
   8  12  -4    1.01    0.31
  -8 -12  -4    0.89    0.31
   8 -12   4    1.08    0.30
   8 -12  -4    0.69    0.25
   9 -12   4    0.13    0.19
  -9 -12  -4    0.02    0.26
   9 -12  -4   -0.32    0.15
   0  13   4   -0.02    0.14
   0  13  -4    0.07    0.16
   0 -13   4   -0.05    0.11
   0 -13  -4   -0.05    0.12
  -1  13   4    6.81    0.47
   1 -13   4    7.22    0.49
  -1 -13  -4    7.46    0.45
   1  13  -4    6.26    0.48
  -1  13  -4    7.35    0.53
  -1 -13   4    6.82    0.46
   1  13   4    7.31    0.51
   1 -13  -4    6.85    0.45
  -2 -13  -4    1.39    0.23
   2 -13   4    1.01    0.23
  -2  13   4    1.65    0.27
   2  13  -4    1.07    0.27
  -2 -13   4    1.36    0.25
   2 -13  -4    1.58    0.28
  -2  13  -4    1.54    0.30
   2  13   4    1.40    0.30
   3 -13   4    1.66    0.30
   3  13  -4    1.48    0.29
  -3  13  -4    1.89    0.33
   3  13   4    1.19    0.29
   3 -13  -4    2.04    0.32
  -3 -13   4    1.64    0.28
   4 -13   4    1.18    0.26
   4  13  -4    1.09    0.26
  -4 -13   4    1.11    0.24
  -4  13  -4    0.99    0.25
   4  13   4    0.54    0.24
   4 -13  -4    0.88    0.26
   5  13  -4    0.24    0.20
   5 -13   4   -0.02    0.14
   5 -13  -4   -0.03    0.17
   5  13   4    0.14    0.18
  -5 -13   4   -0.13    0.13
  -5  13  -4    0.33    0.20
   6  13  -4    2.43    0.40
   6 -13   4    2.26    0.36
  -6 -13   4    2.90    0.37
   6  13   4    2.00    0.38
   6 -13  -4    2.15    0.37
   7  13  -4    8.74    0.65
  -7 -13  -4   10.18    0.73
   7 -13   4    8.85    0.64
   7 -13  -4    9.08    0.64
   8 -13   4    0.80    0.28
   8  13  -4    1.42    0.35
  -8 -13  -4    0.83    0.32
   8 -13  -4    0.85    0.29
   9 -13   4    0.36    0.25
  -9 -13  -4   -0.25    0.23
   0  14   4    5.88    0.48
   0  14  -4    5.38    0.53
   0 -14   4    6.01    0.47
   0 -14  -4    6.57    0.46
  -1  14   4    4.21    0.44
  -1 -14  -4    4.97    0.40
   1  14  -4    4.45    0.48
   1 -14   4    4.67    0.47
  -1 -14   4    5.38    0.44
  -1  14  -4    4.89    0.50
   1 -14  -4    4.40    0.44
   1  14   4    4.39    0.47
  -2  14   4    3.14    0.38
   2  14  -4    2.99    0.41
   2 -14   4    2.91    0.39
  -2 -14   4    3.03    0.38
   2  14   4    3.77    0.45
  -2  14  -4    3.54    0.44
   2 -14  -4    2.77    0.36
   3  14  -4    1.59    0.32
   3 -14   4    1.84    0.32
   3  14   4    1.60    0.33
   3 -14  -4    2.41    0.36
  -3 -14   4    1.83    0.32
  -3  14  -4    1.39    0.31
   4  14  -4   22.47    0.99
   4 -14   4   22.91    0.96
   4  14   4   22.37    0.99
  -4  14  -4   22.26    0.94
   4 -14  -4   22.62    0.94
  -4 -14   4   23.33    0.91
   5 -14   4    1.09    0.28
   5  14  -4    1.01    0.30
   5  14   4    0.67    0.26
   5 -14  -4    0.96    0.27
  -5  14  -4    0.87    0.26
  -5 -14   4    0.92    0.25
   6  14  -4   13.25    0.78
   6 -14   4   14.18    0.78
   6 -14  -4   12.88    0.77
   6  14   4   13.84    0.81
  -6 -14   4   12.64    0.69
   7 -14   4   -0.10    0.20
   7  14  -4    0.01    0.23
  -7 -14  -4   -0.25    0.18
   7 -14  -4   -0.05    0.20
   8  14  -4    4.20    0.56
  -8 -14  -4    5.53    0.67
   8 -14   4    4.16    0.55
   0 -15   4    0.03    0.16
   0  15   4    0.16    0.19
   0 -15  -4   -0.10    0.14
   0  15  -4    0.08    0.17
   1  15  -4    1.48    0.32
   1 -15   4    1.30    0.29
  -1 -15  -4    1.53    0.28
  -1  15   4    1.95    0.33
   1  15   4    1.95    0.35
  -1  15  -4    1.58    0.32
  -1 -15   4    1.40    0.28
   1 -15  -4    1.62    0.30
   2 -15   4    5.30    0.53
  -2  15   4    5.79    0.48
   2  15  -4    5.57    0.56
  -2 -15   4    5.14    0.51
  -2  15  -4    5.47    0.56
   2 -15  -4    5.89    0.47
   2  15   4    4.48    0.50
   3 -15   4    0.14    0.18
   3  15  -4    0.32    0.18
  -3 -15   4    0.28    0.19
   3  15   4   -0.03    0.16
   3 -15  -4   -0.01    0.16
  -3  15  -4    0.11    0.21
   4 -15   4    1.61    0.32
   4  15  -4    1.07    0.30
  -4 -15   4    1.60    0.31
   4  15   4    1.83    0.35
   4 -15  -4    1.09    0.29
  -4  15  -4    1.85    0.35
   5  15  -4   -0.35    0.16
   5 -15   4   -0.11    0.16
   5 -15  -4    0.12    0.18
  -5 -15   4    0.10    0.17
   5  15   4    0.20    0.20
  -5  15  -4    0.27    0.22
   6 -15   4    1.10    0.31
   6  15  -4    1.18    0.32
   6  15   4    0.65    0.28
   6 -15  -4    1.03    0.30
  -6 -15   4    0.69    0.25
   7 -15   4   -0.17    0.17
  -7 -15  -4    0.26    0.27
   7  15  -4    0.35    0.24
   0 -16  -4    1.15    0.28
   0 -16   4    1.11    0.28
   0  16  -4    0.53    0.24
   0  16   4    1.30    0.30
   1 -16   4    0.01    0.16
   1  16  -4    0.06    0.18
  -1  16   4    0.12    0.20
   1 -16  -4    0.34    0.21
  -1  16  -4    0.13    0.20
   1  16   4    0.50    0.24
  -1 -16   4    0.32    0.20
   2  16  -4    4.00    0.51
  -2  16   4    5.18    0.53
   2 -16   4    5.67    0.57
   2 -16  -4    5.18    0.51
  -2  16  -4    4.71    0.53
  -2 -16   4    5.19    0.54
   2  16   4    5.63    0.58
   3 -16   4    0.75    0.26
   3  16  -4    1.30    0.32
  -3 -16   4    1.29    0.30
   3 -16  -4    0.86    0.27
   3  16   4    1.01    0.29
  -3  16  -4    0.90    0.29
   4 -16   4    7.76    0.60
   4  16  -4    6.96    0.69
  -4  16  -4    7.72    0.60
   4 -16  -4    6.95    0.56
  -4 -16   4    7.25    0.56
   4  16   4    7.89    0.65
   5 -16   4    3.50    0.48
   5  16  -4    2.84    0.48
  -5 -16   4    3.51    0.46
   5 -16  -4    3.66    0.48
   5  16   4    3.35    0.52
   6  16  -4    6.21    0.69
   6 -16  -4    6.38    0.64
   0 -17   4   -0.17    0.15
   0  17  -4   -0.12    0.19
   0  17   4   -0.05    0.20
   0 -17  -4   -0.15    0.17
  -1  17   4    2.21    0.40
   1 -17   4    1.89    0.37
   1  17  -4    1.88    0.37
   1 -17  -4    1.91    0.35
  -1 -17   4    1.65    0.35
  -1  17  -4    2.21    0.42
   1  17   4    2.11    0.40
   2  17  -4    1.13    0.32
   2 -17   4    0.93    0.29
   2 -17  -4    0.61    0.26
  -2  17  -4    1.00    0.29
   2  17   4    0.60    0.26
  -2 -17   4    0.30    0.21
   3 -17   4    0.15    0.22
   3  17  -4    0.36    0.24
   3 -17  -4   -0.02    0.20
  -3  17  -4    0.03    0.22
  -3 -17   4    0.18    0.20
   3  17   4    0.11    0.24
   4 -17   4   -0.07    0.17
   4  17  -4    0.11    0.21
   4 -17  -4    0.34    0.21
   4  17   4    0.52    0.30
  -4 -17   4    0.19    0.21
  -4  17  -4    0.77    0.31
  -5 -17   4   -0.23    0.15
   0 -18   4    5.56    0.60
   0  18  -4    6.01    0.64
   0  18   4    7.00    0.70
  -1  18   4    1.02    0.33
   1  18  -4    1.28    0.36
   1 -18   4    1.09    0.33
  -1  18  -4    1.25    0.34
  -1 -18   4    0.80    0.28
   1  18   4    1.18    0.35
   1 -18  -4    0.86    0.29
   2 -18   4    6.68    0.66
   2 -18  -4    6.67    0.65
   2  18   4    7.50    0.73
  -2  18  -4    8.52    0.67
  -2 -18   4    7.84    0.60
  -3 -18   4    0.50    0.25
   3 -18  -4    0.27    0.24
  -3  18  -4    0.02    0.24
  -4  18  -4   11.58    0.78
  -4 -18   4   10.65    0.72
   0   0  -5    0.01    0.03
   0   0  -5    0.24    0.09
   0   0   5    0.03    0.06
   1   0   5   -0.08    0.05
   1   0  -5    0.07    0.08
  -1   0   5    0.06    0.08
  -1   0  -5    0.00    0.04
  -1   0  -5    0.08    0.09
   2   0   5    0.01    0.06
  -2   0  -5   -0.04    0.08
   2   0  -5   -0.01    0.05
   2   0  -5   -0.03    0.04
  -2   0   5   -0.02    0.07
  -3   0   5    0.08    0.08
   3   0  -5    0.01    0.03
  -3   0  -5    0.14    0.09
   3   0   5    0.07    0.06
   3   0  -5   -0.06    0.04
   3   0   5   -0.02    0.03
   4   0  -5    0.02    0.04
   4   0   5    0.04    0.05
   4   0  -5    0.34    0.10
  -4   0  -5    0.22    0.11
   4   0   5   -0.10    0.05
  -4   0   5   -0.01    0.08
   5   0   5    0.05    0.09
   5   0  -5    0.17    0.10
   5   0   5   -0.06    0.05
  -5   0   5   -0.07    0.09
  -5   0  -5   -0.12    0.10
  -6   0   5   -0.01    0.12
   6   0   5   -0.08    0.11
   6   0  -5    0.01    0.08
   6   0   5    0.08    0.07
  -6   0  -5    0.07    0.15
  -7   0   5    0.08    0.13
  -7   0  -5   -0.13    0.15
   7   0  -5    0.28    0.14
   7   0   5    0.38    0.17
   8   0  -5    0.06    0.12
   8   0   5    0.16    0.17
  -8   0  -5   -0.05    0.18
  -8   0   5    0.16    0.16
   9   0   5   -0.15    0.16
  -9   0  -5   -0.12    0.20
  -9   0   5   -0.29    0.15
   9   0  -5    0.11    0.15
  10   0   5   -0.06    0.16
 -10   0   5   -0.11    0.19
  10   0  -5    0.13    0.16
 -11   0   5   -0.24    0.17
  11   0  -5    0.02    0.18
  11   0   5    0.13    0.20
  12   0  -5    0.25    0.23
 -12   0   5   -0.16    0.22
  12   0   5   -0.05    0.23
   0   1   5   -0.10    0.05
   0  -1  -5   -0.07    0.05
   0  -1   5   -0.02    0.05
   0   1  -5    0.05    0.08
   0   1  -5    0.01    0.04
   0  -1  -5    0.09    0.04
   1  -1   5   10.57    0.32
  -1  -1  -5   10.89    0.23
   1  -1   5   10.57    0.28
   1   1  -5   10.87    0.32
  -1  -1  -5   10.62    0.36
   1   1  -5   11.07    0.33
  -1   1   5   11.20    0.38
  -1   1  -5   10.69    0.39
   1  -1  -5   10.44    0.30
   1   1   5   11.52    0.36
   1  -1  -5   10.48    0.31
  -1  -1   5   10.90    0.35
   2   1  -5  584.11    8.23
  -2  -1  -5  558.02    8.32
   2  -1   5  584.90    8.16
   2   1  -5  553.22    8.22
  -2   1   5  565.08    8.22
   2  -1   5  590.78    8.23
  -2  -1   5  568.06    8.16
   2  -1  -5  535.47    8.10
   2   1   5  572.66    8.20
  -2   1  -5  558.17    8.36
   2  -1  -5  562.97    8.20
   3   1  -5   74.08    1.20
  -3  -1  -5   74.73    1.45
  -3   1   5   73.49    1.40
   3  -1   5   73.73    1.21
   3  -1   5   72.65    1.36
   3   1  -5   72.83    1.38
   3   1   5   74.42    1.40
  -3  -1   5   74.01    1.37
   3  -1  -5   75.24    1.38
  -3   1  -5   74.69    1.47
   4   1  -5   22.93    0.65
   4   1  -5   22.63    0.47
  -4  -1  -5   23.15    0.70
   4  -1   5   22.62    0.65
  -4   1   5   22.67    0.67
   4  -1   5   23.20    0.51
  -4  -1   5   23.64    0.66
   4   1   5   22.88    0.67
   4   1   5   22.86    0.43
  -4   1  -5   22.35    0.70
   5  -1   5  203.94    3.34
  -5   1   5  202.81    3.36
   5  -1   5  201.93    3.09
   5   1  -5  203.00    3.02
   5   1  -5  195.78    3.32
  -5  -1  -5  203.42    3.42
   5   1   5  199.78    3.36
  -5   1  -5  205.44    3.44
  -5  -1   5  204.44    3.34
   5  -1  -5  194.13    3.32
   5   1   5  200.99    3.01
   6  -1   5   21.40    0.56
  -6   1   5   21.38    0.75
   6  -1   5   21.32    0.73
  -6  -1  -5   21.89    0.76
   6   1  -5   20.44    0.69
  -6   1  -5   20.82    0.76
  -6  -1   5   21.31    0.72
   6  -1  -5   19.89    0.69
   6   1   5   20.81    0.73
   7  -1   5   15.70    0.67
   7   1  -5   15.07    0.62
  -7  -1  -5   15.38    0.67
  -7   1   5   15.11    0.66
   7  -1  -5   15.32    0.63
  -7  -1   5   13.94    0.63
   7   1   5   14.82    0.66
  -7   1  -5   15.32    0.69
   8  -1   5   23.04    0.88
   8   1  -5   24.70    0.86
  -8  -1  -5   22.89    0.88
  -8   1   5   24.23    0.91
  -8  -1   5   22.64    0.87
   8   1   5   22.93    0.89
  -8   1  -5   25.39    0.92
   8  -1  -5   22.90    0.83
  -9   1   5    3.80    0.45
   9   1  -5    4.15    0.44
   9  -1   5    3.81    0.46
  -9  -1  -5    3.74    0.45
   9  -1  -5    3.91    0.41
  -9  -1   5    4.37    0.47
   9   1   5    3.94    0.46
  -9   1  -5    4.33    0.49
  10  -1   5    2.01    0.37
 -10   1   5    1.38    0.33
  10   1  -5    1.95    0.32
 -10  -1   5    1.79    0.37
  10   1   5    1.83    0.36
  10  -1  -5    1.51    0.29
 -11   1   5   -0.23    0.20
  11   1  -5    0.19    0.19
  11  -1   5    0.23    0.24
  11  -1  -5    0.09    0.16
  11   1   5    0.18    0.22
 -11  -1   5   -0.13    0.20
 -12   1   5    2.26    0.47
  12  -1   5    3.06    0.49
  12  -1  -5    3.39    0.47
  12   1   5    3.10    0.50
 -12  -1   5    3.28    0.54
   0   2  -5   40.86    0.77
   0  -2  -5   40.14    0.79
   0  -2  -5   38.96    0.70
   0  -2   5   39.35    0.74
   0   2  -5   39.09    0.82
   1  -2   5   27.14    0.56
  -1  -2  -5   26.55    0.63
  -1  -2  -5   26.98    0.46
   1   2  -5   26.46    0.61
  -1   2   5   26.50    0.66
   1   2  -5   26.31    0.60
   1  -2   5   26.70    0.56
   1  -2  -5   27.06    0.55
   1  -2  -5   27.90    0.58
   1   2   5   26.95    0.64
  -1   2  -5   25.86    0.66
  -1  -2   5   26.18    0.57
   2  -2   5  311.29    4.51
  -2  -2  -5  295.82    4.67
   2  -2   5  313.15    4.49
  -2   2   5  302.10    4.62
   2   2  -5  302.90    4.60
   2   2  -5  308.40    4.53
  -2  -2   5  311.52    4.52
  -2   2  -5  304.44    4.71
   2   2   5  310.38    4.62
   2  -2  -5  304.85    4.57
   2  -2  -5  297.90    4.41
   3   2  -5   31.23    0.65
   3   2  -5   30.59    0.75
   3  -2   5   30.80    0.72
  -3   2   5   33.03    0.80
  -3  -2  -5   31.01    0.79
   3  -2   5   31.55    0.65
   3  -2  -5   32.16    0.75
  -3  -2   5   31.64    0.73
  -3   2  -5   31.87    0.82
   3   2   5   30.76    0.77
   4  -2   5    1.43    0.18
   4   2  -5    1.34    0.18
  -4  -2  -5    1.69    0.22
   4   2  -5    1.79    0.14
  -4   2   5    1.94    0.23
   4  -2   5    1.38    0.14
   4   2   5    1.53    0.08
  -4   2  -5    1.49    0.22
   4  -2  -5    1.60    0.19
   4   2   5    1.14    0.18
  -4  -2   5    1.32    0.18
  -5   2   5   52.71    1.23
  -5  -2  -5   54.93    1.26
   5  -2   5   53.86    1.20
   5  -2   5   53.69    1.05
   5   2  -5   53.75    1.21
   5   2  -5   53.56    1.00
   5   2   5   52.52    0.90
  -5   2  -5   52.86    1.26
  -5  -2   5   53.58    1.19
   5  -2  -5   52.65    1.19
   5   2   5   54.56    1.24
  -6  -2  -5   15.19    0.62
   6  -2   5   14.20    0.59
   6  -2   5   14.72    0.47
  -6   2   5   13.78    0.60
   6   2  -5   14.49    0.57
  -6  -2   5   15.04    0.60
   6  -2  -5   14.73    0.58
   6   2   5   13.85    0.59
  -6   2  -5   15.04    0.64
  -7  -2  -5   11.80    0.59
   7  -2   5   12.66    0.59
   7   2  -5   12.36    0.56
   7  -2   5   11.74    0.46
  -7   2   5   12.58    0.62
  -7   2  -5   12.98    0.63
  -7  -2   5   11.31    0.57
   7   2   5   12.14    0.59
   7  -2  -5   12.36    0.56
   8  -2   5    4.74    0.46
  -8  -2  -5    4.29    0.45
  -8   2   5    4.65    0.46
   8   2  -5    5.01    0.39
   8  -2  -5    4.40    0.36
   8   2   5    4.15    0.44
  -8  -2   5    4.23    0.43
  -8   2  -5    5.03    0.48
   9  -2   5    0.33    0.20
  -9   2   5    0.08    0.19
   9   2  -5    0.19    0.15
  -9  -2  -5    0.27    0.20
  -9  -2   5    0.44    0.21
   9  -2  -5    0.12    0.14
   9   2   5    0.05    0.18
  10  -2   5   13.46    0.75
  10   2  -5   14.64    0.72
 -10   2   5   12.13    0.74
 -10  -2   5   13.79    0.76
  10  -2  -5   12.24    0.68
  10   2   5   13.56    0.77
 -11   2   5    2.74    0.45
  11   2  -5    4.72    0.50
  11  -2   5    4.04    0.53
  11   2   5    5.18    0.59
 -11  -2   5    4.81    0.56
  11  -2  -5    4.23    0.48
  12  -2   5   -0.13    0.27
 -12   2   5    0.08    0.25
 -12  -2   5   -0.18    0.24
  12   2   5   -0.09    0.22
  12  -2  -5   -0.02    0.18
   0   3   5    0.06    0.08
   0   3  -5    0.19    0.10
   0  -3  -5    0.41    0.08
   0  -3  -5   -0.08    0.05
   0  -3   5    0.09    0.06
   0  -3   5    0.00    0.05
   1  -3   5  149.78    2.22
   1   3  -5  145.19    2.36
  -1  -3  -5  141.27    2.38
   1   3  -5  149.16    2.37
  -1   3   5  144.65    2.40
   1  -3   5  146.70    2.32
  -1  -3  -5  148.51    2.16
   1   3   5  146.09    2.39
  -1  -3   5  146.93    2.23
   1  -3  -5  149.17    2.31
  -1   3  -5  145.16    2.42
   1  -3  -5  145.02    2.27
   2   3  -5    3.97    0.21
  -2   3   5    3.14    0.25
   2   3  -5    3.59    0.22
  -2  -3  -5    3.16    0.22
   2  -3   5    4.04    0.20
   2  -3   5    3.44    0.18
   2  -3  -5    3.40    0.15
   2  -3  -5    3.58    0.21
  -2  -3   5    2.88    0.18
  -2   3  -5    3.25    0.25
   2   3   5    3.34    0.23
  -3   3   5  153.00    2.58
   3   3  -5  146.91    2.52
   3  -3   5  153.37    2.43
   3   3  -5  152.85    2.44
  -3  -3  -5  154.37    2.61
   3  -3   5  153.56    2.44
   3   3   5  149.69    2.55
  -3  -3   5  150.77    2.44
  -3   3  -5  155.02    2.62
   3  -3  -5  154.23    2.52
   4  -3   5   52.97    1.13
  -4  -3  -5   55.57    1.24
   4   3  -5   56.35    1.19
  -4   3   5   52.96    1.20
   4   3  -5   54.05    1.05
   4  -3   5   55.48    1.07
  -4   3  -5   55.99    1.25
   4   3   5   56.45    1.22
  -4  -3   5   55.75    1.13
   5   3  -5   32.52    0.87
   5  -3   5   31.95    0.76
  -5  -3  -5   33.05    0.92
  -5   3   5   31.05    0.89
   5  -3   5   31.10    0.84
   5   3  -5   31.34    0.72
   5  -3  -5   31.06    0.86
  -5   3  -5   32.13    0.92
   5   3   5   31.66    0.89
  -5  -3   5   32.80    0.85
  -6  -3  -5    4.24    0.34
   6  -3   5    3.73    0.35
   6  -3   5    4.35    0.27
  -6   3   5    4.15    0.40
   6   3  -5    4.13    0.31
   6   3   5    4.53    0.35
   6  -3  -5    4.01    0.31
  -6   3  -5    4.68    0.42
  -6  -3   5    3.88    0.32
   7  -3   5   29.56    0.95
   7  -3   5   31.21    0.82
  -7  -3  -5   29.85    0.98
  -7   3   5   31.69    1.01
   7   3  -5   32.72    0.96
  -7   3  -5   31.34    0.99
  -7  -3   5   32.08    0.96
   7  -3  -5   31.83    0.96
   7   3   5   30.97    1.01
   8  -3   5   -0.10    0.14
  -8   3   5   -0.02    0.15
  -8  -3  -5    0.50    0.19
   8   3  -5   -0.07    0.09
  -8  -3   5    0.04    0.16
  -8   3  -5    0.06    0.18
   8   3   5    0.31    0.18
   8  -3  -5   -0.01    0.11
   9  -3   5    5.87    0.48
  -9  -3  -5    5.93    0.55
   9   3  -5    5.20    0.42
  -9   3   5    4.98    0.51
   9  -3  -5    5.14    0.42
  -9  -3   5    4.71    0.48
   9   3   5    4.64    0.50
  10  -3   5    0.84    0.29
 -10   3   5    0.35    0.23
  10   3  -5    0.19    0.17
  10   3   5    0.34    0.21
 -10  -3   5    0.10    0.21
  10  -3  -5    0.41    0.20
 -11   3   5    8.34    0.67
  11  -3   5    8.50    0.67
  11   3  -5    9.20    0.60
  11  -3  -5    8.82    0.62
 -11  -3   5    8.50    0.64
  11   3   5    8.65    0.68
  12  -3   5    0.23    0.27
  12   3   5    0.91    0.34
  12  -3  -5    0.37    0.25
 -12  -3   5    0.00    0.25
   0   4  -5   36.67    0.83
   0  -4  -5   35.97    0.79
   0  -4  -5   36.91    0.71
   0  -4   5   37.28    0.63
   0   4   5   36.53    0.84
  -1   4   5   12.99    0.37
  -1  -4  -5   13.30    0.32
   1  -4   5   12.60    0.40
   1   4  -5   13.86    0.43
  -1  -4  -5   12.62    0.43
   1  -4   5   13.04    0.31
   1   4  -5   12.99    0.43
  -1   4   5   12.36    0.44
   1   4   5   12.98    0.44
  -1  -4   5   12.67    0.32
  -1   4  -5   13.88    0.47
   1  -4  -5   13.38    0.39
   2  -4   5   20.63    0.54
   2   4  -5   20.29    0.56
  -2  -4  -5   20.56    0.39
  -2   4   5   19.71    0.60
   2  -4   5   20.59    0.47
  -2  -4  -5   19.61    0.60
  -2   4   5   21.15    0.46
   2   4  -5   21.62    0.59
   2   4   5   20.99    0.60
  -2   4  -5   21.06    0.62
  -2  -4   5   21.31    0.49
   2  -4  -5   20.93    0.56
   3   4  -5   62.53    1.28
  -3   4   5   63.61    1.32
  -3   4   5   63.72    1.03
   3  -4   5   62.74    1.17
   3  -4   5   64.03    1.22
  -3  -4  -5   63.36    0.97
   3   4  -5   62.52    1.23
  -3  -4  -5   64.65    1.35
  -3   4  -5   63.98    1.33
   3   4   5   64.89    1.31
   3  -4  -5   64.92    1.28
  -3  -4   5   63.25    1.17
   4  -4   5    0.56    0.12
  -4  -4  -5    0.74    0.06
  -4   4   5    0.58    0.15
   4   4  -5    0.69    0.14
   4  -4   5    0.50    0.12
  -4  -4  -5    0.41    0.13
   4   4  -5    0.52    0.12
   4   4   5    0.61    0.14
  -4  -4   5    0.67    0.14
   4  -4  -5    0.55    0.13
  -4   4  -5    0.74    0.18
   5  -4   5    3.38    0.24
  -5  -4  -5    3.42    0.35
  -5   4   5    3.48    0.34
   5   4  -5    3.45    0.27
   5  -4   5    3.23    0.26
   5   4  -5    3.37    0.24
   5   4   5    3.81    0.36
  -5  -4   5    3.53    0.27
   5  -4  -5    3.80    0.29
  -5   4  -5    3.40    0.34
   6   4  -5    2.15    0.27
   6  -4   5    2.25    0.24
  -6  -4  -5    2.17    0.30
   6  -4   5    2.24    0.28
  -6   4   5    2.11    0.29
   6   4  -5    2.68    0.25
  -6  -4   5    2.40    0.28
   6  -4  -5    2.23    0.28
  -6   4  -5    2.38    0.31
   6   4   5    1.85    0.27
  -7  -4  -5   15.26    0.69
   7  -4   5   16.19    0.58
   7   4  -5   15.81    0.65
   7  -4   5   16.22    0.67
  -7   4   5   15.84    0.70
   7  -4  -5   16.61    0.68
  -7   4  -5   15.66    0.68
  -7  -4   5   15.94    0.65
   7   4   5   16.10    0.70
   8  -4   5    0.05    0.17
  -8  -4  -5    0.07    0.16
  -8   4   5    0.23    0.16
   8   4  -5    0.00    0.11
   8  -4  -5    0.12    0.14
   8   4   5    0.05    0.14
  -8  -4   5    0.48    0.21
  -8   4  -5    0.19    0.20
  -9  -4  -5    4.26    0.48
   9   4  -5    4.07    0.42
   9  -4   5    3.76    0.46
  -9   4   5    4.81    0.52
   9   4   5    3.22    0.43
   9  -4  -5    3.33    0.40
  -9  -4   5    3.66    0.44
 -10   4   5    8.12    0.61
  10   4  -5    8.58    0.56
  10  -4   5    8.58    0.62
 -10  -4   5    8.58    0.60
  10  -4  -5    7.96    0.55
  10   4   5    9.42    0.66
 -11   4   5   -0.05    0.22
  11  -4   5    0.07    0.22
  11   4  -5   -0.01    0.15
 -11  -4   5    0.23    0.24
  11   4   5    0.24    0.22
  11  -4  -5    0.11    0.19
  12  -4  -5    0.79    0.27
 -12  -4   5    1.35    0.38
 -12   4  -5    1.70    0.37
   0   5   5    0.06    0.08
   0  -5  -5   -0.06    0.05
   0   5  -5   -0.07    0.07
   0  -5   5   -0.07    0.04
   0   5   5   -0.04    0.06
   1   5  -5  164.21    2.73
   1  -5   5  166.51    2.68
   1  -5   5  164.93    2.40
  -1  -5  -5  166.10    2.51
  -1   5   5  160.47    2.71
  -1   5   5  166.75    2.61
   1   5   5  164.49    2.71
   1   5   5  162.00    2.70
  -1   5  -5  166.46    2.76
  -1  -5   5  165.82    2.42
   1  -5  -5  162.35    2.62
  -2   5   5  157.41    2.65
  -2   5   5  159.65    2.46
   2  -5   5  153.43    2.58
   2  -5   5  156.28    2.38
  -2  -5  -5  156.31    2.36
   2   5  -5  155.79    2.62
  -2  -5  -5  158.69    2.69
   2   5  -5  153.90    2.62
   2   5   5  155.37    2.62
   2  -5  -5  158.76    2.58
  -2  -5   5  160.33    2.40
  -2   5  -5  157.91    2.68
  -3   5   5   47.91    0.86
  -3   5   5   46.32    1.09
  -3  -5  -5   47.77    0.80
   3  -5   5   47.79    0.94
  -3  -5  -5   47.15    1.13
   3  -5   5   49.20    1.04
   3   5  -5   49.47    1.09
   3   5  -5   47.28    1.05
  -3   5  -5   47.58    1.11
   3   5   5   47.90    1.09
   3  -5  -5   48.68    1.06
  -3  -5   5   48.69    0.94
   4  -5   5   20.11    0.58
   4  -5   5   19.52    0.60
  -4  -5  -5   20.27    0.70
  -4   5   5   19.77    0.68
   4   5  -5   19.75    0.60
   4   5  -5   19.09    0.63
  -4  -5   5   20.23    0.57
   4   5   5   18.70    0.64
  -4   5  -5   19.95    0.68
   4  -5  -5   21.37    0.66
  -5   5   5    1.04    0.21
   5   5  -5    1.42    0.21
   5  -5   5    0.91    0.17
   5   5  -5    1.24    0.19
  -5  -5  -5    0.96    0.20
   5  -5   5    0.85    0.17
   5   5   5    0.80    0.18
   5  -5  -5    1.14    0.20
  -5  -5   5    0.65    0.16
  -5   5  -5    1.11    0.22
   6   5  -5    1.69    0.24
  -6  -5  -5    1.94    0.29
   6  -5   5    2.40    0.28
   6  -5   5    2.54    0.27
   6   5  -5    2.38    0.25
  -6   5   5    1.90    0.29
   6  -5  -5    2.21    0.29
  -6  -5   5    2.54    0.29
   6   5   5    1.73    0.26
  -6   5  -5    1.64    0.28
   7   5  -5   10.51    0.53
  -7  -5  -5   10.86    0.58
   7  -5   5   10.76    0.49
   7  -5   5   10.43    0.53
  -7   5   5   10.23    0.58
   7   5   5    9.99    0.55
  -7   5  -5   10.63    0.56
  -7  -5   5   10.06    0.52
   7  -5  -5   11.07    0.56
   8  -5   5   19.38    0.80
  -8  -5  -5   18.59    0.81
   8  -5   5   19.75    0.71
  -8   5   5   19.63    0.84
   8   5  -5   19.60    0.77
   8   5   5   21.03    0.87
  -8  -5   5   19.59    0.79
  -8   5  -5   19.48    0.77
   8  -5  -5   19.72    0.80
  -9   5   5   16.42    0.81
   9   5  -5   16.05    0.73
  -9  -5  -5   16.96    0.81
   9  -5   5   16.48    0.79
  -9  -5   5   15.73    0.75
   9   5   5   17.68    0.84
   9  -5  -5   16.17    0.75
  10   5  -5    2.16    0.35
  10  -5   5    2.56    0.42
 -10  -5  -5    2.26    0.38
 -10   5   5    2.17    0.39
  10  -5  -5    2.55    0.38
 -10  -5   5    2.39    0.40
  10   5   5    1.88    0.37
  11  -5   5    9.72    0.71
 -11   5   5   10.89    0.75
  11   5   5    9.50    0.71
 -11   5  -5   11.42    0.71
 -11  -5   5    9.42    0.68
  11  -5  -5   10.33    0.67
 -12  -5   5    8.98    0.70
  12  -5  -5    8.20    0.64
 -12   5  -5    9.20    0.69
   0  -6   5   10.05    0.40
   0   6   5   10.48    0.42
   0  -6  -5   10.23    0.35
   0   6  -5   10.01    0.43
   0   6   5   10.60    0.40
   1   6  -5   48.10    1.09
  -1   6   5   48.35    1.07
  -1  -6  -5   48.17    0.91
  -1   6   5   48.01    0.98
   1  -6   5   47.60    1.04
   1  -6  -5   48.13    1.00
  -1  -6   5   48.11    0.76
   1   6   5   47.90    1.05
  -1   6  -5   46.54    1.09
  -1  -6   5   49.11    1.07
   1   6   5   46.89    1.06
  -2   6   5    2.22    0.25
   2   6  -5    1.85    0.22
   2  -6   5    2.07    0.14
   2  -6   5    2.32    0.23
  -2  -6  -5    2.16    0.15
  -2   6   5    2.09    0.17
   2   6   5    1.71    0.21
  -2  -6   5    2.09    0.15
   2   6   5    2.21    0.24
   2  -6  -5    2.13    0.22
  -2   6  -5    2.21    0.25
  -2  -6   5    2.02    0.22
   3   6  -5    2.55    0.26
  -3   6   5    2.56    0.28
  -3  -6  -5    2.87    0.16
   3  -6   5    2.78    0.23
  -3   6   5    3.16    0.18
   3   6  -5    2.99    0.25
   3  -6   5    2.37    0.18
  -3  -6  -5    2.39    0.27
   3   6   5    2.63    0.27
  -3  -6   5    2.80    0.19
   3  -6  -5    2.86    0.24
  -3   6  -5    3.04    0.30
  -4  -6  -5    2.43    0.29
  -4   6   5    2.71    0.30
   4   6  -5    2.44    0.25
   4  -6   5    3.10    0.23
   4   6  -5    2.99    0.25
   4  -6   5    3.56    0.26
   4   6   5    2.72    0.29
  -4  -6   5    2.61    0.22
   4  -6  -5    2.88    0.29
  -4   6  -5    2.60    0.29
   5   6  -5    1.16    0.20
  -5  -6  -5    1.41    0.25
   5   6  -5    1.07    0.18
   5  -6   5    1.07    0.18
  -5   6   5    0.70    0.20
   5  -6   5    0.75    0.16
   5  -6  -5    0.79    0.18
   5   6   5    0.79    0.17
  -5  -6   5    0.77    0.16
  -5   6  -5    0.81    0.20
   6   6  -5    1.83    0.24
   6  -6   5    2.12    0.27
  -6  -6  -5    1.81    0.29
   6   6  -5    1.53    0.24
   6  -6   5    1.82    0.25
  -6   6   5    1.25    0.26
  -6  -6   5    1.80    0.24
   6   6   5    1.96    0.28
   6  -6  -5    1.54    0.25
  -6   6  -5    1.91    0.28
  -7  -6  -5   13.50    0.67
  -7   6   5   12.95    0.66
   7   6  -5   12.45    0.59
   7  -6   5   13.68    0.58
   7  -6   5   12.42    0.59
   7   6   5   12.97    0.64
  -7   6  -5   12.68    0.60
  -7  -6   5   13.88    0.60
   7  -6  -5   12.50    0.61
  -8   6   5    0.12    0.18
  -8  -6  -5   -0.07    0.14
   8  -6   5   -0.05    0.12
   8  -6   5    0.16    0.18
   8   6  -5    0.34    0.16
   8   6   5   -0.04    0.14
  -8  -6   5    0.42    0.20
   8  -6  -5    0.10    0.14
   9   6  -5    2.71    0.36
   9  -6   5    2.78    0.38
  -9  -6  -5    1.73    0.34
  -9   6   5    2.30    0.38
   9   6   5    1.81    0.35
   9  -6  -5    2.78    0.38
  -9  -6   5    1.74    0.33
 -10   6   5    2.23    0.41
  10   6  -5    2.97    0.39
 -10  -6  -5    3.71    0.48
  10   6   5    2.25    0.41
  10  -6  -5    2.32    0.37
 -10  -6   5    2.49    0.39
 -10   6  -5    3.00    0.43
 -11   6   5    0.33    0.28
  11   6   5    0.28    0.26
 -11  -6   5    0.38    0.27
  11  -6  -5    0.35    0.22
 -11   6  -5    0.09    0.22
 -12   6  -5   -0.02    0.23
   0   7   5   -0.10    0.07
   0  -7  -5   -0.10    0.06
   0  -7   5    0.02    0.07
   0   7   5    0.08    0.09
   0   7  -5    0.14    0.10
   1  -7   5   36.49    0.92
  -1  -7  -5   37.48    0.80
  -1   7   5   37.40    0.87
   1   7  -5   36.94    0.95
  -1   7   5   36.66    0.92
   1   7   5   37.66    0.93
  -1   7  -5   37.65    0.97
   1   7   5   37.46    0.91
   1  -7  -5   36.77    0.86
  -1  -7   5   38.13    0.94
   2   7  -5   20.87    0.68
  -2  -7  -5   22.49    0.53
  -2   7   5   21.70    0.68
  -2   7   5   21.62    0.59
   2  -7   5   21.73    0.67
  -2  -7   5   22.76    0.47
  -2  -7   5   21.79    0.68
   2  -7  -5   23.20    0.66
  -2   7  -5   20.97    0.44
   2   7   5   20.87    0.65
   2   7   5   21.54    0.70
  -3   7   5    1.63    0.23
  -3   7   5    2.16    0.18
   3  -7   5    1.85    0.23
  -3  -7  -5    1.81    0.15
   3   7  -5    1.91    0.25
   3  -7   5    1.96    0.17
  -3   7  -5    1.59    0.24
  -3  -7   5    1.57    0.16
  -3  -7   5    1.90    0.24
   3   7   5    2.01    0.26
   3  -7  -5    1.40    0.21
   3   7   5    1.67    0.22
   4   7  -5    0.96    0.18
   4  -7   5    0.91    0.15
   4   7  -5    0.76    0.17
  -4  -7  -5    0.48    0.16
   4  -7   5    0.47    0.15
  -4   7   5    0.70    0.19
  -4  -7   5    0.61    0.13
   4   7   5    0.80    0.17
  -4   7  -5    0.85    0.21
   4  -7  -5    0.94    0.19
   5   7  -5    0.18    0.13
   5   7  -5    0.15    0.10
  -5   7   5    0.47    0.19
   5  -7   5    0.09    0.11
  -5  -7  -5    0.29    0.15
   5  -7   5    0.35    0.13
   5  -7  -5    0.38    0.15
  -5   7  -5    0.25    0.17
   5   7   5    0.11    0.14
  -5  -7   5    0.20    0.12
   6   7  -5    2.69    0.32
   6   7  -5    2.46    0.29
   6  -7   5    2.76    0.31
  -6  -7  -5    2.96    0.38
  -6   7   5    2.30    0.33
   6  -7   5    2.69    0.30
  -6   7  -5    2.48    0.32
   6   7   5    2.26    0.31
  -6  -7   5    2.60    0.29
   6  -7  -5    1.99    0.29
   7  -7   5   19.46    0.74
   7   7  -5   20.62    0.77
   7  -7   5   20.20    0.75
  -7   7   5   20.08    0.82
  -7  -7  -5   20.62    0.86
   7   7  -5   21.11    0.74
   7   7   5   18.80    0.79
   7  -7  -5   19.43    0.79
  -7   7  -5   20.14    0.77
  -7  -7   5   19.36    0.72
   8   7  -5   34.11    1.08
   8  -7   5   35.50    1.11
   8  -7   5   35.29    1.07
  -8  -7  -5   33.04    1.17
  -8   7   5   34.91    1.17
  -8  -7   5   33.10    1.04
   8  -7  -5   34.74    1.14
   8   7   5   35.02    1.17
   9   7  -5   27.45    0.99
  -9  -7  -5   27.27    1.08
  -9   7   5   27.05    1.07
  -9  -7   5   26.36    0.98
  -9   7  -5   27.57    0.99
   9   7   5   28.33    1.10
   9  -7  -5   26.72    1.03
 -10   7   5    0.21    0.26
 -10  -7  -5    0.12    0.23
  10  -7  -5    0.24    0.18
  10   7   5    0.36    0.24
 -10   7  -5    0.60    0.24
 -10  -7   5    0.56    0.26
 -11   7   5   12.87    0.84
 -11  -7   5   14.19    0.80
 -11   7  -5   13.68    0.78
  11   7   5   14.30    0.88
  11  -7  -5   14.50    0.82
   0   8  -5   20.55    0.71
   0  -8  -5   21.72    0.61
   0   8   5   21.26    0.65
   0   8   5   21.55    0.67
   0  -8   5   19.34    0.65
  -1  -8  -5    0.24    0.09
   1   8  -5    0.16    0.12
  -1   8   5    0.21    0.11
   1  -8   5    0.25    0.10
  -1   8   5    0.36    0.13
  -1   8  -5    0.27    0.14
   1   8   5    0.16    0.12
   1   8   5    0.46    0.14
   1  -8  -5    0.36    0.12
  -1  -8   5    0.29    0.12
  -2  -8  -5    0.63    0.12
   2  -8   5    0.36    0.12
  -2   8   5    0.31    0.14
  -2   8   5    0.43    0.12
   2   8  -5    0.44    0.15
   2   8   5    0.35    0.13
  -2   8  -5    0.19    0.14
  -2  -8   5    0.61    0.15
   2  -8  -5    0.34    0.13
   2   8   5    0.35    0.14
  -3   8   5    2.94    0.32
   3  -8   5    2.44    0.28
  -3  -8  -5    2.69    0.19
   3   8  -5    2.35    0.29
  -3   8   5    2.80    0.22
  -3   8  -5    2.41    0.30
   3   8   5    2.41    0.29
   3   8   5    2.49    0.28
  -3  -8   5    2.46    0.28
   3  -8  -5    2.43    0.28
   4   8  -5    1.18    0.21
   4  -8   5    1.10    0.21
  -4   8   5    1.19    0.24
  -4   8  -5    1.03    0.23
   4   8   5    1.48    0.23
  -4  -8   5    1.12    0.22
   4   8   5    1.10    0.22
   4  -8  -5    0.85    0.20
  -5  -8  -5    5.48    0.43
   5   8  -5    5.51    0.37
   5  -8   5    4.48    0.34
   5   8  -5    5.88    0.39
  -5   8   5    4.70    0.43
   5   8   5    5.01    0.37
   5  -8  -5    4.74    0.38
  -5   8  -5    4.56    0.38
  -6   8   5    2.44    0.35
   6  -8   5    2.50    0.31
   6   8  -5    1.83    0.28
   6   8  -5    2.17    0.30
  -6  -8  -5    2.30    0.35
   6  -8  -5    1.99    0.29
  -6   8  -5    2.38    0.32
   6   8   5    1.73    0.28
  -7  -8  -5    3.36    0.44
  -7   8   5    3.86    0.45
   7  -8   5    3.38    0.37
   7   8  -5    3.66    0.38
   7   8  -5    3.51    0.38
   7  -8  -5    3.07    0.37
  -7   8  -5    3.23    0.36
   7   8   5    2.90    0.38
   8   8  -5    6.09    0.45
   8  -8   5    6.31    0.46
  -8   8   5    5.65    0.55
  -8  -8  -5    5.79    0.57
   8  -8  -5    6.47    0.49
   8   8   5    6.15    0.49
   9  -8   5    2.47    0.35
  -9   8   5    1.31    0.32
   9   8  -5    2.07    0.32
  -9  -8  -5    2.30    0.41
   9   8   5    1.96    0.35
   9  -8  -5    1.96    0.35
 -10   8   5    5.59    0.62
 -10  -8  -5    5.60    0.61
  10  -8  -5    4.06    0.49
  10   8   5    5.90    0.62
 -11   8   5    2.49    0.47
  11  -8  -5    3.56    0.49
  11   8   5    2.35    0.45
   0   9   5   -0.02    0.09
   0   9   5   -0.01    0.09
   0   9  -5    0.01    0.11
   0  -9  -5    0.12    0.10
   0  -9   5    0.08    0.10
   1  -9   5   11.20    0.50
   1   9  -5   11.18    0.54
  -1   9   5   10.83    0.47
  -1  -9  -5   11.34    0.43
  -1   9   5   10.71    0.48
   1   9   5   11.63    0.52
  -1  -9   5   11.00    0.50
   1   9   5   11.44    0.47
  -1   9  -5   11.78    0.55
   1  -9  -5   11.40    0.47
   2  -9   5    5.12    0.35
  -2   9   5    5.75    0.38
   2   9  -5    5.23    0.38
  -2  -9  -5    5.43    0.29
  -2   9   5    5.71    0.34
  -2  -9   5    5.58    0.37
   2  -9  -5    5.22    0.36
   2   9   5    5.62    0.39
  -2   9  -5    5.32    0.41
   2   9   5    5.27    0.34
   3   9  -5   11.90    0.57
   3  -9   5   12.42    0.56
  -3   9   5   12.90    0.48
  -3   9   5   12.96    0.57
  -3   9  -5   12.80    0.58
  -3  -9   5   11.61    0.54
   3   9   5   12.26    0.58
   3  -9  -5   12.28    0.55
   3   9   5   11.56    0.51
  -4   9   5   27.66    0.89
   4   9  -5   27.51    0.90
   4  -9   5   28.30    0.89
   4  -9  -5   25.92    0.86
  -4  -9   5   27.63    0.88
  -4   9  -5   26.79    0.89
   4   9   5   27.17    0.93
   4   9   5   27.30    0.85
   5   9  -5   28.01    0.92
   5  -9   5   26.73    0.90
  -5   9   5   26.40    0.91
  -5  -9  -5   27.79    1.00
  -5   9  -5   29.31    0.93
   5   9   5   26.13    0.88
  -5  -9   5   27.48    0.90
   5  -9  -5   26.33    0.91
   6  -9   5   15.22    0.67
  -6   9   5   15.35    0.70
   6   9  -5   15.62    0.69
  -6  -9  -5   16.48    0.78
   6  -9  -5   15.62    0.70
   6   9   5   15.26    0.69
  -6   9  -5   14.67    0.67
  -6  -9   5   16.12    0.69
   7  -9   5   34.45    1.09
  -7  -9  -5   34.38    1.21
   7   9  -5   33.50    1.07
  -7   9   5   32.95    1.12
   7   9  -5   33.95    1.07
   7  -9  -5   32.92    1.11
   7   9   5   34.50    1.13
  -7   9  -5   32.40    1.04
   8   9  -5   -0.03    0.14
  -8  -9  -5    0.47    0.21
   8  -9   5    0.22    0.17
  -8   9   5   -0.06    0.18
   8  -9  -5    0.28    0.18
   8   9   5    0.24    0.19
   9  -9   5   11.33    0.65
  -9   9   5    9.37    0.67
   9   9  -5   10.32    0.60
  -9  -9  -5    9.56    0.68
   9   9   5   10.07    0.67
   9  -9  -5   11.73    0.70
 -10  -9  -5   -0.33    0.21
 -10   9   5    0.11    0.25
  10   9   5    0.30    0.24
  10  -9  -5   -0.10    0.18
 -11   9   5    2.56    0.49
  11   9   5    2.11    0.43
   0  10   5   14.11    0.54
   0 -10  -5   13.79    0.53
   0 -10   5   13.54    0.59
   0  10   5   13.71    0.58
   0  10  -5   14.34    0.63
  -1  10   5   -0.20    0.10
   1  10  -5    0.08    0.12
  -1 -10  -5    0.02    0.10
  -1  10   5   -0.22    0.09
   1 -10   5    0.04    0.09
  -1 -10   5    0.04    0.11
   1 -10  -5   -0.19    0.07
   1  10   5    0.05    0.11
  -1  10  -5   -0.12    0.11
   1  10   5    0.05    0.13
  -2 -10  -5   14.90    0.51
  -2  10   5   14.00    0.55
  -2  10   5   13.67    0.59
   2  10  -5   14.68    0.65
   2 -10   5   14.43    0.62
  -2 -10   5   14.16    0.61
   2 -10  -5   14.38    0.59
   2  10   5   15.22    0.58
  -2  10  -5   14.77    0.65
   2  10   5   13.69    0.62
   3 -10   5   36.07    1.05
  -3  10   5   33.79    1.00
  -3  10   5   36.99    0.93
   3  10  -5   35.87    1.08
   3 -10  -5   35.51    1.03
   3  10   5   35.88    0.98
   3  10   5   35.86    1.09
  -3  10  -5   34.33    1.07
  -3 -10   5   34.90    1.03
  -4  10   5    5.48    0.42
   4  10  -5    6.23    0.43
   4 -10   5    6.56    0.43
  -4 -10   5    5.87    0.41
   4  10   5    5.92    0.44
   4 -10  -5    5.88    0.42
   4  10   5    5.58    0.38
  -4  10  -5    6.20    0.43
   5  10  -5   -0.07    0.13
   5 -10   5    0.07    0.12
  -5 -10  -5   -0.14    0.13
  -5  10   5    0.08    0.16
   5 -10  -5    0.10    0.14
   5  10   5   -0.09    0.12
  -5 -10   5   -0.05    0.10
   5  10   5    0.04    0.12
  -5  10  -5    0.06    0.15
  -6  10   5    5.89    0.46
   6  10  -5    5.27    0.43
   6 -10   5    5.48    0.43
  -6 -10  -5    6.59    0.52
  -6 -10   5    6.14    0.45
  -6  10  -5    5.84    0.45
   6 -10  -5    4.65    0.46
   6  10   5    5.35    0.43
  -7  10   5    4.93    0.51
   7  10  -5    4.32    0.46
  -7 -10  -5    3.58    0.46
   7 -10   5    3.96    0.44
   7  10   5    5.16    0.50
  -7 -10   5    4.30    0.45
  -7  10  -5    4.65    0.46
   7 -10  -5    5.12    0.51
  -8 -10  -5    0.32    0.25
   8 -10   5    0.09    0.16
  -8  10   5    0.19    0.22
   8  10   5    0.15    0.18
  -8 -10   5    0.29    0.19
   8 -10  -5    0.04    0.17
   9 -10   5    0.46    0.23
  -9  10   5    0.30    0.25
  -9 -10  -5    0.60    0.27
   9 -10  -5    0.18    0.19
   9  10   5   -0.04    0.20
 -10 -10  -5    2.03    0.44
 -10  10   5    1.20    0.37
  10 -10  -5    1.29    0.33
  10  10   5    1.83    0.40
   0  11   5   -0.11    0.10
   0  11   5    0.19    0.14
   0  11  -5   -0.14    0.11
   0 -11  -5    0.08    0.11
   0 -11   5   -0.09    0.10
  -1 -11  -5   68.04    1.43
  -1  11   5   69.34    1.53
  -1  11   5   65.37    1.44
   1  11  -5   65.52    1.63
   1 -11   5   66.86    1.58
   1  11   5   64.94    1.43
   1  11   5   66.61    1.58
  -1 -11   5   66.13    1.56
  -1  11  -5   66.06    1.62
   1 -11  -5   65.38    1.48
  -2 -11  -5   54.27    1.21
   2  11  -5   53.08    1.43
  -2  11   5   56.78    1.31
   2 -11   5   55.52    1.40
  -2  11   5   54.92    1.30
   2  11   5   52.89    1.41
   2 -11  -5   53.05    1.32
  -2  11  -5   52.09    1.41
  -2 -11   5   53.40    1.36
   2  11   5   53.97    1.26
   3  11  -5   33.07    1.09
  -3  11   5   35.21    1.02
  -3  11   5   35.17    0.95
   3 -11   5   34.47    1.06
   3  11   5   34.27    0.97
   3  11   5   33.62    1.09
  -3 -11   5   35.01    1.05
  -3  11  -5   32.16    1.06
   3 -11  -5   34.04    1.04
  -4  11   5   11.79    0.59
   4 -11   5   11.73    0.60
   4  11  -5   10.65    0.60
   4 -11  -5   10.84    0.58
   4  11   5   11.51    0.63
  -4 -11   5   11.71    0.59
   4  11   5   11.61    0.56
  -4  11  -5   11.49    0.61
   5 -11   5   14.08    0.68
  -5  11   5   14.52    0.69
   5  11  -5   14.51    0.71
   5  11   5   12.98    0.69
  -5 -11   5   13.11    0.65
   5 -11  -5   13.93    0.68
  -5  11  -5   14.54    0.69
   5  11   5   14.21    0.65
   6 -11   5    3.02    0.38
  -6 -11  -5    2.23    0.38
  -6  11   5    3.69    0.43
   6  11  -5    3.41    0.41
   6  11   5    3.19    0.38
  -6 -11   5    2.38    0.33
  -6  11  -5    2.80    0.37
   6 -11  -5    3.26    0.42
  -7 -11  -5    6.37    0.64
   7  11  -5    5.55    0.54
   7 -11   5    5.82    0.47
  -7  11   5    5.84    0.56
   7  11   5    5.77    0.48
  -7 -11   5    6.52    0.48
   7 -11  -5    5.69    0.55
  -8  11   5   20.45    0.93
   8 -11   5   20.61    0.91
  -8 -11  -5   19.87    0.98
  -8 -11   5   19.03    0.84
   8 -11  -5   19.09    0.91
   8  11   5   20.01    0.91
  -9  11   5    1.77    0.39
  -9 -11  -5    1.78    0.40
   9 -11   5    1.98    0.38
   9 -11  -5    1.60    0.34
   9  11   5    1.99    0.39
 -10 -11  -5   -0.05    0.25
   0  12   5   22.48    0.84
   0 -12   5   20.86    0.81
   0  12  -5   23.57    0.91
   0 -12  -5   24.20    0.78
  -1  12   5    1.49    0.26
   1 -12   5    1.33    0.26
  -1 -12  -5    1.11    0.21
   1  12  -5    1.13    0.25
   1 -12  -5    0.80    0.20
   1  12   5    0.78    0.21
  -1  12  -5    0.99    0.25
  -1 -12   5    0.93    0.22
   2  12  -5   24.73    0.94
  -2  12   5   24.75    0.84
   2 -12   5   24.75    0.90
   2 -12  -5   25.51    0.87
  -2 -12   5   25.32    0.90
  -2  12  -5   23.05    0.91
   2  12   5   25.31    0.93
   3 -12   5    9.03    0.54
   3  12  -5   10.22    0.60
   3 -12  -5    8.98    0.53
  -3 -12   5    8.96    0.53
   3  12   5    9.40    0.57
  -3  12  -5    8.75    0.56
   4  12  -5   -0.06    0.15
   4 -12   5   -0.08    0.12
  -4 -12   5   -0.06    0.12
   4  12   5   -0.15    0.14
  -4  12  -5   -0.12    0.12
   4 -12  -5   -0.11    0.12
   5  12  -5    0.10    0.16
   5 -12   5   -0.19    0.13
   5 -12  -5   -0.01    0.15
  -5 -12   5   -0.10    0.13
   5  12   5   -0.14    0.14
  -5  12  -5    0.06    0.17
   6  12  -5    0.38    0.21
  -6 -12  -5    0.53    0.24
   6 -12   5    0.57    0.22
  -6  12  -5    0.56    0.23
   6 -12  -5    0.67    0.25
  -6 -12   5    0.40    0.19
  -7 -12  -5    0.03    0.19
   7 -12   5    0.17    0.18
   7  12  -5    0.31    0.19
  -7 -12   5    0.13    0.17
   7 -12  -5    0.30    0.19
   8 -12   5    8.74    0.62
  -8 -12  -5    8.24    0.69
   8 -12  -5    9.18    0.66
   9 -12   5    0.26    0.23
  -9 -12  -5    0.56    0.31
   9 -12  -5    0.27    0.22
   0  13   5    0.05    0.14
   0 -13  -5    0.00    0.12
   0 -13   5   -0.06    0.13
   0  13  -5   -0.02    0.13
  -1 -13  -5    6.68    0.42
   1 -13   5    6.25    0.46
   1  13  -5    7.09    0.53
  -1  13   5    6.22    0.46
  -1 -13   5    6.80    0.47
   1  13   5    6.73    0.48
   1 -13  -5    6.91    0.46
  -1  13  -5    6.20    0.49
   2 -13   5    5.43    0.51
  -2  13   5    5.67    0.43
   2  13  -5    5.43    0.53
  -2 -13   5    5.12    0.43
   2  13   5    4.92    0.50
   2 -13  -5    5.63    0.42
  -2  13  -5    5.14    0.51
   3 -13   5   17.24    0.78
   3  13  -5   17.89    0.83
  -3 -13   5   17.28    0.76
   3 -13  -5   18.46    0.79
  -3  13  -5   17.98    0.82
   3  13   5   19.05    0.85
   4 -13   5    0.33    0.17
   4  13  -5    0.27    0.17
   4  13   5    0.08    0.18
  -4 -13   5    0.40    0.18
  -4  13  -5    0.41    0.18
   4 -13  -5   -0.06    0.15
   5  13  -5   22.99    0.98
   5 -13   5   21.47    0.93
  -5 -13   5   21.39    0.88
  -5  13  -5   22.80    0.94
   5  13   5   22.74    0.99
   5 -13  -5   23.23    0.95
   6 -13   5    1.00    0.27
   6  13  -5    0.55    0.25
  -6 -13  -5    0.57    0.28
  -6  13  -5    0.46    0.23
  -6 -13   5    0.30    0.19
   6 -13  -5    0.62    0.24
  -7 -13  -5    7.72    0.64
   7  13  -5    7.36    0.58
   7 -13   5    7.44    0.58
  -7 -13   5    6.46    0.52
   7 -13  -5    7.21    0.58
  -8 -13  -5    0.54    0.28
   8 -13   5    0.33    0.22
   8 -13  -5    0.93    0.30
   9 -13   5    0.44    0.28
   0 -14  -5   13.97    0.65
   0 -14   5   13.61    0.69
   0  14  -5   14.27    0.76
   0  14   5   13.20    0.69
   1 -14   5    4.00    0.44
  -1 -14  -5    4.40    0.42
   1  14  -5    3.74    0.45
  -1  14   5    3.63    0.42
  -1  14  -5    3.30    0.44
   1  14   5    3.49    0.43
  -1 -14   5    3.01    0.39
   1 -14  -5    3.38    0.39
  -2  14   5    0.06    0.17
   2 -14   5   -0.07    0.14
   2  14  -5    0.22    0.19
   2  14   5   -0.05    0.16
  -2  14  -5    0.19    0.18
  -2 -14   5   -0.05    0.13
   2 -14  -5   -0.06    0.13
   3  14  -5   14.60    0.78
   3 -14   5   16.61    0.79
   3  14   5   15.02    0.78
  -3  14  -5   15.50    0.78
   3 -14  -5   14.75    0.73
  -3 -14   5   17.42    0.78
   4 -14   5   11.86    0.69
   4  14  -5   13.40    0.76
  -4 -14   5   12.41    0.67
  -4  14  -5   12.14    0.70
   4  14   5   12.39    0.74
   4 -14  -5   12.85    0.70
   5 -14   5    0.57    0.24
   5  14  -5    0.50    0.25
  -5  14  -5    0.72    0.25
   5  14   5    0.66    0.27
  -5 -14   5    0.34    0.19
   5 -14  -5    0.35    0.21
   6  14  -5    1.71    0.36
  -6 -14  -5    1.99    0.41
   6 -14   5    2.03    0.38
   6 -14  -5    2.24    0.39
  -6 -14   5    2.49    0.38
  -7 -14  -5    5.46    0.64
   7 -14   5    4.94    0.56
   7  14  -5    5.37    0.60
  -7 -14   5    5.37    0.54
   7 -14  -5    4.45    0.53
   8 -14   5    2.01    0.40
   8  14  -5    3.42    0.51
   0  15  -5   -0.12    0.17
   0 -15  -5    0.06    0.15
   0 -15   5    0.07    0.15
   0  15   5    0.02    0.16
   1 -15   5    8.39    0.58
  -1  15   5   10.17    0.62
   1  15  -5   10.19    0.67
  -1 -15   5    9.40    0.62
  -1  15  -5    9.61    0.65
   1 -15  -5    9.17    0.56
   1  15   5    9.99    0.64
   2  15  -5    0.28    0.19
   2 -15   5    0.47    0.22
  -2 -15   5    0.58    0.22
  -2  15  -5    0.91    0.28
   2 -15  -5    0.51    0.20
   2  15   5    0.35    0.21
   3  15  -5    8.91    0.63
   3 -15   5    7.14    0.55
  -3  15  -5    7.95    0.58
   3 -15  -5    7.56    0.55
   3  15   5    7.05    0.58
  -3 -15   5    7.15    0.53
   4 -15   5    1.46    0.32
   4  15  -5    0.69    0.25
  -4 -15   5    1.07    0.26
   4  15   5    1.45    0.33
  -4  15  -5    1.28    0.31
   4 -15  -5    0.84    0.27
   5  15  -5   11.96    0.77
   5 -15   5   11.75    0.72
   5  15   5   10.51    0.72
  -5  15  -5   10.57    0.69
   5 -15  -5   10.82    0.70
  -5 -15   5   11.95    0.69
   6 -15   5    0.97    0.30
  -6 -15  -5    0.86    0.33
   6  15  -5    1.08    0.32
   6 -15  -5    1.36    0.34
  -6 -15   5    0.87    0.27
   7 -15   5    1.62    0.36
   7  15  -5    1.56    0.38
   0 -16   5    1.52    0.31
   0  16   5    1.59    0.34
   0 -16  -5    1.11    0.27
   0  16  -5    0.99    0.28
   1  16  -5    0.18    0.19
  -1  16   5    0.31    0.20
   1 -16   5    0.09    0.19
  -1 -16   5    0.57    0.24
   1  16   5    0.40    0.24
   1 -16  -5    0.55    0.23
  -1  16  -5    0.15    0.23
   2  16  -5    0.60    0.25
   2 -16   5    1.01    0.28
   2  16   5    0.23    0.22
   2 -16  -5    0.66    0.26
  -2  16  -5    0.57    0.25
  -2 -16   5    0.46    0.22
   3  16  -5    1.39    0.33
   3 -16   5    0.81    0.27
  -3  16  -5    0.99    0.31
   3  16   5    0.82    0.27
  -3 -16   5    1.26    0.29
   3 -16  -5    0.83    0.27
   4  16  -5   -0.18    0.19
   4 -16   5    0.26    0.19
   4 -16  -5    0.16    0.21
  -4  16  -5    0.55    0.26
   4  16   5    0.14    0.23
  -4 -16   5    0.43    0.24
   5  16  -5    1.39    0.36
   5 -16   5    1.05    0.31
   5  16   5    1.45    0.38
   5 -16  -5    1.54    0.36
  -5  16  -5    1.31    0.34
  -5 -16   5    1.51    0.34
   6  16  -5    0.07    0.23
  -6 -16   5    0.03    0.21
   0  17  -5    0.11    0.21
   0 -17   5    0.02    0.17
   0  17   5   -0.16    0.18
   1 -17   5    7.26    0.59
   1  17  -5    7.82    0.65
  -1  17   5    8.31    0.62
  -1  17  -5    7.25    0.70
   1 -17  -5    6.84    0.53
   1  17   5    7.41    0.60
  -1 -17   5    7.55    0.58
   2  17  -5    6.94    0.70
   2 -17   5    6.14    0.62
  -2 -17   5    7.16    0.58
  -2  17  -5    5.70    0.62
   2  17   5    7.35    0.70
   2 -17  -5    6.33    0.53
   3  17  -5    7.34    0.71
   3 -17   5    6.84    0.68
  -3  17  -5    7.86    0.65
  -3 -17   5    7.53    0.59
   3 -17  -5    7.53    0.60
   3  17   5    7.33    0.62
   4 -17   5    0.02    0.18
   4  17  -5    0.09    0.21
   4  17   5    0.03    0.22
   4 -17  -5   -0.04    0.20
  -4 -17   5   -0.09    0.18
  -4  17  -5    0.19    0.22
  -5 -17   5    7.96    0.60
   0  18   5    0.80    0.32
   0 -18   5    0.41    0.27
   0  18  -5    0.93    0.32
   1 -18   5    0.86    0.30
  -1 -18   5    0.67    0.26
  -1  18  -5    0.28    0.26
   1  18   5    0.44    0.27
  -2  18  -5    8.34    0.69
   2 -18  -5    8.45    0.64
  -2 -18   5    7.69    0.61
   2  18   5    8.75    0.69
   3 -18  -5    1.01    0.33
  -3  18  -5    0.45    0.29
  -3 -18   5    0.38    0.24
   0   0   6   45.04    0.91
   0   0  -6   44.56    0.92
   0   0  -6   45.57    0.82
   1   0   6    7.77    0.31
  -1   0  -6    8.13    0.23
  -1   0   6    8.69    0.34
   1   0  -6    8.55    0.30
  -1   0  -6    7.43    0.34
   2   0  -6    4.57    0.24
   2   0   6    3.92    0.14
  -2   0   6    4.21    0.25
   2   0  -6    3.98    0.18
  -2   0  -6    3.71    0.27
   2   0   6    3.74    0.23
   3   0   6  287.25    4.41
   3   0   6  285.24    4.13
   3   0  -6  282.30    4.41
   3   0  -6  289.02    4.16
  -3   0  -6  289.17    4.55
  -3   0   6  290.85    4.42
  -4   0  -6  477.72    7.37
   4   0  -6  474.84    7.22
  -4   0   6  478.94    7.20
   4   0   6  489.95    6.90
   4   0  -6  485.40    6.86
   4   0   6  489.54    7.21
   5   0   6    0.46    0.09
  -5   0   6    0.58    0.17
   5   0   6    0.61    0.16
  -5   0  -6    0.30    0.15
   5   0  -6    0.54    0.14
  -6   0   6  304.62    4.96
   6   0  -6  304.82    4.95
   6   0   6  311.83    4.98
  -6   0  -6  314.18    5.10
  -7   0  -6   58.65    1.48
   7   0   6   56.62    1.43
   7   0  -6   56.70    1.38
  -7   0   6   56.90    1.44
  -8   0  -6  118.33    2.48
  -8   0   6  116.46    2.44
   8   0  -6  117.47    2.38
   8   0   6  113.59    2.43
  -9   0  -6    2.49    0.40
  -9   0   6    2.63    0.40
   9   0   6    2.48    0.38
   9   0  -6    2.65    0.35
  10   0   6    0.12    0.18
 -10   0   6    0.04    0.21
  10   0  -6   -0.11    0.11
  11   0  -6    0.01    0.17
 -11   0   6    0.02    0.22
  11   0   6    0.20    0.21
  12   0  -6    2.59    0.42
 -12   0   6    2.66    0.47
  12   0   6    2.82    0.50
   0  -1   6   -0.01    0.06
   0   1   6   -0.02    0.06
   0   1  -6    0.01    0.04
   0  -1  -6    0.15    0.07
   0   1  -6    0.09    0.08
   1   1  -6   32.87    0.70
  -1  -1  -6   30.55    0.56
   1  -1   6   32.66    0.63
  -1   1   6   32.61    0.76
  -1  -1  -6   31.03    0.74
   1  -1   6   32.58    0.70
   1   1  -6   31.66    0.69
  -1   1  -6   30.74    0.77
   1  -1  -6   33.26    0.68
  -1  -1   6   32.47    0.71
   1  -1  -6   31.74    0.67
   2  -1   6   12.30    0.40
   2  -1   6   13.00    0.32
  -2  -1  -6   12.53    0.46
  -2   1   6   13.48    0.46
   2   1  -6   12.98    0.42
   2   1  -6   12.61    0.35
   2   1   6   12.32    0.43
  -2   1  -6   12.87    0.48
  -2  -1   6   12.89    0.42
   2  -1  -6   12.63    0.40
   2  -1  -6   12.18    0.32
   3  -1   6   19.11    0.55
   3   1  -6   19.95    0.58
  -3  -1  -6   20.22    0.63
  -3   1   6   18.40    0.58
   3   1  -6   19.41    0.44
   3  -1   6   19.10    0.43
   3   1   6   18.79    0.58
  -3  -1   6   19.20    0.57
   3  -1  -6   19.20    0.56
  -3   1  -6   18.70    0.64
   4   1  -6   17.03    0.39
  -4  -1  -6   16.57    0.60
   4   1  -6   15.99    0.56
  -4   1   6   17.18    0.59
   4  -1   6   17.74    0.42
   4  -1   6   17.38    0.56
   4  -1  -6   17.68    0.57
  -4  -1   6   17.10    0.57
  -4   1  -6   16.49    0.63
   4   1   6   17.12    0.33
   4   1   6   16.93    0.58
   5   1  -6   17.03    0.60
  -5  -1  -6   16.53    0.64
   5  -1   6   16.61    0.44
  -5   1   6   15.45    0.60
   5  -1   6   16.61    0.60
  -5  -1   6   16.70    0.61
   5   1   6   16.98    0.62
   5  -1  -6   16.25    0.59
  -5   1  -6   16.86    0.66
  -6  -1  -6    6.82    0.46
   6   1  -6    6.73    0.40
  -6   1   6    6.99    0.44
   6  -1   6    6.16    0.41
  -6  -1   6    6.58    0.41
   6   1   6    7.26    0.44
  -6   1  -6    7.83    0.50
   6  -1  -6    6.24    0.39
  -7   1   6   10.47    0.57
   7   1  -6   11.68    0.55
   7  -1   6   10.79    0.56
  -7  -1  -6   10.11    0.58
  -7  -1   6   11.13    0.56
   7  -1  -6   10.84    0.53
   7   1   6    9.86    0.56
  -7   1  -6   11.82    0.64
  -8  -1  -6   10.93    0.63
   8  -1   6   10.52    0.60
   8   1  -6   10.62    0.56
  -8   1   6    9.44    0.58
  -8  -1   6    9.44    0.57
  -8   1  -6    9.48    0.61
   8   1   6    8.82    0.57
   8  -1  -6   10.33    0.55
   9  -1   6    0.12    0.18
  -9   1   6    0.32    0.22
   9   1  -6    0.34    0.17
  -9  -1  -6   -0.12    0.20
   9   1   6    0.38    0.21
   9  -1  -6    0.13    0.14
  -9  -1   6    0.72    0.24
  -9   1  -6    0.31    0.25
  10   1  -6    0.83    0.24
 -10   1   6    0.58    0.26
  10  -1   6    1.21    0.32
  10  -1  -6    0.92    0.25
 -10  -1   6    0.76    0.28
  10   1   6    0.94    0.30
  11  -1   6    1.24    0.35
 -11   1   6    1.17    0.38
  11   1  -6    1.52    0.32
  11  -1  -6    1.35    0.30
 -11  -1   6    1.13    0.34
  11   1   6    0.82    0.32
  12  -1   6    5.28    0.63
  12   1  -6    5.81    0.60
  12   1   6    5.61    0.65
  12  -1  -6    6.56    0.64
 -12  -1   6    4.89    0.62
   0   2   6    1.20    0.15
   0   2  -6    1.32    0.13
   0  -2  -6    1.56    0.11
   0   2  -6    1.52    0.17
   0  -2   6    1.25    0.13
   0  -2  -6    1.26    0.14
   1   2  -6    1.84    0.17
   1  -2   6    1.80    0.13
  -1   2   6    1.35    0.18
   1   2  -6    1.83    0.15
  -1  -2  -6    1.72    0.18
   1  -2   6    1.95    0.14
  -1  -2  -6    1.77    0.09
   1  -2  -6    1.80    0.14
  -1   2  -6    1.84    0.20
  -1  -2   6    1.78    0.16
   1   2   6    1.61    0.18
   1  -2  -6    1.73    0.13
   2   2  -6    4.08    0.21
   2   2  -6    4.14    0.24
  -2  -2  -6    3.91    0.25
   2  -2   6    3.88    0.21
   2  -2   6    4.08    0.19
  -2   2   6    4.58    0.28
   2  -2  -6    4.74    0.24
   2  -2  -6    4.26    0.18
   2   2   6    4.07    0.25
  -2  -2   6    4.37    0.24
  -2   2  -6    4.13    0.30
   3  -2   6    0.01    0.06
  -3   2   6    0.05    0.09
   3   2  -6    0.03    0.07
   3  -2   6   -0.02    0.04
   3   2  -6   -0.03    0.06
  -3  -2  -6   -0.08    0.07
   3   2   6   -0.05    0.06
   3  -2  -6   -0.07    0.06
  -3  -2   6    0.00    0.08
  -3   2  -6    0.05    0.13
   4   2  -6    2.68    0.17
  -4  -2  -6    2.33    0.27
   4  -2   6    2.32    0.17
  -4   2   6    2.55    0.28
   4   2  -6    2.59    0.26
   4  -2   6    2.19    0.23
   4  -2  -6    2.16    0.23
  -4  -2   6    2.45    0.25
   4   2   6    2.45    0.26
  -4   2  -6    2.70    0.31
   5  -2   6   13.35    0.42
   5   2  -6   13.31    0.39
   5   2  -6   13.89    0.54
  -5  -2  -6   14.24    0.60
  -5   2   6   13.43    0.57
   5  -2   6   14.06    0.54
   5   2   6   15.00    0.58
  -5  -2   6   13.50    0.53
   5  -2  -6   13.54    0.53
  -5   2  -6   14.46    0.61
   6  -2   6   30.67    0.91
   6   2  -6   28.53    0.88
  -6   2   6   28.76    0.91
  -6  -2  -6   29.66    0.94
   6  -2   6   30.17    0.73
  -6  -2   6   30.41    0.90
   6   2   6   28.75    0.91
  -6   2  -6   29.91    0.95
   6  -2  -6   30.11    0.89
  -7   2   6    0.12    0.16
   7   2  -6    0.28    0.15
  -7  -2  -6    0.10    0.16
   7  -2   6    0.16    0.14
  -7   2  -6    0.10    0.20
   7  -2  -6    0.08    0.11
   7   2   6    0.49    0.18
  -7  -2   6    0.12    0.17
   8  -2   6    3.15    0.40
  -8   2   6    3.17    0.40
   8   2  -6    2.73    0.35
  -8  -2  -6    2.73    0.37
  -8  -2   6    2.75    0.36
   8   2   6    2.59    0.35
  -8   2  -6    2.27    0.36
   8  -2  -6    3.59    0.39
  -9   2   6    0.71    0.25
   9   2  -6    0.41    0.19
   9  -2   6    1.04    0.27
  -9  -2  -6    0.69    0.25
   9   2   6    0.86    0.25
   9  -2  -6    0.95    0.23
  -9   2  -6    0.32    0.24
  -9  -2   6    0.67    0.26
 -10   2   6    3.99    0.49
  10   2  -6    2.48    0.37
  10  -2   6    2.38    0.40
  10  -2  -6    2.73    0.37
 -10  -2   6    3.31    0.45
  10   2   6    2.41    0.41
  11   2  -6    0.51    0.20
  11  -2   6    0.55    0.27
 -11   2   6    0.42    0.29
  11  -2  -6    0.37    0.23
 -11  -2   6    0.21    0.24
  11   2   6    0.58    0.29
  12  -2   6    1.34    0.41
  12   2  -6    0.91    0.29
 -12  -2   6    1.39    0.39
  12  -2  -6    0.93    0.30
   0  -3  -6    0.00    0.05
   0  -3   6    0.02    0.06
   0   3   6    0.10    0.09
   0  -3  -6   -0.07    0.05
   0  -3   6    0.04    0.06
   0   3  -6   -0.06    0.07
   1  -3   6   48.17    0.94
  -1   3   6   46.88    1.04
  -1  -3  -6   45.94    1.00
   1   3  -6   46.52    0.97
  -1  -3  -6   49.44    0.81
   1   3  -6   47.77    0.98
   1  -3   6   50.08    0.89
   1  -3  -6   48.22    0.91
  -1  -3   6   49.02    0.90
  -1   3  -6   47.70    1.04
   1   3   6   48.44    1.03
   1  -3  -6   49.10    0.93
   2   3  -6   51.69    1.09
  -2  -3  -6   52.73    1.14
   2   3  -6   54.05    1.05
   2  -3   6   54.67    1.03
   2  -3   6   53.14    1.00
   2  -3  -6   54.10    0.93
  -2  -3   6   53.43    1.01
  -2   3  -6   53.86    1.17
   2  -3  -6   53.88    1.06
   2   3   6   52.59    1.13
   3   3  -6   39.27    0.83
   3  -3   6   38.93    0.82
  -3   3   6   38.80    0.96
  -3  -3  -6   40.02    0.98
   3  -3   6   39.87    0.85
   3   3  -6   38.56    0.92
  -3   3  -6   40.09    1.00
  -3  -3   6   39.92    0.86
   3  -3  -6   39.19    0.90
   3  -3  -6   39.93    0.66
   3   3   6   37.40    0.93
  -4   3   6   39.07    0.99
  -4  -3  -6   38.22    1.00
   4   3  -6   36.38    0.81
   4  -3   6   38.00    0.83
   4   3  -6   37.90    0.95
   4  -3   6   37.58    0.89
  -4  -3   6   38.32    0.90
  -4   3  -6   39.57    1.02
   4   3   6   38.56    0.97
   4  -3  -6   37.73    0.93
  -5   3   6   55.15    1.31
  -5  -3  -6   55.51    1.33
   5  -3   6   56.16    1.12
   5   3  -6   55.40    1.27
   5  -3   6   57.33    1.25
   5   3  -6   55.38    1.09
  -5  -3   6   54.78    1.23
   5  -3  -6   56.81    1.28
  -5   3  -6   57.42    1.36
   6  -3   6    8.56    0.45
  -6   3   6    8.60    0.49
   6  -3   6    7.73    0.35
  -6  -3  -6    7.15    0.45
   6   3  -6    8.07    0.44
   6   3   6    7.97    0.46
  -6  -3   6    7.80    0.43
  -6   3  -6    8.86    0.53
   7   3  -6    2.21    0.29
  -7  -3  -6    2.47    0.34
   7  -3   6    2.44    0.31
  -7   3   6    2.49    0.35
  -7  -3   6    2.35    0.30
  -7   3  -6    2.34    0.35
   7  -3  -6    2.22    0.30
   7   3   6    2.93    0.35
  -8  -3  -6   14.62    0.71
   8  -3   6   13.60    0.67
   8   3  -6   13.96    0.65
  -8   3   6   14.62    0.72
  -8  -3   6   14.32    0.68
  -8   3  -6   14.53    0.71
   8   3   6   13.53    0.69
   8  -3  -6   14.98    0.68
   9  -3   6    5.67    0.48
  -9   3   6    6.29    0.59
  -9  -3  -6    6.19    0.58
   9   3  -6    6.95    0.49
  -9  -3   6    6.39    0.50
   9   3   6    5.81    0.56
   9  -3  -6    5.82    0.45
 -10  -3  -6    3.74    0.49
  10  -3   6    3.81    0.48
  10   3  -6    3.52    0.43
 -10   3   6    2.39    0.40
  10   3   6    3.10    0.45
  10  -3  -6    3.70    0.45
 -10  -3   6    3.40    0.45
  11  -3   6    1.05    0.34
  11   3  -6    1.38    0.31
 -11   3   6    0.79    0.31
  11   3   6    1.32    0.35
  11  -3  -6    0.92    0.27
 -11  -3   6    1.82    0.38
  12  -3   6    2.84    0.51
 -12  -3   6    2.95    0.50
  12  -3  -6    2.89    0.45
   0   4   6  575.63    8.69
   0  -4  -6  597.87    8.71
   0  -4   6  602.96    8.42
   0  -4   6  591.75    8.67
   0   4  -6  587.09    8.77
   0  -4  -6  611.63    8.54
   1  -4   6    0.09    0.06
   1   4  -6    0.23    0.09
   1  -4   6   -0.02    0.06
  -1   4   6    0.29    0.12
  -1  -4  -6    0.03    0.08
  -1  -4  -6    0.14    0.05
   1   4  -6    0.07    0.09
   1  -4  -6    0.00    0.06
  -1   4  -6    0.15    0.11
   1  -4  -6   -0.01    0.06
   1   4   6   -0.03    0.09
  -1  -4   6    0.04    0.07
   2   4  -6  130.59    2.23
   2   4  -6  131.61    2.27
   2  -4   6  131.34    2.09
   2  -4   6  134.47    2.20
  -2   4   6  130.46    2.32
  -2  -4  -6  133.33    1.95
  -2  -4  -6  132.00    2.33
  -2   4  -6  134.15    2.35
   2   4   6  134.35    2.30
  -2  -4   6  133.54    2.11
   2  -4  -6  134.57    2.23
   2  -4  -6  129.92    2.09
  -3  -4  -6    9.84    0.45
   3  -4   6   10.21    0.37
   3   4  -6   10.72    0.44
   3   4  -6   10.72    0.40
   3  -4   6   10.85    0.39
  -3   4   6   10.55    0.46
   3  -4  -6   11.02    0.28
   3  -4  -6   10.86    0.42
   3   4   6   10.10    0.44
  -3  -4   6   10.67    0.38
  -3   4  -6   11.19    0.49
  -4  -4  -6   17.92    0.65
   4  -4   6   17.71    0.55
   4   4  -6   16.75    0.59
  -4   4   6   17.18    0.63
   4  -4   6   17.10    0.53
   4   4  -6   17.19    0.53
   4  -4  -6   16.92    0.58
   4   4   6   15.77    0.60
  -4   4  -6   16.65    0.63
  -4  -4   6   17.38    0.54
   5   4  -6    4.08    0.30
   5   4  -6    3.53    0.24
   5  -4   6    3.49    0.28
  -5  -4  -6    3.32    0.34
  -5   4   6    2.76    0.31
   5  -4   6    3.27    0.24
   5   4   6    3.71    0.35
  -5  -4   6    3.37    0.28
  -5   4  -6    3.95    0.39
   5  -4  -6    3.75    0.29
  -6   4   6    1.29    0.25
   6  -4   6    1.25    0.19
  -6  -4  -6    0.86    0.21
   6  -4   6    1.11    0.21
   6   4  -6    1.53    0.23
   6  -4  -6    1.22    0.22
  -6   4  -6    1.12    0.25
  -6  -4   6    1.41    0.23
   6   4   6    1.20    0.23
  -7  -4  -6    5.78    0.45
  -7   4   6    5.78    0.44
   7   4  -6    6.63    0.43
   7  -4   6    6.83    0.37
   7  -4   6    6.45    0.43
  -7  -4   6    5.66    0.41
  -7   4  -6    6.75    0.49
   7  -4  -6    5.74    0.41
   7   4   6    6.76    0.47
   8   4  -6    9.92    0.54
  -8   4   6   10.68    0.62
  -8  -4  -6   10.42    0.61
   8  -4   6    9.69    0.56
  -8  -4   6   10.48    0.58
   8   4   6    9.59    0.58
  -8   4  -6   10.32    0.59
   8  -4  -6    9.90    0.56
   9   4  -6    0.37    0.18
   9  -4   6    1.17    0.28
  -9  -4  -6    0.93    0.28
  -9   4   6    0.30    0.22
   9  -4  -6    0.45    0.20
  -9  -4   6    0.75    0.25
   9   4   6    0.54    0.23
  10   4  -6   12.58    0.68
 -10  -4  -6   12.83    0.74
  10  -4   6   13.02    0.75
 -10   4   6   13.96    0.80
  10   4   6   12.27    0.75
 -10  -4   6   12.80    0.73
  10  -4  -6   12.47    0.70
  11   4  -6    0.39    0.21
  11  -4   6   -0.02    0.22
 -11   4   6    0.20    0.25
  11   4   6    0.39    0.25
  11  -4  -6    0.08    0.17
 -11  -4   6    0.09    0.21
  12  -4   6    3.37    0.53
  12  -4  -6    3.84    0.51
 -12  -4   6    3.37    0.53
   0  -5   6    0.19    0.05
   0   5  -6    0.03    0.10
   0  -5   6    0.01    0.06
   0   5   6    0.14    0.09
   0  -5  -6    0.01    0.06
   0  -5  -6   -0.08    0.06
  -1   5   6   -0.01    0.07
   1  -5   6   -0.02    0.04
  -1  -5  -6    0.07    0.07
   1  -5   6   -0.01    0.06
   1   5  -6    0.05    0.09
  -1  -5  -6    0.28    0.07
   1  -5  -6    0.00    0.06
   1  -5  -6    0.06    0.07
  -1   5  -6   -0.02    0.10
   1   5   6   -0.05    0.07
  -1  -5   6    0.03    0.05
  -1  -5   6    0.17    0.07
   2   5  -6    9.70    0.41
  -2  -5  -6    8.98    0.25
   2  -5   6    8.24    0.35
  -2  -5  -6    9.79    0.43
   2   5  -6    9.26    0.39
  -2   5   6    9.05    0.31
  -2   5   6    9.69    0.44
   2  -5   6    9.38    0.29
  -2  -5   6    9.29    0.31
   2   5   6    8.44    0.39
  -2   5  -6    9.49    0.45
   2  -5  -6    9.31    0.38
   3  -5   6   16.26    0.52
   3   5  -6   15.29    0.55
  -3   5   6   15.63    0.59
  -3  -5  -6   15.60    0.59
   3   5  -6   15.86    0.53
  -3  -5  -6   15.74    0.32
   3  -5   6   15.59    0.45
  -3   5  -6   16.39    0.60
   3  -5  -6   16.23    0.54
   3   5   6   15.71    0.57
  -3  -5   6   16.49    0.47
  -4   5   6    7.30    0.43
   4  -5   6    7.84    0.36
  -4  -5  -6    8.63    0.45
   4   5  -6    7.98    0.37
   4  -5   6    7.65    0.34
   4   5  -6    7.76    0.40
  -4  -5   6    7.46    0.34
   4  -5  -6    7.57    0.40
   4   5   6    7.43    0.40
  -4   5  -6    7.58    0.44
   5  -5   6   28.00    0.77
  -5  -5  -6   28.94    0.92
   5   5  -6   25.61    0.81
   5   5  -6   26.63    0.75
  -5   5   6   27.49    0.88
   5  -5   6   28.35    0.78
  -5  -5   6   28.00    0.78
  -5   5  -6   27.70    0.88
   5   5   6   27.05    0.86
   6  -5   6   13.84    0.56
  -6   5   6   12.81    0.62
  -6  -5  -6   12.37    0.61
   6   5  -6   12.96    0.57
   6  -5   6   12.89    0.51
   6   5  -6   12.90    0.50
   6  -5  -6   12.09    0.57
  -6   5  -6   13.12    0.62
   6   5   6   13.12    0.61
  -6  -5   6   13.30    0.56
  -7  -5  -6    1.55    0.29
   7  -5   6    1.24    0.25
   7   5  -6    1.13    0.23
   7  -5   6    1.37    0.23
  -7   5   6    1.36    0.28
  -7   5  -6    1.51    0.29
   7  -5  -6    0.95    0.21
   7   5   6    0.77    0.21
  -7  -5   6    1.44    0.26
   8  -5   6    3.94    0.42
  -8   5   6    3.61    0.45
  -8  -5  -6    3.66    0.44
   8   5  -6    3.14    0.37
  -8  -5   6    3.01    0.37
   8  -5  -6    2.76    0.36
  -8   5  -6    3.14    0.39
   8   5   6    3.34    0.42
  -9   5   6    0.09    0.19
  -9  -5  -6   -0.02    0.16
   9   5  -6    0.20    0.15
   9  -5   6    0.13    0.20
   9   5   6    0.01    0.16
  -9  -5   6    0.01    0.17
   9  -5  -6    0.02    0.15
 -10  -5  -6    0.02    0.21
 -10   5   6    0.85    0.31
  10   5  -6    0.53    0.20
  10  -5   6    0.16    0.24
  10  -5  -6    0.26    0.19
  10   5   6    0.28    0.21
 -10  -5   6    0.17    0.24
 -11   5   6   -0.15    0.20
  11   5  -6    0.29    0.20
  11  -5   6   -0.04    0.21
  11  -5  -6   -0.04    0.16
  11   5   6   -0.07    0.21
 -11  -5   6    0.25    0.25
 -12   5  -6    1.20    0.34
   0  -6  -6  419.43    6.13
   0   6  -6  414.20    6.38
   0   6   6  408.65    6.28
   0   6   6  423.91    6.28
   0  -6   6  414.63    6.29
  -1   6   6   14.43    0.46
   1  -6   6   13.40    0.30
   1  -6   6   13.88    0.49
  -1  -6  -6   13.92    0.39
   1   6  -6   13.09    0.51
  -1   6   6   13.42    0.52
   1   6   6   13.75    0.52
   1  -6  -6   14.13    0.46
  -1  -6   6   13.92    0.31
  -1  -6   6   14.61    0.52
  -1   6  -6   13.61    0.54
   1   6   6   14.13    0.51
   2   6  -6   89.08    1.74
   2  -6   6   90.92    1.46
  -2   6   6   90.58    1.58
  -2  -6  -6   90.74    1.47
   2  -6   6   90.21    1.70
  -2  -6  -6   91.09    1.80
  -2   6   6   91.08    1.78
  -2   6  -6   89.08    1.79
   2  -6  -6   90.67    1.69
  -2  -6   6   91.52    1.48
   2   6   6   92.22    1.76
  -2  -6   6   92.32    1.77
   3  -6   6   47.37    0.95
  -3   6   6   49.05    1.18
   3   6  -6   49.12    1.15
   3  -6   6   49.48    1.11
  -3   6   6   48.92    0.93
   3   6  -6   49.63    1.13
  -3  -6  -6   51.22    1.22
   3   6   6   49.26    1.16
   3  -6  -6   48.34    1.11
  -3  -6   6   50.16    0.97
  -3   6  -6   49.84    1.20
  -4   6   6    2.95    0.33
   4  -6   6    2.53    0.23
  -4  -6  -6    1.86    0.26
   4   6  -6    2.27    0.27
   4   6  -6    2.56    0.27
   4  -6   6    2.41    0.26
   4  -6  -6    1.97    0.24
  -4   6  -6    2.08    0.28
   4   6   6    2.07    0.26
  -4  -6   6    2.38    0.23
   5   6  -6    0.09    0.10
  -5   6   6    0.36    0.17
   5  -6   6    0.30    0.13
   5   6  -6    0.31    0.13
   5  -6   6    0.14    0.12
  -5  -6  -6    0.22    0.15
   5   6   6    0.18    0.12
   5  -6  -6    0.14    0.12
  -5  -6   6    0.17    0.13
  -5   6  -6    0.17    0.17
   6  -6   6    1.51    0.23
  -6  -6  -6    1.81    0.29
   6   6  -6    1.33    0.23
  -6   6   6    1.63    0.30
   6  -6   6    1.79    0.26
   6   6  -6    1.58    0.23
   6   6   6    1.48    0.25
  -6   6  -6    1.52    0.28
   6  -6  -6    1.35    0.25
  -6  -6   6    2.02    0.27
   7   6  -6   22.64    0.82
  -7  -6  -6   22.70    0.90
   7  -6   6   22.95    0.77
  -7   6   6   23.07    0.89
   7  -6   6   21.04    0.78
  -7   6  -6   21.63    0.81
   7  -6  -6   22.96    0.85
   7   6   6   21.62    0.86
  -7  -6   6   22.69    0.79
  -8  -6  -6   10.88    0.66
   8  -6   6   12.23    0.57
  -8   6   6   11.95    0.69
   8   6  -6   11.63    0.61
   8  -6   6   12.37    0.63
  -8  -6   6   12.13    0.61
  -8   6  -6   12.43    0.64
   8  -6  -6   11.97    0.64
   8   6   6   11.06    0.65
  -9   6   6   -0.27    0.15
  -9  -6  -6   -0.05    0.19
   9   6  -6   -0.08    0.13
   9  -6   6    0.36    0.21
   9   6   6   -0.07    0.15
   9  -6  -6   -0.08    0.14
  -9  -6   6   -0.11    0.17
  10  -6   6   16.78    0.86
  10   6  -6   15.68    0.78
 -10  -6  -6   17.10    0.88
 -10   6   6   16.26    0.87
 -10  -6   6   16.59    0.82
  10  -6  -6   16.39    0.83
  10   6   6   16.38    0.89
 -11   6   6    0.54    0.30
  11  -6  -6    0.71    0.27
  11   6   6    0.72    0.30
 -11   6  -6    0.88    0.28
 -11  -6   6    1.38    0.36
   0   7  -6    0.17    0.12
   0   7   6   -0.11    0.07
   0  -7   6    0.06    0.08
   0  -7  -6   -0.04    0.06
   0   7   6   -0.02    0.07
  -1  -7  -6    7.96    0.31
  -1   7   6    7.83    0.35
  -1   7   6    8.07    0.42
   1  -7   6    8.50    0.40
   1   7  -6    7.70    0.42
   1   7   6    7.68    0.39
   1   7   6    8.01    0.40
   1  -7  -6    8.83    0.37
  -1   7  -6    8.23    0.44
  -1  -7   6    9.16    0.42
   2   7  -6   21.71    0.70
   2  -7   6   22.90    0.69
  -2   7   6   20.76    0.58
  -2  -7  -6   20.80    0.51
  -2   7   6   22.70    0.73
   2  -7  -6   20.98    0.65
   2   7   6   21.05    0.68
   2   7   6   22.22    0.72
  -2  -7   6   22.24    0.71
  -3   7   6    0.19    0.09
  -3   7   6    0.12    0.14
  -3  -7  -6   -0.09    0.09
   3   7  -6    0.05    0.11
   3  -7   6    0.09    0.09
   3  -7  -6    0.11    0.10
  -3  -7   6    0.63    0.16
  -3   7  -6    0.13    0.13
   3   7   6    0.15    0.10
   4   7  -6    5.33    0.36
   4  -7   6    4.91    0.33
   4  -7   6    5.27    0.29
  -4   7   6    5.88    0.41
   4   7  -6    5.77    0.36
  -4  -7  -6    5.26    0.39
  -4   7  -6    5.43    0.40
  -4  -7   6    5.79    0.30
   4  -7  -6    5.39    0.36
   4   7   6    5.52    0.38
   5   7  -6    0.07    0.11
   5   7  -6    0.16    0.12
   5  -7   6    0.11    0.12
  -5   7   6    0.03    0.15
   5  -7   6    0.01    0.10
  -5  -7  -6    0.15    0.14
   5  -7  -6   -0.06    0.09
  -5  -7   6    0.13    0.12
  -5   7  -6    0.19    0.18
   5   7   6   -0.06    0.09
  -6   7   6    4.89    0.47
   6   7  -6    4.82    0.38
  -6  -7  -6    4.53    0.46
   6  -7   6    4.63    0.35
   6  -7   6    3.97    0.32
   6   7  -6    4.63    0.35
   6   7   6    4.35    0.42
  -6   7  -6    5.28    0.42
  -6  -7   6    4.88    0.35
   6  -7  -6    4.00    0.40
  -7  -7  -6    3.77    0.45
   7   7  -6    3.43    0.37
   7  -7   6    3.72    0.38
  -7   7   6    3.24    0.41
   7  -7   6    4.25    0.35
   7   7   6    3.90    0.43
  -7   7  -6    4.14    0.42
  -7  -7   6    3.28    0.36
   7  -7  -6    4.44    0.45
  -8  -7  -6    3.74    0.47
   8  -7   6    5.21    0.48
   8  -7   6    4.10    0.41
  -8   7   6    4.06    0.48
   8   7  -6    4.20    0.43
  -8  -7   6    4.41    0.44
  -8   7  -6    4.01    0.44
   8  -7  -6    4.21    0.45
   8   7   6    3.97    0.47
  -9  -7  -6   -0.06    0.18
   9   7  -6   -0.01    0.13
  -9   7   6    0.32    0.24
   9  -7  -6   -0.15    0.14
  -9  -7   6   -0.12    0.16
   9   7   6    0.10    0.18
  10   7  -6    1.66    0.32
 -10  -7  -6    1.09    0.33
 -10   7   6    1.01    0.34
  10   7   6    1.13    0.32
  10  -7  -6    1.68    0.34
 -11   7   6    0.69    0.33
  11  -7  -6    0.95    0.30
   0  -8  -6   43.29    0.97
   0  -8   6   44.71    1.10
   0   8   6   42.78    1.06
   0   8   6   46.71    1.08
   0   8  -6   46.32    1.16
   1   8  -6    0.72    0.18
  -1   8   6    0.58    0.14
  -1  -8  -6    0.42    0.11
   1  -8   6    0.70    0.15
  -1   8   6    0.23    0.12
   1  -8  -6    0.51    0.13
  -1   8  -6    0.57    0.17
   1   8   6    0.60    0.16
   1   8   6    0.67    0.17
  -1  -8   6    0.30    0.13
   2   8  -6  137.51    2.61
  -2   8   6  141.30    2.42
  -2  -8  -6  140.76    2.31
  -2   8   6  140.67    2.58
   2  -8   6  140.74    2.57
  -2  -8   6  145.86    2.61
   2  -8  -6  143.09    2.51
   2   8   6  147.50    2.63
   2   8   6  143.50    2.55
  -2   8  -6  142.32    2.65
   3  -8   6    3.01    0.30
  -3  -8  -6    2.97    0.33
  -3   8   6    2.16    0.29
  -3   8   6    2.68    0.22
   3   8  -6    2.20    0.28
   3   8   6    2.16    0.27
   3  -8  -6    2.25    0.28
  -3   8  -6    2.31    0.30
  -3  -8   6    2.56    0.30
   3   8   6    2.05    0.29
  -4  -8  -6   16.96    0.72
  -4   8   6   17.10    0.69
   4  -8   6   15.96    0.63
   4   8  -6   17.16    0.67
   4   8   6   17.09    0.66
  -4   8  -6   16.68    0.68
  -4  -8   6   16.15    0.66
   4  -8  -6   16.06    0.64
  -5  -8  -6    2.62    0.36
   5   8  -6    2.34    0.31
  -5   8   6    2.62    0.35
   5   8  -6    2.84    0.33
   5  -8   6    2.47    0.30
  -5   8  -6    2.68    0.34
   5   8   6    2.56    0.31
   5  -8  -6    2.30    0.30
  -6   8   6   51.76    1.41
   6  -8   6   53.55    1.34
   6   8  -6   52.49    1.37
   6   8  -6   52.19    1.33
  -6  -8  -6   54.66    1.50
   6  -8  -6   51.62    1.38
   6   8   6   51.25    1.39
  -6   8  -6   50.48    1.35
  -7  -8  -6    0.27    0.22
  -7   8   6    0.34    0.21
   7  -8   6    0.32    0.17
   7   8  -6    0.49    0.19
   7   8   6    0.31    0.19
   7  -8  -6    0.58    0.20
  -7   8  -6    0.75    0.23
   8  -8   6   37.99    1.15
  -8   8   6   37.66    1.26
   8   8  -6   35.41    1.15
  -8  -8  -6   36.30    1.28
   8  -8  -6   37.33    1.23
   8   8   6   35.92    1.23
  -9  -8  -6    5.90    0.62
  -9   8   6    5.59    0.59
   9   8  -6    5.33    0.44
   9   8   6    4.93    0.55
   9  -8  -6    5.01    0.53
 -10  -8  -6    7.80    0.62
 -10   8   6    7.84    0.74
  10   8  -6    8.08    0.57
  10  -8  -6    8.51    0.63
  10   8   6    7.72    0.64
 -11   8   6    0.25    0.28
  11   8   6    0.63    0.31
   0   9  -6    0.05    0.12
   0   9   6   -0.18    0.08
   0   9   6    0.07    0.11
   0  -9   6    0.03    0.08
   0  -9  -6    0.01    0.09
   1  -9   6    5.50    0.36
  -1   9   6    5.27    0.37
  -1  -9  -6    5.28    0.29
  -1   9   6    5.23    0.33
   1   9  -6    5.04    0.37
   1  -9  -6    5.09    0.33
   1   9   6    4.91    0.35
  -1  -9   6    4.94    0.36
   1   9   6    5.45    0.34
  -1   9  -6    4.93    0.39
  -2   9   6   38.57    1.06
  -2  -9  -6   40.03    0.88
   2  -9   6   39.71    1.07
   2   9  -6   41.71    1.13
  -2   9   6   39.55    0.96
  -2  -9   6   39.78    1.08
  -2   9  -6   40.20    1.12
   2   9   6   37.70    1.08
   2  -9  -6   39.73    1.02
   2   9   6   40.65    1.04
   3  -9   6   15.89    0.63
  -3   9   6   15.74    0.65
   3   9  -6   14.98    0.65
  -3   9   6   15.15    0.53
   3   9   6   15.13    0.66
  -3   9  -6   14.60    0.66
   3   9   6   15.42    0.62
  -3  -9   6   14.64    0.63
   3  -9  -6   15.54    0.62
   4   9  -6    9.08    0.51
  -4   9   6    9.98    0.55
  -4  -9  -6   10.18    0.58
   4  -9   6    9.26    0.50
   4   9   6    9.93    0.51
   4  -9  -6    9.75    0.51
  -4   9  -6    9.05    0.52
  -4  -9   6   10.43    0.53
  -5  -9  -6   20.66    0.85
   5  -9   6   20.51    0.77
   5   9  -6   20.92    0.79
  -5   9   6   20.08    0.80
   5  -9  -6   19.16    0.77
  -5   9  -6   20.31    0.80
  -5  -9   6   20.45    0.78
   5   9   6   20.71    0.78
   6   9  -6    0.08    0.14
  -6   9   6    0.58    0.21
  -6  -9  -6    0.43    0.21
   6  -9   6    0.31    0.17
   6   9  -6    0.37    0.18
   6  -9  -6    0.29    0.17
  -6  -9   6    0.24    0.15
  -6   9  -6    0.53    0.21
   6   9   6   -0.02    0.13
   7   9  -6    0.18    0.16
  -7   9   6    0.28    0.21
   7  -9   6    0.19    0.16
  -7  -9  -6    0.22    0.22
   7   9  -6    0.23    0.17
  -7   9  -6    0.11    0.18
   7   9   6    0.52    0.20
   7  -9  -6   -0.12    0.13
  -8   9   6    7.57    0.57
   8   9  -6    7.70    0.52
   8  -9   6    7.53    0.51
  -8  -9  -6    6.71    0.57
   8  -9  -6    6.81    0.52
   8   9   6    7.12    0.54
  -9   9   6    0.15    0.22
  -9  -9  -6   -0.04    0.21
   9   9  -6    0.13    0.18
   9  -9  -6    0.41    0.20
   9   9   6    0.11    0.22
 -10   9   6    3.16    0.53
 -10  -9  -6    3.70    0.53
  10   9   6    3.86    0.53
  10  -9  -6    3.86    0.51
   0  10   6    1.34    0.23
   0 -10  -6    0.32    0.13
   0 -10   6    0.19    0.12
   0  10  -6    0.06    0.13
   0  10   6   -0.04    0.11
  -1  10   6   30.97    0.91
  -1  10   6   31.51    0.90
   1  10  -6   32.10    1.01
  -1 -10  -6   32.11    0.83
   1 -10   6   30.44    0.94
   1 -10  -6   31.51    0.88
   1  10   6   32.15    0.91
  -1 -10   6   32.63    0.97
  -1  10  -6   31.21    1.00
   1  10   6   30.55    0.95
  -2  10   6    0.50    0.19
  -2  10   6    0.28    0.14
   2  10  -6    0.34    0.17
   2 -10   6    0.16    0.13
   2  10   6    0.33    0.16
   2  10   6    0.32    0.15
   2 -10  -6    0.34    0.15
  -2 -10   6    0.53    0.17
  -2  10  -6    0.19    0.17
   3  10  -6   34.70    1.06
  -3  10   6   32.77    1.00
   3 -10   6   32.64    1.00
  -3  10  -6   31.21    1.02
  -3 -10   6   31.68    0.99
   3  10   6   31.92    1.03
   3 -10  -6   32.77    0.98
   3  10   6   32.97    0.96
   4 -10   6   21.35    0.80
   4  10  -6   22.21    0.84
  -4  10   6   22.92    0.84
  -4 -10   6   19.97    0.79
   4  10   6   22.30    0.80
   4 -10  -6   21.52    0.80
  -4  10  -6   21.38    0.83
   4  10   6   20.81    0.85
   5  10  -6    0.67    0.21
   5 -10   6    0.42    0.18
  -5 -10  -6    0.48    0.20
  -5  10   6    0.27    0.18
   5 -10  -6    0.39    0.18
   5  10   6    0.29    0.16
  -5  10  -6    0.23    0.19
  -5 -10   6    0.30    0.16
   6 -10   6   19.75    0.82
   6  10  -6   21.19    0.85
  -6  10   6   20.25    0.86
  -6 -10  -6   20.49    0.91
  -6  10  -6   21.25    0.84
   6  10   6   20.09    0.82
   6 -10  -6   20.94    0.86
  -6 -10   6   18.94    0.81
  -7 -10  -6   12.98    0.75
   7 -10   6   13.72    0.68
  -7  10   6   12.91    0.72
   7  10  -6   13.32    0.68
   7 -10  -6   13.04    0.71
   7  10   6   13.79    0.71
  -7 -10   6   13.64    0.69
  -7  10  -6   12.66    0.67
   8 -10   6    3.08    0.41
  -8  10   6    3.49    0.47
  -8 -10  -6    4.14    0.53
  -8 -10   6    3.17    0.41
   8  10   6    3.30    0.44
   8 -10  -6    2.94    0.41
   9 -10   6    0.64    0.22
  -9 -10  -6    0.40    0.27
  -9  10   6    0.63    0.28
   9 -10  -6    0.62    0.24
   9  10   6    0.65    0.27
  -9 -10   6    0.52    0.23
 -10 -10  -6    0.18    0.28
 -10  10   6   -0.14    0.24
  10  10   6    0.10    0.24
  10 -10  -6    0.40    0.23
   0  11   6    0.09    0.14
   0  11  -6   -0.06    0.14
   0 -11  -6    0.07    0.12
   0  11   6   -0.04    0.13
   0 -11   6    0.07    0.13
   1 -11   6    1.03    0.22
  -1  11   6    1.21    0.23
   1  11  -6    1.15    0.25
  -1 -11  -6    1.07    0.20
  -1  11   6    0.98    0.22
  -1 -11   6    1.21    0.24
  -1  11  -6    1.12    0.25
   1 -11  -6    1.21    0.22
   1  11   6    1.41    0.27
   1  11   6    1.14    0.22
   2  11  -6   12.47    0.63
  -2  11   6   11.66    0.56
   2 -11   6   10.51    0.56
  -2  11   6   11.58    0.53
   2  11   6   12.26    0.61
   2  11   6   11.10    0.53
  -2 -11   6   10.24    0.55
  -2  11  -6   11.57    0.62
   2 -11  -6   11.76    0.55
   3  11  -6    0.61    0.21
  -3  11   6    0.77    0.21
   3 -11   6    0.49    0.18
  -3 -11   6    0.39    0.17
   3  11   6    0.45    0.19
   3  11   6    0.64    0.18
  -3  11  -6    0.74    0.23
   3 -11  -6    0.60    0.20
   4 -11   6    8.80    0.53
  -4  11   6    9.90    0.56
   4  11  -6    9.84    0.58
   4 -11  -6    8.34    0.51
  -4  11  -6    8.83    0.55
   4  11   6    9.04    0.57
  -4 -11   6    8.44    0.52
   4  11   6    9.68    0.53
  -5 -11  -6    6.41    0.53
   5 -11   6    5.47    0.43
   5  11  -6    5.50    0.44
  -5  11   6    6.30    0.48
   5 -11  -6    6.30    0.48
  -5  11  -6    5.75    0.45
   5  11   6    7.27    0.48
  -5 -11   6    6.36    0.46
   6  11  -6    2.84    0.39
  -6  11   6    1.72    0.33
  -6 -11  -6    2.87    0.43
   6 -11   6    1.95    0.32
   6 -11  -6    2.15    0.34
  -6  11  -6    2.86    0.38
   6  11   6    2.60    0.36
  -6 -11   6    2.19    0.33
  -7 -11  -6    0.26    0.24
   7  11  -6    0.25    0.19
  -7  11   6    0.02    0.20
   7 -11   6    0.30    0.18
   7 -11  -6    0.34    0.19
   7  11   6    0.27    0.19
  -7  11  -6    0.32    0.21
  -7 -11   6    0.10    0.16
   8 -11   6   -0.09    0.17
  -8  11   6    0.09    0.23
  -8 -11  -6    0.22    0.23
  -8 -11   6   -0.05    0.17
   8  11   6    0.17    0.22
   8 -11  -6    0.31    0.22
  -9  11   6    0.32    0.27
  -9 -11  -6    0.25    0.27
   9 -11   6    0.05    0.18
   9  11   6    0.36    0.25
   9 -11  -6    0.16    0.21
 -10  11   6    0.04    0.27
  10  11   6   -0.08    0.24
   0 -12   6   34.64    1.08
   0  12  -6   35.29    1.15
   0 -12  -6   35.62    0.99
   0  12   6   32.76    1.04
  -1 -12  -6    2.14    0.27
   1 -12   6    1.90    0.30
   1  12  -6    2.54    0.36
  -1  12   6    2.50    0.32
  -1  12  -6    2.28    0.35
   1  12   6    2.44    0.34
  -1 -12   6    2.41    0.33
   1 -12  -6    2.27    0.29
  -2  12   6    8.11    0.47
   2 -12   6    8.36    0.52
   2  12  -6    8.66    0.55
   2  12   6    7.62    0.51
  -2 -12   6    9.19    0.54
   2 -12  -6    8.23    0.49
  -2  12  -6    7.23    0.51
   3  12  -6   11.48    0.63
   3 -12   6    9.92    0.57
   3  12   6   11.99    0.66
  -3  12  -6   10.41    0.62
  -3 -12   6   11.42    0.60
   3 -12  -6   10.76    0.57
   3  12   6   10.39    0.53
   4  12  -6   33.98    1.14
   4 -12   6   33.10    1.10
  -4  12  -6   31.69    1.10
   4  12   6   31.87    1.14
   4 -12  -6   32.70    1.08
  -4 -12   6   32.60    1.08
   5 -12   6    0.84    0.24
   5  12  -6    1.15    0.28
  -5 -12  -6    0.80    0.26
   5 -12  -6    0.92    0.25
  -5  12  -6    1.14    0.27
  -5 -12   6    0.69    0.22
   6  12  -6   18.04    0.85
  -6 -12  -6   16.02    0.87
   6 -12   6   17.53    0.82
  -6 -12   6   16.81    0.79
  -6  12  -6   17.48    0.82
   6 -12  -6   20.06    0.88
   7 -12   6    2.73    0.40
  -7 -12  -6    2.71    0.44
   7  12  -6    3.00    0.42
   7 -12  -6    2.87    0.42
  -7 -12   6    2.90    0.40
  -8 -12  -6    3.25    0.50
   8 -12   6    2.87    0.42
  -8 -12   6    2.03    0.37
   8 -12  -6    3.41    0.48
   9 -12   6   -0.09    0.20
  -9 -12  -6    0.13    0.26
   0  13   6    0.22    0.17
   0  13  -6    0.08    0.16
   0 -13   6   -0.16    0.12
   0 -13  -6   -0.21    0.11
  -1  13   6    0.54    0.21
   1  13  -6    0.61    0.23
   1 -13   6    0.80    0.22
  -1  13  -6    0.48    0.22
   1  13   6    0.34    0.19
   1 -13  -6    0.39    0.18
  -1 -13   6    0.43    0.18
  -2  13   6   21.03    0.79
   2 -13   6   20.04    0.84
   2  13  -6   19.11    0.87
  -2 -13   6   18.79    0.82
   2 -13  -6   20.82    0.80
  -2  13  -6   20.07    0.88
   2  13   6   20.57    0.86
   3  13  -6    0.03    0.15
   3 -13   6    0.18    0.15
   3 -13  -6   -0.20    0.13
   3  13   6    0.00    0.18
  -3  13  -6   -0.12    0.13
  -3 -13   6    0.01    0.14
   4  13  -6    9.19    0.62
   4 -13   6    9.61    0.60
   4 -13  -6    8.42    0.56
  -4 -13   6   10.12    0.60
   4  13   6    9.10    0.63
  -4  13  -6    9.54    0.61
  -5 -13  -6    1.63    0.34
   5 -13   6    1.34    0.30
   5  13  -6    1.70    0.34
   5 -13  -6    1.58    0.31
  -5 -13   6    1.70    0.32
  -5  13  -6    1.43    0.33
   6  13  -6    0.08    0.17
   6 -13   6    0.18    0.17
  -6 -13  -6    0.38    0.22
  -6 -13   6    0.17    0.18
  -6  13  -6    0.00    0.17
   6 -13  -6   -0.02    0.15
  -7 -13  -6   -0.02    0.21
   7 -13   6   -0.16    0.15
   7  13  -6   -0.08    0.19
   7 -13  -6   -0.02    0.17
  -7 -13   6    0.25    0.20
   8 -13   6    9.32    0.67
  -8 -13  -6    8.54    0.73
   8 -13  -6    8.22    0.64
   9 -13   6   -0.14    0.22
   0 -14   6    0.03    0.16
   0 -14  -6    0.21    0.17
   0  14   6    0.26    0.18
   0  14  -6    0.50    0.24
   1 -14   6    2.23    0.34
  -1  14   6    2.85    0.38
   1  14  -6    3.02    0.43
  -1  14  -6    2.93    0.41
  -1 -14   6    2.47    0.35
   1  14   6    2.46    0.37
   1 -14  -6    3.33    0.38
   2  14  -6    9.59    0.64
   2 -14   6    8.91    0.58
   2 -14  -6    9.67    0.58
   2  14   6    9.13    0.60
  -2  14  -6    9.79    0.64
  -2 -14   6    8.90    0.58
   3  14  -6    2.01    0.36
   3 -14   6    2.35    0.37
  -3 -14   6    2.00    0.34
  -3  14  -6    1.81    0.35
   3  14   6    1.15    0.29
   3 -14  -6    1.73    0.33
   4 -14   6    8.21    0.59
   4  14  -6    8.78    0.63
  -4  14  -6    8.85    0.62
  -4 -14   6    8.71    0.58
   4  14   6    8.19    0.61
   4 -14  -6    8.71    0.58
   5  14  -6    0.16    0.21
   5 -14   6   -0.14    0.13
   5 -14  -6    0.02    0.17
  -5  14  -6   -0.08    0.18
  -5 -14   6   -0.04    0.15
   5  14   6   -0.05    0.21
   6  14  -6   23.13    1.05
  -6 -14  -6   21.84    1.07
   6 -14   6   22.03    0.99
   6 -14  -6   21.58    0.98
  -6  14  -6   21.95    0.97
  -6 -14   6   21.40    0.94
   7  14  -6    0.80    0.31
   7 -14   6    0.32    0.25
  -7 -14  -6    1.12    0.35
   7 -14  -6    0.65    0.26
  -7 -14   6    0.40    0.24
   8 -14   6   11.79    0.78
   0 -15   6   -0.06    0.17
   0  15   6    0.05    0.17
   0  15  -6    0.06    0.19
   1  15  -6    1.24    0.29
   1 -15   6    0.83    0.25
  -1  15   6    1.11    0.28
   1 -15  -6    1.16    0.26
   1  15   6    0.98    0.27
  -1  15  -6    1.10    0.30
  -1 -15   6    0.83    0.25
   2 -15   6    1.32    0.29
   2  15  -6    0.98    0.28
   2  15   6    1.23    0.32
   2 -15  -6    1.17    0.27
  -2 -15   6    1.26    0.29
  -2  15  -6    1.49    0.34
   3  15  -6   -0.01    0.16
   3 -15   6    0.18    0.18
  -3  15  -6    0.12    0.19
  -3 -15   6   -0.03    0.16
   3  15   6    0.01    0.20
   3 -15  -6   -0.06    0.18
   4  15  -6    2.45    0.42
   4 -15   6    2.04    0.37
   4 -15  -6    2.36    0.37
  -4  15  -6    2.05    0.38
   4  15   6    1.93    0.40
  -4 -15   6    2.36    0.40
   5 -15   6    0.36    0.23
   5  15  -6    0.32    0.22
  -5 -15   6    0.51    0.24
   5 -15  -6    0.87    0.29
   5  15   6    0.48    0.26
  -5  15  -6    0.12    0.22
  -6 -15  -6    1.54    0.39
   6 -15   6    1.94    0.37
   6  15  -6    1.61    0.37
  -6 -15   6    1.06    0.30
   6 -15  -6    0.80    0.28
   7  15  -6    0.45    0.28
  -7 -15   6    0.25    0.22
   0  16  -6   20.77    1.00
   0  16   6   23.27    0.98
   0 -16   6   20.89    0.95
   1 -16   6    2.03    0.37
  -1  16   6    2.49    0.39
   1  16  -6    2.22    0.41
  -1 -16   6    1.85    0.35
   1 -16  -6    2.06    0.36
   1  16   6    2.00    0.37
  -1  16  -6    1.59    0.35
   2  16  -6   10.34    0.71
   2 -16   6   10.88    0.69
  -2  16  -6   10.53    0.71
   2  16   6   10.63    0.70
  -2 -16   6   10.43    0.68
   2 -16  -6    9.93    0.64
   3  16  -6    4.10    0.53
   3 -16   6    2.44    0.40
  -3  16  -6    3.71    0.50
  -3 -16   6    2.54    0.40
   3 -16  -6    2.72    0.40
   3  16   6    3.43    0.50
   4  16  -6    1.74    0.37
   4 -16   6    1.28    0.32
  -4 -16   6    1.24    0.32
   4  16   6    1.50    0.36
  -4  16  -6    1.34    0.35
   4 -16  -6    1.47    0.32
   5  16  -6    0.34    0.27
   5 -16   6   -0.02    0.18
  -5 -16   6    0.15    0.20
   5  16   6    0.40    0.27
  -5  16  -6    0.56    0.28
   5 -16  -6    0.46    0.24
   6  16  -6    0.78    0.31
  -6 -16   6    0.68    0.27
   0  17  -6    0.10    0.22
   0  17   6   -0.06    0.20
   0 -17   6   -0.04    0.19
   1  17  -6    1.77    0.39
   1 -17   6    1.87    0.37
  -1  17  -6    2.49    0.43
   1  17   6    1.33    0.34
  -1 -17   6    1.24    0.32
   2  17  -6    1.24    0.32
   2 -17   6    1.41    0.33
  -2  17  -6    0.92    0.32
   2  17   6    0.72    0.29
  -2 -17   6    0.53    0.25
   2 -17  -6    1.15    0.30
   3 -17   6    0.44    0.24
   3  17  -6    0.21    0.22
   3  17   6    0.14    0.26
   3 -17  -6    0.15    0.22
  -3 -17   6   -0.01    0.17
  -3  17  -6    0.01    0.22
   4 -17  -6    1.01    0.32
  -4  17  -6    0.74    0.30
  -4 -17   6    0.76    0.27
  -5  17  -6    4.38    0.56
   0  18   6    7.04    0.68
   1  18   6    1.41    0.37
   2 -18  -6    4.25    0.52
   3 -18  -6    2.57    0.44
   0   0  -7    0.38    0.08
   0   0  -7    0.06    0.08
   0   0   7   -0.11    0.05
  -1   0   7    0.02    0.08
   1   0  -7   -0.10    0.08
   1   0  -7    0.32    0.08
  -1   0  -7   -0.22    0.06
  -1   0  -7    0.10    0.05
   1   0   7   -0.01    0.06
  -2   0  -7   -0.01    0.08
   2   0  -7    0.03    0.07
   2   0   7    0.05    0.04
   2   0  -7    0.17    0.08
   2   0   7   -0.11    0.04
  -2   0   7   -0.09    0.07
   3   0  -7    0.15    0.08
  -3   0   7    0.12    0.10
   3   0   7    0.16    0.08
  -3   0  -7    0.11    0.12
   4   0  -7    0.00    0.05
   4   0  -7    0.02    0.09
  -4   0  -7    0.10    0.14
   4   0   7    0.01    0.05
   4   0   7    0.10    0.10
  -4   0   7   -0.07    0.11
  -5   0   7    0.06    0.13
   5   0  -7   -0.07    0.07
  -5   0  -7    0.07    0.15
   5   0   7    0.00    0.10
  -6   0   7    0.06    0.15
   6   0   7   -0.17    0.11
   6   0  -7    0.04    0.10
  -6   0  -7    0.09    0.17
   7   0  -7    0.05    0.11
  -7   0  -7    0.44    0.22
  -7   0   7   -0.03    0.17
   7   0   7    0.05    0.15
  -8   0   7   -0.16    0.16
   8   0  -7    0.20    0.14
  -8   0  -7    0.18    0.20
   8   0   7   -0.15    0.14
   9   0   7    0.06    0.16
  -9   0  -7   -0.41    0.19
   9   0  -7   -0.06    0.13
  -9   0   7    0.08    0.19
 -10   0   7   -0.18    0.19
  10   0   7   -0.26    0.15
  10   0  -7    0.07    0.14
 -11   0   7   -0.32    0.20
  11   0   7    0.21    0.22
  11   0  -7    0.16    0.18
  12   0  -7    0.07    0.23
   0  -1  -7   -0.01    0.06
   0  -1   7   -0.07    0.05
   0   1  -7   -0.01    0.04
   0   1  -7    0.59    0.14
   0   1   7    0.07    0.08
   0  -1  -7    0.02    0.04
   1   1  -7   60.67    1.13
   1  -1   7   60.03    1.05
  -1   1   7   59.59    1.21
   1   1  -7   59.08    1.13
  -1  -1  -7   59.15    1.21
   1  -1   7   59.55    1.14
  -1  -1  -7   59.41    0.98
  -1  -1   7   60.21    1.16
   1   1   7   59.15    1.19
   1  -1  -7   59.52    1.12
   1  -1  -7   59.84    1.10
  -1   1  -7   59.33    1.24
   2   1  -7    0.81    0.13
   2  -1   7    0.88    0.10
  -2  -1  -7    0.95    0.16
  -2   1   7    1.25    0.19
   2   1  -7    1.22    0.14
   2  -1   7    0.81    0.13
   2  -1  -7    0.70    0.12
  -2   1  -7    0.97    0.18
   2   1   7    0.92    0.07
   2  -1  -7    0.94    0.12
   2   1   7    0.76    0.14
  -2  -1   7    1.03    0.16
   3   1  -7   35.85    0.71
   3   1  -7   35.64    0.87
  -3  -1  -7   36.44    0.95
   3  -1   7   36.42    0.86
  -3   1   7   36.18    0.90
   3  -1   7   35.72    0.69
   3  -1  -7   35.65    0.64
  -3  -1   7   37.42    0.89
   3  -1  -7   36.02    0.86
   3   1   7   36.56    0.89
  -3   1  -7   36.87    0.97
  -4   1   7   47.99    1.13
   4   1  -7   47.14    0.85
  -4  -1  -7   47.71    1.18
   4   1  -7   47.04    1.09
   4  -1   7   46.04    0.86
   4  -1   7   47.36    1.08
  -4   1  -7   47.17    1.20
   4  -1  -7   47.59    1.09
  -4  -1   7   47.24    1.09
   4   1   7   45.64    1.10
   5  -1   7   26.10    0.58
   5   1  -7   25.34    0.78
  -5  -1  -7   25.40    0.85
   5  -1   7   25.96    0.78
  -5   1   7   26.47    0.82
  -5  -1   7   25.39    0.79
  -5   1  -7   26.90    0.88
   5   1   7   25.90    0.81
   5  -1  -7   26.07    0.78
   6  -1   7    0.21    0.13
  -6   1   7   -0.07    0.12
   6   1  -7   -0.04    0.09
  -6  -1  -7    0.09    0.16
  -6  -1   7    0.18    0.16
  -6   1  -7    0.09    0.18
   6  -1  -7   -0.05    0.10
   6   1   7    0.01    0.11
  -7  -1  -7    0.22    0.18
   7   1  -7    0.61    0.18
  -7   1   7    0.16    0.18
   7  -1   7    0.10    0.13
   7  -1  -7    0.20    0.14
   7   1   7    0.19    0.16
  -7   1  -7    0.80    0.26
  -7  -1   7    0.28    0.19
   8  -1   7    1.46    0.29
  -8   1   7    1.01    0.26
   8   1  -7    1.09    0.24
  -8  -1  -7    1.37    0.31
   8  -1  -7    0.99    0.23
  -8  -1   7    1.55    0.29
   8   1   7    1.25    0.28
  -8   1  -7    1.37    0.32
   9   1  -7   27.95    1.01
  -9   1   7   29.02    1.09
   9  -1   7   28.68    1.08
  -9  -1  -7   27.92    1.10
   9   1   7   29.70    1.10
  -9  -1   7   28.64    1.07
   9  -1  -7   27.88    1.01
  -9   1  -7   29.44    1.11
 -10  -1  -7    2.71    0.46
 -10   1   7    1.47    0.34
  10   1  -7    2.32    0.36
  10  -1   7    1.73    0.35
  10   1   7    1.62    0.35
 -10  -1   7    2.10    0.38
  10  -1  -7    1.76    0.33
 -11   1   7   13.66    0.83
  11   1  -7   13.68    0.77
  11  -1   7   11.78    0.79
  11   1   7   12.72    0.81
  11  -1  -7   13.25    0.76
 -11  -1   7   12.95    0.82
  12   1  -7    0.68    0.28
  12  -1  -7    0.53    0.25
   0  -2  -7   14.79    0.47
   0   2  -7   14.99    0.50
   0   2  -7   16.19    0.45
   0  -2  -7   15.64    0.39
   0  -2   7   16.51    0.45
   0   2   7   16.14    0.52
   1   2  -7   15.71    0.48
  -1  -2  -7   15.85    0.52
  -1  -2  -7   15.68    0.35
   1  -2   7   16.14    0.46
  -1   2   7   16.91    0.55
   1   2  -7   16.28    0.48
   1  -2   7   16.23    0.44
   1  -2  -7   16.65    0.45
  -1  -2   7   16.31    0.47
   1  -2  -7   16.08    0.45
   1   2   7   16.05    0.53
  -1   2  -7   15.85    0.54
  -2   2   7   -0.03    0.09
   2   2  -7    0.37    0.10
   2  -2   7    0.18    0.06
   2  -2   7    0.26    0.09
   2   2  -7    0.22    0.09
  -2  -2  -7    0.07    0.08
  -2   2  -7    0.11    0.12
   2   2   7   -0.07    0.06
  -2  -2   7    0.23    0.10
   2  -2  -7    0.26    0.09
   2  -2  -7    0.01    0.06
  -3  -2  -7  211.76    3.54
   3   2  -7  210.96    3.27
   3  -2   7  214.49    3.37
   3   2  -7  211.63    3.44
  -3   2   7  216.24    3.49
   3  -2   7  215.02    3.24
   3   2   7  214.74    3.47
  -3  -2   7  217.13    3.39
   3  -2  -7  216.68    3.42
  -3   2  -7  212.13    3.57
   3  -2  -7  204.52    3.11
   4   2  -7  134.51    2.39
  -4   2   7  133.36    2.43
   4  -2   7  131.86    2.15
  -4  -2  -7  137.03    2.49
   4   2  -7  133.04    2.15
   4  -2   7  133.65    2.33
   4   2   7  134.97    2.42
  -4   2  -7  136.04    2.52
  -4  -2   7  134.98    2.35
   4  -2  -7  134.10    2.37
  -5   2   7   10.60    0.52
   5  -2   7   10.06    0.35
   5  -2   7    9.96    0.47
   5   2  -7   10.74    0.49
  -5  -2  -7   10.49    0.53
   5  -2  -7    9.57    0.46
   5   2   7   10.35    0.50
  -5  -2   7   11.24    0.50
  -5   2  -7   11.82    0.58
   6  -2   7   57.77    1.37
   6   2  -7   55.97    1.36
  -6   2   7   56.20    1.41
  -6  -2  -7   59.12    1.46
   6  -2  -7   58.37    1.37
   6   2   7   56.97    1.40
  -6   2  -7   59.16    1.48
  -6  -2   7   56.89    1.36
   7   2  -7   20.59    0.77
  -7   2   7   19.32    0.79
   7  -2   7   20.68    0.79
  -7  -2  -7   20.25    0.82
  -7  -2   7   19.95    0.77
   7  -2  -7   20.35    0.77
   7   2   7   18.96    0.78
  -7   2  -7   20.18    0.85
  -8  -2  -7   11.72    0.66
   8  -2   7   12.69    0.66
  -8   2   7   12.25    0.66
   8   2  -7   11.98    0.62
   8   2   7   11.50    0.64
   8  -2  -7   12.11    0.61
  -8  -2   7   12.54    0.65
  -8   2  -7   12.26    0.69
   9  -2   7   -0.07    0.18
  -9  -2  -7    0.19    0.22
   9   2  -7    0.00    0.13
  -9   2   7   -0.01    0.17
   9   2   7   -0.06    0.15
  -9   2  -7    0.08    0.24
   9  -2  -7   -0.02    0.15
  -9  -2   7    0.09    0.20
  10   2  -7    2.01    0.34
  10  -2   7    2.19    0.38
 -10  -2  -7    1.86    0.38
 -10   2   7    2.31    0.39
  10   2   7    2.99    0.45
  10  -2  -7    2.13    0.35
 -10  -2   7    1.93    0.37
  11   2  -7    0.49    0.23
 -11   2   7    0.19    0.25
  11  -2   7    0.13    0.23
  11   2   7    0.61    0.29
  11  -2  -7    0.18    0.21
 -11  -2   7    0.09    0.23
  12   2  -7    0.33    0.23
  12  -2  -7    0.23    0.21
   0  -3  -7    0.09    0.09
   0   3   7   -0.09    0.08
   0  -3   7   -0.07    0.06
   0   3  -7   -0.08    0.08
   0  -3   7    0.01    0.06
   0   3  -7    0.07    0.06
   0  -3  -7   -0.07    0.05
   1   3  -7  245.14    3.82
   1  -3   7  244.05    3.74
  -1   3   7  242.36    3.87
   1   3  -7  240.66    3.79
  -1  -3  -7  242.33    3.86
   1  -3   7  247.38    3.67
  -1  -3  -7  248.73    3.56
  -1  -3   7  246.41    3.69
   1  -3  -7  241.40    3.72
   1  -3  -7  246.94    3.72
  -1   3  -7  239.34    3.90
   2  -3   7   54.71    1.06
   2   3  -7   55.94    1.15
   2  -3   7   55.51    1.06
  -2  -3  -7   53.22    1.19
  -2   3   7   54.64    1.21
   2   3  -7   54.91    1.10
  -2  -3   7   56.21    1.08
   2  -3  -7   54.87    1.10
  -2   3  -7   54.94    1.22
   2  -3  -7   54.44    0.99
   2   3   7   53.20    1.18
   3  -3   7  240.27    3.65
   3   3  -7  237.90    3.69
  -3  -3  -7  230.94    3.89
  -3   3   7  235.18    3.86
   3   3  -7  238.00    3.81
   3  -3   7  240.09    3.69
  -3  -3   7  241.09    3.71
   3  -3  -7  233.40    3.49
   3  -3  -7  239.48    3.77
   3   3   7  236.69    3.84
  -3   3  -7  241.82    3.94
  -4  -3  -7    4.06    0.31
   4  -3   7    3.63    0.23
   4  -3   7    3.69    0.26
   4   3  -7    3.40    0.22
   4   3  -7    3.95    0.29
  -4   3   7    3.23    0.33
  -4  -3   7    4.04    0.29
   4  -3  -7    3.53    0.27
  -4   3  -7    3.31    0.36
   4   3   7    3.59    0.30
  -5   3   7    3.50    0.36
   5  -3   7    3.47    0.28
   5   3  -7    3.46    0.22
   5   3  -7    3.51    0.29
  -5  -3  -7    3.32    0.35
   5  -3   7    3.22    0.23
  -5  -3   7    4.07    0.32
  -5   3  -7    3.51    0.38
   5   3   7    3.38    0.34
   5  -3  -7    3.74    0.29
  -6  -3  -7    3.83    0.40
   6   3  -7    4.34    0.34
   6  -3   7    3.91    0.26
   6  -3   7    3.90    0.33
  -6   3   7    3.81    0.39
  -6  -3   7    4.60    0.35
  -6   3  -7    4.15    0.44
   6   3   7    4.47    0.36
   6  -3  -7    4.26    0.33
  -7  -3  -7   10.38    0.58
   7  -3   7   10.96    0.57
  -7   3   7   10.17    0.58
   7   3  -7   10.02    0.54
  -7  -3   7    9.47    0.52
   7  -3  -7    9.79    0.52
   7   3   7    9.95    0.56
  -7   3  -7    9.89    0.60
  -8  -3  -7    3.43    0.43
   8   3  -7    3.56    0.40
  -8   3   7    3.45    0.41
   8  -3   7    3.35    0.40
  -8  -3   7    3.93    0.43
   8   3   7    2.77    0.38
  -8   3  -7    3.48    0.44
   8  -3  -7    2.92    0.36
  -9  -3  -7    3.62    0.46
   9  -3   7    2.33    0.38
   9   3  -7    3.38    0.40
  -9   3   7    3.66    0.46
   9   3   7    3.15    0.42
  -9  -3   7    3.65    0.45
  -9   3  -7    3.63    0.46
   9  -3  -7    3.31    0.41
  10  -3   7   -0.02    0.19
  10   3  -7    0.12    0.16
 -10   3   7   -0.23    0.17
 -10  -3  -7   -0.17    0.20
  10  -3  -7    0.14    0.20
 -10  -3   7    0.00    0.20
  10   3   7    0.10    0.19
  11   3  -7   12.86    0.75
  11  -3   7   14.53    0.86
 -11   3   7   13.11    0.82
 -11  -3   7   13.55    0.83
  11   3   7   13.40    0.84
  11  -3  -7   14.51    0.80
  12   3  -7    0.26    0.23
  12  -3  -7    0.27    0.24
   0  -4   7   68.64    1.16
   0  -4   7   65.12    1.29
   0   4   7   66.35    1.37
   0  -4  -7   68.78    1.18
   0  -4  -7   65.15    1.29
   0   4  -7   66.40    1.35
   1   4  -7   21.05    0.60
   1  -4   7   20.18    0.48
  -1   4   7   19.47    0.63
  -1  -4  -7   20.31    0.44
  -1  -4  -7   18.99    0.59
   1  -4   7   20.32    0.56
   1   4  -7   20.97    0.61
  -1   4  -7   19.75    0.64
   1  -4  -7   20.15    0.53
   1   4   7   20.15    0.63
  -1  -4   7   21.04    0.50
   1  -4  -7   18.99    0.53
   2  -4   7   76.75    1.35
   2  -4   7   76.97    1.43
   2   4  -7   76.10    1.47
  -2   4   7   76.26    1.56
   2   4  -7   76.47    1.50
  -2  -4  -7   77.34    1.17
  -2  -4  -7   73.50    1.54
   2   4   7   77.83    1.54
  -2   4  -7   77.44    1.58
   2  -4  -7   78.68    1.45
   2  -4  -7   77.03    1.33
  -2  -4   7   77.76    1.37
  -3   4   7   48.79    1.17
   3  -4   7   48.07    1.02
   3   4  -7   49.27    1.05
   3  -4   7   49.36    1.01
   3   4  -7   51.11    1.14
  -3  -4   7   48.62    1.02
   3  -4  -7   49.22    0.87
   3  -4  -7   49.84    1.10
  -3   4  -7   50.73    1.20
   3   4   7   49.20    1.15
   4   4  -7  108.82    1.92
   4  -4   7  107.71    1.93
  -4  -4  -7  108.98    2.14
   4   4  -7  104.31    2.04
   4  -4   7  107.80    1.90
  -4   4   7  107.43    2.10
   4   4   7  108.80    2.09
  -4   4  -7  108.82    2.13
  -4  -4   7  109.68    1.94
   4  -4  -7  108.93    2.03
  -5  -4  -7    0.45    0.16
   5  -4   7    0.41    0.13
   5   4  -7    0.44    0.12
   5  -4   7    0.64    0.14
  -5   4   7    0.70    0.19
   5   4  -7    0.23    0.12
  -5   4  -7    0.31    0.20
   5   4   7    0.39    0.15
  -5  -4   7    0.48    0.17
   5  -4  -7    0.39    0.14
   6   4  -7    7.16    0.43
  -6   4   7    6.85    0.46
   6  -4   7    6.55    0.41
  -6  -4  -7    7.01    0.46
   6  -4   7    7.40    0.36
  -6   4  -7    6.64    0.49
  -6  -4   7    6.91    0.41
   6  -4  -7    6.61    0.42
   6   4   7    7.44    0.46
  -7   4   7    7.50    0.51
   7   4  -7    8.02    0.48
   7  -4   7    8.94    0.51
  -7  -4  -7    8.22    0.53
   7   4   7    7.87    0.50
  -7  -4   7    8.40    0.50
   7  -4  -7    8.15    0.49
  -7   4  -7    8.64    0.54
   8  -4   7    5.83    0.45
  -8  -4  -7    6.48    0.50
  -8   4   7    6.13    0.49
   8   4  -7    6.52    0.45
  -8  -4   7    6.45    0.47
   8   4   7    5.40    0.52
   8  -4  -7    6.38    0.46
  -8   4  -7    6.16    0.51
   9  -4   7    5.03    0.51
   9   4  -7    5.46    0.45
  -9   4   7    5.19    0.56
  -9  -4  -7    5.13    0.55
  -9   4  -7    5.61    0.55
   9   4   7    5.33    0.55
  -9  -4   7    3.75    0.45
   9  -4  -7    4.50    0.47
  10   4  -7    8.24    0.56
 -10   4   7    7.23    0.60
 -10  -4  -7    8.59    0.64
  10  -4   7    8.81    0.64
 -10  -4   7    8.94    0.63
  10  -4  -7    8.49    0.60
  10   4   7    8.96    0.65
  11   4  -7    1.10    0.29
 -11   4   7    1.02    0.37
  11  -4   7    0.48    0.28
  11  -4  -7    0.41    0.22
  11   4   7    0.12    0.24
 -11  -4   7    0.62    0.28
   0  -5  -7    0.09    0.06
   0   5  -7    0.10    0.10
   0  -5   7   -0.02    0.05
   0   5   7    0.11    0.09
   0  -5  -7    0.16    0.10
   0  -5   7   -0.06    0.05
  -1  -5  -7    1.26    0.19
   1  -5   7    0.84    0.14
   1  -5   7    0.98    0.11
  -1  -5  -7    1.07    0.11
   1   5  -7    1.08    0.18
  -1   5   7    1.22    0.20
   1   5   7    0.87    0.16
  -1  -5   7    1.73    0.21
   1  -5  -7    0.94    0.14
   1  -5  -7    0.90    0.14
  -1  -5   7    1.03    0.12
  -1   5  -7    0.91    0.18
   2   5  -7   20.97    0.64
   2   5  -7   21.01    0.65
   2  -5   7   20.64    0.61
  -2  -5  -7   22.18    0.69
  -2  -5  -7   21.18    0.43
  -2   5   7   21.19    0.70
   2  -5   7   20.68    0.51
   2  -5  -7   20.13    0.53
  -2  -5   7   20.89    0.53
   2   5   7   21.44    0.68
   2  -5  -7   21.39    0.61
  -2   5  -7   20.58    0.69
  -3  -5  -7   55.15    1.31
   3  -5   7   55.99    1.09
   3  -5   7   56.97    1.18
   3   5  -7   54.98    1.20
   3   5  -7   54.96    1.25
  -3   5   7   55.38    1.30
  -3   5  -7   54.91    1.31
   3   5   7   56.70    1.29
   3  -5  -7   56.15    1.01
   3  -5  -7   57.83    1.23
  -3  -5   7   57.97    1.12
   4   5  -7   21.89    0.72
  -4   5   7   22.55    0.77
  -4  -5  -7   21.88    0.77
   4  -5   7   23.25    0.66
   4   5  -7   21.91    0.66
   4  -5   7   21.96    0.63
  -4   5  -7   21.30    0.77
  -4  -5   7   22.29    0.64
   4  -5  -7   23.26    0.72
   4   5   7   21.59    0.74
   5   5  -7   97.65    1.83
  -5   5   7   95.00    2.01
   5   5  -7   99.98    1.99
   5  -5   7  100.38    1.87
   5  -5   7   97.03    1.84
  -5  -5  -7   96.62    2.06
   5   5   7   94.67    2.00
  -5   5  -7   98.37    2.03
   5  -5  -7   96.92    1.96
  -5  -5   7   97.83    1.85
  -6  -5  -7    6.90    0.49
   6  -5   7    7.50    0.39
  -6   5   7    7.25    0.48
   6   5  -7    7.12    0.44
   6  -5   7    7.21    0.42
  -6   5  -7    6.78    0.49
   6   5   7    7.95    0.48
   6  -5  -7    6.68    0.44
  -6  -5   7    6.78    0.41
  -7  -5  -7   30.37    1.05
   7  -5   7   29.72    0.95
  -7   5   7   29.91    1.03
   7   5  -7   29.55    0.97
   7  -5   7   28.88    0.85
  -7   5  -7   28.48    0.99
   7  -5  -7   28.97    0.97
   7   5   7   30.04    1.03
  -7  -5   7   28.08    0.92
  -8   5   7   -0.15    0.17
   8   5  -7    0.21    0.15
  -8  -5  -7   -0.05    0.16
   8  -5   7    0.08    0.17
   8  -5  -7    0.12    0.15
  -8   5  -7    0.21    0.22
   8   5   7    0.28    0.18
  -8  -5   7    0.09    0.18
   9   5  -7    0.52    0.20
  -9  -5  -7    0.48    0.25
  -9   5   7    0.08    0.21
   9  -5   7    0.31    0.20
   9  -5  -7    0.11    0.15
   9   5   7    0.46    0.23
  -9  -5   7    0.42    0.23
 -10  -5  -7    0.97    0.32
  10  -5   7    1.55    0.34
 -10   5   7    0.96    0.31
  10   5  -7    1.53    0.32
 -10  -5   7    1.03    0.32
  10   5   7    1.42    0.33
  10  -5  -7    1.75    0.34
 -11   5   7    0.21    0.25
  11   5  -7    0.38    0.20
  11  -5   7   -0.11    0.23
  11   5   7    0.42    0.28
 -11  -5   7    0.02    0.25
  11  -5  -7    0.22    0.22
   0  -6  -7    0.26    0.09
   0   6  -7    0.00    0.09
   0  -6   7    0.25    0.06
   0   6   7    0.10    0.10
   0  -6  -7    0.44    0.11
   0  -6   7    0.14    0.08
  -1   6   7    7.89    0.42
   1  -6   7    7.76    0.23
  -1  -6  -7    8.00    0.29
   1  -6   7    7.75    0.37
  -1  -6  -7    8.20    0.39
   1   6  -7    8.03    0.40
   1  -6  -7    8.02    0.34
  -1   6  -7    7.75    0.41
   1   6   7    7.90    0.40
  -1  -6   7    7.98    0.25
  -1  -6   7    8.01    0.39
   1  -6  -7    7.58    0.35
  -2   6   7    1.82    0.25
  -2  -6  -7    2.22    0.26
  -2  -6  -7    2.15    0.14
   2   6  -7    2.01    0.25
   2  -6   7    1.83    0.15
   2  -6   7    1.62    0.20
  -2   6  -7    1.57    0.24
   2   6   7    1.97    0.24
   2  -6  -7    2.04    0.22
  -2  -6   7    2.28    0.26
   2  -6  -7    1.38    0.17
  -2  -6   7    2.35    0.18
  -3  -6  -7   48.66    1.23
  -3   6   7   49.16    1.22
   3   6  -7   48.88    1.18
   3  -6   7   49.40    1.12
   3   6  -7   47.76    1.14
   3  -6   7   48.72    0.97
   3   6   7   48.92    1.19
  -3  -6   7   50.20    0.99
   3  -6  -7   47.57    0.95
   3  -6  -7   49.53    1.14
  -3   6  -7   48.83    1.22
   4   6  -7    5.73    0.37
   4  -6   7    5.46    0.33
  -4  -6  -7    5.27    0.39
   4  -6   7    4.85    0.29
   4   6  -7    5.43    0.34
  -4   6   7    5.80    0.43
  -4   6  -7    6.79    0.45
  -4  -6   7    6.03    0.33
   4  -6  -7    4.89    0.34
   4   6   7    5.29    0.37
   5  -6   7    0.15    0.11
   5  -6   7   -0.07    0.10
   5   6  -7    0.01    0.10
   5   6  -7    0.06    0.09
  -5  -6  -7    0.02    0.11
  -5   6   7    0.04    0.16
  -5  -6   7    0.02    0.12
  -5   6  -7    0.36    0.21
   5  -6  -7    0.15    0.13
   5   6   7    0.30    0.15
   6   6  -7    0.17    0.13
   6   6  -7    0.17    0.13
  -6  -6  -7    0.25    0.17
   6  -6   7    0.31    0.16
  -6   6   7    0.56    0.21
   6  -6   7    0.50    0.14
   6   6   7    0.47    0.18
  -6   6  -7    0.09    0.17
   6  -6  -7    0.14    0.14
  -6  -6   7    0.29    0.16
   7   6  -7    0.01    0.12
   7  -6   7    0.18    0.15
  -7   6   7    0.04    0.17
   7  -6   7    0.02    0.12
  -7  -6  -7    0.31    0.21
  -7  -6   7   -0.04    0.16
   7  -6  -7    0.01    0.13
  -7   6  -7    0.08    0.17
   7   6   7    0.05    0.14
  -8   6   7    1.70    0.32
   8   6  -7    1.12    0.25
   8  -6   7    1.56    0.29
  -8  -6  -7    1.26    0.30
   8  -6  -7    1.35    0.28
  -8   6  -7    1.40    0.30
   8   6   7    2.02    0.35
  -8  -6   7    1.52    0.29
   9   6  -7    0.17    0.15
  -9  -6  -7   -0.11    0.19
  -9   6   7    0.03    0.19
   9  -6   7    0.08    0.19
  -9  -6   7   -0.04    0.18
   9   6   7   -0.16    0.16
   9  -6  -7   -0.12    0.12
  10   6  -7    1.47    0.31
  10  -6   7    1.53    0.34
 -10  -6  -7    1.54    0.37
 -10   6   7    1.16    0.34
  10  -6  -7    1.97    0.36
 -10  -6   7    1.83    0.36
  10   6   7    1.33    0.33
  11  -6   7    0.23    0.28
 -11   6   7    0.16    0.29
  11   6  -7    0.47    0.21
  11   6   7    0.05    0.21
  11  -6  -7    0.83    0.28
 -11  -6   7    0.26    0.26
   0   7  -7   -0.15    0.10
   0   7   7    0.02    0.10
   0   7   7    0.00    0.08
   0  -7  -7    0.08    0.08
   0  -7   7   -0.08    0.07
   1   7  -7    0.17    0.12
  -1   7   7    0.26    0.11
  -1  -7  -7    0.25    0.09
   1  -7   7    0.10    0.10
  -1   7   7    0.20    0.13
  -1  -7  -7    0.47    0.14
  -1  -7   7    0.05    0.07
  -1   7  -7    0.26    0.14
   1  -7  -7    0.19    0.10
   1   7   7    0.47    0.13
  -2  -7  -7    1.12    0.21
   2  -7   7    0.87    0.17
  -2  -7  -7    0.89    0.12
   2   7  -7    0.49    0.16
  -2   7   7    0.91    0.19
  -2   7   7    0.86    0.15
   2   7   7    0.78    0.17
  -2  -7   7    0.97    0.19
  -2   7  -7    1.20    0.23
   2  -7  -7    0.80    0.16
   3  -7   7   24.09    0.75
   3   7  -7   24.29    0.78
  -3  -7  -7   24.31    0.83
  -3   7   7   24.90    0.82
   3  -7  -7   24.16    0.75
  -3  -7   7   24.99    0.80
  -3   7  -7   24.95    0.83
   3   7   7   24.95    0.80
   4  -7   7    4.37    0.31
   4   7  -7    3.88    0.32
  -4  -7  -7    4.34    0.37
   4   7  -7    4.32    0.33
  -4   7   7    3.69    0.38
  -4   7  -7    4.26    0.42
   4   7   7    4.10    0.33
   4  -7  -7    4.10    0.32
   5  -7   7   62.17    1.40
   5   7  -7   58.41    1.45
   5   7  -7   61.32    1.39
  -5  -7  -7   60.56    1.56
  -5   7   7   60.32    1.50
   5   7   7   60.91    1.49
   5  -7  -7   59.28    1.44
  -5   7  -7   58.95    1.48
   6   7  -7    3.33    0.36
   6  -7   7    2.80    0.32
  -6   7   7    3.80    0.43
   6   7  -7    3.97    0.33
  -6  -7  -7    2.84    0.39
   6   7   7    3.23    0.37
   6  -7  -7    3.66    0.39
  -6   7  -7    3.46    0.40
   7   7  -7   12.58    0.62
  -7   7   7   10.88    0.64
  -7  -7  -7   11.73    0.68
   7  -7   7   12.26    0.57
   7  -7  -7   11.27    0.62
   7   7   7   11.94    0.65
  -7   7  -7   12.27    0.65
  -8  -7  -7    4.65    0.53
  -8   7   7    4.39    0.50
   8   7  -7    4.74    0.47
   8  -7  -7    5.09    0.50
   8   7   7    5.48    0.54
  -8   7  -7    5.22    0.51
   9   7  -7   12.81    0.69
  -9  -7  -7   11.97    0.73
  -9   7   7   12.02    0.74
   9   7   7   12.83    0.75
   9  -7  -7   13.16    0.72
  10   7  -7    7.87    0.57
 -10   7   7    8.95    0.69
 -10  -7  -7   10.57    0.74
  10   7   7    9.00    0.67
  10  -7  -7    8.94    0.63
 -11   7   7    4.97    0.63
 -11  -7  -7    6.32    0.69
  11  -7  -7    6.82    0.67
  11   7   7    5.88    0.68
   0   8   7    9.68    0.44
   0   8  -7   10.62    0.52
   0  -8  -7    9.06    0.38
   0  -8   7    9.00    0.45
   0   8   7    9.25    0.46
  -1   8   7   25.76    0.81
   1  -8   7   26.55    0.80
  -1   8   7   27.00    0.75
  -1  -8  -7   25.77    0.65
   1  -8  -7   26.21    0.73
   1   8   7   26.12    0.81
  -1   8  -7   26.80    0.86
   1   8   7   25.61    0.80
  -1  -8   7   25.79    0.81
  -2  -8  -7   19.95    0.73
   2  -8   7   19.97    0.68
  -2   8   7   19.79    0.60
  -2   8   7   19.50    0.72
   2   8  -7   19.84    0.72
   2   8   7   19.11    0.69
   2  -8  -7   19.79    0.66
  -2   8  -7   19.72    0.75
  -2  -8   7   20.58    0.72
  -3   8   7   49.12    1.27
   3  -8   7   49.98    1.22
  -3  -8  -7   48.83    1.30
   3   8  -7   48.54    1.25
  -3   8  -7   48.82    1.29
   3  -8  -7   50.83    1.21
  -3  -8   7   51.04    1.28
   3   8   7   49.43    1.24
  -4   8   7   15.75    0.69
   4   8  -7   16.26    0.66
   4  -8   7   17.68    0.66
  -4  -8  -7   17.21    0.74
   4   8   7   17.25    0.69
  -4   8  -7   17.05    0.72
  -4  -8   7   17.25    0.69
   4  -8  -7   16.45    0.65
   5   8  -7    0.95    0.22
  -5  -8  -7    1.09    0.26
   5  -8   7    1.50    0.24
   5   8  -7    1.18    0.22
  -5   8   7    0.94    0.24
  -5   8  -7    1.39    0.27
   5   8   7    0.84    0.21
   5  -8  -7    1.10    0.22
  -6  -8  -7   10.67    0.63
   6   8  -7   11.14    0.58
  -6   8   7   10.94    0.63
   6  -8   7   11.24    0.55
   6   8  -7   11.24    0.56
  -6   8  -7   10.31    0.58
   6  -8  -7   10.31    0.58
   6   8   7   11.03    0.60
  -7  -8  -7   25.36    1.02
   7   8  -7   23.87    0.91
   7  -8   7   24.35    0.87
  -7   8   7   25.65    1.00
   7  -8  -7   26.61    0.97
   7   8   7   23.60    0.94
  -7   8  -7   24.99    0.93
  -8  -8  -7   10.64    0.70
   8   8  -7   10.40    0.61
  -8   8   7    9.02    0.64
   8  -8  -7    9.27    0.60
   8   8   7    9.82    0.64
  -8   8  -7   10.31    0.61
  -9  -8  -7    0.13    0.21
  -9   8   7    0.16    0.22
   9   8  -7    0.08    0.17
   9   8   7    0.10    0.19
   9  -8  -7   -0.14    0.13
  10   8  -7    1.41    0.32
 -10  -8  -7    1.31    0.36
 -10   8   7    1.17    0.37
  10   8   7    1.30    0.35
  10  -8  -7    1.02    0.28
 -11  -8  -7    2.00    0.44
   0   9   7   -0.03    0.11
   0   9  -7    0.04    0.11
   0   9   7    0.07    0.11
   0  -9   7   -0.17    0.07
   0  -9  -7    0.07    0.10
   1   9  -7    0.12    0.12
  -1   9   7    0.07    0.11
  -1  -9  -7    0.02    0.09
   1  -9   7    0.03    0.10
  -1   9   7   -0.15    0.10
   1  -9  -7   -0.01    0.09
  -1   9  -7   -0.05    0.14
   1   9   7    0.03    0.11
  -1  -9   7    0.30    0.14
   1   9   7    0.07    0.12
   2   9  -7   35.05    1.05
  -2   9   7   34.04    1.01
   2  -9   7   35.07    1.01
  -2   9   7   35.33    0.90
   2  -9  -7   36.50    0.97
  -2   9  -7   35.41    1.06
   2   9   7   35.50    1.00
  -2  -9   7   34.92    1.02
   2   9   7   35.23    1.03
   3   9  -7   10.73    0.56
  -3   9   7   10.90    0.56
  -3  -9  -7   10.55    0.58
   3  -9   7    9.96    0.51
  -3   9  -7   11.64    0.60
   3  -9  -7   10.79    0.52
   3   9   7   10.97    0.54
  -3  -9   7   10.85    0.55
   4   9  -7    3.23    0.36
  -4  -9  -7    2.25    0.33
   4  -9   7    2.87    0.33
  -4   9   7    1.89    0.30
  -4  -9   7    1.87    0.29
   4   9   7    2.43    0.32
   4  -9  -7    2.24    0.29
  -4   9  -7    2.63    0.34
  -5   9   7   43.21    1.25
  -5  -9  -7   41.04    1.29
   5  -9   7   42.02    1.18
   5   9  -7   43.42    1.20
   5  -9  -7   41.93    1.21
  -5  -9   7   40.59    1.20
  -5   9  -7   39.50    1.20
   5   9   7   42.16    1.22
   6   9  -7    0.03    0.13
  -6  -9  -7   -0.09    0.15
  -6   9   7    0.35    0.21
   6   9  -7    0.19    0.16
   6  -9   7   -0.05    0.12
  -6   9  -7   -0.07    0.16
   6   9   7   -0.07    0.14
   6  -9  -7    0.05    0.14
   7  -9   7    5.74    0.43
   7   9  -7    6.14    0.46
  -7  -9  -7    5.80    0.59
  -7   9   7    6.37    0.53
   7   9   7    5.57    0.47
  -7   9  -7    5.77    0.48
   7  -9  -7    6.43    0.49
   8  -9   7    2.95    0.38
  -8   9   7    2.71    0.42
  -8  -9  -7    2.83    0.45
   8   9  -7    2.42    0.36
   8   9   7    1.88    0.36
   8  -9  -7    3.00    0.42
  -9  -9  -7    3.32    0.51
   9   9  -7    3.32    0.42
  -9   9   7    4.96    0.58
   9   9   7    4.31    0.54
   9  -9  -7    3.88    0.49
 -10   9   7    0.56    0.29
 -10  -9  -7    0.99    0.36
  10   9  -7    0.21    0.20
  10  -9  -7    0.11    0.21
  10   9   7    0.59    0.28
   0  10   7   53.38    1.30
   0 -10   7   52.12    1.33
   0 -10  -7   53.59    1.20
   0  10   7   52.53    1.29
   0  10  -7   54.09    1.42
   1 -10   7   23.37    0.81
  -1 -10  -7   23.27    0.67
  -1  10   7   22.85    0.79
   1  10  -7   22.88    0.85
  -1  10   7   22.73    0.75
  -1 -10   7   22.47    0.81
   1  10   7   22.25    0.79
  -1  10  -7   23.29    0.86
   1 -10  -7   22.45    0.73
   1  10   7   23.17    0.78
  -2  10   7    8.39    0.50
  -2  10   7    8.61    0.44
   2 -10   7    8.73    0.49
   2  10  -7    8.35    0.50
   2  10   7    8.14    0.46
   2 -10  -7    8.66    0.47
  -2 -10   7    8.22    0.49
  -2  10  -7    9.26    0.55
   2  10   7    7.77    0.48
   3 -10   7    0.39    0.16
   3  10  -7    0.20    0.16
  -3  10   7    0.65    0.21
  -3 -10  -7    0.58    0.19
   3  10   7    0.39    0.17
  -3  10  -7    0.58    0.20
  -3 -10   7    0.55    0.18
   3 -10  -7    0.16    0.15
   3  10   7    0.21    0.14
   4  10  -7   10.16    0.57
  -4 -10  -7    9.66    0.59
  -4  10   7    9.97    0.57
   4 -10   7    9.80    0.53
  -4  10  -7    9.22    0.56
   4  10   7    9.02    0.51
  -4 -10   7    8.93    0.54
   4 -10  -7    8.79    0.51
   5  10  -7    3.08    0.37
   5 -10   7    3.03    0.36
  -5 -10  -7    2.58    0.38
  -5  10   7    2.93    0.39
   5  10   7    2.69    0.34
   5 -10  -7    2.84    0.35
  -5  10  -7    2.70    0.37
  -5 -10   7    2.32    0.33
   6 -10   7    5.13    0.43
  -6  10   7    5.09    0.53
   6  10  -7    5.09    0.49
  -6 -10  -7    5.43    0.57
   6  10   7    4.89    0.49
  -6 -10   7    5.25    0.43
  -6  10  -7    5.99    0.48
   6 -10  -7    5.21    0.44
   7 -10   7    2.69    0.36
  -7  10   7    3.66    0.47
  -7 -10  -7    2.85    0.43
   7 -10  -7    3.93    0.46
  -7 -10   7    3.29    0.42
   7  10   7    4.04    0.47
  -7  10  -7    3.69    0.45
  -8  10   7    0.86    0.30
  -8 -10  -7    1.09    0.31
   8 -10   7    0.86    0.26
   8 -10  -7    1.25    0.30
  -8 -10   7    1.04    0.27
   8  10   7    1.07    0.29
  -9  10   7    0.05    0.23
  -9 -10  -7   -0.34    0.18
   9  10  -7    0.28    0.20
   9  10   7    0.11    0.22
   9 -10  -7   -0.04    0.16
 -10  10   7    2.92    0.50
 -10 -10  -7    2.22    0.44
  10  10   7    2.55    0.44
   0 -11   7   -0.06    0.11
   0  11   7   -0.06    0.12
   0 -11  -7    0.03    0.12
   0  11  -7    0.06    0.15
   0  11   7   -0.01    0.12
  -1  11   7   77.64    1.68
   1 -11   7   76.27    1.76
  -1  11   7   77.23    1.70
   1  11  -7   76.40    1.83
   1  11   7   77.21    1.69
  -1  11  -7   74.92    1.82
   1  11   7   76.45    1.76
  -1 -11   7   76.02    1.77
   1 -11  -7   75.98    1.64
  -2  11   7   -0.05    0.12
   2 -11   7    0.10    0.13
  -2  11   7   -0.13    0.11
   2  11  -7    0.18    0.17
   2  11   7    0.07    0.16
  -2 -11   7    0.19    0.14
   2 -11  -7   -0.08    0.11
  -2  11  -7    0.06    0.16
   2  11   7    0.36    0.16
   3  11  -7   78.64    1.87
   3 -11   7   74.91    1.78
  -3  11   7   81.52    1.82
  -3 -11   7   77.96    1.83
   3 -11  -7   77.47    1.76
  -3  11  -7   75.51    1.86
   3  11   7   78.18    1.87
   3  11   7   79.33    1.75
  -4  11   7    3.47    0.41
  -4 -11  -7    3.10    0.42
   4  11  -7    2.46    0.35
   4 -11   7    3.15    0.38
   4 -11  -7    3.20    0.38
   4  11   7    2.81    0.35
  -4  11  -7    2.79    0.37
  -4 -11   7    3.20    0.38
   5  11  -7    0.72    0.24
  -5  11   7    0.76    0.25
  -5 -11  -7    0.72    0.25
   5 -11   7    0.66    0.22
   5  11   7    0.53    0.20
   5 -11  -7    0.77    0.22
  -5 -11   7    1.18    0.26
  -5  11  -7    0.75    0.25
  -6 -11  -7    3.66    0.48
   6 -11   7    3.32    0.41
   6  11  -7    3.48    0.43
  -6  11   7    3.17    0.42
  -6  11  -7    3.37    0.42
   6  11   7    3.58    0.43
   6 -11  -7    3.12    0.41
  -6 -11   7    3.69    0.43
  -7 -11  -7    5.20    0.58
   7 -11   7    4.61    0.48
  -7  11   7    4.37    0.52
  -7  11  -7    4.14    0.48
  -7 -11   7    4.65    0.51
   7 -11  -7    4.57    0.51
   7  11   7    3.75    0.46
   8 -11   7    5.26    0.54
  -8 -11  -7    4.80    0.59
  -8  11   7    4.60    0.56
   8 -11  -7    4.20    0.50
  -8 -11   7    4.30    0.50
   8  11   7    4.69    0.53
  -9  11   7    7.74    0.73
  -9 -11  -7    8.92    0.71
   9  11   7    8.22    0.64
  -9 -11   7    8.44    0.62
   9 -11  -7    7.62    0.61
 -10  11   7    0.22    0.29
  10  11   7    0.14    0.27
   0 -12  -7   55.99    1.32
   0 -12   7   53.08    1.45
   0  12   7   59.20    1.40
   0  12  -7   53.93    1.53
   0  12   7   55.12    1.42
   1 -12   7    0.67    0.19
   1  12  -7    0.78    0.23
  -1  12   7    0.84    0.22
  -1  12   7    0.72    0.20
  -1  12  -7    0.70    0.23
   1 -12  -7    0.72    0.20
   1  12   7    0.46    0.19
   1  12   7    0.47    0.18
  -1 -12   7    0.88    0.23
   2  12  -7    0.66    0.23
  -2  12   7    0.94    0.22
  -2  12   7    1.27    0.25
   2 -12   7    0.57    0.19
   2  12   7    1.11    0.26
   2  12   7    0.95    0.22
   2 -12  -7    0.68    0.20
  -2 -12   7    0.64    0.20
  -2  12  -7    1.03    0.26
  -3  12   7    5.44    0.44
   3 -12   7    3.99    0.43
   3  12  -7    5.07    0.51
   3 -12  -7    5.07    0.41
  -3  12  -7    5.21    0.51
   3  12   7    5.68    0.46
  -3 -12   7    5.08    0.48
   3  12   7    5.20    0.41
  -4 -12  -7    0.78    0.26
   4 -12   7    1.14    0.27
   4  12  -7    1.43    0.29
  -4  12   7    1.05    0.26
   4  12   7    1.10    0.24
  -4  12  -7    1.66    0.32
  -4 -12   7    1.38    0.28
   4 -12  -7    1.39    0.29
  -5 -12  -7    1.65    0.34
   5 -12   7    1.47    0.29
  -5  12   7    1.97    0.35
   5  12  -7    1.89    0.34
  -5 -12   7    1.65    0.31
  -5  12  -7    1.37    0.30
   5  12   7    1.67    0.30
   5 -12  -7    1.47    0.29
  -6 -12  -7    0.29    0.22
   6 -12   7    0.03    0.16
   6  12  -7    0.47    0.22
  -6  12   7    0.33    0.23
  -6 -12   7    0.49    0.20
   6 -12  -7    0.27    0.20
   6  12   7    0.73    0.25
  -6  12  -7    0.76    0.26
  -7 -12  -7    0.67    0.29
   7  12  -7    0.76    0.27
   7 -12   7    1.15    0.29
  -7 -12   7    0.58    0.24
  -7  12  -7    1.05    0.28
   7 -12  -7    0.67    0.26
   7  12   7    1.05    0.29
  -8 -12  -7   -0.04    0.22
   8 -12   7   -0.17    0.16
  -8 -12   7    0.13    0.19
   8 -12  -7   -0.15    0.17
   0  13   7    0.14    0.17
   0 -13   7    0.27    0.16
   0  13  -7    0.05    0.19
   0 -13  -7    0.09    0.15
   1 -13   7   27.04    1.00
   1  13  -7   27.71    1.06
  -1  13   7   26.97    0.94
  -1 -13   7   28.25    1.02
   1 -13  -7   28.23    0.93
   1  13   7   27.00    0.99
  -1  13  -7   25.92    1.03
   2  13  -7    0.58    0.23
   2 -13   7    0.60    0.21
  -2  13  -7    0.55    0.24
   2 -13  -7    0.43    0.19
  -2 -13   7    0.30    0.18
   2  13   7    0.50    0.21
   3  13  -7    8.92    0.61
   3 -13   7    9.58    0.59
   3  13   7    8.08    0.57
  -3  13  -7    8.08    0.58
   3 -13  -7    9.11    0.55
  -3 -13   7    9.81    0.59
   4 -13   7    0.21    0.16
  -4 -13  -7    0.16    0.17
   4  13  -7    0.01    0.14
   4  13   7    0.01    0.16
  -4 -13   7   -0.03    0.15
   4 -13  -7    0.05    0.15
  -4  13  -7    0.25    0.19
   5 -13   7    0.13    0.17
   5  13  -7    0.11    0.17
  -5 -13  -7    0.21    0.20
  -5  13  -7    0.17    0.20
  -5 -13   7    0.41    0.22
   5 -13  -7    0.21    0.20
   6  13  -7   -0.05    0.19
   6 -13   7   -0.05    0.17
  -6 -13  -7    0.07    0.20
   6 -13  -7    0.40    0.22
  -6 -13   7   -0.09    0.16
  -6  13  -7    0.16    0.20
   7 -13   7    0.13    0.18
  -7 -13  -7   -0.20    0.20
   7  13  -7    0.30    0.23
  -7 -13   7    0.10    0.18
   7 -13  -7    0.40    0.23
  -8 -13  -7    1.55    0.41
   8 -13   7    2.12    0.40
   8 -13  -7    0.76    0.29
  -8 -13   7    1.97    0.39
   0  14   7    0.81    0.25
   0 -14   7    0.11    0.15
   0  14  -7    0.58    0.25
  -1  14   7    2.54    0.36
   1 -14   7    2.61    0.38
   1  14  -7    1.95    0.35
   1  14   7    2.53    0.37
  -1  14  -7    2.33    0.40
  -1 -14   7    2.32    0.37
   1 -14  -7    2.93    0.37
   2  14  -7    1.77    0.34
   2 -14   7    2.11    0.34
  -2  14  -7    2.40    0.39
   2 -14  -7    2.42    0.35
  -2 -14   7    2.00    0.34
   2  14   7    2.94    0.41
   3 -14   7    4.22    0.48
   3  14  -7    4.10    0.50
   3  14   7    4.29    0.50
  -3 -14   7    4.65    0.50
   3 -14  -7    4.87    0.49
  -3  14  -7    4.47    0.52
   4 -14   7    5.28    0.54
   4  14  -7    5.02    0.55
  -4  14  -7    5.00    0.54
   4  14   7    5.15    0.56
   4 -14  -7    4.88    0.51
  -4 -14   7    4.87    0.52
   5  14  -7    0.26    0.21
   5 -14   7   -0.09    0.16
  -5 -14  -7   -0.17    0.18
   5 -14  -7    0.28    0.21
  -5  14  -7    0.00    0.17
  -5 -14   7    0.09    0.19
   6  14  -7    4.60    0.54
   6 -14   7    5.32    0.58
  -6 -14  -7    3.94    0.55
  -6 -14   7    4.70    0.53
   6 -14  -7    4.31    0.51
  -6  14  -7    5.27    0.57
  -7 -14  -7    6.09    0.70
   7  14  -7    5.02    0.57
   7 -14   7    4.57    0.55
   7 -14  -7    4.82    0.56
  -7 -14   7    4.46    0.54
  -8 -14   7    0.55    0.24
   0  15   7    0.11    0.19
   0  15  -7   -0.02    0.15
   0 -15   7    0.13    0.16
   1  15  -7    4.42    0.53
   1 -15   7    4.75    0.51
  -1  15   7    4.35    0.48
  -1 -15   7    4.79    0.51
  -1  15  -7    4.71    0.54
   1 -15  -7    5.18    0.49
   1  15   7    5.49    0.56
   2  15  -7    1.43    0.33
   2 -15   7    1.78    0.33
   2  15   7    1.35    0.32
  -2 -15   7    1.31    0.30
   2 -15  -7    1.40    0.30
  -2  15  -7    1.95    0.38
   3 -15   7    9.14    0.63
   3  15  -7   11.08    0.72
  -3 -15   7    9.23    0.63
   3 -15  -7   10.56    0.64
   3  15   7   10.19    0.68
  -3  15  -7   10.44    0.70
   4 -15   7    0.79    0.26
   4  15  -7    0.70    0.27
  -4  15  -7    0.68    0.27
  -4 -15   7    0.41    0.22
   4  15   7    0.29    0.24
   4 -15  -7    0.36    0.23
  -5 -15  -7   15.51    0.92
   5 -15   7   15.91    0.85
   5  15  -7   17.54    0.94
  -5  15  -7   16.92    0.89
  -5 -15   7   16.84    0.85
   5 -15  -7   17.11    0.87
   6 -15   7   -0.14    0.19
  -6 -15  -7    0.30    0.25
   6  15  -7   -0.14    0.19
  -6 -15   7   -0.02    0.19
   6 -15  -7    0.15    0.20
  -6  15  -7    0.20    0.23
   7  15  -7    8.82    0.70
  -7 -15   7    7.55    0.62
   0  16  -7    0.07    0.17
   0  16   7    0.42    0.22
   0 -16   7    0.22    0.19
   1  16  -7    0.17    0.19
   1 -16   7    0.12    0.19
  -1  16  -7   -0.06    0.18
  -1 -16   7    0.07    0.18
   1  16   7    0.01    0.20
   2 -16   7    0.05    0.18
   2  16  -7    0.12    0.20
   2  16   7   -0.17    0.17
  -2  16  -7    0.08    0.21
   2 -16  -7    0.05    0.20
  -2 -16   7    0.15    0.19
   3 -16   7    1.49    0.33
   3  16  -7    1.78    0.36
  -3  16  -7    1.12    0.34
  -3 -16   7    1.69    0.35
   3 -16  -7    1.48    0.32
   3  16   7    1.73    0.38
   4  16  -7    2.22    0.41
   4 -16   7    2.39    0.41
  -4  16  -7    2.20    0.41
   4  16   7    2.06    0.42
  -4 -16   7    1.91    0.37
   4 -16  -7    1.87    0.37
   5  16  -7    0.99    0.33
   5 -16   7    0.78    0.28
  -5 -16  -7    1.19    0.33
   5 -16  -7    1.08    0.32
  -5  16  -7    0.54    0.27
  -5 -16   7    1.31    0.33
   0 -17   7   -0.23    0.14
   0  17   7   -0.07    0.21
   0  17  -7   -0.25    0.20
   1 -17   7    3.99    0.51
   1  17  -7    2.74    0.49
   1  17   7    3.38    0.49
  -1 -17   7    4.64    0.55
  -1  17  -7    3.27    0.51
   2 -17   7    0.01    0.18
   2  17  -7    0.17    0.21
   2 -17  -7   -0.06    0.19
  -2 -17   7   -0.20    0.17
  -2  17  -7    0.03    0.21
   2  17   7    0.20    0.24
   3 -17   7    1.36    0.34
   3  17  -7    1.80    0.41
  -3 -17   7    1.85    0.38
   3 -17  -7    1.16    0.32
  -3  17  -7    1.90    0.40
   3  17   7    1.35    0.36
   4 -17  -7    2.36    0.42
  -4 -17   7    2.71    0.46
  -4  17  -7    2.28    0.44
   0  18   7    2.78    0.46
   1  18   7    2.10    0.42
   0   0  -8   71.01    1.39
   0   0  -8   71.54    1.26
   0   0   8   72.18    1.39
   1   0  -8  113.53    1.96
  -1   0  -8  115.80    1.82
  -1   0   8  115.64    2.03
   1   0  -8  115.64    1.94
  -1   0  -8  113.44    2.09
   1   0   8  116.03    2.01
  -2   0  -8  146.89    2.64
  -2   0   8  149.88    2.55
   2   0  -8  147.23    2.38
   2   0   8  152.22    2.53
   2   0   8  153.35    2.27
   2   0  -8  148.52    2.49
   3   0   8   27.09    0.51
  -3   0   8   28.00    0.78
  -3   0  -8   25.56    0.82
   3   0  -8   26.48    0.73
   3   0  -8   27.16    0.57
   3   0   8   26.30    0.74
  -4   0   8   49.50    1.17
  -4   0  -8   49.56    1.25
   4   0   8   49.00    1.15
   4   0  -8   47.24    1.13
   5   0  -8   30.21    0.88
   5   0   8   28.98    0.88
  -5   0  -8   30.57    0.99
  -5   0   8   28.38    0.88
   6   0  -8    0.06    0.11
  -6   0  -8    0.15    0.19
   6   0   8    0.33    0.15
  -6   0   8   -0.19    0.12
  -7   0   8    7.04    0.50
   7   0   8    7.85    0.50
  -7   0  -8    7.13    0.55
   7   0  -8    7.86    0.48
  -8   0   8   97.71    2.21
   8   0   8   98.87    2.23
  -8   0  -8   99.85    2.30
   8   0  -8  101.41    2.19
  -9   0   8    0.24    0.21
   9   0   8    0.11    0.17
   9   0  -8    0.06    0.13
  -9   0  -8    0.32    0.27
  10   0   8   16.02    0.86
  10   0  -8   14.28    0.77
 -10   0   8   15.74    0.84
 -10   0  -8   15.02    0.84
  11   0  -8   14.70    0.82
 -11   0   8   16.17    0.92
  11   0   8   14.70    0.89
  12   0  -8    5.36    0.60
   0  -1  -8   -0.02    0.05
   0   1  -8    0.73    0.16
   0   1  -8    0.00    0.05
   0  -1   8    0.19    0.09
   0  -1  -8   -0.20    0.07
   0   1   8    0.08    0.09
   1   1  -8    3.37    0.24
  -1  -1  -8    3.39    0.27
   1  -1   8    3.66    0.24
  -1  -1  -8    3.06    0.15
   1   1  -8    3.21    0.21
  -1   1   8    3.39    0.26
  -1  -1   8    3.00    0.23
   1   1   8    3.18    0.25
   1  -1  -8    3.20    0.23
   1  -1  -8    2.73    0.19
  -1   1  -8    3.27    0.30
  -1   1  -8    3.00    0.18
   2   1  -8    7.70    0.34
  -2  -1  -8    7.86    0.40
  -2   1   8    6.89    0.38
   2  -1   8    7.91    0.35
   2   1  -8    7.80    0.31
   2  -1   8    7.48    0.26
  -2   1  -8    7.57    0.41
   2  -1  -8    7.22    0.29
   2  -1  -8    7.97    0.34
   2   1   8    7.07    0.36
   2   1   8    7.52    0.21
  -2  -1   8    7.93    0.37
  -3  -1  -8   38.22    1.02
   3  -1   8   38.52    0.92
   3   1  -8   38.11    0.77
   3  -1   8   38.18    0.73
  -3   1   8   37.30    0.96
   3   1  -8   37.66    0.92
  -3  -1   8   36.14    0.91
  -3   1  -8   38.31    1.04
   3  -1  -8   39.21    0.92
   3  -1  -8   37.40    0.71
   3   1   8   38.41    0.96
  -4   1   8    0.29    0.15
   4   1  -8    0.00    0.08
   4   1  -8    0.22    0.08
   4  -1   8    0.08    0.11
   4  -1   8    0.04    0.06
  -4  -1  -8    0.24    0.14
  -4   1  -8    0.03    0.14
  -4  -1   8    0.22    0.14
   4   1   8    0.25    0.12
   4  -1  -8    0.17    0.10
   5  -1   8   90.05    1.81
  -5   1   8   86.22    1.83
  -5  -1  -8   88.59    1.93
   5   1  -8   86.56    1.80
  -5  -1   8   88.89    1.81
  -5   1  -8   89.78    1.96
   5   1   8   90.44    1.85
   5  -1  -8   90.55    1.81
  -6   1   8    9.27    0.53
  -6  -1  -8    9.70    0.58
   6  -1   8    7.77    0.46
   6   1  -8   10.29    0.51
  -6  -1   8    9.70    0.52
   6   1   8    8.14    0.48
  -6   1  -8    8.84    0.56
   6  -1  -8    8.95    0.48
   7   1  -8   40.84    1.17
   7  -1   8   42.38    1.20
  -7  -1  -8   39.72    1.24
  -7   1   8   40.36    1.21
   7  -1  -8   39.06    1.14
  -7   1  -8   40.40    1.25
   7   1   8   38.73    1.18
  -7  -1   8   38.23    1.15
  -8   1   8    1.11    0.27
   8  -1   8    0.51    0.21
   8   1  -8    0.36    0.18
  -8  -1  -8    0.55    0.24
  -8  -1   8    0.24    0.21
   8   1   8    0.19    0.18
  -8   1  -8    0.08    0.26
   8  -1  -8    0.72    0.23
  -9   1   8    0.14    0.22
   9   1  -8    0.02    0.14
   9  -1   8   -0.12    0.13
  -9  -1  -8    0.24    0.26
   9   1   8    0.15    0.20
   9  -1  -8   -0.04    0.12
  -9  -1   8   -0.20    0.18
  -9   1  -8   -0.36    0.20
 -10  -1  -8    1.05    0.35
  10  -1   8    0.59    0.26
  10   1  -8    1.06    0.27
 -10   1   8    0.98    0.30
 -10  -1   8    0.97    0.30
  10   1   8    0.78    0.29
  10  -1  -8    1.17    0.30
 -10   1  -8    0.78    0.33
  11   1  -8    0.57    0.24
 -11   1   8    0.73    0.33
  11  -1   8    2.09    0.42
  11   1   8    1.02    0.34
 -11  -1   8    0.92    0.34
  11  -1  -8    0.85    0.28
  12   1  -8    0.70    0.26
   0  -2  -8  452.38    6.91
   0   2  -8  467.30    6.81
   0  -2   8  467.90    6.79
   0  -2  -8  470.37    6.72
   0   2   8  464.46    6.93
   0   2  -8  457.20    6.96
  -1  -2  -8   70.14    1.16
  -1  -2  -8   69.55    1.41
   1   2  -8   69.65    1.35
   1  -2   8   71.18    1.32
   1   2  -8   71.91    1.35
   1  -2   8   69.67    1.27
  -1   2   8   72.26    1.45
  -1   2  -8   67.48    1.44
   1  -2  -8   71.94    1.29
  -1  -2   8   71.32    1.34
   1  -2  -8   71.22    1.32
   2  -2   8   35.76    0.74
   2   2  -8   35.37    0.85
  -2   2   8   33.98    0.90
   2   2  -8   34.11    0.78
   2  -2   8   34.72    0.81
  -2  -2  -8   34.76    0.57
   2  -2  -8   34.36    0.81
  -2   2  -8   34.36    0.93
  -2  -2   8   32.87    0.82
   2  -2  -8   33.53    0.73
   2   2   8   35.41    0.89
   3   2  -8    5.84    0.33
  -3   2   8    6.10    0.38
   3  -2   8    5.70    0.31
  -3  -2  -8    5.64    0.36
   3  -2   8    5.67    0.25
   3   2  -8    5.90    0.27
   3  -2  -8    5.97    0.22
  -3   2  -8    6.37    0.43
  -3  -2   8    5.79    0.33
   3   2   8    5.72    0.34
   3  -2  -8    6.03    0.32
   4   2  -8    0.03    0.07
   4  -2   8    0.23    0.11
  -4  -2  -8    0.15    0.13
   4   2  -8    0.13    0.10
  -4   2   8    0.17    0.14
   4  -2   8    0.21    0.08
   4  -2  -8    0.08    0.10
  -4  -2   8    0.47    0.16
  -4   2  -8   -0.06    0.14
   4   2   8    0.24    0.12
  -5  -2  -8    4.26    0.42
  -5   2   8    5.47    0.41
   5  -2   8    4.50    0.32
   5  -2   8    4.03    0.23
   5   2  -8    4.58    0.33
   5  -2  -8    4.42    0.32
  -5   2  -8    4.39    0.45
  -5  -2   8    3.87    0.32
   5   2   8    4.43    0.35
  -6  -2  -8    2.33    0.33
   6   2  -8    3.01    0.33
  -6   2   8    2.75    0.35
   6  -2   8    2.62    0.32
   6  -2  -8    3.47    0.36
  -6   2  -8    2.52    0.39
   6   2   8    2.70    0.33
  -6  -2   8    3.01    0.34
  -7  -2  -8   33.83    1.14
   7   2  -8   34.61    1.06
  -7   2   8   33.94    1.10
   7  -2   8   33.74    1.06
  -7  -2   8   35.76    1.08
  -7   2  -8   33.87    1.15
   7  -2  -8   33.47    1.04
   7   2   8   34.69    1.11
  -8  -2  -8   18.09    0.85
   8  -2   8   19.68    0.83
   8   2  -8   19.33    0.80
  -8   2   8   18.30    0.83
  -8   2  -8   19.11    0.88
  -8  -2   8   19.84    0.83
   8   2   8   18.34    0.83
   8  -2  -8   19.03    0.80
  -9   2   8    2.39    0.40
  -9  -2  -8    2.23    0.42
   9  -2   8    2.52    0.39
   9   2  -8    2.44    0.35
   9  -2  -8    2.61    0.37
  -9  -2   8    2.24    0.38
  -9   2  -8    2.44    0.41
   9   2   8    1.52    0.32
  10  -2   8   18.19    0.91
 -10   2   8   16.47    0.88
 -10  -2  -8   18.18    0.93
  10   2  -8   18.09    0.85
 -10  -2   8   17.02    0.87
  10  -2  -8   17.94    0.85
  10   2   8   18.09    0.92
  11  -2   8    0.13    0.24
 -11   2   8    0.16    0.28
  11   2  -8    0.21    0.21
 -11  -2   8    0.02    0.22
  11  -2  -8    0.18    0.21
  11   2   8    0.03    0.23
  12   2  -8    3.83    0.51
   0  -3  -8    0.10    0.08
   0   3   8    0.03    0.09
   0   3  -8    0.13    0.11
   0  -3  -8   -0.06    0.05
   0  -3   8   -0.02    0.07
   0   3  -8   -0.09    0.06
   1  -3   8   42.98    0.91
  -1  -3  -8   43.69    1.00
   1   3  -8   42.53    0.95
  -1  -3  -8   42.65    0.76
   1  -3   8   41.89    0.88
   1   3  -8   41.52    0.96
  -1   3  -8   42.75    1.03
   1   3   8   42.92    1.02
   1  -3  -8   41.99    0.90
   1  -3  -8   43.28    0.89
  -1  -3   8   41.87    0.89
   2  -3   8    2.99    0.21
  -2  -3  -8    2.72    0.28
  -2  -3  -8    2.81    0.10
   2   3  -8    2.90    0.23
   2  -3   8    2.91    0.20
  -2   3   8    2.48    0.28
   2   3  -8    2.79    0.22
   2  -3  -8    2.80    0.19
   2  -3  -8    2.53    0.21
  -2   3  -8    3.14    0.31
  -2  -3   8    2.83    0.25
   2   3   8    3.14    0.26
  -3  -3  -8   12.90    0.54
   3   3  -8   12.37    0.43
  -3   3   8   12.93    0.55
   3  -3   8   11.79    0.40
   3   3  -8   12.60    0.50
   3  -3   8   12.49    0.45
   3  -3  -8   12.49    0.47
  -3  -3   8   13.03    0.48
   3   3   8   12.86    0.53
  -3   3  -8   13.04    0.58
   3  -3  -8   12.29    0.34
   4  -3   8   26.44    0.74
  -4   3   8   24.59    0.82
   4  -3   8   25.64    0.64
  -4  -3  -8   26.78    0.85
   4   3  -8   26.69    0.66
   4   3  -8   26.37    0.79
   4   3   8   26.13    0.82
  -4  -3   8   24.66    0.74
  -4   3  -8   25.47    0.86
   4  -3  -8   26.04    0.77
   5  -3   8    7.41    0.41
  -5  -3  -8    7.21    0.47
  -5   3   8    7.53    0.49
   5   3  -8    7.82    0.43
   5  -3   8    7.69    0.33
   5   3   8    7.12    0.44
  -5   3  -8    8.13    0.53
  -5  -3   8    7.54    0.42
  -6   3   8    3.83    0.42
  -6  -3  -8    3.33    0.39
   6   3  -8    3.77    0.37
   6  -3   8    3.65    0.36
  -6   3  -8    3.92    0.44
   6  -3  -8    4.01    0.34
  -6  -3   8    3.98    0.39
   6   3   8    3.44    0.38
   7   3  -8    1.64    0.28
  -7  -3  -8    1.29    0.27
   7  -3   8    1.26    0.25
  -7   3   8    1.22    0.28
   7   3   8    1.81    0.31
  -7  -3   8    2.01    0.31
  -7   3  -8    2.09    0.35
   7  -3  -8    1.95    0.30
   8  -3   8    6.60    0.48
  -8  -3  -8    5.93    0.50
  -8   3   8    6.85    0.54
   8   3  -8    7.33    0.50
  -8  -3   8    6.73    0.50
   8  -3  -8    6.36    0.47
   8   3   8    7.02    0.53
  -8   3  -8    6.22    0.59
   9   3  -8    9.10    0.58
  -9   3   8   10.06    0.67
   9  -3   8   10.84    0.65
  -9  -3  -8   10.20    0.68
   9   3   8   10.10    0.66
  -9   3  -8   11.20    0.70
   9  -3  -8   10.14    0.61
  -9  -3   8    9.62    0.61
  10  -3   8    1.83    0.37
 -10  -3  -8    1.77    0.40
  10   3  -8    1.42    0.30
 -10   3   8    1.24    0.34
  10  -3  -8    1.77    0.34
 -10  -3   8    0.82    0.30
  10   3   8    1.11    0.34
  11   3  -8    2.84    0.44
 -11   3   8    3.41    0.54
  11  -3   8    3.67    0.52
  11  -3  -8    3.36    0.48
 -11  -3   8    2.60    0.47
  11   3   8    2.51    0.46
  12   3  -8    0.38    0.25
   0   4  -8   70.82    1.46
   0  -4   8   70.75    1.26
   0  -4   8   70.47    1.39
   0  -4  -8   70.76    1.25
   0  -4  -8   72.25    1.40
   0   4   8   72.71    1.49
   1  -4   8    0.02    0.06
   1   4  -8    0.09    0.10
  -1   4   8   -0.02    0.08
   1  -4   8   -0.06    0.05
  -1  -4  -8   -0.05    0.06
  -1  -4  -8    0.13    0.05
   1   4  -8    0.01    0.06
   1  -4  -8    0.05    0.07
  -1  -4   8   -0.01    0.07
   1   4   8    0.04    0.08
  -1   4  -8    0.28    0.13
   1  -4  -8    0.05    0.08
   2   4  -8   52.44    1.13
   2   4  -8   53.13    1.17
  -2  -4  -8   52.01    1.22
   2  -4   8   54.23    1.10
   2  -4   8   53.10    1.04
  -2   4   8   53.48    1.25
  -2  -4  -8   52.50    0.84
  -2   4  -8   52.04    1.24
   2  -4  -8   55.13    1.12
  -2  -4   8   54.25    1.07
   2   4   8   50.46    1.20
   2  -4  -8   53.31    1.02
   3  -4   8    5.02    0.27
   3  -4   8    4.88    0.27
   3   4  -8    5.43    0.33
  -3  -4  -8    4.55    0.33
  -3   4   8    4.40    0.34
   3   4  -8    4.93    0.29
   3   4   8    4.81    0.33
  -3  -4   8    5.13    0.30
  -3   4  -8    4.69    0.37
   3  -4  -8    4.57    0.29
   3  -4  -8    4.74    0.22
   4   4  -8  144.18    2.44
  -4   4   8  141.89    2.65
   4  -4   8  146.12    2.47
   4  -4   8  143.64    2.42
  -4  -4  -8  143.17    2.69
   4   4  -8  143.65    2.60
  -4  -4   8  142.29    2.47
   4  -4  -8  143.79    2.56
  -4   4  -8  145.01    2.70
   4   4   8  140.37    2.62
  -5   4   8    0.39    0.17
   5  -4   8    0.43    0.13
   5   4  -8    0.44    0.14
  -5  -4  -8    0.20    0.16
   5   4  -8    0.65    0.14
   5  -4   8    0.17    0.12
   5   4   8    0.23    0.13
   5  -4  -8    0.16    0.13
  -5   4  -8    0.25    0.21
  -5  -4   8    0.43    0.17
   6   4  -8   54.84    1.37
   6  -4   8   56.48    1.33
  -6  -4  -8   54.31    1.45
  -6   4   8   52.54    1.42
   6   4   8   52.70    1.40
  -6   4  -8   54.59    1.44
  -6  -4   8   52.66    1.29
   6  -4  -8   55.09    1.37
  -7   4   8   11.13    0.62
   7   4  -8   11.34    0.58
   7  -4   8   11.26    0.58
  -7  -4  -8   10.98    0.64
   7   4   8   10.23    0.59
   7  -4  -8   10.40    0.56
  -7  -4   8   11.82    0.59
  -7   4  -8   11.97    0.66
   8  -4   8    6.93    0.49
   8   4  -8    7.45    0.50
  -8  -4  -8    6.34    0.53
  -8   4   8    6.82    0.54
   8  -4  -8    5.90    0.45
  -8  -4   8    7.39    0.51
   8   4   8    7.93    0.55
  -8   4  -8    6.74    0.55
  -9  -4  -8    1.13    0.33
   9   4  -8    1.54    0.29
   9  -4   8    1.35    0.31
  -9   4   8    1.24    0.33
  -9  -4   8    1.88    0.35
   9   4   8    1.08    0.28
  -9   4  -8    1.02    0.32
   9  -4  -8    1.17    0.28
 -10  -4  -8    1.29    0.36
  10   4  -8    0.77    0.23
 -10   4   8    0.87    0.32
  10  -4   8    0.87    0.30
 -10  -4   8    0.89    0.29
  10  -4  -8    0.64    0.22
  10   4   8    1.30    0.31
  11  -4   8    3.24    0.51
  11   4  -8    1.90    0.36
 -11   4   8    1.65    0.42
  11  -4  -8    2.25    0.39
 -11  -4   8    3.32    0.51
  11   4   8    1.94    0.40
   0  -5  -8    0.00    0.06
   0   5   8   -0.04    0.09
   0  -5   8    0.07    0.08
   0   5  -8    0.11    0.10
   0  -5   8    0.04    0.06
   0  -5  -8    0.05    0.08
  -1   5   8    2.70    0.29
  -1  -5  -8    3.12    0.30
   1  -5   8    2.87    0.23
  -1  -5  -8    2.70    0.17
   1   5  -8    2.60    0.28
   1  -5   8    2.70    0.17
  -1   5  -8    2.52    0.28
   1  -5  -8    3.20    0.22
   1  -5  -8    2.94    0.21
   1   5   8    3.34    0.28
  -1  -5   8    2.88    0.24
  -1  -5   8    2.51    0.18
  -2  -5  -8   15.29    0.58
   2   5  -8   14.39    0.54
   2   5  -8   15.86    0.57
   2  -5   8   15.53    0.52
   2  -5   8   14.81    0.44
  -2   5   8   14.56    0.60
  -2   5  -8   14.37    0.60
   2   5   8   14.91    0.58
   2  -5  -8   14.42    0.45
   2  -5  -8   14.75    0.50
  -2  -5   8   15.49    0.46
  -3  -5  -8   14.69    0.61
  -3   5   8   14.55    0.62
   3   5  -8   13.67    0.52
   3  -5   8   14.81    0.51
   3   5  -8   15.26    0.58
   3  -5   8   14.90    0.47
  -3   5  -8   14.39    0.63
   3  -5  -8   14.89    0.54
  -3  -5   8   14.27    0.49
   3   5   8   15.50    0.61
  -4  -5  -8    2.51    0.31
   4  -5   8    2.00    0.22
   4  -5   8    1.98    0.23
  -4   5   8    2.33    0.32
   4   5  -8    1.86    0.23
   4   5  -8    2.40    0.29
  -4  -5   8    2.16    0.25
  -4   5  -8    2.01    0.30
   4  -5  -8    1.97    0.25
   4   5   8    2.00    0.26
  -5   5   8    2.41    0.33
   5   5  -8    2.62    0.26
   5   5  -8    2.44    0.30
   5  -5   8    2.68    0.28
  -5  -5  -8    3.12    0.37
   5  -5   8    2.49    0.26
   5   5   8    2.01    0.28
  -5   5  -8    2.06    0.32
   5  -5  -8    2.15    0.28
  -5  -5   8    2.42    0.28
  -6   5   8    0.94    0.25
   6   5  -8    1.31    0.24
   6  -5   8    0.84    0.20
   6  -5   8    1.51    0.21
  -6  -5  -8    1.38    0.28
   6   5   8    1.25    0.25
  -6  -5   8    1.38    0.24
   6  -5  -8    1.11    0.23
  -6   5  -8    2.50    0.36
  -7   5   8    1.08    0.27
   7   5  -8    1.97    0.31
   7  -5   8    1.90    0.29
  -7  -5  -8    1.81    0.31
  -7   5  -8    1.87    0.34
   7   5   8    2.03    0.32
   7  -5  -8    1.80    0.30
  -7  -5   8    2.04    0.31
   8   5  -8    0.02    0.13
   8  -5   8    0.06    0.17
  -8   5   8   -0.13    0.18
  -8  -5  -8    0.05    0.18
  -8   5  -8    0.37    0.23
   8  -5  -8   -0.03    0.12
  -8  -5   8   -0.03    0.17
   8   5   8   -0.17    0.13
  -9  -5  -8    4.70    0.54
   9   5  -8    3.68    0.43
   9  -5   8    4.42    0.50
  -9   5   8    3.78    0.49
   9   5   8    4.06    0.49
  -9   5  -8    4.59    0.53
   9  -5  -8    5.28    0.53
  -9  -5   8    3.98    0.46
  10   5  -8    1.39    0.31
 -10   5   8    1.44    0.34
 -10  -5  -8    1.20    0.36
  10  -5   8    2.03    0.38
  10  -5  -8    1.93    0.35
  10   5   8    1.86    0.38
 -10  -5   8    2.01    0.39
 -11  -5  -8    0.14    0.30
  11   5  -8    0.26    0.22
  11  -5   8    0.05    0.26
 -11   5   8   -0.55    0.18
 -11  -5   8    0.19    0.27
  11  -5  -8   -0.07    0.16
  11   5   8    0.02    0.22
   0  -6  -8   17.46    0.50
   0   6  -8   17.21    0.64
   0  -6   8   17.95    0.60
   0  -6  -8   17.57    0.59
   0   6   8   16.94    0.63
  -1  -6  -8   60.30    1.10
   1  -6   8   61.03    1.30
   1   6  -8   60.38    1.35
  -1   6   8   60.50    1.40
  -1  -6  -8   60.28    1.34
  -1  -6   8   62.06    1.35
   1  -6  -8   61.55    1.22
   1  -6  -8   60.36    1.25
  -1   6  -8   59.96    1.39
   1   6   8   60.30    1.37
   2   6  -8    1.19    0.20
  -2  -6  -8    1.27    0.21
   2   6  -8    2.03    0.25
  -2   6   8    1.55    0.25
   2  -6   8    1.47    0.20
   2  -6   8    1.79    0.16
  -2   6  -8    1.56    0.25
   2  -6  -8    1.99    0.20
  -2  -6   8    1.58    0.17
   2   6   8    1.58    0.23
   2  -6  -8    1.73    0.21
   3   6  -8    1.60    0.23
  -3  -6  -8    1.84    0.26
   3  -6   8    2.06    0.20
   3   6  -8    1.96    0.25
   3  -6   8    1.66    0.21
  -3   6   8    1.94    0.28
  -3   6  -8    1.69    0.27
   3  -6  -8    1.62    0.22
   3   6   8    1.60    0.24
  -3  -6   8    1.86    0.21
  -4   6   8   84.34    1.86
   4   6  -8   87.02    1.74
   4  -6   8   84.84    1.60
   4  -6   8   86.08    1.70
  -4  -6  -8   83.73    1.87
   4   6  -8   85.48    1.81
  -4  -6   8   86.56    1.62
  -4   6  -8   85.91    1.87
   4  -6  -8   84.94    1.77
   4   6   8   87.72    1.85
   5  -6   8   -0.17    0.08
   5   6  -8    0.49    0.15
  -5   6   8    0.38    0.19
   5   6  -8   -0.02    0.09
   5  -6   8    0.08    0.11
  -5  -6  -8   -0.10    0.12
   5  -6  -8   -0.07    0.10
   5   6   8    0.03    0.12
  -5  -6   8    0.03    0.12
  -5   6  -8   -0.16    0.16
  -6   6   8   90.89    2.04
   6  -6   8   90.39    1.82
  -6  -6  -8   88.79    2.07
   6  -6   8   91.76    1.85
   6   6  -8   91.15    1.98
  -6   6  -8   88.52    2.01
   6   6   8   90.40    2.03
  -6  -6   8   90.26    1.83
   6  -6  -8   89.47    1.96
   7   6  -8   11.09    0.59
  -7   6   8   10.99    0.64
  -7  -6  -8   12.69    0.69
   7  -6   8   10.49    0.56
   7   6   8   10.14    0.61
   7  -6  -8   10.28    0.58
  -7  -6   8   11.13    0.57
  -7   6  -8   11.35    0.64
  -8   6   8    0.68    0.25
  -8  -6  -8    0.02    0.19
   8   6  -8    0.24    0.16
   8  -6   8    0.24    0.19
  -8   6  -8    0.45    0.25
  -8  -6   8    0.27    0.21
   8  -6  -8    0.52    0.19
   8   6   8    0.42    0.19
  -9  -6  -8    4.90    0.57
   9   6  -8    5.26    0.52
   9  -6   8    5.98    0.57
  -9   6   8    6.40    0.64
   9   6   8    4.97    0.55
   9  -6  -8    4.42    0.50
  -9  -6   8    4.95    0.51
  10   6  -8    0.22    0.18
 -10  -6  -8    0.11    0.23
 -10   6   8    0.00    0.23
 -10  -6   8   -0.27    0.20
  10   6   8    0.41    0.22
  10  -6  -8    0.33    0.21
  11   6  -8    6.76    0.65
 -11   6   8    6.69    0.72
 -11  -6  -8    6.87    0.73
  11   6   8    6.57    0.71
  11  -6  -8    6.81    0.67
   0   7   8   -0.05    0.09
   0  -7  -8   -0.08    0.07
   0  -7  -8    0.08    0.08
   0   7  -8    0.11    0.14
   0  -7   8    0.07    0.09
  -1  -7  -8    0.29    0.09
   1   7  -8    0.29    0.15
  -1   7   8   -0.01    0.11
   1  -7   8    0.39    0.12
  -1  -7  -8    0.00    0.09
   1   7   8    0.45    0.14
  -1   7  -8    0.13    0.15
   1  -7  -8    0.42    0.12
   1  -7  -8    0.29    0.11
  -1  -7   8    0.10    0.10
   2   7  -8   19.18    0.69
  -2  -7  -8   20.20    0.73
   2  -7   8   19.24    0.66
  -2   7   8   19.20    0.73
   2  -7  -8   18.79    0.57
  -2   7  -8   20.12    0.75
   2  -7  -8   19.05    0.63
  -2  -7   8   19.68    0.70
   2   7   8   17.68    0.67
  -3   7   8    8.94    0.51
   3   7  -8    9.92    0.49
   3  -7   8    9.56    0.45
  -3  -7  -8    9.59    0.51
   3  -7  -8    9.55    0.46
   3   7   8    9.86    0.50
  -3   7  -8    9.25    0.53
   4   7  -8    2.99    0.32
   4   7  -8    3.24    0.34
  -4   7   8    3.12    0.37
   4  -7   8    2.70    0.29
  -4  -7  -8    3.25    0.38
   4  -7  -8    2.88    0.32
  -4   7  -8    2.10    0.32
   4   7   8    2.68    0.32
   5   7  -8    8.61    0.50
  -5   7   8    7.83    0.51
   5  -7   8    8.66    0.46
   5   7  -8    9.50    0.48
  -5  -7  -8    9.23    0.56
   5   7   8    9.17    0.52
   5  -7  -8    8.35    0.48
  -5   7  -8    9.20    0.54
  -6  -7  -8    3.25    0.43
   6  -7   8    3.62    0.35
   6   7  -8    3.23    0.37
  -6   7   8    2.98    0.39
  -6   7  -8    3.09    0.39
   6  -7  -8    3.21    0.37
   6   7   8    3.07    0.37
   7  -7   8    8.47    0.48
   7   7  -8    9.42    0.55
  -7   7   8    8.76    0.60
  -7  -7  -8    8.35    0.60
   7  -7  -8    8.51    0.55
  -7   7  -8    9.62    0.59
   7   7   8    8.25    0.55
   8   7  -8   11.57    0.64
  -8  -7  -8   10.47    0.69
  -8   7   8   10.36    0.68
   8   7   8   11.68    0.68
   8  -7  -8   10.61    0.63
  -8   7  -8   10.89    0.65
  -9   7   8    1.23    0.34
  -9  -7  -8    0.35    0.23
   9   7  -8    1.37    0.29
   9  -7  -8    0.67    0.24
   9   7   8    0.85    0.29
  10   7  -8    1.74    0.32
 -10  -7  -8    1.62    0.38
 -10   7   8    1.84    0.43
  10   7   8    1.29    0.36
  10  -7  -8    1.55    0.34
  11   7  -8    0.27    0.23
 -11  -7  -8   -0.01    0.26
   0  -8   8    4.31    0.32
   0   8  -8    3.52    0.36
   0  -8  -8    4.43    0.33
   0  -8  -8    4.73    0.28
   0   8   8    4.00    0.38
  -1  -8  -8    5.91    0.29
   1   8  -8    6.11    0.40
   1  -8   8    6.01    0.37
  -1  -8  -8    5.76    0.39
  -1   8   8    6.23    0.41
  -1   8  -8    6.09    0.42
   1   8   8    5.64    0.38
   1  -8  -8    5.82    0.35
  -1  -8   8    6.18    0.39
   1  -8  -8    6.66    0.35
   2   8  -8   21.59    0.77
  -2   8   8   20.49    0.77
   2  -8   8   21.87    0.73
  -2  -8  -8   20.64    0.76
  -2   8  -8   20.70    0.79
   2  -8  -8   21.49    0.65
   2  -8  -8   20.47    0.67
  -2  -8   8   21.33    0.76
   2   8   8   21.35    0.75
   3   8  -8    4.63    0.36
   3  -8   8    5.51    0.37
  -3   8   8    4.29    0.42
  -3  -8  -8    5.62    0.42
   3   8   8    4.38    0.35
   3  -8  -8    5.29    0.37
  -3  -8   8    4.84    0.38
  -3   8  -8    5.55    0.43
   4   8  -8   26.61    0.90
   4  -8   8   26.25    0.85
  -4   8   8   27.01    0.94
   4   8  -8   27.86    0.90
  -4  -8  -8   27.82    0.97
   4  -8  -8   26.72    0.87
  -4   8  -8   27.58    0.95
   4   8   8   29.97    0.95
  -4  -8   8   27.29    0.92
   5   8  -8    0.72    0.18
  -5   8   8    0.54    0.22
   5   8  -8    0.41    0.17
   5  -8   8    0.32    0.15
  -5  -8  -8    0.62    0.20
  -5   8  -8    0.26    0.19
   5   8   8    0.36    0.17
   5  -8  -8    0.20    0.15
   6   8  -8   15.73    0.66
  -6  -8  -8   15.43    0.78
   6   8  -8   13.93    0.67
  -6   8   8   15.02    0.75
   6  -8   8   15.66    0.66
  -6   8  -8   14.77    0.71
   6  -8  -8   14.70    0.69
   6   8   8   13.80    0.69
  -7   8   8    2.59    0.40
   7   8  -8    2.34    0.35
  -7  -8  -8    2.77    0.43
   7  -8   8    2.35    0.32
   7   8   8    1.82    0.33
   7  -8  -8    1.73    0.31
  -7   8  -8    2.04    0.34
  -8   8   8   12.33    0.75
   8   8  -8   11.75    0.67
  -8  -8  -8   14.09    0.80
   8   8   8   14.10    0.77
   8  -8  -8   11.09    0.67
  -8   8  -8   13.48    0.72
   9   8  -8    8.24    0.59
  -9   8   8    8.30    0.66
  -9  -8  -8    9.32    0.70
   9  -8  -8    8.50    0.61
   9   8   8    8.76    0.66
 -10   8   8    0.68    0.30
 -10  -8  -8    1.04    0.35
  10   8  -8    1.07    0.28
  10  -8  -8    0.73    0.27
  10   8   8    0.78    0.31
  11   8  -8    0.17    0.20
   0   9   8   -0.01    0.11
   0   9  -8    0.39    0.19
   0  -9  -8    0.03    0.10
   0   9   8   -0.04    0.11
   0  -9   8   -0.06    0.07
  -1  -9  -8   26.43    0.87
   1   9  -8   27.48    0.92
  -1   9   8   26.53    0.88
  -1   9   8   27.25    0.80
   1  -9   8   25.54    0.85
   1  -9  -8   27.08    0.78
  -1  -9   8   27.46    0.89
   1   9   8   26.02    0.86
  -1   9  -8   26.29    0.91
  -2  -9  -8   22.71    0.84
  -2   9   8   24.80    0.73
   2  -9   8   23.98    0.81
   2   9  -8   24.24    0.85
  -2   9   8   24.08    0.86
  -2   9  -8   23.60    0.87
   2   9   8   25.03    0.84
  -2  -9   8   23.74    0.84
   2  -9  -8   24.56    0.77
  -3  -9  -8    0.33    0.16
  -3   9   8    0.21    0.18
   3  -9   8    0.37    0.16
   3   9  -8    0.32    0.16
   3  -9  -8    0.25    0.14
  -3   9  -8    0.43    0.19
  -3  -9   8    0.60    0.18
   3   9   8    0.20    0.14
   4   9  -8    2.30    0.31
   4  -9   8    2.20    0.30
  -4  -9  -8    2.92    0.37
  -4   9   8    2.05    0.32
  -4   9  -8    2.41    0.34
   4  -9  -8    1.44    0.26
   4   9   8    2.49    0.33
  -4  -9   8    2.14    0.31
  -5  -9  -8    0.23    0.19
   5  -9   8    0.17    0.14
   5   9  -8    0.06    0.14
  -5   9   8    0.06    0.16
   5  -9  -8    0.03    0.13
  -5   9  -8    0.26    0.19
   5   9   8    0.17    0.16
  -5  -9   8    0.73    0.22
   6   9  -8    3.24    0.38
  -6  -9  -8    3.12    0.43
   6  -9   8    2.75    0.35
   6   9  -8    3.25    0.39
  -6   9   8    3.21    0.42
  -6   9  -8    3.72    0.44
   6   9   8    3.24    0.41
   6  -9  -8    3.23    0.39
  -7  -9  -8   -0.13    0.16
   7  -9   8   -0.04    0.13
   7   9  -8   -0.06    0.12
  -7   9   8   -0.17    0.16
  -7   9  -8   -0.02    0.17
   7   9   8    0.02    0.14
   7  -9  -8   -0.07    0.13
  -8  -9  -8    0.21    0.22
  -8   9   8    0.13    0.21
   8   9  -8    0.02    0.14
   8  -9  -8    0.00    0.16
   8   9   8    0.13    0.18
  -8   9  -8    0.09    0.20
  -9   9   8    8.77    0.68
  -9  -9  -8    8.93    0.70
   9   9  -8    8.12    0.60
   9   9   8    8.18    0.65
   9  -9  -8    7.58    0.59
 -10  -9  -8    1.60    0.42
 -10   9   8    1.34    0.40
  10   9  -8    1.74    0.35
  10   9   8    1.47    0.38
  10  -9  -8    1.35    0.33
   0 -10   8   85.92    1.88
   0 -10  -8   87.14    1.70
   0  10   8   86.85    1.87
   0  10  -8   87.85    1.98
   0  10   8   84.77    1.82
   1 -10   8    4.45    0.36
   1  10  -8    5.12    0.41
  -1  10   8    5.16    0.40
  -1  10   8    4.78    0.36
   1  10   8    4.70    0.38
  -1 -10   8    4.80    0.37
   1  10   8    4.99    0.40
  -1  10  -8    4.62    0.46
   1 -10  -8    4.67    0.34
   2  10  -8   36.07    1.12
  -2 -10  -8   34.05    1.09
  -2  10   8   33.35    1.04
  -2  10   8   35.03    0.93
   2 -10   8   34.09    1.04
   2  10   8   34.66    1.03
   2 -10  -8   33.25    0.96
  -2  10  -8   33.83    1.10
  -2 -10   8   34.69    1.07
  -3  10   8    6.71    0.48
   3 -10   8    7.06    0.46
   3  10  -8    6.68    0.48
  -3 -10  -8    7.28    0.51
   3 -10  -8    6.94    0.43
  -3 -10   8    6.55    0.45
   3  10   8    6.61    0.45
  -3  10  -8    7.23    0.50
  -4 -10  -8    2.47    0.37
  -4  10   8    1.95    0.33
   4 -10   8    2.21    0.31
   4  10  -8    2.26    0.32
   4 -10  -8    2.67    0.33
   4  10   8    2.28    0.32
  -4  10  -8    2.55    0.36
  -4 -10   8    1.90    0.31
   5 -10   8    3.83    0.41
   5  10  -8    4.15    0.44
  -5  10   8    3.59    0.42
  -5 -10  -8    2.64    0.39
   5  10   8    3.25    0.38
  -5 -10   8    3.66    0.42
  -5  10  -8    4.09    0.44
   5 -10  -8    3.11    0.37
  -6 -10  -8    5.35    0.56
   6  10  -8    6.72    0.48
   6 -10   8    6.27    0.47
  -6  10   8    5.48    0.55
   6 -10  -8    6.36    0.49
  -6  10  -8    6.08    0.50
  -6 -10   8    6.28    0.48
   6  10   8    6.00    0.49
  -7  10   8    5.28    0.55
  -7 -10  -8    5.01    0.57
   7 -10   8    5.27    0.51
  -7 -10   8    5.87    0.49
  -7  10  -8    4.29    0.48
   7 -10  -8    6.13    0.51
   7  10   8    6.20    0.58
  -8  10   8    8.57    0.66
  -8 -10  -8   11.05    0.76
   8  10  -8   10.13    0.64
   8 -10  -8    9.89    0.67
   8  10   8   11.02    0.70
  -8 -10   8   10.27    0.65
  -9  10   8    2.85    0.48
  -9 -10  -8    2.58    0.48
   9  10  -8    3.26    0.45
   9 -10  -8    2.74    0.43
   9  10   8    2.45    0.44
  10  10  -8   11.23    0.73
 -10  10   8   11.15    0.81
  10  10   8   11.05    0.79
   0  11  -8   -0.02    0.13
   0 -11  -8    0.07    0.13
   0  11   8   -0.06    0.14
   0  11   8    0.15    0.16
   0 -11   8    0.10    0.14
   1 -11   8   23.67    0.87
  -1  11   8   25.00    0.88
   1  11  -8   24.94    0.94
  -1  11   8   24.44    0.82
   1  11   8   24.58    0.86
   1 -11  -8   24.40    0.80
  -1 -11   8   25.45    0.91
  -1  11  -8   24.49    0.94
   1  11   8   25.23    0.89
   2 -11   8    6.55    0.46
  -2  11   8    6.36    0.46
  -2 -11  -8    6.43    0.47
   2  11  -8    6.54    0.49
   2  11   8    6.57    0.47
   2  11   8    6.88    0.45
  -2  11  -8    6.95    0.52
   2 -11  -8    6.96    0.43
  -2 -11   8    7.47    0.49
  -3 -11  -8    3.99    0.46
   3  11  -8    3.76    0.43
  -3  11   8    5.25    0.49
   3 -11   8    4.39    0.44
   3  11   8    4.92    0.40
   3 -11  -8    4.80    0.39
  -3 -11   8    4.96    0.48
  -3  11  -8    5.55    0.53
  -4 -11  -8    0.22    0.17
   4 -11   8    0.24    0.15
  -4  11   8    0.23    0.19
   4  11  -8    0.07    0.15
  -4  11  -8   -0.26    0.13
   4  11   8   -0.15    0.13
  -4 -11   8    0.20    0.16
   4 -11  -8   -0.23    0.10
   5 -11   8    0.84    0.23
  -5  11   8    1.24    0.29
   5  11  -8    1.69    0.31
  -5 -11  -8    1.10    0.28
   5 -11  -8    1.50    0.29
   5  11   8    1.22    0.27
  -5 -11   8    1.32    0.28
  -5  11  -8    1.35    0.30
   6 -11   8    0.21    0.17
  -6  11   8    0.38    0.21
   6  11  -8    0.16    0.18
  -6 -11  -8    0.12    0.18
   6 -11  -8   -0.03    0.16
   6  11   8    0.14    0.17
  -6 -11   8    0.42    0.20
  -6  11  -8    0.30    0.21
  -7 -11  -8   -0.03    0.20
   7 -11   8    0.42    0.21
  -7  11   8    0.38    0.25
   7 -11  -8    0.31    0.21
  -7  11  -8    0.56    0.24
  -7 -11   8    0.56    0.23
   7  11   8    0.55    0.23
  -8 -11  -8   -0.19    0.22
  -8  11   8    0.13    0.24
   8 -11   8    0.12    0.18
  -8 -11   8    0.21    0.19
   8  11   8    0.00    0.20
   8 -11  -8    0.11    0.21
  -9 -11  -8   -0.29    0.21
  -9  11   8    0.08    0.26
   9 -11  -8    0.09    0.21
  -9 -11   8    0.12    0.21
   9  11   8    0.11    0.23
   0  12   8  108.86    2.21
   0 -12   8  103.75    2.28
   0  12   8  107.83    2.23
   0  12  -8  102.43    2.35
  -1  12   8   19.68    0.78
  -1  12   8   20.13    0.77
   1  12  -8   18.50    0.84
   1 -12   8   19.46    0.81
  -1 -12   8   19.31    0.81
   1  12   8   19.25    0.76
   1 -12  -8   18.60    0.71
  -1  12  -8   18.98    0.84
   1  12   8   18.81    0.79
  -2  12   8   26.87    0.94
   2  12  -8   26.15    1.01
   2 -12   8   24.74    0.94
   2  12   8   25.81    0.91
   2  12   8   26.61    0.98
  -2  12  -8   25.42    1.01
  -2 -12   8   26.15    0.97
   2 -12  -8   26.11    0.89
   3 -12   8   14.53    0.71
   3  12  -8   13.20    0.71
  -3  12   8   13.52    0.69
  -3 -12  -8   13.25    0.73
   3  12   8   13.79    0.66
  -3 -12   8   12.55    0.67
  -3  12  -8   12.51    0.70
   3 -12  -8   12.32    0.63
  -4  12   8    1.24    0.28
  -4 -12  -8    0.92    0.27
   4 -12   8    0.67    0.22
   4  12  -8    0.78    0.24
   4 -12  -8    0.75    0.23
  -4 -12   8    0.62    0.21
   4  12   8    0.75    0.22
  -4  12  -8    1.41    0.31
  -5  12   8    0.22    0.20
  -5 -12  -8    0.08    0.15
   5 -12   8   -0.02    0.14
   5  12  -8    0.06    0.16
   5  12   8    0.15    0.17
  -5  12  -8   -0.10    0.16
  -5 -12   8    0.19    0.18
   5 -12  -8    0.03    0.15
  -6  12   8   -0.16    0.17
  -6 -12  -8    0.04    0.21
   6 -12   8    0.00    0.17
   6  12  -8    0.28    0.21
   6 -12  -8    0.23    0.19
  -6 -12   8   -0.04    0.14
   6  12   8   -0.11    0.16
  -6  12  -8   -0.01    0.18
   7 -12   8    5.37    0.55
  -7 -12  -8    4.71    0.60
  -7  12   8    5.22    0.59
   7  12   8    3.32    0.45
  -7  12  -8    4.44    0.51
   7 -12  -8    4.44    0.52
  -7 -12   8    4.28    0.51
  -8  12   8    7.26    0.70
   8 -12   8    6.72    0.55
  -8 -12  -8    6.98    0.74
  -8 -12   8    7.61    0.60
   8  12   8    7.85    0.62
   8 -12  -8    6.73    0.66
  -9 -12   8    1.80    0.36
   0 -13   8    0.11    0.15
   0  13   8    0.40    0.20
   0  13  -8    0.31    0.17
   1 -13   8   -0.07    0.14
   1  13  -8    0.02    0.16
  -1  13   8   -0.12    0.14
  -1  13  -8   -0.04    0.17
  -1 -13   8    0.01    0.13
   1  13   8   -0.18    0.13
   1 -13  -8    0.23    0.17
   2  13  -8    0.01    0.16
   2 -13   8    0.03    0.14
   2 -13  -8    0.02    0.14
   2  13   8   -0.23    0.14
  -2 -13   8    0.13    0.16
  -2  13  -8    0.28    0.18
  -3 -13  -8    1.24    0.29
   3 -13   8    1.63    0.31
   3  13  -8    2.43    0.39
  -3 -13   8    1.68    0.32
  -3  13  -8    1.85    0.34
   3 -13  -8    1.04    0.25
  -4 -13  -8    1.93    0.35
   4  13  -8    0.79    0.26
   4 -13   8    1.43    0.29
  -4  13  -8    1.32    0.30
   4 -13  -8    1.64    0.31
  -4 -13   8    0.85    0.25
   5  13  -8    0.79    0.26
  -5 -13  -8    0.62    0.26
   5 -13   8    0.85    0.26
   5 -13  -8    0.61    0.23
  -5 -13   8    0.69    0.25
  -5  13  -8    0.61    0.26
  -6 -13  -8    5.43    0.63
   6 -13   8    7.54    0.57
   6  13  -8    6.48    0.54
  -6  13  -8    6.27    0.61
   6 -13  -8    5.42    0.55
  -6 -13   8    6.40    0.53
  -7 -13  -8    5.28    0.64
   7 -13   8    5.28    0.57
  -7 -13   8    4.73    0.54
   7 -13  -8    4.38    0.53
  -7  13  -8    5.90    0.61
   8 -13   8    0.10    0.24
  -8 -13   8    0.31    0.22
   0 -14   8    0.03    0.15
   0  14  -8    0.59    0.24
   0  14   8    0.81    0.25
   1  14  -8    1.91    0.35
  -1  14   8    1.96    0.33
   1 -14   8    1.46    0.30
   1  14   8    2.13    0.36
  -1  14  -8    1.19    0.31
  -1 -14   8    1.65    0.31
   2  14  -8    5.64    0.58
   2 -14   8    4.69    0.50
   2  14   8    4.73    0.51
   2 -14  -8    5.30    0.44
  -2  14  -8    5.63    0.59
  -2 -14   8    6.36    0.52
  -3 -14  -8    2.80    0.43
   3 -14   8    2.90    0.40
   3  14  -8    2.85    0.44
  -3 -14   8    2.70    0.40
  -3  14  -8    2.59    0.42
   3 -14  -8    2.88    0.39
   4 -14   8    5.86    0.58
   4  14  -8    5.38    0.58
  -4 -14  -8    5.00    0.58
  -4 -14   8    4.37    0.51
  -4  14  -8    5.77    0.59
   4 -14  -8    4.23    0.48
   5  14  -8    1.35    0.34
  -5 -14  -8    0.06    0.22
   5 -14   8    0.85    0.27
  -5  14  -8    1.41    0.36
  -5 -14   8    1.08    0.30
   5 -14  -8    1.58    0.33
   6 -14   8    3.35    0.47
   6  14  -8    3.06    0.46
  -6 -14  -8    4.15    0.56
  -6  14  -8    3.75    0.51
  -6 -14   8    3.43    0.46
   6 -14  -8    3.30    0.46
   7 -14   8   -0.13    0.17
   7 -14  -8    0.24    0.23
  -7 -14   8    0.27    0.20
   0  15   8   -0.01    0.19
   0  15  -8    0.24    0.22
   0 -15   8    0.08    0.20
   1 -15   8    3.67    0.46
   1  15  -8    3.02    0.45
  -1  15  -8    3.70    0.50
   1  15   8    2.78    0.41
  -1 -15   8    3.51    0.46
   2 -15   8    0.18    0.19
   2  15  -8    0.44    0.25
   2  15   8    0.62    0.26
  -2 -15   8    0.67    0.24
   2 -15  -8    0.39    0.21
  -2  15  -8    0.39    0.24
   3 -15   8    3.85    0.47
   3  15  -8    3.55    0.49
  -3 -15  -8    3.05    0.45
  -3  15  -8    3.72    0.50
  -3 -15   8    3.59    0.47
   3  15   8    3.53    0.47
   3 -15  -8    3.96    0.48
  -4 -15  -8    0.20    0.25
   4 -15   8   -0.05    0.14
   4  15  -8    0.13    0.21
  -4  15  -8   -0.04    0.20
  -4 -15   8   -0.01    0.17
   4 -15  -8    0.00    0.17
   5  15  -8    3.62    0.51
  -5 -15  -8    2.79    0.47
   5 -15   8    3.04    0.47
  -5 -15   8    2.78    0.42
   5 -15  -8    3.00    0.44
  -5  15  -8    3.10    0.46
   6 -15   8   -0.07    0.21
   6  15  -8   -0.07    0.20
  -6  15  -8    0.36    0.28
   6 -15  -8    0.01    0.18
  -6 -15   8   -0.17    0.15
   0  16   8    0.97    0.29
   0 -16   8    0.44    0.23
   0  16  -8    1.30    0.35
   1  16  -8    1.33    0.32
   1 -16   8    1.26    0.32
  -1  16  -8    0.89    0.29
  -1 -16   8    1.08    0.29
   1  16   8    0.48    0.25
   2  16  -8    4.50    0.57
   2 -16   8    3.84    0.49
  -2  16  -8    4.89    0.58
  -2 -16   8    4.82    0.54
   2  16   8    5.19    0.57
   3 -16   8   -0.03    0.17
  -3 -16  -8    0.21    0.22
   3  16  -8    0.09    0.21
   3 -16  -8    0.29    0.22
   3  16   8    0.21    0.23
  -3 -16   8    0.27    0.21
  -3  16  -8    0.19    0.23
  -4 -16  -8   12.89    0.85
   4  16  -8   13.79    0.85
   4 -16   8   13.50    0.80
  -4  16  -8   13.57    0.84
  -4 -16   8   12.48    0.77
   4 -16  -8   12.99    0.76
   5  16  -8   -0.04    0.22
  -5 -16   8    0.06    0.22
  -5  16  -8    0.22    0.21
   5 -16  -8   -0.01    0.21
   0 -17   8   -0.20    0.19
   0  17   8    0.01    0.21
   0  17  -8    0.12    0.25
   1  17  -8    0.39    0.26
   1 -17   8   -0.13    0.18
  -1  17  -8    0.22    0.23
   1  17   8    0.65    0.29
  -1 -17   8    0.63    0.24
   2 -17   8    0.14    0.21
   2  17  -8    0.14    0.22
  -2  17  -8   -0.14    0.20
  -2 -17   8   -0.18    0.18
   2  17   8   -0.07    0.22
  -3 -17  -8    4.07    0.57
   3 -17  -8    4.11    0.51
  -3  17  -8    4.30    0.57
   4 -17  -8    0.02    0.22
   0   0   9    0.03    0.09
   0   0  -9    0.06    0.11
   0   0  -9    0.02    0.06
   1   0   9    0.05    0.08
  -1   0  -9    0.11    0.13
  -1   0  -9   -0.04    0.04
   1   0  -9   -0.06    0.09
   1   0  -9    0.03    0.07
  -1   0   9   -0.07    0.09
   2   0  -9    0.23    0.10
   2   0   9   -0.03    0.04
  -2   0   9   -0.04    0.09
  -2   0  -9   -0.03    0.12
   2   0  -9    0.05    0.08
   2   0   9   -0.02    0.07
   3   0   9    0.06    0.09
   3   0  -9    0.19    0.10
  -3   0   9    0.05    0.12
  -3   0  -9    0.00    0.13
   3   0   9    0.07    0.05
   3   0  -9    0.01    0.08
  -4   0   9   -0.12    0.12
   4   0   9   -0.02    0.10
  -4   0  -9    0.20    0.16
   4   0  -9   -0.02    0.08
  -5   0   9    0.09    0.15
  -5   0  -9    0.12    0.18
   5   0   9   -0.08    0.11
   5   0  -9   -0.10    0.10
   6   0   9   -0.13    0.11
  -6   0   9    0.20    0.16
  -6   0  -9    0.02    0.18
   6   0  -9    0.23    0.13
  -7   0  -9    0.05    0.22
   7   0  -9    0.13    0.14
   7   0   9    0.01    0.15
  -7   0   9   -0.13    0.15
  -8   0   9   -0.06    0.18
   8   0   9    0.09    0.19
   8   0  -9    0.14    0.16
  -8   0  -9   -0.10    0.22
  -9   0  -9   -0.47    0.17
  -9   0   9   -0.19    0.18
   9   0  -9    0.13    0.15
   9   0   9   -0.11    0.14
 -10   0  -9   -0.12    0.26
 -10   0   9    0.02    0.22
  10   0  -9    0.39    0.20
  10   0   9    0.21    0.21
 -11   0   9    0.25    0.26
  11   0   9    0.05    0.23
  11   0  -9   -0.08    0.17
   0   1  -9   -0.08    0.05
   0  -1   9   -0.03    0.08
   0   1  -9   -0.03    0.11
   0   1   9   -0.01    0.08
   0  -1  -9   -0.09    0.10
   0  -1  -9   -0.15    0.05
   1  -1   9   19.91    0.60
  -1  -1  -9   19.51    0.46
  -1   1   9   19.24    0.63
   1   1  -9   18.96    0.55
  -1  -1  -9   19.11    0.64
   1   1  -9   19.16    0.58
  -1  -1   9   19.18    0.60
  -1   1  -9   19.49    0.50
   1   1   9   19.82    0.63
   1  -1  -9   19.92    0.55
  -1   1  -9   18.95    0.66
   1  -1  -9   19.55    0.58
   2   1  -9    0.17    0.10
   2  -1   9    0.16    0.06
   2  -1   9    0.18    0.10
   2   1  -9    0.16    0.09
  -2  -1  -9    0.39    0.15
  -2   1   9   -0.05    0.11
  -2  -1   9    0.26    0.12
   2   1   9    0.15    0.10
  -2   1  -9    0.30    0.17
   2  -1  -9    0.27    0.11
   2  -1  -9    0.00    0.07
   2   1   9    0.19    0.06
   3   1  -9   79.66    1.42
  -3   1   9   80.43    1.65
   3  -1   9   81.18    1.35
   3  -1   9   78.51    1.58
  -3  -1  -9   78.19    1.71
   3   1  -9   80.18    1.59
   3  -1  -9   78.63    1.35
  -3  -1   9   80.86    1.61
  -3   1  -9   77.53    1.72
   3  -1  -9   81.11    1.58
   3   1   9   80.52    1.63
   4   1  -9    0.80    0.17
   4  -1   9    0.82    0.18
  -4  -1  -9    0.56    0.19
  -4   1   9    0.56    0.20
   4   1   9    0.36    0.13
   4  -1  -9    0.64    0.15
  -4   1  -9    0.79    0.24
  -4  -1   9    1.47    0.24
   5   1  -9   97.76    2.00
  -5  -1  -9  101.81    2.15
   5  -1   9  100.19    2.00
  -5   1   9   96.18    2.03
  -5   1  -9  100.14    2.16
   5  -1  -9  100.52    2.00
   5   1   9   98.79    2.03
  -5  -1   9  102.38    2.02
  -6   1   9   16.87    0.72
   6   1  -9   16.57    0.68
  -6  -1  -9   16.45    0.76
   6  -1   9   16.48    0.68
   6  -1  -9   16.56    0.68
  -6  -1   9   17.18    0.72
  -6   1  -9   17.78    0.81
   6   1   9   16.94    0.71
  -7   1   9   40.95    1.24
  -7  -1  -9   41.33    1.31
   7  -1   9   43.86    1.25
   7   1  -9   41.17    1.21
   7   1   9   43.03    1.27
  -7   1  -9   41.59    1.32
  -7  -1   9   40.86    1.22
   7  -1  -9   42.17    1.21
  -8  -1  -9   12.57    0.75
   8  -1   9   13.61    0.70
  -8   1   9   12.28    0.69
   8   1  -9   12.69    0.66
  -8   1  -9   12.51    0.75
   8   1   9   12.87    0.70
   8  -1  -9   13.07    0.66
  -8  -1   9   12.78    0.68
  -9  -1  -9    2.00    0.40
   9   1  -9    2.34    0.37
   9  -1   9    1.75    0.34
  -9   1   9    2.14    0.38
   9   1   9    2.40    0.39
  -9   1  -9    1.68    0.38
  -9  -1   9    1.74    0.36
   9  -1  -9    2.29    0.36
 -10   1   9    1.32    0.35
 -10  -1  -9    1.77    0.42
  10  -1   9    1.96    0.40
  10   1  -9    0.75    0.25
  10   1   9    2.14    0.40
  10  -1  -9    2.01    0.36
 -10  -1   9    1.53    0.34
 -10   1  -9    1.15    0.38
  11  -1   9    0.66    0.31
 -11   1   9    0.55    0.34
  11   1  -9    0.80    0.26
  11   1   9    0.30    0.27
 -11  -1   9    0.41    0.31
  11  -1  -9    0.88    0.28
   0  -2   9  386.49    5.76
   0  -2  -9  385.81    5.89
   0  -2  -9  389.67    5.67
   0   2   9  393.44    5.92
   0   2  -9  383.34    5.76
   0   2  -9  373.62    5.91
  -1   2   9  122.06    2.22
   1   2  -9  124.43    2.11
   1  -2   9  122.64    2.09
  -1  -2  -9  119.16    2.20
  -1  -2  -9  120.83    1.90
   1  -2   9  118.49    2.02
   1   2  -9  118.88    2.12
   1   2   9  122.46    2.21
  -1   2  -9  121.28    2.24
  -1  -2   9  122.72    2.10
   1  -2  -9  121.78    2.04
   1  -2  -9  119.70    2.09
   2  -2   9   57.09    1.18
   2   2  -9   55.58    1.14
   2  -2   9   56.97    1.08
  -2  -2  -9   54.59    1.28
   2   2  -9   58.07    1.21
  -2  -2  -9   55.58    0.91
   2   2   9   56.14    1.26
  -2  -2   9   58.85    1.21
   2  -2  -9   55.17    1.16
   2  -2  -9   56.24    1.10
  -2   2  -9   56.81    1.33
   3   2  -9   13.45    0.52
   3  -2   9   13.73    0.41
   3   2  -9   13.98    0.45
  -3  -2  -9   13.95    0.59
  -3   2   9   13.79    0.58
   3  -2   9   14.42    0.52
  -3   2  -9   14.32    0.62
   3  -2  -9   13.46    0.50
  -3  -2   9   13.33    0.52
   3   2   9   14.42    0.57
   3  -2  -9   13.29    0.38
   4   2  -9   24.17    0.76
  -4  -2  -9   24.26    0.84
   4  -2   9   23.17    0.57
   4  -2   9   22.95    0.72
   4   2  -9   22.38    0.59
  -4   2   9   23.57    0.80
  -4   2  -9   24.15    0.87
  -4  -2   9   24.19    0.76
   4  -2  -9   24.01    0.74
   4   2   9   22.29    0.76
   5  -2   9    0.92    0.19
  -5   2   9    0.94    0.23
  -5  -2  -9    1.00    0.24
   5   2  -9    0.79    0.19
  -5   2  -9    0.68    0.24
   5   2   9    0.87    0.20
   5  -2  -9    1.15    0.21
  -5  -2   9    1.18    0.23
   6  -2   9   42.59    1.17
  -6   2   9   42.32    1.23
  -6  -2  -9   42.28    1.27
   6   2  -9   42.30    1.17
   6   2   9   43.63    1.23
  -6   2  -9   43.59    1.29
   6  -2  -9   42.53    1.17
  -6  -2   9   42.34    1.17
   7   2  -9    4.94    0.46
   7  -2   9    5.63    0.44
  -7   2   9    4.74    0.47
  -7  -2  -9    5.05    0.52
   7  -2  -9    5.04    0.40
   7   2   9    4.55    0.46
  -7   2  -9    5.07    0.53
  -7  -2   9    5.30    0.44
   8  -2   9    3.86    0.46
   8   2  -9    2.39    0.34
  -8  -2  -9    3.07    0.44
  -8   2   9    2.28    0.37
   8  -2  -9    3.34    0.40
   8   2   9    3.05    0.40
  -8  -2   9    3.34    0.41
  -8   2  -9    2.35    0.41
   9  -2   9    3.62    0.45
  -9  -2  -9    3.75    0.50
  -9   2   9    3.05    0.45
   9   2  -9    4.08    0.45
   9   2   9    2.81    0.41
  -9  -2   9    4.06    0.49
   9  -2  -9    3.70    0.44
  -9   2  -9    2.83    0.45
 -10   2   9    2.60    0.45
  10   2  -9    2.85    0.40
 -10  -2  -9    2.75    0.48
  10  -2   9    2.36    0.42
  10   2   9    2.01    0.38
 -10  -2   9    2.43    0.42
 -10   2  -9    2.61    0.47
  10  -2  -9    3.34    0.44
  11  -2   9    8.65    0.70
  11   2  -9   10.53    0.69
 -11   2   9    9.49    0.74
  11   2   9    8.67    0.70
  11  -2  -9    8.85    0.64
 -11  -2   9   10.31    0.73
   0  -3  -9    0.23    0.10
   0   3   9   -0.05    0.09
   0  -3  -9    0.07    0.07
   0   3  -9    0.00    0.11
   0  -3   9    0.03    0.07
   0   3  -9   -0.02    0.07
  -1  -3  -9   15.89    0.39
  -1  -3  -9   16.08    0.57
   1  -3   9   16.02    0.50
   1  -3   9   16.65    0.50
   1   3  -9   15.29    0.55
  -1   3   9   16.78    0.61
   1   3  -9   16.12    0.53
   1  -3  -9   15.25    0.47
  -1  -3   9   15.03    0.50
   1   3   9   16.11    0.60
   1  -3  -9   16.02    0.51
  -1   3  -9   15.44    0.59
  -2   3   9    3.82    0.35
   2   3  -9    4.07    0.27
   2  -3   9    3.74    0.23
   2   3  -9    3.79    0.27
   2  -3   9    4.20    0.26
  -2  -3  -9    3.24    0.32
  -2  -3   9    3.67    0.27
   2  -3  -9    3.67    0.24
   2  -3  -9    3.37    0.24
  -2   3  -9    3.92    0.37
   2   3   9    4.08    0.31
  -3   3   9   12.66    0.57
   3  -3   9   13.56    0.43
   3   3  -9   12.43    0.51
  -3  -3  -9   11.69    0.55
   3  -3   9   12.30    0.47
   3   3  -9   12.88    0.46
   3  -3  -9   13.30    0.51
  -3   3  -9   12.26    0.60
  -3  -3   9   12.95    0.51
   3   3   9   12.53    0.54
   4  -3   9    5.73    0.34
   4  -3   9    5.35    0.27
  -4   3   9    5.71    0.43
   4   3  -9    6.02    0.37
   4   3  -9    5.50    0.29
  -4  -3  -9    5.15    0.39
  -4  -3   9    5.94    0.38
  -4   3  -9    5.68    0.47
   4   3   9    5.03    0.36
   4  -3  -9    5.73    0.36
   5   3  -9    1.99    0.27
  -5  -3  -9    1.43    0.26
  -5   3   9    1.53    0.29
   5  -3   9    2.12    0.27
  -5   3  -9    1.94    0.33
   5   3   9    2.19    0.30
  -5  -3   9    1.89    0.27
   5  -3  -9    1.60    0.25
  -6  -3  -9    1.11    0.26
  -6   3   9    1.35    0.30
   6   3  -9    1.67    0.26
   6  -3   9    0.83    0.20
  -6   3  -9    1.41    0.33
  -6  -3   9    1.27    0.26
   6  -3  -9    0.89    0.22
   6   3   9    1.33    0.27
   7  -3   9   13.18    0.65
   7   3  -9   13.51    0.65
  -7  -3  -9   14.68    0.74
  -7   3   9   13.86    0.71
   7  -3  -9   12.74    0.64
  -7  -3   9   13.66    0.65
  -7   3  -9   13.32    0.71
   7   3   9   14.30    0.70
  -8   3   9    0.14    0.20
   8   3  -9    0.05    0.14
   8  -3   9   -0.06    0.15
  -8  -3  -9    0.17    0.22
  -8  -3   9    0.37    0.21
   8  -3  -9   -0.08    0.11
  -8   3  -9    0.41    0.27
   8   3   9    0.18    0.19
  -9  -3  -9    9.12    0.67
   9   3  -9    7.94    0.54
   9  -3   9    8.29    0.58
  -9   3   9    8.98    0.64
  -9  -3   9    7.08    0.54
   9   3   9    9.00    0.63
  -9   3  -9    8.96    0.66
   9  -3  -9    8.44    0.57
  10   3  -9    1.53    0.31
 -10   3   9    1.96    0.41
 -10  -3  -9    1.82    0.42
  10  -3   9    1.79    0.38
  10   3   9    1.46    0.36
  10  -3  -9    2.00    0.36
 -10  -3   9    2.29    0.41
 -11   3   9   -0.29    0.26
  11  -3   9    0.26    0.28
 -11  -3  -9    0.14    0.30
  11   3  -9    0.15    0.19
  11   3   9    0.25    0.25
 -11  -3   9    0.37    0.31
  11  -3  -9    0.11    0.21
   0  -4   9   27.89    0.67
   0  -4   9   28.01    0.75
   0   4  -9   27.66    0.81
   0   4   9   27.22    0.82
   0  -4  -9   28.44    0.64
   0  -4  -9   27.43    0.75
   1  -4   9    9.52    0.36
   1  -4   9   10.40    0.40
  -1  -4  -9    9.45    0.29
  -1  -4  -9    9.05    0.43
   1   4  -9    9.75    0.43
  -1   4   9    9.76    0.48
   1   4  -9    9.16    0.41
  -1   4  -9    9.72    0.48
  -1  -4   9    9.36    0.37
   1   4   9    8.85    0.45
   1  -4  -9    9.47    0.36
   1  -4  -9    9.73    0.39
   2   4  -9    1.84    0.22
  -2   4   9    2.00    0.27
   2  -4   9    1.93    0.20
  -2  -4  -9    1.96    0.25
   2  -4   9    2.18    0.22
   2   4  -9    1.51    0.21
   2  -4  -9    1.78    0.21
  -2   4  -9    2.00    0.27
   2   4   9    1.67    0.24
  -2  -4   9    2.24    0.23
   2  -4  -9    2.17    0.20
   3   4  -9   57.83    1.31
   3  -4   9   57.94    1.19
   3   4  -9   59.99    1.24
  -3   4   9   56.98    1.38
   3  -4   9   58.50    1.20
  -3  -4  -9   57.79    1.38
   3  -4  -9   57.65    1.26
  -3  -4   9   56.63    1.22
   3   4   9   56.39    1.35
  -3   4  -9   59.22    1.43
  -4   4   9    0.57    0.19
  -4  -4  -9    0.71    0.19
   4  -4   9    0.47    0.12
   4   4  -9    0.65    0.15
   4   4  -9    0.63    0.17
   4  -4   9    0.63    0.15
  -4  -4   9    0.56    0.17
   4   4   9    0.65    0.17
   4  -4  -9    0.13    0.12
  -4   4  -9    0.56    0.23
   5   4  -9    1.86    0.27
  -5  -4  -9    1.70    0.29
  -5   4   9    2.00    0.31
   5  -4   9    1.83    0.25
   5  -4   9    1.76    0.21
   5   4   9    1.55    0.26
  -5  -4   9    2.06    0.28
   5  -4  -9    1.89    0.26
  -5   4  -9    1.50    0.31
   6  -4   9    2.05    0.29
  -6   4   9    2.12    0.34
   6   4  -9    2.76    0.34
  -6  -4  -9    1.89    0.32
   6   4   9    1.90    0.30
  -6   4  -9    1.79    0.33
   6  -4  -9    2.31    0.31
  -6  -4   9    2.67    0.33
   7   4  -9   12.15    0.62
  -7   4   9   11.83    0.66
   7  -4   9   12.93    0.63
  -7  -4  -9   12.24    0.69
   7   4   9   12.18    0.66
  -7   4  -9   12.67    0.69
   7  -4  -9   13.17    0.64
  -7  -4   9   12.10    0.60
  -8   4   9   -0.17    0.18
   8   4  -9   -0.01    0.12
  -8  -4  -9    0.00    0.20
   8  -4   9   -0.20    0.15
   8   4   9   -0.11    0.14
  -8   4  -9   -0.01    0.19
  -8  -4   9   -0.02    0.19
   8  -4  -9   -0.03    0.14
  -9  -4  -9    5.70    0.60
   9   4  -9    5.87    0.47
   9  -4   9    5.73    0.56
  -9   4   9    5.05    0.56
  -9  -4   9    5.76    0.55
  -9   4  -9    6.01    0.60
   9  -4  -9    6.25    0.50
   9   4   9    4.95    0.55
  10   4  -9    0.88    0.26
  10  -4   9    1.74    0.37
 -10  -4  -9    1.05    0.35
 -10   4   9    1.37    0.36
 -10  -4   9    1.07    0.31
  10   4   9    1.18    0.31
  10  -4  -9    1.51    0.32
  11  -4   9    0.10    0.24
 -11   4   9    0.41    0.30
 -11  -4  -9   -0.02    0.28
  11   4  -9    0.42    0.23
  11  -4  -9    0.42    0.24
 -11  -4   9    0.28    0.27
  11   4   9    0.11    0.22
   0  -5  -9   -0.14    0.06
   0  -5   9    0.03    0.08
   0  -5   9    0.00    0.07
   0   5   9   -0.05    0.10
   0   5  -9    0.14    0.12
   0  -5  -9   -0.02    0.06
  -1  -5  -9  221.97    3.69
  -1   5   9  219.74    3.74
   1  -5   9  222.15    3.59
   1   5  -9  219.25    3.68
   1  -5   9  226.00    3.39
  -1  -5  -9  224.26    3.34
  -1   5  -9  218.72    3.74
  -1  -5   9  222.71    3.40
   1   5   9  216.68    3.71
   1  -5  -9  223.47    3.50
  -1  -5   9  220.39    3.65
   1  -5  -9  222.25    3.56
  -2  -5  -9   23.19    0.77
   2  -5   9   23.46    0.61
   2  -5   9   24.19    0.69
   2   5  -9   23.01    0.73
   2   5  -9   24.00    0.73
  -2   5   9   23.74    0.81
   2   5   9   23.73    0.78
   2  -5  -9   24.63    0.63
   2  -5  -9   24.53    0.69
  -2  -5   9   24.43    0.64
   3   5  -9    4.68    0.32
   3   5  -9    4.78    0.33
  -3   5   9    4.75    0.39
  -3  -5  -9    4.88    0.38
   3  -5   9    5.00    0.29
   3  -5   9    4.96    0.30
   3  -5  -9    4.97    0.32
   3   5   9    4.96    0.36
  -3  -5   9    4.85    0.32
  -3   5  -9    4.71    0.40
  -4   5   9    0.96    0.24
   4   5  -9    0.47    0.15
   4  -5   9    0.44    0.14
   4   5  -9    0.72    0.18
  -4  -5  -9    0.36    0.17
   4  -5   9    0.80    0.16
  -4   5  -9    0.33    0.22
   4   5   9    0.80    0.20
  -4  -5   9    0.68    0.19
   4  -5  -9    0.57    0.16
   5   5  -9    1.73    0.22
   5   5  -9    1.48    0.25
  -5  -5  -9    1.58    0.29
   5  -5   9    1.35    0.22
   5  -5   9    1.41    0.20
  -5   5   9    1.34    0.27
   5  -5  -9    1.62    0.26
   5   5   9    2.25    0.31
  -5  -5   9    1.54    0.25
  -5   5  -9    1.31    0.29
   6  -5   9    0.30    0.16
   6   5  -9    0.35    0.15
  -6   5   9    0.10    0.17
  -6  -5  -9    0.20    0.18
   6   5   9    0.19    0.15
   6  -5  -9    0.72    0.20
  -6   5  -9    0.36    0.23
  -6  -5   9    0.42    0.19
  -7   5   9    5.36    0.52
   7   5  -9    5.73    0.44
  -7  -5  -9    4.60    0.50
   7  -5   9    5.95    0.43
  -7  -5   9    5.34    0.42
   7  -5  -9    5.95    0.45
  -7   5  -9    4.71    0.50
   7   5   9    5.62    0.46
   8   5  -9    2.76    0.38
   8  -5   9    2.60    0.37
  -8  -5  -9    2.99    0.43
  -8   5   9    2.40    0.41
  -8  -5   9    2.77    0.37
   8   5   9    2.41    0.38
  -8   5  -9    2.30    0.40
   8  -5  -9    2.42    0.35
  -9   5   9   15.33    0.85
   9  -5   9   17.72    0.84
   9   5  -9   15.59    0.78
  -9  -5  -9   17.87    0.91
   9  -5  -9   16.06    0.80
  -9   5  -9   15.93    0.82
   9   5   9   15.42    0.84
  -9  -5   9   16.01    0.79
 -10   5   9   -0.49    0.20
  10  -5   9   -0.15    0.22
 -10  -5  -9    0.22    0.26
  10   5  -9    0.00    0.16
  10  -5  -9    0.00    0.17
 -10  -5   9    0.09    0.23
  10   5   9    0.11    0.20
 -11  -5  -9   22.96    1.15
  11  -5   9   20.71    1.05
  11   5  -9   24.20    1.06
  11  -5  -9   23.07    1.06
 -11  -5   9   21.39    1.04
   0   6  -9    2.66    0.31
   0  -6   9    2.24    0.26
   0   6   9    2.44    0.30
   0  -6  -9    2.53    0.20
   0  -6  -9    2.85    0.28
   1   6  -9    6.11    0.40
  -1   6   9    6.59    0.42
  -1  -6  -9    6.45    0.26
  -1  -6  -9    5.39    0.36
   1  -6   9    6.11    0.35
  -1  -6   9    6.19    0.37
   1  -6  -9    6.57    0.35
  -1   6  -9    5.85    0.41
   1  -6  -9    6.01    0.31
   1   6   9    6.17    0.40
  -2   6   9    4.78    0.37
  -2  -6  -9    4.27    0.33
   2   6  -9    3.71    0.30
   2   6  -9    4.32    0.33
   2  -6   9    4.10    0.29
  -2   6  -9    4.24    0.40
   2   6   9    4.18    0.34
   2  -6  -9    4.09    0.28
   2  -6  -9    4.05    0.26
   3  -6   9    0.07    0.09
  -3   6   9    0.03    0.15
   3   6  -9    0.09    0.11
  -3  -6  -9   -0.06    0.09
   3   6  -9    0.14    0.11
   3  -6  -9   -0.06    0.08
   3   6   9    0.02    0.11
  -3   6  -9    0.09    0.17
  -4   6   9    4.09    0.42
   4  -6   9    4.39    0.31
   4   6  -9    5.23    0.37
  -4  -6  -9    4.80    0.40
   4   6  -9    4.76    0.34
  -4  -6   9    5.38    0.35
   4   6   9    4.98    0.38
   4  -6  -9    4.95    0.36
  -4   6  -9    5.21    0.44
  -5   6   9    0.52    0.21
  -5  -6  -9    0.42    0.19
   5   6  -9    0.39    0.15
   5  -6   9    0.26    0.14
   5   6  -9    0.24    0.13
   5  -6   9    0.15    0.11
  -5  -6   9    0.12    0.15
  -5   6  -9   -0.01    0.18
   5   6   9    0.15    0.15
   5  -6  -9    0.26    0.15
   6  -6   9    0.20    0.13
  -6  -6  -9    0.08    0.18
   6   6  -9    0.28    0.15
  -6   6   9    0.09    0.17
   6  -6   9    0.20    0.16
   6  -6  -9    0.23    0.15
  -6   6  -9    0.46    0.21
   6   6   9    0.22    0.16
  -6  -6   9    0.12    0.16
   7  -6   9    0.04    0.15
  -7   6   9    0.30    0.21
   7   6  -9    0.56    0.19
  -7  -6  -9    0.55    0.22
   7  -6  -9    0.55    0.19
  -7   6  -9    0.43    0.24
  -7  -6   9    0.18    0.19
   7   6   9    0.29    0.18
  -8   6   9    0.05    0.19
   8   6  -9    0.03    0.15
  -8  -6  -9    0.23    0.21
  -8  -6   9   -0.29    0.16
   8  -6  -9    0.19    0.18
   8   6   9    0.28    0.19
  -8   6  -9   -0.01    0.21
  -9  -6  -9   -0.01    0.19
  -9   6   9    0.13    0.23
   9   6  -9    0.08    0.17
   9   6   9    0.60    0.24
   9  -6  -9    0.28    0.20
  -9   6  -9    0.17    0.24
 -10  -6  -9    2.04    0.43
 -10   6   9    2.44    0.45
  10   6  -9    2.32    0.38
  10  -6  -9    2.29    0.40
  10   6   9    1.09    0.33
 -11  -6  -9    0.15    0.30
  11   6  -9    0.21    0.21
   0  -7  -9    0.15    0.12
   0   7   9    0.03    0.11
   0   7  -9    0.15    0.14
   0  -7   9   -0.02    0.09
   0  -7  -9   -0.08    0.08
  -1   7   9   66.76    1.53
  -1  -7  -9   65.73    1.48
   1  -7   9   65.36    1.44
   1   7  -9   66.88    1.51
  -1  -7   9   62.44    1.46
   1  -7  -9   66.34    1.33
  -1   7  -9   66.58    1.55
   1  -7  -9   64.34    1.37
   1   7   9   64.42    1.50
  -2   7   9   12.42    0.60
  -2  -7  -9   12.04    0.57
   2  -7   9   12.41    0.53
   2   7  -9   11.31    0.54
  -2   7  -9   11.77    0.59
  -2  -7   9   11.88    0.55
   2  -7  -9   12.36    0.47
   2  -7  -9   12.36    0.49
   2   7   9   13.01    0.58
   3   7  -9   18.69    0.71
   3  -7   9   18.06    0.65
  -3  -7  -9   18.47    0.74
   3   7  -9   17.47    0.67
  -3   7   9   18.06    0.75
   3   7   9   17.69    0.71
   3  -7  -9   18.52    0.65
  -3   7  -9   17.91    0.74
   4  -7   9    7.46    0.42
   4   7  -9    7.86    0.47
  -4  -7  -9    7.78    0.50
   4   7  -9    6.90    0.42
  -4   7   9    6.80    0.48
   4  -7  -9    7.69    0.44
   4   7   9    7.35    0.47
  -4   7  -9    7.52    0.50
  -5   7   9   15.15    0.73
   5   7  -9   15.14    0.62
  -5  -7  -9   14.62    0.72
   5  -7   9   15.02    0.61
   5   7  -9   14.88    0.68
  -5   7  -9   15.09    0.73
   5  -7  -9   14.75    0.66
   5   7   9   15.22    0.70
   6   7  -9    4.49    0.44
  -6   7   9    4.86    0.50
  -6  -7  -9    3.35    0.43
   6  -7   9    4.23    0.34
   6  -7  -9    4.56    0.45
  -6   7  -9    4.05    0.44
   6   7   9    4.05    0.45
  -7  -7  -9   11.84    0.69
  -7   7   9    9.77    0.63
   7   7  -9   10.65    0.60
   7   7   9    9.83    0.62
   7  -7  -9    9.58    0.59
  -7   7  -9   11.93    0.66
  -8  -7  -9    0.17    0.21
   8   7  -9   -0.02    0.13
  -8   7   9   -0.06    0.19
   8   7   9   -0.10    0.14
  -8   7  -9    0.40    0.23
   8  -7  -9   -0.10    0.15
  -9   7   9   20.95    1.02
  -9  -7  -9   23.57    1.08
   9   7  -9   24.79    1.02
   9  -7  -9   23.88    1.01
  -9   7  -9   23.89    1.01
   9   7   9   23.44    1.06
  10   7  -9    0.33    0.23
 -10  -7  -9    0.36    0.29
 -10   7   9    0.23    0.27
  10  -7  -9   -0.05    0.20
  10   7   9    0.44    0.26
  11   7  -9    5.45    0.60
 -11  -7  -9    4.19    0.62
   0   8   9  152.81    2.83
   0   8  -9  152.17    2.87
   0  -8   9  151.08    2.78
   0  -8  -9  154.17    2.56
   0  -8  -9  152.01    2.75
  -1   8   9   20.24    0.77
  -1  -8  -9   20.70    0.75
   1  -8   9   20.10    0.72
   1   8  -9   20.99    0.78
  -1  -8   9   21.36    0.75
   1  -8  -9   20.57    0.68
   1  -8  -9   20.51    0.64
  -1   8  -9   20.38    0.79
   1   8   9   20.13    0.76
  -2   8   9    3.41    0.38
   2  -8   9    2.79    0.31
   2   8  -9    3.24    0.35
  -2  -8  -9    3.88    0.39
   2  -8  -9    3.65    0.30
  -2   8  -9    3.16    0.38
   2  -8  -9    3.55    0.27
  -2  -8   9    3.28    0.35
   2   8   9    3.66    0.38
  -3  -8  -9   13.29    0.65
   3   8  -9   12.28    0.59
   3  -8   9   13.55    0.58
  -3   8   9   13.98    0.67
   3  -8  -9   12.08    0.55
  -3  -8   9   13.23    0.62
  -3   8  -9   11.28    0.61
   3   8   9   14.10    0.64
  -4   8   9   13.26    0.67
   4   8  -9   13.99    0.65
  -4  -8  -9   14.27    0.70
   4   8  -9   14.60    0.64
   4  -8   9   14.47    0.61
  -4   8  -9   14.17    0.69
   4  -8  -9   14.57    0.63
   4   8   9   15.06    0.68
  -5   8   9    0.41    0.23
   5  -8   9    0.35    0.15
   5   8  -9    0.26    0.15
  -5  -8  -9    0.50    0.20
   5   8  -9    0.16    0.14
  -5   8  -9    0.15    0.18
   5   8   9    0.18    0.16
   5  -8  -9    0.08    0.15
   6   8  -9   10.06    0.58
  -6  -8  -9   10.10    0.64
  -6   8   9    9.64    0.61
   6  -8   9    9.87    0.53
  -6   8  -9   10.57    0.63
   6   8   9    9.01    0.58
   6  -8  -9    9.43    0.56
  -7   8   9    2.99    0.42
   7   8  -9    3.52    0.42
  -7  -8  -9    4.42    0.53
  -7   8  -9    3.26    0.43
   7   8   9    3.47    0.44
   7  -8  -9    2.86    0.39
   8   8  -9    0.17    0.17
  -8   8   9    0.09    0.22
  -8  -8  -9    0.04    0.20
   8  -8  -9   -0.02    0.16
  -8   8  -9    0.25    0.21
   8   8   9    0.16    0.19
   9   8  -9    7.39    0.57
  -9  -8  -9    7.34    0.72
  -9   8   9    7.61    0.73
   9  -8  -9    8.36    0.61
   9   8   9    8.45    0.64
  10   8  -9    5.82    0.60
 -10   8   9    7.24    0.74
 -10  -8  -9    6.25    0.70
  10   8   9    7.25    0.73
  10  -8  -9    6.34    0.65
   0  -9  -9    0.11    0.11
   0   9  -9   -0.06    0.13
   0   9   9    0.07    0.12
   0  -9   9   -0.06    0.10
   0  -9  -9    0.06    0.11
   1   9  -9   22.69    0.86
  -1   9   9   23.32    0.85
   1  -9   9   25.76    0.85
  -1  -9  -9   24.02    0.84
   1  -9  -9   25.73    0.75
   1  -9  -9   24.87    0.79
   1   9   9   23.78    0.85
  -1   9  -9   24.65    0.90
  -1  -9   9   24.62    0.85
  -2   9   9    6.98    0.49
   2   9  -9    7.02    0.46
   2  -9   9    5.95    0.41
  -2  -9  -9    6.66    0.45
  -2  -9   9    7.41    0.46
   2   9   9    6.12    0.44
  -2   9  -9    6.81    0.48
   2  -9  -9    6.99    0.40
   3   9  -9   12.89    0.62
  -3  -9  -9   12.74    0.65
   3  -9   9   11.80    0.57
  -3   9   9   11.82    0.63
  -3  -9   9   11.86    0.61
   3   9   9   12.06    0.60
   3  -9  -9   12.05    0.56
  -3   9  -9   12.24    0.65
  -4  -9  -9    0.22    0.17
   4   9  -9    0.93    0.23
   4  -9   9    0.67    0.19
  -4   9   9    0.88    0.24
  -4  -9   9    0.94    0.22
  -4   9  -9    0.91    0.26
   4  -9  -9    0.69    0.20
   4   9   9    0.95    0.23
  -5  -9  -9   52.69    1.54
  -5   9   9   53.84    1.50
   5  -9   9   49.30    1.34
   5   9  -9   53.55    1.41
  -5   9  -9   52.57    1.47
  -5  -9   9   52.43    1.46
   5   9   9   53.65    1.47
   5  -9  -9   51.42    1.39
  -6   9   9    0.78    0.26
   6  -9   9    0.93    0.23
   6   9  -9    0.42    0.18
  -6  -9  -9    0.96    0.27
   6   9   9    0.87    0.24
   6  -9  -9    0.76    0.22
  -6   9  -9    1.33    0.31
  -7   9   9    1.56    0.33
  -7  -9  -9    1.99    0.39
   7  -9   9    1.87    0.31
   7   9  -9    1.22    0.28
   7   9   9    1.57    0.32
  -7   9  -9    1.56    0.32
   7  -9  -9    1.25    0.29
  -8  -9  -9    1.21    0.35
  -8   9   9    1.03    0.32
   8   9  -9    1.07    0.29
  -8   9  -9    1.70    0.35
   8  -9  -9    0.86    0.28
   8   9   9    0.50    0.26
   9   9  -9    3.38    0.46
  -9   9   9    3.04    0.50
  -9  -9  -9    3.99    0.56
   9  -9  -9    3.07    0.45
   9   9   9    3.86    0.52
 -10   9   9   -0.07    0.26
 -10  -9  -9   -0.19    0.23
  10   9  -9    0.02    0.18
  10   9   9    0.18    0.26
   0 -10   9    7.90    0.49
   0  10  -9    8.20    0.53
   0 -10  -9    8.16    0.49
   0  10   9    7.54    0.48
   1 -10   9    2.01    0.30
  -1 -10  -9    2.16    0.31
   1  10  -9    1.76    0.30
  -1  10   9    2.05    0.31
   1 -10  -9    2.16    0.30
   1 -10  -9    1.95    0.26
   1  10   9    2.47    0.33
  -1 -10   9    2.25    0.31
  -1  10  -9    1.99    0.31
  -2 -10  -9    9.58    0.57
  -2  10   9   10.44    0.58
   2 -10   9   10.12    0.55
   2  10  -9    9.43    0.57
   2 -10  -9   10.26    0.50
  -2  10  -9   10.52    0.60
  -2 -10   9   10.54    0.57
   2  10   9    9.61    0.54
  -3 -10  -9    8.77    0.56
   3 -10   9    8.09    0.50
   3  10  -9    7.68    0.51
  -3  10   9    7.03    0.51
  -3 -10   9    7.33    0.49
  -3  10  -9    7.52    0.53
   3 -10  -9    7.58    0.46
   3  10   9    7.26    0.48
   4 -10   9    0.42    0.17
  -4 -10  -9    0.16    0.16
   4  10  -9    0.57    0.21
  -4  10   9    0.11    0.18
  -4 -10   9    0.28    0.17
   4  10   9    0.28    0.17
   4 -10  -9    0.26    0.16
  -4  10  -9    0.16    0.19
  -5  10   9   -0.13    0.16
   5 -10   9    0.07    0.15
   5  10  -9    0.28    0.18
  -5 -10  -9    0.16    0.16
   5 -10  -9   -0.22    0.12
   5  10   9    0.13    0.16
  -5  10  -9   -0.06    0.17
  -5 -10   9    0.19    0.15
  -6 -10  -9    0.14    0.19
   6  10  -9    0.03    0.15
   6 -10   9    0.06    0.14
  -6  10   9    0.04    0.18
  -6  10  -9    0.09    0.18
   6  10   9    0.45    0.20
   6 -10  -9    0.43    0.19
  -6 -10   9    0.40    0.20
  -7 -10  -9    9.62    0.70
  -7  10   9    9.59    0.68
   7 -10   9   10.17    0.60
   7 -10  -9    8.88    0.61
  -7  10  -9    9.51    0.64
   7  10   9    9.27    0.64
  -7 -10   9    8.39    0.59
   8  10  -9   -0.12    0.16
  -8  10   9    0.00    0.23
  -8 -10  -9   -0.06    0.20
  -8  10  -9   -0.14    0.19
   8 -10  -9   -0.29    0.15
   8  10   9   -0.14    0.17
   9  10  -9    0.33    0.21
  -9 -10  -9    0.29    0.26
  -9  10   9   -0.08    0.25
   9 -10  -9   -0.04    0.19
   9  10   9    0.01    0.21
   0 -11   9    0.09    0.13
   0  11   9    0.10    0.14
   0  11  -9    0.07    0.16
   0 -11  -9    0.00    0.14
  -1 -11  -9    6.95    0.48
   1  11  -9    7.11    0.50
  -1  11   9    7.47    0.49
  -1  11   9    6.80    0.44
   1 -11   9    7.16    0.47
  -1 -11   9    6.73    0.47
  -1  11  -9    6.69    0.50
   1  11   9    7.20    0.47
   1 -11  -9    7.09    0.42
   2  11  -9   13.00    0.69
   2 -11   9   12.06    0.63
  -2 -11  -9   13.65    0.69
  -2  11   9   13.12    0.67
   2 -11  -9   13.40    0.59
   2  11   9   13.38    0.65
  -2  11  -9   13.61    0.71
  -2 -11   9   13.37    0.67
  -3 -11  -9   36.46    1.20
   3  11  -9   34.03    1.15
   3 -11   9   33.87    1.10
  -3  11   9   35.80    1.16
  -3  11  -9   32.42    1.14
   3 -11  -9   33.74    1.04
  -3 -11   9   34.39    1.14
   3  11   9   33.82    1.10
  -4  11   9   17.10    0.81
   4  11  -9   17.22    0.79
   4 -11   9   16.92    0.76
  -4 -11  -9   16.28    0.82
   4  11   9   17.75    0.78
  -4 -11   9   15.98    0.77
  -4  11  -9   16.44    0.80
   4 -11  -9   16.90    0.75
   5 -11   9    7.98    0.54
  -5  11   9    8.01    0.58
  -5 -11  -9    6.74    0.55
   5  11  -9    8.81    0.57
  -5  11  -9    7.57    0.57
  -5 -11   9    7.56    0.55
   5 -11  -9    7.50    0.52
   5  11   9    9.11    0.58
   6  11  -9    1.79    0.33
  -6  11   9    1.92    0.35
   6 -11   9    1.91    0.33
  -6 -11  -9    2.56    0.43
  -6 -11   9    2.09    0.35
   6  11   9    1.97    0.36
   6 -11  -9    1.73    0.32
  -6  11  -9    2.03    0.37
  -7  11   9   10.32    0.70
   7 -11   9   11.74    0.68
  -7 -11  -9   12.21    0.79
  -7 -11   9   11.92    0.72
   7  11   9   12.20    0.73
   7 -11  -9   12.25    0.73
  -7  11  -9   11.74    0.72
  -8  11   9    3.04    0.48
  -8 -11  -9    3.24    0.50
   8 -11  -9    2.91    0.43
  -8 -11   9    2.97    0.43
   8  11   9    2.65    0.43
  -8  11  -9    2.62    0.43
  -9  11   9    1.07    0.36
  -9 -11   9    0.99    0.31
   9  11   9    0.87    0.32
   0  12   9    0.76    0.23
   0 -12   9    0.88    0.24
   0  12  -9    0.66    0.24
   0  12   9    1.25    0.26
   1 -12   9    2.99    0.38
   1  12  -9    3.07    0.41
  -1  12   9    3.54    0.41
  -1 -12  -9    2.70    0.38
  -1  12   9    3.13    0.36
   1  12   9    2.86    0.37
   1 -12  -9    3.00    0.34
  -1 -12   9    2.41    0.34
  -1  12  -9    3.00    0.42
   2 -12   9    0.02    0.13
  -2 -12  -9    0.15    0.17
   2  12  -9    0.02    0.16
  -2  12   9    0.26    0.18
   2 -12  -9    0.04    0.15
  -2  12  -9    0.29    0.21
   2  12   9    0.18    0.17
  -2 -12   9    0.00    0.13
  -3  12   9    0.42    0.20
  -3 -12  -9    0.39    0.20
   3 -12   9    0.18    0.17
   3  12  -9    0.15    0.18
  -3  12  -9    0.30    0.20
   3 -12  -9    0.33    0.18
   3  12   9    0.50    0.19
  -3 -12   9    0.05    0.16
  -4 -12  -9    1.18    0.29
   4  12  -9    2.24    0.36
  -4  12   9    2.27    0.37
   4 -12   9    1.99    0.33
   4 -12  -9    1.98    0.32
  -4  12  -9    1.78    0.33
   4  12   9    1.79    0.32
  -4 -12   9    2.24    0.36
   5 -12   9    0.62    0.23
  -5 -12  -9    0.03    0.20
  -5  12   9    0.11    0.21
   5  12  -9    0.44    0.20
  -5 -12   9    0.07    0.15
  -5  12  -9    0.13    0.21
   5 -12  -9   -0.01    0.16
   5  12   9    0.09    0.19
   6 -12   9    3.62    0.46
   6  12  -9    4.10    0.48
  -6  12   9    3.83    0.49
  -6 -12  -9    2.88    0.47
  -6 -12   9    3.09    0.44
   6 -12  -9    3.02    0.41
   6  12   9    3.81    0.47
  -6  12  -9    4.01    0.49
  -7  12   9    2.93    0.46
  -7 -12  -9    3.41    0.53
   7 -12   9    3.01    0.44
   7  12   9    3.09    0.44
  -7  12  -9    3.53    0.47
  -7 -12   9    2.56    0.41
   7 -12  -9    2.87    0.42
  -8  12   9    0.14    0.26
  -8 -12  -9   -0.17    0.25
   8  12   9    0.32    0.25
   8 -12  -9    0.24    0.22
  -8 -12   9    0.16    0.21
  -9  12   9    0.03    0.24
   9  12   9    0.09    0.25
   0  13  -9    0.26    0.19
   0  13   9   -0.10    0.15
   0 -13   9    0.05    0.13
   0  13   9    0.22    0.19
  -1 -13  -9   11.26    0.65
   1  13  -9   10.94    0.68
   1 -13   9   10.87    0.63
  -1  13   9   10.37    0.60
  -1 -13   9    9.26    0.60
   1  13   9   10.42    0.59
  -1  13  -9   10.94    0.68
   2 -13   9    0.26    0.17
  -2  13   9    0.30    0.17
   2  13  -9    0.06    0.17
  -2 -13  -9    0.26    0.20
   2 -13  -9    0.36    0.18
   2  13   9   -0.13    0.13
  -2 -13   9    0.27    0.17
  -2  13  -9   -0.09    0.18
   3 -13   9   17.87    0.82
  -3 -13  -9   16.28    0.84
   3  13  -9   16.41    0.84
  -3  13  -9   17.41    0.86
   3  13   9   17.17    0.77
   3 -13  -9   16.01    0.73
  -3 -13   9   15.98    0.80
   4 -13   9    0.34    0.19
   4  13  -9    0.27    0.19
  -4 -13  -9   -0.14    0.14
  -4 -13   9    0.16    0.20
   4 -13  -9    0.21    0.17
  -4  13  -9    0.01    0.18
  -5 -13  -9   29.24    1.22
   5  13  -9   32.42    1.21
   5 -13   9   29.24    1.12
  -5  13  -9   29.73    1.17
  -5 -13   9   30.63    1.17
   5 -13  -9   29.57    1.11
   6  13  -9    1.55    0.36
   6 -13   9    2.11    0.37
  -6 -13  -9    1.34    0.36
   6 -13  -9    2.49    0.40
  -6  13  -9    2.21    0.41
  -6 -13   9    2.28    0.40
   7 -13   9   16.91    0.87
  -7 -13  -9   15.43    0.95
  -7  13  -9   16.04    0.87
   7 -13  -9   14.38    0.82
  -7 -13   9   15.48    0.86
  -8 -13   9   -0.12    0.17
   0 -14   9    2.19    0.37
   0  14   9    2.05    0.34
   0  14  -9    2.01    0.38
   1 -14   9    1.81    0.35
   1  14  -9    1.52    0.34
   1  14   9    1.50    0.32
  -1 -14   9    2.15    0.36
  -1  14  -9    2.03    0.37
   2  14  -9    0.15    0.19
   2 -14   9   -0.11    0.14
  -2 -14  -9   -0.05    0.18
   2 -14  -9    0.37    0.19
  -2  14  -9    0.20    0.22
  -2 -14   9    0.39    0.21
   3 -14   9    5.47    0.56
   3  14  -9    5.14    0.57
  -3 -14  -9    6.09    0.62
   3 -14  -9    5.22    0.51
  -3  14  -9    5.46    0.58
  -3 -14   9    5.99    0.58
   4 -14   9   -0.06    0.16
  -4 -14  -9   -0.02    0.17
   4  14  -9   -0.19    0.16
  -4 -14   9   -0.20    0.15
  -4  14  -9    0.09    0.19
   4 -14  -9    0.36    0.19
   5 -14   9    0.40    0.24
   5  14  -9    0.33    0.23
  -5 -14  -9    0.10    0.21
  -5 -14   9    0.23    0.20
   5 -14  -9    0.32    0.20
  -5  14  -9    0.70    0.28
   6 -14   9   -0.01    0.19
  -6 -14  -9    0.10    0.24
   6  14  -9   -0.12    0.19
  -6 -14   9    0.01    0.17
   6 -14  -9    0.02    0.20
  -6  14  -9    0.31    0.24
   7 -14   9    0.18    0.21
  -7 -14   9   -0.09    0.19
  -7  14  -9   -0.07    0.23
   0  15  -9   -0.27    0.17
   0 -15   9    0.08    0.18
   0  15   9    0.14    0.19
   1 -15   9   16.87    0.85
   1  15  -9   16.60    0.89
   1  15   9   15.63    0.82
  -1  15  -9   16.40    0.90
  -1 -15   9   16.38    0.85
   2 -15   9    0.09    0.20
  -2 -15  -9    0.03    0.20
   2  15  -9    0.15    0.21
  -2  15  -9    0.21    0.21
  -2 -15   9    0.15    0.21
  -3 -15  -9    3.50    0.49
   3  15  -9    2.98    0.47
   3 -15   9    3.63    0.47
  -3 -15   9    2.69    0.42
  -3  15  -9    2.80    0.44
   3 -15  -9    3.49    0.44
  -4 -15  -9    1.46    0.34
   4  15  -9    2.72    0.46
   4 -15   9    2.09    0.39
  -4 -15   9    2.67    0.43
  -4  15  -9    1.60    0.38
   4 -15  -9    2.77    0.40
  -5 -15  -9    0.35    0.27
   5  15  -9    0.72    0.28
   5 -15   9    0.05    0.21
  -5  15  -9    0.35    0.27
   5 -15  -9    0.23    0.23
  -5 -15   9    0.40    0.26
   6  15  -9    0.58    0.30
   6 -15   9    0.30    0.25
  -6  15  -9    0.49    0.29
   0  16  -9    0.28    0.22
   0 -16   9    0.14    0.19
   0  16   9    0.59    0.26
   1  16  -9    0.14    0.19
   1 -16   9   -0.23    0.14
  -1 -16   9   -0.02    0.17
  -1  16  -9    0.19    0.24
   1  16   9   -0.01    0.19
  -2 -16  -9    0.12    0.23
   2  16  -9    0.19    0.22
   2 -16   9    0.01    0.19
  -2  16  -9    0.51    0.28
  -2 -16   9    0.20    0.21
   3  16  -9    0.62    0.29
   3 -16   9    0.43    0.23
  -3 -16  -9    0.60    0.27
   3 -16  -9    0.33    0.23
  -3 -16   9    0.30    0.23
  -3  16  -9    0.38    0.26
  -4 -16  -9    0.07    0.22
   4  16  -9    0.00    0.22
   4 -16   9   -0.02    0.18
   4 -16  -9    0.12    0.22
  -4  16  -9   -0.19    0.18
  -4 -16   9    0.12    0.21
   1  17   9   15.56    0.89
  -2 -17  -9    0.75    0.31
   0   0 -10    4.48    0.24
   0   0  10    4.53    0.31
   0   0 -10    5.17    0.34
  -1   0  10   23.97    0.74
  -1   0 -10   24.23    0.78
  -1   0 -10   24.78    0.58
   1   0 -10   25.45    0.66
   1   0  10   25.23    0.74
   1   0 -10   24.87    0.71
   2   0 -10   87.33    1.62
   2   0  10   93.94    1.78
   2   0 -10   88.80    1.70
  -2   0  10   91.39    1.79
   2   0  10   90.69    1.50
  -2   0 -10   89.51    1.88
   3   0 -10  200.10    3.33
   3   0 -10  193.44    3.10
   3   0  10  202.44    3.37
  -3   0 -10  201.28    3.54
  -3   0  10  197.84    3.38
   4   0  10    3.54    0.35
   4   0 -10    3.85    0.31
  -4   0 -10    3.12    0.38
  -4   0  10    2.69    0.33
   5   0  10   22.17    0.79
   5   0 -10   22.48    0.78
  -5   0 -10   21.71    0.88
  -5   0  10   21.81    0.80
   6   0  10    1.87    0.30
   6   0 -10    1.98    0.29
  -6   0  10    1.95    0.33
  -6   0 -10    1.50    0.32
   7   0  10    1.71    0.32
  -7   0  10    1.58    0.33
  -7   0 -10    1.08    0.30
   7   0 -10    1.16    0.24
   8   0  10    4.60    0.49
   8   0 -10    4.81    0.48
  -8   0 -10    4.57    0.55
  -8   0  10    4.65    0.50
  -9   0 -10    9.05    0.70
   9   0  10    8.66    0.62
  -9   0  10    9.14    0.64
   9   0 -10   10.16    0.63
 -10   0 -10   -0.23    0.24
 -10   0  10   -0.37    0.20
  10   0  10   -0.14    0.17
  10   0 -10   -0.07    0.17
  11   0 -10    3.60    0.49
 -11   0  10    2.64    0.47
  11   0  10    2.55    0.47
   0  -1 -10   -0.05    0.06
   0  -1  10    0.12    0.10
   0  -1 -10    0.10    0.13
   0   1  10   -0.07    0.08
   0   1 -10    0.03    0.06
   0   1 -10   -0.05    0.11
   1   1 -10    5.84    0.30
  -1   1  10    6.30    0.37
  -1  -1 -10    5.97    0.37
   1  -1  10    6.15    0.34
   1   1 -10    5.93    0.34
  -1  -1 -10    5.27    0.23
  -1   1 -10    5.76    0.26
   1  -1 -10    6.09    0.30
  -1  -1  10    5.57    0.34
   1   1  10    5.53    0.34
   1  -1 -10    5.35    0.33
  -1   1 -10    5.62    0.38
   2  -1  10    1.65    0.22
   2   1 -10    1.51    0.19
   2   1 -10    1.71    0.20
  -2   1  10    1.59    0.24
  -2  -1 -10    1.49    0.24
   2  -1  10    1.75    0.17
   2  -1 -10    1.59    0.20
  -2  -1  10    1.39    0.22
   2   1  10    1.68    0.12
   2  -1 -10    1.51    0.19
  -2   1 -10    1.48    0.26
   2   1  10    1.52    0.22
   3  -1  10    1.36    0.21
   3   1 -10    1.32    0.17
  -3  -1 -10    1.05    0.23
  -3   1  10    1.43    0.24
   3  -1  10    1.50    0.15
   3   1 -10    1.60    0.22
   3  -1 -10    1.45    0.20
  -3   1 -10    1.04    0.26
   3  -1 -10    1.43    0.16
  -3  -1  10    1.40    0.24
   3   1  10    1.42    0.23
  -4   1  10    3.23    0.36
   4   1 -10    4.56    0.33
   4  -1  10    3.57    0.35
  -4  -1 -10    2.99    0.37
   4   1  10    4.00    0.33
  -4   1 -10    3.67    0.41
  -4  -1  10    3.14    0.34
   4  -1 -10    3.16    0.32
   5   1 -10   41.58    1.13
  -5   1  10   42.47    1.18
   5  -1  10   41.34    1.13
  -5  -1 -10   41.25    1.25
  -5   1 -10   42.13    1.27
  -5  -1  10   41.99    1.14
   5   1  10   41.24    1.15
   5  -1 -10   41.37    1.12
  -6  -1 -10    8.56    0.59
   6   1 -10    9.09    0.52
  -6   1  10    8.74    0.54
   6  -1  10    8.38    0.50
   6  -1 -10    8.75    0.51
  -6   1 -10    9.33    0.63
   6   1  10    8.66    0.53
  -6  -1  10    9.71    0.57
  -7  -1 -10    3.38    0.45
   7  -1  10    3.42    0.41
   7   1 -10    3.96    0.42
  -7   1  10    3.25    0.42
  -7   1 -10    3.71    0.48
   7  -1 -10    3.33    0.38
   7   1  10    3.63    0.42
  -7  -1  10    3.75    0.43
   8  -1  10    7.73    0.54
  -8  -1 -10    8.53    0.65
  -8   1  10    9.08    0.62
   8   1 -10    7.60    0.52
   8  -1 -10    8.25    0.53
   8   1  10    7.09    0.54
  -8  -1  10    7.18    0.54
  -8   1 -10    8.07    0.64
   9  -1  10   -0.25    0.17
   9   1 -10   -0.28    0.12
  -9   1  10   -0.15    0.17
  -9  -1 -10   -0.21    0.23
   9   1  10   -0.06    0.18
  -9   1 -10    0.53    0.29
  -9  -1  10    0.19    0.22
   9  -1 -10    0.02    0.14
  10   1 -10    0.72    0.25
 -10  -1 -10    0.36    0.30
  10  -1  10    0.38    0.26
 -10   1  10    0.16    0.24
 -10   1 -10    0.21    0.31
  10  -1 -10    0.01    0.18
 -10  -1  10    0.08    0.22
  10   1  10    0.16    0.22
  11  -1  10    1.06    0.34
 -11   1  10    0.36    0.31
  11   1 -10    0.43    0.22
  11  -1 -10    0.60    0.29
  11   1  10    0.00    0.24
 -11  -1  10    0.84    0.36
   0   2  10   36.06    0.97
   0  -2 -10   35.66    0.77
   0   2 -10   36.45    0.84
   0   2 -10   34.30    0.93
   0  -2  10   36.02    0.87
   0  -2 -10   35.90    0.93
   1  -2  10    0.08    0.08
  -1   2  10    0.20    0.13
   1   2 -10    0.27    0.13
   1  -2  10    0.25    0.09
  -1  -2 -10    0.46    0.14
   1   2 -10    0.16    0.09
  -1  -2 -10    0.07    0.06
   1  -2 -10    0.04    0.11
  -1  -2  10   -0.03    0.09
   1  -2 -10    0.12    0.08
  -1   2 -10    0.21    0.15
   1   2  10    0.05    0.11
   2   2 -10   61.81    1.30
   2  -2  10   58.33    1.15
  -2  -2 -10   59.94    1.40
   2  -2  10   60.88    1.27
  -2   2  10   60.91    1.39
   2   2 -10   59.89    1.24
   2   2  10   60.77    1.37
   2  -2 -10   58.03    1.19
  -2   2 -10   60.89    1.43
   2  -2 -10   59.85    1.25
  -2  -2  10   61.20    1.30
   3  -2  10    4.01    0.23
   3   2 -10    3.97    0.29
  -3   2  10    4.42    0.41
   3  -2  10    3.90    0.29
   3   2 -10    4.20    0.27
  -3  -2 -10    3.55    0.37
  -3  -2  10    5.06    0.34
   3  -2 -10    3.99    0.29
  -3   2 -10    4.07    0.42
   3   2  10    3.44    0.34
   4  -2  10  104.72    2.01
  -4  -2 -10  104.88    2.20
  -4   2  10  102.01    2.11
   4   2 -10  105.13    2.06
  -4  -2  10  103.54    2.03
   4   2  10  106.56    2.11
  -4   2 -10  103.77    2.21
   4  -2 -10  104.95    2.03
  -5   2  10    0.47    0.22
   5   2 -10    0.52    0.17
  -5  -2 -10    0.43    0.22
   5  -2  10    0.52    0.18
   5  -2 -10    0.61    0.18
  -5   2 -10    0.44    0.24
  -5  -2  10    0.58    0.21
   5   2  10    0.28    0.16
  -6  -2 -10   79.22    1.92
   6   2 -10   77.92    1.77
  -6   2  10   75.67    1.81
   6  -2  10   77.35    1.75
  -6  -2  10   75.18    1.74
   6  -2 -10   78.94    1.77
  -6   2 -10   77.43    1.91
   6   2  10   78.49    1.83
  -7   2  10    2.99    0.41
  -7  -2 -10    2.45    0.39
   7  -2  10    3.52    0.41
   7   2 -10    2.89    0.36
  -7  -2  10    3.33    0.41
   7  -2 -10    2.96    0.37
   7   2  10    3.07    0.40
  -7   2 -10    2.70    0.43
   8   2 -10   19.00    0.82
  -8   2  10   16.70    0.83
   8  -2  10   18.56    0.84
  -8  -2 -10   18.03    0.90
   8   2  10   16.65    0.82
  -8   2 -10   18.43    0.90
  -8  -2  10   18.34    0.84
   8  -2 -10   19.25    0.83
   9   2 -10    0.34    0.18
  -9  -2 -10   -0.21    0.19
  -9   2  10   -0.13    0.21
   9  -2  10   -0.01    0.17
   9  -2 -10   -0.03    0.14
  -9  -2  10    0.04    0.22
   9   2  10    0.08    0.17
  -9   2 -10   -0.15    0.25
 -10   2  10    7.75    0.72
  10   2 -10    7.14    0.58
  10  -2  10    6.95    0.67
 -10  -2 -10    6.29    0.71
  10  -2 -10    6.95    0.56
  10   2  10    6.26    0.65
 -10   2 -10    6.18    0.68
 -10  -2  10    7.32    0.68
  11  -2  10   -0.11    0.25
  11   2 -10   -0.13    0.17
 -11   2  10    0.05    0.28
 -11  -2 -10   -0.27    0.29
 -11  -2  10    0.21    0.28
  11   2  10   -0.21    0.21
  11  -2 -10   -0.23    0.16
   0   3 -10   -0.05    0.11
   0  -3 -10    0.22    0.12
   0  -3  10   -0.11    0.07
   0   3  10   -0.04    0.09
   0   3 -10    0.17    0.09
   0  -3 -10    0.04    0.07
   1   3 -10   27.86    0.80
  -1   3  10   29.01    0.88
  -1  -3 -10   28.36    0.84
   1   3 -10   28.60    0.78
  -1  -3 -10   28.16    0.60
   1  -3  10   28.27    0.73
   1  -3  10   29.29    0.74
   1  -3 -10   29.19    0.77
  -1  -3  10   29.67    0.76
   1  -3 -10   27.85    0.71
   1   3  10   29.58    0.87
  -1   3 -10   28.96    0.87
   2  -3  10   52.08    1.08
   2   3 -10   52.76    1.20
   2  -3  10   53.30    1.14
   2   3 -10   52.23    1.16
  -2   3  10   53.18    1.31
  -2  -3 -10   54.20    1.30
   2  -3 -10   53.35    1.11
   2   3  10   52.95    1.28
   2  -3 -10   54.68    1.16
  -2   3 -10   52.45    1.31
  -2  -3  10   54.51    1.18
   3   3 -10    0.46    0.14
   3  -3  10    0.80    0.13
   3   3 -10    0.75    0.15
   3  -3  10    0.61    0.15
  -3  -3 -10    0.38    0.17
  -3   3  10    0.79    0.21
   3  -3 -10    0.39    0.13
   3   3  10    0.67    0.18
  -3   3 -10    1.29    0.27
  -3  -3  10    0.50    0.17
   4   3 -10    0.34    0.12
   4  -3  10    0.29    0.13
  -4  -3 -10    0.46    0.18
  -4   3  10    0.42    0.20
   4   3 -10    0.62    0.17
   4  -3  10    0.47    0.12
   4  -3 -10    0.12    0.11
   4   3  10    0.46    0.17
  -4   3 -10    0.41    0.23
  -4  -3  10    0.39    0.17
   5  -3  10   73.65    1.60
   5   3 -10   71.86    1.64
  -5   3  10   72.89    1.73
  -5  -3 -10   71.46    1.76
   5   3  10   73.72    1.72
   5  -3 -10   71.61    1.62
  -5   3 -10   72.12    1.77
  -5  -3  10   75.42    1.63
   6   3 -10    0.14    0.14
  -6  -3 -10    0.02    0.17
   6  -3  10    0.24    0.16
  -6   3  10    0.07    0.18
  -6   3 -10   -0.12    0.20
  -6  -3  10   -0.08    0.16
   6  -3 -10    0.17    0.14
   6   3  10    0.01    0.15
  -7  -3 -10   -0.08    0.17
   7   3 -10    0.37    0.18
  -7   3  10   -0.14    0.17
   7  -3  10   -0.01    0.14
  -7   3 -10    0.00    0.20
  -7  -3  10    0.17    0.19
   7  -3 -10   -0.04    0.12
   7   3  10    0.08    0.16
  -8   3  10    2.88    0.42
   8  -3  10    2.82    0.39
  -8  -3 -10    3.22    0.46
   8   3 -10    3.51    0.42
   8  -3 -10    4.09    0.45
  -8  -3  10    3.11    0.41
   8   3  10    3.43    0.44
  -8   3 -10    3.54    0.48
   9  -3  10    6.31    0.60
   9   3 -10    5.93    0.49
  -9  -3 -10    5.78    0.63
  -9   3  10    5.82    0.61
  -9  -3  10    6.49    0.53
   9  -3 -10    5.87    0.49
  -9   3 -10    7.00    0.67
   9   3  10    6.48    0.64
  10   3 -10    0.38    0.23
 -10   3  10    0.77    0.33
  10  -3  10    0.89    0.30
 -10  -3 -10    0.33    0.29
  10  -3 -10    0.58    0.25
  10   3  10    0.57    0.28
 -10  -3  10    0.52    0.30
 -10   3 -10    0.67    0.33
 -11   3  10    3.26    0.54
  11  -3  10    2.97    0.50
 -11  -3 -10    4.24    0.63
  11   3 -10    3.36    0.48
  11   3  10    3.98    0.56
  11  -3 -10    2.99    0.47
 -11  -3  10    3.31    0.51
   0   4 -10   21.54    0.73
   0  -4 -10   20.93    0.67
   0  -4 -10   21.85    0.56
   0   4  10   21.05    0.74
   0  -4  10   20.92    0.59
   0  -4  10   21.89    0.66
   1  -4  10   20.12    0.58
  -1   4  10   19.53    0.72
  -1  -4 -10   20.75    0.69
   1   4 -10   22.89    0.71
   1  -4  10   19.90    0.61
  -1  -4 -10   19.41    0.48
   1   4 -10   20.61    0.65
   1  -4 -10   20.38    0.59
   1   4  10   20.63    0.72
  -1  -4  10   19.94    0.59
  -1   4 -10   19.70    0.72
   1  -4 -10   20.61    0.63
   2   4 -10   24.28    0.73
   2   4 -10   23.76    0.74
  -2   4  10   22.03    0.80
  -2  -4 -10   23.66    0.79
   2  -4  10   24.03    0.67
   2  -4  10   23.78    0.66
  -2   4 -10   24.47    0.83
   2   4  10   23.25    0.79
  -2  -4  10   25.45    0.70
   2  -4 -10   24.09    0.69
   2  -4 -10   23.96    0.65
   3   4 -10   17.68    0.65
  -3  -4 -10   16.79    0.68
   3  -4  10   17.26    0.57
   3  -4  10   17.46    0.55
   3   4 -10   16.85    0.59
  -3   4  10   16.47    0.70
   3  -4 -10   16.47    0.60
  -3   4 -10   16.49    0.72
  -3  -4  10   18.62    0.62
   3   4  10   17.48    0.69
   4  -4  10    7.04    0.39
   4   4 -10    7.19    0.37
  -4   4  10    7.43    0.48
   4   4 -10    6.73    0.42
  -4  -4 -10    6.47    0.45
   4  -4  10    7.44    0.35
  -4  -4  10    7.40    0.43
  -4   4 -10    7.30    0.53
   4  -4 -10    6.70    0.40
   4   4  10    6.89    0.44
   5   4 -10    8.02    0.48
   5  -4  10    7.36    0.43
  -5  -4 -10    8.35    0.54
  -5   4  10    7.70    0.51
  -5   4 -10    7.72    0.56
   5   4  10    8.19    0.51
  -5  -4  10    7.69    0.46
   5  -4 -10    7.48    0.45
  -6  -4 -10    0.17    0.17
   6   4 -10    0.18    0.14
  -6   4  10    0.14    0.17
   6  -4  10    0.26    0.17
   6   4  10    0.17    0.14
   6  -4 -10    0.19    0.15
  -6   4 -10    0.02    0.22
  -6  -4  10   -0.08    0.15
  -7   4  10    0.32    0.22
   7  -4  10    0.43    0.21
   7   4 -10    0.06    0.13
  -7  -4 -10    0.00    0.17
   7  -4 -10    0.57    0.21
   7   4  10    0.05    0.16
  -7  -4  10    0.11    0.20
  -7   4 -10    0.31    0.24
  -8   4  10    3.83    0.49
   8   4 -10    3.37    0.41
  -8  -4 -10    3.30    0.48
   8  -4  10    3.41    0.43
  -8  -4  10    3.22    0.42
  -8   4 -10    3.78    0.49
   8  -4 -10    3.06    0.40
   8   4  10    3.72    0.45
   9  -4  10    0.63    0.25
  -9   4  10    1.19    0.32
   9   4 -10    1.10    0.28
  -9  -4 -10    1.06    0.35
   9   4  10    1.58    0.36
  -9   4 -10    1.19    0.33
  -9  -4  10    1.11    0.30
   9  -4 -10    0.99    0.27
  10   4 -10   15.40    0.81
  10  -4  10   14.42    0.83
 -10   4  10   12.27    0.83
 -10  -4 -10   12.97    0.86
  10  -4 -10   13.21    0.77
 -10  -4  10   13.51    0.80
 -10   4 -10   13.39    0.83
  10   4  10   12.17    0.80
  11   4 -10    0.04    0.19
  11  -4  10    0.50    0.30
 -11  -4 -10    0.10    0.33
 -11  -4  10   -0.10    0.23
   0  -5 -10    0.04    0.10
   0   5  10    0.07    0.13
   0   5 -10    0.08    0.14
   0  -5  10    0.02    0.08
   0  -5  10   -0.06    0.07
   0  -5 -10    0.02    0.07
   1  -5  10   30.57    0.82
   1  -5  10   30.34    0.72
  -1  -5 -10   30.25    0.88
   1   5 -10   30.23    0.88
   1   5  10   29.02    0.91
   1  -5 -10   30.23    0.80
  -1  -5  10   30.84    0.74
  -1   5 -10   29.41    0.92
  -1  -5  10   28.13    0.84
   1  -5 -10   31.41    0.77
   2   5 -10    6.37    0.38
  -2   5  10    6.84    0.45
   2  -5  10    6.59    0.32
   2  -5  10    7.67    0.37
  -2  -5 -10    6.80    0.42
   2   5 -10    7.26    0.40
   2  -5 -10    6.76    0.36
   2  -5 -10    6.89    0.33
   2   5  10    6.24    0.41
  -2  -5  10    5.96    0.33
  -2   5 -10    6.62    0.45
   3   5 -10    6.56    0.38
   3  -5  10    6.41    0.34
  -3  -5 -10    5.89    0.42
  -3   5  10    6.52    0.45
   3  -5  10    6.38    0.34
   3   5 -10    6.79    0.41
  -3   5 -10    5.34    0.45
   3   5  10    6.23    0.41
  -3  -5  10    5.88    0.35
   3  -5 -10    6.06    0.36
   4   5 -10    0.03    0.11
  -4  -5 -10    0.28    0.16
   4   5 -10    0.18    0.12
   4  -5  10    0.41    0.13
  -4   5  10    0.23    0.18
   4  -5  10    0.35    0.14
  -4   5 -10    0.26    0.20
   4   5  10   -0.05    0.10
  -4  -5  10    0.12    0.15
   4  -5 -10    0.23    0.14
  -5  -5 -10   -0.11    0.12
   5   5 -10    0.00    0.10
   5  -5  10    0.11    0.10
   5  -5  10   -0.03    0.12
  -5   5  10   -0.19    0.12
   5   5  10   -0.02    0.12
   5  -5 -10    0.08    0.12
  -5  -5  10    0.02    0.16
  -5   5 -10   -0.03    0.19
   6  -5  10    1.68    0.27
   6   5 -10    1.36    0.25
  -6  -5 -10    1.40    0.29
  -6   5  10    1.48    0.30
  -6   5 -10    0.96    0.27
  -6  -5  10    1.12    0.25
   6  -5 -10    1.36    0.25
   6   5  10    1.07    0.26
   7   5 -10    3.26    0.40
   7  -5  10    3.84    0.42
  -7  -5 -10    2.55    0.40
  -7   5  10    3.01    0.41
  -7  -5  10    3.47    0.41
   7  -5 -10    3.23    0.40
  -7   5 -10    3.05    0.44
   7   5  10    3.01    0.41
   8  -5  10    2.42    0.36
  -8   5  10    2.02    0.38
  -8  -5 -10    1.93    0.37
   8   5 -10    1.98    0.33
  -8  -5  10    1.98    0.34
   8  -5 -10    2.12    0.35
   8   5  10    2.07    0.37
  -8   5 -10    1.47    0.35
   9   5 -10    0.08    0.17
  -9   5  10    0.04    0.22
  -9  -5 -10   -0.07    0.22
   9  -5  10    0.10    0.21
  -9  -5  10    0.08    0.20
   9  -5 -10    0.52    0.22
  -9   5 -10   -0.11    0.23
   9   5  10   -0.22    0.16
  10   5 -10   -0.17    0.15
  10  -5  10   -0.19    0.22
 -10  -5 -10   -0.11    0.24
 -10   5  10    0.08    0.23
  10   5  10   -0.15    0.21
 -10  -5  10   -0.16    0.22
  10  -5 -10    0.01    0.17
  11   5 -10    0.28    0.22
 -11  -5 -10    0.03    0.30
 -11  -5  10    0.15    0.30
   0  -6  10   93.46    1.87
   0  -6 -10   96.17    1.68
   0  -6 -10   94.77    1.87
   0   6  10   94.60    1.97
   0   6 -10   92.35    1.94
  -1  -6 -10    5.62    0.38
  -1   6  10    5.59    0.41
   1  -6  10    5.35    0.33
   1   6 -10    5.86    0.39
  -1  -6  10    5.76    0.37
   1  -6 -10    5.81    0.31
   1  -6 -10    5.83    0.35
  -1   6 -10    6.33    0.43
   1   6  10    5.74    0.41
   2  -6  10   36.65    0.96
   2   6 -10   36.04    1.00
  -2   6  10   36.67    1.09
  -2  -6 -10   36.95    1.06
   2   6 -10   37.24    1.02
   2   6  10   35.53    1.06
  -2   6 -10   34.76    1.06
   2  -6 -10   34.91    0.91
   2  -6 -10   38.62    0.89
   3   6 -10   34.56    0.98
   3   6 -10   35.02    1.02
  -3  -6 -10   36.23    1.09
   3  -6  10   36.63    0.95
  -3   6  10   34.68    1.09
  -3   6 -10   34.13    1.08
   3  -6 -10   35.57    0.96
   3   6  10   36.14    1.07
   4   6 -10   33.15    1.02
  -4   6  10   33.31    1.08
   4  -6  10   33.40    0.91
   4   6 -10   32.87    0.94
  -4  -6 -10   33.17    1.08
  -4   6 -10   33.36    1.09
   4  -6 -10   33.19    0.97
   4   6  10   34.45    1.07
   5   6 -10   -0.09    0.10
   5  -6  10    0.22    0.13
  -5  -6 -10    0.07    0.13
  -5   6  10   -0.06    0.16
  -5   6 -10   -0.09    0.16
   5  -6 -10    0.01    0.11
   5   6  10    0.05    0.13
  -6   6  10   12.73    0.69
   6   6 -10   12.53    0.64
  -6  -6 -10   14.39    0.74
   6  -6 -10   12.74    0.64
   6   6  10   12.70    0.67
  -6   6 -10   12.90    0.69
  -7  -6 -10   14.99    0.81
  -7   6  10   16.15    0.81
   7   6 -10   16.42    0.76
   7   6  10   16.27    0.80
   7  -6 -10   16.24    0.76
  -7   6 -10   15.61    0.79
  -8   6  10    0.70    0.26
   8   6 -10    0.93    0.25
  -8  -6 -10    1.04    0.31
   8  -6 -10    0.97    0.26
   8   6  10    0.91    0.26
  -8   6 -10    0.89    0.29
  -9  -6 -10    3.02    0.49
  -9   6  10    4.49    0.55
   9   6 -10    4.88    0.53
   9  -6 -10    4.77    0.54
   9   6  10    3.99    0.51
  -9   6 -10    4.42    0.54
 -10   6  10   21.19    1.09
  10   6 -10   22.03    1.01
 -10  -6 -10   23.41    1.14
  10   6  10   20.86    1.06
  10  -6 -10   22.69    1.04
   0   7 -10    0.07    0.13
   0  -7  10   -0.10    0.07
   0  -7 -10   -0.07    0.08
   0   7  10   -0.08    0.10
   0  -7 -10   -0.12    0.10
  -1  -7 -10   10.67    0.52
  -1   7  10   10.90    0.57
   1  -7  10   10.21    0.49
   1   7 -10   10.65    0.54
   1  -7 -10   10.19    0.43
   1   7  10   10.47    0.54
  -1  -7  10   10.70    0.52
   1  -7 -10   10.27    0.46
  -1   7 -10   10.53    0.56
  -2   7  10    3.72    0.40
   2   7 -10    3.46    0.35
   2  -7  10    2.91    0.31
  -2  -7 -10    3.77    0.39
  -2  -7  10    3.01    0.33
   2   7  10    3.60    0.37
  -2   7 -10    3.85    0.41
   2  -7 -10    3.63    0.28
   3   7 -10    8.53    0.49
  -3  -7 -10    8.79    0.53
   3  -7  10    8.88    0.45
  -3   7  10    8.79    0.54
   3   7 -10    8.50    0.48
   3   7  10    8.81    0.52
   3  -7 -10    8.42    0.45
  -3   7 -10    8.39    0.55
   4   7 -10   12.01    0.55
  -4   7  10   11.71    0.63
   4  -7  10   11.55    0.53
   4   7 -10   11.39    0.58
  -4  -7 -10   11.48    0.62
  -4   7 -10   11.18    0.62
   4   7  10   12.59    0.63
   4  -7 -10   10.88    0.54
   5   7 -10   21.89    0.77
  -5   7  10   21.29    0.90
  -5  -7 -10   20.48    0.89
   5  -7  10   21.04    0.74
   5   7 -10   20.81    0.83
   5  -7 -10   22.30    0.82
  -5   7 -10   21.23    0.89
   5   7  10   22.41    0.88
  -6   7  10    0.82    0.26
   6   7 -10    0.54    0.19
  -6  -7 -10    0.75    0.24
   6  -7 -10    0.55    0.20
   6   7  10    0.40    0.20
  -6   7 -10    0.53    0.23
  -7   7  10    0.24    0.24
   7   7 -10    0.33    0.17
  -7  -7 -10    0.63    0.25
   7   7  10    0.58    0.22
  -7   7 -10    0.03    0.20
   7  -7 -10    0.50    0.21
  -8   7  10    4.49    0.54
   8   7 -10    4.80    0.50
  -8  -7 -10    4.31    0.55
   8  -7 -10    4.44    0.48
   8   7  10    5.48    0.57
  -8   7 -10    5.71    0.57
  -9  -7 -10    6.49    0.68
   9   7 -10    7.61    0.57
  -9   7  10    8.16    0.65
   9  -7 -10    7.21    0.57
   9   7  10    6.29    0.65
  -9   7 -10    6.84    0.65
  10   7 -10    4.21    0.51
 -10   7  10    2.05    0.44
 -10  -7 -10    3.71    0.56
  10  -7 -10    3.74    0.50
  10   7  10    2.37    0.44
   0  -8  10    3.41    0.35
   0   8  10    3.06    0.36
   0   8 -10    2.97    0.37
   0  -8 -10    2.51    0.30
   1   8 -10    6.75    0.46
   1  -8  10    7.16    0.43
  -1  -8 -10    6.77    0.44
  -1   8  10    8.03    0.50
   1   8  10    7.16    0.47
  -1  -8  10    7.93    0.46
   1  -8 -10    8.11    0.43
  -1   8 -10    7.39    0.50
   1  -8 -10    7.08    0.38
   2   8 -10    2.03    0.30
  -2   8  10    1.29    0.26
  -2  -8 -10    1.48    0.27
   2  -8  10    1.39    0.23
   2  -8 -10    1.47    0.22
  -2  -8  10    1.53    0.26
  -2   8 -10    1.19    0.25
   2   8  10    1.35    0.26
  -3   8  10   11.39    0.62
  -3  -8 -10   10.21    0.58
   3  -8  10   10.97    0.54
   3   8 -10   11.64    0.58
  -3  -8  10   12.03    0.60
  -3   8 -10   11.03    0.61
   3  -8 -10   11.95    0.54
   3   8  10   11.01    0.59
  -4   8  10   27.96    1.01
   4  -8  10   27.33    0.88
   4   8 -10   28.26    0.96
   4   8 -10   27.45    0.92
  -4  -8 -10   27.64    1.02
   4   8  10   24.48    0.92
   4  -8 -10   25.30    0.87
  -4   8 -10   26.27    0.98
   5   8 -10    8.52    0.54
  -5   8  10    7.54    0.54
   5   8 -10    7.97    0.48
  -5  -8 -10    7.47    0.55
   5  -8  10    7.25    0.45
   5   8  10    7.75    0.53
  -5   8 -10    8.00    0.56
   5  -8 -10    8.15    0.51
  -6   8  10    5.45    0.55
   6   8 -10    6.06    0.47
   6  -8  10    6.09    0.43
  -6  -8 -10    6.35    0.53
  -6   8 -10    5.46    0.54
   6   8  10    6.00    0.57
   6  -8 -10    5.24    0.43
   7   8 -10    3.70    0.44
  -7   8  10    4.07    0.49
  -7  -8 -10    2.74    0.44
   7  -8 -10    3.73    0.44
  -7   8 -10    3.64    0.46
   7   8  10    3.30    0.44
   8   8 -10    1.77    0.33
  -8  -8 -10    1.88    0.39
  -8   8  10    1.62    0.38
   8  -8 -10    1.55    0.32
  -8   8 -10    2.11    0.39
   8   8  10    1.37    0.32
  -9   8  10   -0.11    0.25
   9   8 -10    0.07    0.18
  -9  -8 -10   -0.21    0.30
   9  -8 -10    0.14    0.20
   9   8  10    0.34    0.23
  -9   8 -10    0.09    0.25
 -10  -8 -10    1.50    0.43
  10   8 -10    1.00    0.32
   0   9  10   -0.05    0.12
   0   9 -10   -0.04    0.14
   0  -9  10   -0.04    0.10
   0  -9 -10   -0.03    0.13
  -1   9  10   80.50    1.86
  -1  -9 -10   81.06    1.82
   1   9 -10   80.46    1.87
   1  -9  10   80.48    1.80
  -1   9 -10   78.93    1.89
   1  -9 -10   83.18    1.74
   1  -9 -10   81.34    1.64
   1   9  10   81.66    1.85
  -1  -9  10   80.06    1.82
   2  -9  10    3.55    0.37
   2   9 -10    4.31    0.43
  -2   9  10    3.62    0.41
  -2  -9 -10    4.23    0.43
  -2   9 -10    4.21    0.45
   2   9  10    4.66    0.46
  -2  -9  10    4.24    0.42
   2  -9 -10    3.41    0.35
   3   9 -10   -0.17    0.12
  -3   9  10    0.05    0.15
  -3  -9 -10    0.02    0.13
   3  -9  10   -0.06    0.10
   3  -9 -10   -0.09    0.10
   3   9  10   -0.05    0.12
  -3  -9  10   -0.03    0.11
  -3   9 -10    0.14    0.19
  -4   9  10    0.39    0.20
  -4  -9 -10    0.40    0.19
   4  -9  10    0.61    0.19
   4   9 -10    0.60    0.21
   4  -9 -10    0.28    0.17
  -4  -9  10    0.53    0.20
  -4   9 -10    0.22    0.20
   4   9  10    0.14    0.15
  -5  -9 -10   17.33    0.84
   5  -9  10   17.47    0.73
  -5   9  10   17.40    0.82
   5   9 -10   16.66    0.74
   5   9  10   16.97    0.79
  -5  -9  10   17.90    0.81
   5  -9 -10   16.80    0.74
  -5   9 -10   17.10    0.81
  -6   9  10    1.49    0.34
  -6  -9 -10    1.24    0.30
   6  -9  10    1.26    0.26
   6   9 -10    1.41    0.28
   6  -9 -10    1.24    0.27
  -6   9 -10    1.42    0.30
   6   9  10    1.24    0.28
  -7  -9 -10    0.27    0.23
  -7   9  10    0.06    0.21
   7   9 -10    0.00    0.15
   7   9  10    0.24    0.21
   7  -9 -10   -0.02    0.15
  -7   9 -10    0.09    0.22
  -8  -9 -10    0.78    0.29
  -8   9  10    1.04    0.30
   8   9 -10    1.05    0.27
  -8   9 -10    1.42    0.34
   8   9  10    0.98    0.30
   8  -9 -10    0.78    0.27
  -9   9  10    2.99    0.50
   9   9 -10    3.59    0.49
  -9  -9 -10    3.49    0.56
   9   9  10    3.55    0.49
   9  -9 -10    2.64    0.44
   0 -10 -10   20.73    0.79
   0 -10  10   19.85    0.80
   0  10 -10   20.07    0.85
   0  10  10   22.83    0.86
  -1  10  10    0.91    0.24
  -1 -10 -10    0.29    0.16
   1  10 -10    0.63    0.21
   1 -10  10    0.74    0.20
   1 -10 -10    0.57    0.17
   1  10  10    0.68    0.21
  -1 -10  10    0.58    0.19
   1 -10 -10    0.71    0.20
  -1  10 -10    0.51    0.21
   2  10 -10   33.19    1.10
   2 -10  10   31.22    1.02
  -2  10  10   34.04    1.11
  -2 -10 -10   32.38    1.09
  -2  10 -10   32.70    1.12
  -2 -10  10   33.17    1.08
   2  10  10   31.06    1.05
   2 -10 -10   32.67    0.95
  -3  10  10    3.68    0.44
   3 -10  10    3.36    0.38
   3  10 -10    3.91    0.43
  -3 -10 -10    4.30    0.47
  -3  10 -10    3.83    0.46
   3 -10 -10    3.59    0.37
  -3 -10  10    3.85    0.42
   3  10  10    3.94    0.43
   4 -10  10   41.31    1.23
  -4 -10 -10   41.45    1.34
   4  10 -10   42.70    1.28
  -4  10  10   44.65    1.36
   4  10  10   41.27    1.27
   4 -10 -10   41.46    1.21
  -4  10 -10   41.01    1.32
  -4 -10  10   40.94    1.29
   5 -10  10    0.14    0.15
   5  10 -10    0.03    0.15
  -5  10  10    0.32    0.22
  -5 -10 -10   -0.01    0.19
   5  10  10    0.12    0.17
  -5 -10  10    0.12    0.15
   5 -10 -10    0.08    0.13
  -5  10 -10    0.31    0.22
  -6  10  10   14.32    0.78
  -6 -10 -10   15.71    0.86
   6 -10  10   14.41    0.71
  -6 -10  10   14.41    0.76
  -6  10 -10   13.83    0.77
   6 -10 -10   13.55    0.72
   6  10  10   15.54    0.79
  -7 -10 -10    2.61    0.45
  -7  10  10    2.16    0.41
   7  10  10    1.85    0.36
  -7 -10  10    2.56    0.41
  -7  10 -10    1.90    0.37
   7 -10 -10    2.33    0.38
  -8  10  10    3.23    0.49
   8  10 -10    3.40    0.47
  -8 -10 -10    3.85    0.56
  -8  10 -10    4.00    0.53
   8  10  10    3.90    0.52
   8 -10 -10    3.66    0.49
  -9  10  10    3.28    0.54
  -9 -10 -10    2.57    0.47
   9  10 -10    2.51    0.42
   9  10  10    3.41    0.52
   0  11  10   -0.14    0.13
   0 -11 -10    0.04    0.14
   0  11 -10    0.04    0.17
   0 -11  10    0.03    0.14
  -1 -11 -10    1.70    0.30
  -1  11  10    1.49    0.29
   1 -11  10    1.85    0.30
   1  11 -10    1.68    0.32
   1 -11 -10    1.19    0.24
   1  11  10    1.41    0.28
  -1  11 -10    1.32    0.29
  -1 -11  10    1.99    0.32
  -2 -11 -10    0.51    0.19
  -2  11  10    0.98    0.25
   2  11 -10    0.70    0.24
   2 -11  10    0.41    0.18
  -2  11 -10    0.68    0.24
   2  11  10    0.44    0.19
  -2 -11  10    0.66    0.21
   2 -11 -10    0.78    0.20
   3  11 -10   -0.01    0.15
  -3 -11 -10   -0.05    0.14
  -3  11  10   -0.15    0.14
   3 -11  10   -0.05    0.11
  -3  11 -10   -0.09    0.16
   3  11  10    0.09    0.16
  -3 -11  10    0.06    0.14
   3 -11 -10   -0.20    0.11
  -4 -11 -10    2.98    0.42
   4 -11  10    3.01    0.39
  -4  11  10    3.25    0.45
   4  11 -10    3.65    0.44
  -4 -11  10    3.45    0.43
  -4  11 -10    2.97    0.42
   4 -11 -10    3.13    0.38
   4  11  10    3.13    0.40
   5  11 -10    3.66    0.44
   5 -11  10    2.81    0.37
  -5 -11 -10    3.17    0.45
  -5  11  10    2.87    0.43
  -5  11 -10    4.45    0.51
   5  11  10    3.79    0.46
  -5 -11  10    3.46    0.45
   5 -11 -10    2.58    0.35
   6 -11  10    0.09    0.15
  -6 -11 -10    0.22    0.21
  -6  11  10    0.24    0.21
   6  11  10   -0.05    0.18
  -6  11 -10    0.22    0.21
  -6 -11  10    0.09    0.18
   6 -11 -10    0.11    0.16
  -7  11  10    0.74    0.30
  -7 -11 -10    0.27    0.23
   7 -11 -10    0.72    0.26
  -7 -11  10    0.80    0.26
   7  11  10    0.97    0.31
  -7  11 -10    1.36    0.33
  -8  11  10    1.26    0.37
  -8 -11 -10    0.76    0.32
   8 -11 -10    1.26    0.31
  -8 -11  10    1.16    0.32
   8  11  10    0.64    0.29
  -8  11 -10    1.22    0.35
   0 -12 -10    0.67    0.22
   0  12 -10    0.92    0.27
   0 -12  10    0.54    0.20
   0  12  10    0.58    0.21
   1  12 -10    2.87    0.40
   1 -12  10    2.86    0.37
  -1  12  10    2.51    0.36
  -1 -12 -10    2.27    0.36
  -1  12 -10    2.58    0.39
   1  12  10    2.96    0.39
  -1 -12  10    2.69    0.38
   2  12 -10    3.51    0.45
  -2  12  10    4.30    0.46
   2 -12  10    4.26    0.47
  -2 -12 -10    3.45    0.44
   2 -12 -10    3.82    0.39
   2  12  10    4.11    0.44
  -2 -12  10    2.86    0.39
  -2  12 -10    3.62    0.47
   3 -12  10    3.28    0.40
  -3 -12 -10    3.05    0.44
   3  12 -10    2.18    0.36
  -3  12  10    3.31    0.42
   3 -12 -10    2.74    0.35
  -3 -12  10    2.47    0.38
  -3  12 -10    3.46    0.46
   3  12  10    3.37    0.41
  -4  12  10   18.27    0.86
   4 -12  10   15.51    0.76
   4  12 -10   16.36    0.82
  -4 -12 -10   15.09    0.82
   4  12  10   15.38    0.77
   4 -12 -10   16.36    0.75
  -4  12 -10   16.12    0.84
  -4 -12  10   17.37    0.84
   5 -12  10    0.04    0.17
  -5  12  10    0.33    0.22
  -5 -12 -10    0.18    0.20
   5  12 -10    0.10    0.18
  -5  12 -10   -0.01    0.20
   5 -12 -10   -0.14    0.16
   5  12  10   -0.04    0.18
  -5 -12  10   -0.02    0.18
   6 -12  10   14.29    0.76
  -6 -12 -10   13.11    0.82
  -6  12  10   15.81    0.86
  -6  12 -10   13.37    0.78
  -6 -12  10   13.63    0.78
   6  12  10   13.19    0.75
   6 -12 -10   13.56    0.75
  -7  12  10    0.97    0.33
  -7 -12 -10    0.88    0.33
   7 -12  10    0.77    0.27
   7 -12 -10    0.69    0.27
  -7  12 -10    0.86    0.30
  -7 -12  10    1.32    0.32
   7  12  10    0.69    0.27
  -8  12  10    3.58    0.53
  -8 -12  10    4.32    0.53
   8  12  10    3.93    0.54
   0  13  10   -0.07    0.15
   0 -13  10   -0.05    0.13
   0  13 -10    0.19    0.17
   0 -13 -10    0.11    0.17
  -1 -13 -10   23.37    0.96
  -1  13  10   22.79    0.92
   1 -13  10   22.10    0.93
   1  13 -10   22.89    1.00
  -1  13 -10   21.64    0.98
  -1 -13  10   22.37    0.95
   1  13  10   24.20    0.93
  -2  13  10    2.20    0.35
  -2 -13 -10    2.89    0.42
   2 -13  10    2.46    0.38
   2  13 -10    2.38    0.40
  -2  13 -10    3.18    0.46
   2  13  10    2.61    0.38
  -2 -13  10    2.28    0.36
   3  13 -10    0.58    0.26
   3 -13  10    0.26    0.19
  -3 -13 -10    0.48    0.24
  -3  13  10    0.41    0.21
   3  13  10    0.29    0.19
   3 -13 -10    0.40    0.20
  -3 -13  10    0.69    0.24
  -3  13 -10    0.33    0.23
  -4 -13 -10    0.19    0.22
   4  13 -10    0.13    0.19
   4 -13  10    0.27    0.19
  -4  13  10    0.18    0.21
  -4 -13  10    0.18    0.16
   4 -13 -10    0.30    0.20
  -4  13 -10    0.28    0.22
   4  13  10    0.42    0.21
  -5  13  10    6.65    0.64
  -5 -13 -10    4.85    0.59
   5 -13  10    5.39    0.56
   5  13 -10    5.49    0.57
   5 -13 -10    6.21    0.58
  -5  13 -10    5.26    0.59
   5  13  10    5.81    0.57
  -5 -13  10    5.48    0.58
  -6 -13 -10    0.13    0.22
   6  13 -10    0.10    0.21
   6 -13  10   -0.06    0.19
   6  13  10   -0.11    0.19
   6 -13 -10   -0.22    0.16
  -6  13 -10    0.33    0.25
  -6 -13  10    0.36    0.22
   7 -13  10    0.91    0.30
   7 -13 -10    1.70    0.37
  -7  13 -10    1.15    0.33
  -7 -13  10    0.64    0.28
   0  14 -10   19.18    0.96
   0 -14 -10   20.03    0.89
   0 -14  10   19.43    0.90
   1  14 -10    2.84    0.45
  -1 -14 -10    2.16    0.38
   1 -14  10    2.42    0.39
  -1  14 -10    2.37    0.41
  -1 -14  10    2.25    0.37
   2 -14  10   22.38    0.96
   2  14 -10   20.96    1.00
  -2 -14 -10   21.86    0.98
  -2  14 -10   21.35    1.00
  -2 -14  10   20.09    0.94
  -3 -14 -10    4.26    0.53
   3  14 -10    4.46    0.54
   3 -14  10    4.42    0.50
  -3  14 -10    4.26    0.54
   3 -14 -10    4.57    0.47
  -3 -14  10    4.70    0.54
   4  14 -10    2.44    0.43
  -4 -14 -10    2.81    0.48
   4 -14  10    2.12    0.37
  -4  14 -10    2.53    0.45
   4 -14 -10    2.50    0.38
  -4 -14  10    2.52    0.41
   5 -14  10    2.84    0.43
   5  14 -10    2.74    0.45
  -5 -14 -10    2.98    0.48
  -5  14 -10    3.03    0.47
  -5 -14  10    4.13    0.53
   5 -14 -10    3.90    0.47
  -6 -14 -10    0.28    0.25
   6 -14  10    0.33    0.24
   6  14 -10    0.15    0.24
  -6  14 -10    0.09    0.22
  -6 -14  10    0.06    0.21
   6 -14 -10    0.22    0.22
   7 -14  10   -0.12    0.20
   0 -15  10   -0.11    0.15
   0  15 -10   -0.26    0.15
   0 -15 -10   -0.32    0.16
  -1 -15 -10    3.62    0.49
   1 -15  10    3.96    0.49
   1  15 -10    3.98    0.53
  -1 -15  10    4.32    0.51
  -1  15 -10    3.91    0.53
  -2 -15 -10    4.23    0.54
   2 -15  10    3.35    0.46
   2  15 -10    3.83    0.52
  -2  15 -10    4.41    0.55
  -2 -15  10    3.52    0.48
   3  15 -10    0.95    0.32
  -3 -15 -10    1.41    0.36
   3 -15  10    0.99    0.29
  -3 -15  10    1.01    0.32
  -3  15 -10    0.88    0.30
  -4 -15 -10    0.24    0.25
   4 -15  10    0.67    0.26
   4  15 -10    0.62    0.27
  -4  15 -10    0.50    0.27
  -4 -15  10    0.47    0.23
   4 -15 -10    0.25    0.21
   5  15 -10    4.73    0.58
   5 -15  10    6.27    0.64
   5 -15 -10    5.20    0.56
  -5  15 -10    5.16    0.61
  -5 -15  10    6.44    0.65
   6  15 -10    0.47    0.28
   0  16 -10   10.81    0.76
   0 -16  10   10.63    0.73
   1  16 -10    0.35    0.25
   1 -16  10    0.14    0.19
  -1 -16 -10   -0.09    0.20
  -1 -16  10    0.27    0.22
  -1  16 -10   -0.12    0.22
   2 -16  10    6.37    0.65
   2  16 -10    5.89    0.65
  -2 -16 -10    6.22    0.64
  -2 -16  10    5.91    0.63
  -2  16 -10    6.35    0.67
  -3 -16 -10    0.15    0.25
   3 -16  10   -0.27    0.17
   3  16 -10   -0.08    0.21
  -3 -16  10    0.05    0.21
  -3  16 -10    0.10    0.20
   4 -16 -10    1.71    0.35
  -1 -17 -10    1.00    0.33
  -2 -17 -10    0.17    0.26
   0   0 -11    0.01    0.12
   0   0 -11   -0.02    0.06
   0   0  11    0.75    0.18
  -1   0  11   -0.06    0.12
   1   0  11    0.14    0.12
   1   0 -11   -0.01    0.08
   1   0 -11   -0.15    0.13
  -1   0 -11    0.03    0.07
  -1   0 -11   -0.23    0.14
   2   0  11    0.01    0.10
  -2   0 -11   -0.13    0.15
   2   0  11    0.00    0.06
   2   0 -11    0.02    0.08
   2   0 -11   -0.11    0.11
  -2   0  11    0.01    0.14
   3   0 -11   -0.11    0.08
  -3   0  11   -0.01    0.15
   3   0  11   -0.13    0.09
  -3   0 -11   -0.05    0.16
   3   0 -11   -0.10    0.09
   4   0 -11    0.29    0.14
  -4   0  11    0.04    0.17
   4   0  11    0.06    0.13
  -4   0 -11    0.30    0.20
   5   0  11   -0.22    0.11
  -5   0 -11   -0.03    0.20
  -5   0  11    0.02    0.18
   5   0 -11    0.14    0.14
   6   0  11   -0.08    0.12
  -6   0 -11   -0.25    0.17
  -6   0  11   -0.01    0.16
   6   0 -11    0.41    0.18
  -7   0  11    0.05    0.20
   7   0  11    0.04    0.16
   7   0 -11    0.04    0.14
  -7   0 -11   -0.40    0.19
  -8   0  11   -0.07    0.18
  -8   0 -11   -0.32    0.18
   8   0 -11    0.07    0.14
   8   0  11   -0.01    0.16
  -9   0  11   -0.21    0.22
   9   0 -11   -0.09    0.16
  -9   0 -11   -0.42    0.26
   9   0  11   -0.18    0.18
  10   0 -11    0.06    0.16
 -10   0 -11    0.01    0.31
 -10   0  11   -0.18    0.23
  10   0  11    0.05    0.21
  11   0  11   -0.30    0.24
 -11   0  11    0.21    0.26
  11   0 -11   -0.19    0.18
 -11   0 -11   -0.05    0.31
   0   1 -11    0.02    0.07
   0  -1  11   -0.03    0.10
   0   1 -11   -0.08    0.13
   0  -1 -11    0.11    0.13
   0  -1 -11    0.37    0.10
   0   1  11   -0.04    0.11
  -1   1  11  174.62    3.01
   1   1 -11  169.81    2.91
  -1  -1 -11  169.30    2.67
   1  -1  11  169.12    2.91
   1   1 -11  174.05    2.85
  -1  -1 -11  168.41    3.04
   1  -1 -11  172.12    2.81
  -1  -1  11  171.80    2.93
   1  -1 -11  166.92    2.89
   1   1  11  172.32    2.98
  -1   1 -11  168.97    3.04
  -1   1 -11  168.09    2.73
  -2   1  11   31.88    0.94
   2  -1  11   30.10    0.69
  -2  -1 -11   28.66    0.93
   2   1 -11   30.09    0.82
   2  -1  11   30.36    0.86
   2   1 -11   30.94    0.80
   2   1  11   31.05    0.90
   2  -1 -11   31.28    0.82
   2  -1 -11   29.91    0.78
  -2  -1  11   30.51    0.88
  -2   1 -11   29.89    0.96
  -3  -1 -11    1.32    0.26
   3   1 -11    1.25    0.20
   3  -1  11    1.41    0.22
  -3   1  11    2.04    0.29
   3   1 -11    1.63    0.19
   3   1  11    2.06    0.28
  -3  -1  11    1.62    0.27
   3  -1 -11    1.89    0.24
  -3   1 -11    1.31    0.27
  -4  -1 -11   42.60    1.25
  -4   1  11   39.14    1.15
   4   1 -11   41.53    1.11
   4  -1  11   42.90    1.12
  -4  -1  11   42.97    1.14
   4  -1 -11   42.76    1.11
  -4   1 -11   42.27    1.25
   4   1  11   42.07    1.15
   5   1 -11   23.90    0.84
  -5   1  11   23.46    0.87
   5  -1  11   22.47    0.81
  -5  -1 -11   24.30    0.96
  -5   1 -11   23.57    0.94
   5   1  11   24.50    0.86
   5  -1 -11   23.24    0.81
  -5  -1  11   24.31    0.85
  -6   1  11   15.32    0.72
   6  -1  11   15.57    0.70
  -6  -1 -11   13.12    0.73
   6   1 -11   15.47    0.69
  -6  -1  11   14.42    0.70
  -6   1 -11   14.12    0.76
   6   1  11   14.75    0.70
   6  -1 -11   15.00    0.67
   7  -1  11   11.35    0.63
  -7  -1 -11   10.99    0.70
   7   1 -11   11.47    0.62
  -7   1  11   12.09    0.67
   7  -1 -11   12.21    0.64
   7   1  11   11.25    0.65
  -7   1 -11   12.06    0.72
  -7  -1  11   11.72    0.65
  -8  -1 -11    1.83    0.40
  -8   1  11    1.90    0.36
   8   1 -11    2.77    0.38
   8  -1  11    1.82    0.34
   8   1  11    2.21    0.38
   8  -1 -11    2.83    0.39
  -8  -1  11    2.06    0.36
  -8   1 -11    1.57    0.37
  -9   1  11   28.39    1.16
   9  -1  11   30.51    1.18
   9   1 -11   29.60    1.12
  -9  -1 -11   29.85    1.25
  -9  -1  11   28.25    1.13
   9   1  11   29.45    1.18
  -9   1 -11   28.50    1.20
   9  -1 -11   30.01    1.13
 -10  -1 -11    2.48    0.50
  10   1 -11    2.10    0.37
  10  -1  11    2.03    0.41
 -10   1  11    1.95    0.42
 -10  -1  11    1.92    0.42
  10  -1 -11    2.55    0.40
 -10   1 -11    3.05    0.54
  10   1  11    2.35    0.45
 -11  -1 -11    8.98    0.87
  11  -1  11    8.43    0.69
  11   1 -11   10.55    0.72
 -11  -1  11    9.05    0.72
  11  -1 -11    7.44    0.62
   0   2 -11    1.10    0.22
   0   2  11    0.84    0.19
   0   2 -11    0.64    0.13
   0  -2 -11    0.76    0.13
   0  -2  11    0.54    0.15
   0  -2 -11    0.53    0.17
   1   2 -11   -0.21    0.12
   1   2 -11   -0.09    0.07
   1  -2  11    0.13    0.07
  -1  -2 -11    0.06    0.06
   1  -2  11    0.16    0.11
  -1  -2 -11   -0.08    0.11
  -1   2  11    0.01    0.12
   1   2  11   -0.16    0.10
   1  -2 -11    0.04    0.08
  -1  -2  11   -0.02    0.10
   1  -2 -11    0.29    0.14
  -1   2 -11   -0.01    0.16
   2  -2  11    3.39    0.28
  -2  -2 -11    3.53    0.37
   2  -2  11    3.36    0.22
  -2   2  11    2.96    0.34
   2   2 -11    3.17    0.27
   2   2 -11    3.24    0.26
  -2  -2  11    3.36    0.33
   2   2  11    3.19    0.33
   2  -2 -11    2.93    0.24
  -2   2 -11    3.39    0.37
   2  -2 -11    3.30    0.28
  -3  -2 -11    2.99    0.35
   3  -2  11    4.11    0.31
   3   2 -11    3.66    0.26
  -3   2  11    3.13    0.36
   3  -2  11    3.39    0.22
   3   2 -11    4.08    0.31
  -3  -2  11    4.11    0.33
  -3   2 -11    3.37    0.39
   3  -2 -11    3.27    0.31
   3   2  11    3.06    0.34
   4   2 -11    7.60    0.44
   4  -2  11    6.79    0.41
  -4  -2 -11    7.31    0.49
  -4   2  11    6.52    0.47
  -4   2 -11    7.17    0.52
   4  -2 -11    8.12    0.44
  -4  -2  11    7.13    0.46
   4   2  11    7.22    0.45
  -5   2  11    0.13    0.20
   5   2 -11    0.14    0.13
  -5  -2 -11    0.01    0.17
   5  -2  11    0.17    0.14
   5   2  11    0.08    0.15
  -5  -2  11    0.01    0.17
   5  -2 -11   -0.13    0.11
  -5   2 -11    0.16    0.24
   6   2 -11    0.89    0.22
  -6  -2 -11    0.55    0.25
   6  -2  11    0.62    0.21
  -6   2  11    0.39    0.22
  -6  -2  11    0.77    0.23
   6  -2 -11    0.75    0.22
  -6   2 -11    0.90    0.29
   6   2  11    0.87    0.24
   7   2 -11   16.46    0.75
  -7  -2 -11   15.34    0.83
  -7   2  11   14.88    0.78
   7  -2  11   16.45    0.75
  -7  -2  11   16.87    0.78
   7   2  11   17.00    0.80
  -7   2 -11   17.03    0.86
   7  -2 -11   15.25    0.72
  -8  -2 -11    0.85    0.32
   8  -2  11    1.23    0.28
  -8   2  11    1.41    0.35
   8   2 -11    1.97    0.32
  -8  -2  11    1.20    0.32
   8  -2 -11    1.06    0.27
  -8   2 -11    1.55    0.39
   8   2  11    1.47    0.33
   9   2 -11    0.11    0.17
   9  -2  11    0.10    0.20
  -9  -2 -11   -0.05    0.25
  -9   2  11   -0.27    0.19
  -9  -2  11    0.20    0.23
  -9   2 -11   -0.15    0.23
   9   2  11   -0.13    0.16
   9  -2 -11    0.13    0.18
  10   2 -11    3.68    0.48
  10  -2  11    4.03    0.53
 -10  -2 -11    2.94    0.53
 -10   2  11    2.80    0.50
 -10   2 -11    3.75    0.57
  10  -2 -11    3.50    0.47
  10   2  11    3.12    0.49
 -10  -2  11    2.76    0.45
  11  -2  11    1.21    0.36
 -11  -2 -11    1.16    0.44
  11   2 -11    0.89    0.30
 -11  -2  11    0.86    0.33
   0   3 -11   -0.03    0.08
   0  -3 -11   -0.08    0.10
   0   3  11   -0.13    0.08
   0   3 -11   -0.29    0.12
   0  -3  11   -0.07    0.08
   0  -3 -11    0.22    0.09
  -1  -3 -11    9.68    0.49
   1   3 -11    9.58    0.43
   1  -3  11    9.32    0.41
   1   3 -11    9.28    0.46
  -1   3  11    9.56    0.50
   1  -3  11    9.16    0.39
   1  -3 -11    8.87    0.38
  -1  -3  11    8.66    0.42
   1  -3 -11    9.06    0.43
  -1   3 -11   10.01    0.51
   1   3  11    9.63    0.49
   2   3 -11    2.46    0.26
  -2   3  11    1.81    0.28
   2  -3  11    2.56    0.26
  -2  -3 -11    2.17    0.29
   2  -3  11    2.41    0.23
   2   3 -11    2.46    0.26
   2   3  11    2.11    0.28
  -2   3 -11    2.71    0.35
   2  -3 -11    2.58    0.26
   2  -3 -11    2.06    0.23
  -2  -3  11    2.58    0.28
  -3   3  11   31.93    1.01
   3  -3  11   32.33    0.89
   3   3 -11   33.91    0.95
   3  -3  11   32.97    0.80
  -3  -3 -11   33.52    1.04
   3   3 -11   33.66    0.86
   3  -3 -11   32.80    0.90
   3   3  11   33.56    1.01
  -3   3 -11   33.38    1.06
  -3  -3  11   32.74    0.92
  -4  -3 -11   11.44    0.62
  -4   3  11   11.55    0.63
   4  -3  11   12.23    0.54
   4   3 -11   12.61    0.58
  -4  -3  11   13.32    0.58
   4   3  11   13.23    0.62
  -4   3 -11   12.64    0.69
   4  -3 -11   12.70    0.55
  -5  -3 -11   28.50    1.03
  -5   3  11   28.68    1.00
   5   3 -11   28.26    0.93
   5  -3  11   28.78    0.90
  -5   3 -11   27.67    1.05
  -5  -3  11   28.87    0.91
   5   3  11   29.10    0.99
   5  -3 -11   27.81    0.91
  -6   3  11    4.84    0.50
  -6  -3 -11    4.67    0.51
   6   3 -11    4.96    0.40
   6  -3  11    4.91    0.40
   6  -3 -11    4.93    0.41
  -6  -3  11    4.93    0.41
  -6   3 -11    4.99    0.54
   6   3  11    4.61    0.46
   7   3 -11   40.83    1.24
  -7  -3 -11   41.07    1.37
  -7   3  11   38.77    1.28
   7  -3  11   40.56    1.23
   7   3  11   38.68    1.27
   7  -3 -11   38.85    1.21
  -7  -3  11   39.48    1.21
  -7   3 -11   39.57    1.34
  -8   3  11    0.23    0.21
   8  -3  11    0.01    0.18
   8   3 -11    0.51    0.21
  -8  -3 -11    0.11    0.24
  -8  -3  11    0.39    0.23
   8   3  11    0.46    0.22
   8  -3 -11    0.20    0.17
  -8   3 -11    0.25    0.26
  -9   3  11    6.07    0.65
  -9  -3 -11    5.45    0.63
   9  -3  11    5.74    0.59
   9   3 -11    5.49    0.55
   9  -3 -11    5.61    0.57
   9   3  11    4.97    0.58
  -9  -3  11    5.42    0.56
  -9   3 -11    6.19    0.65
 -10  -3 -11    6.16    0.71
 -10   3  11    4.84    0.61
  10   3 -11    5.58    0.59
  10  -3  11    4.85    0.58
  10   3  11    3.99    0.56
 -10   3 -11    4.40    0.60
 -10  -3  11    4.85    0.57
  10  -3 -11    5.32    0.57
 -11  -3 -11    0.70    0.38
  11  -3  11    1.01    0.35
 -11  -3  11    0.51    0.33
   0   4 -11   50.45    1.27
   0  -4  11   52.26    1.19
   0  -4 -11   52.26    1.05
   0  -4 -11   52.74    1.23
   0  -4  11   52.66    1.12
   0   4  11   54.94    1.34
   1   4 -11    0.67    0.18
  -1   4  11    0.89    0.21
   1   4 -11    0.62    0.15
   1  -4  11    0.55    0.14
  -1  -4 -11    0.89    0.20
   1  -4  11    0.65    0.14
  -1  -4  11    1.06    0.18
   1  -4 -11    1.08    0.19
   1   4  11    1.00    0.21
  -1   4 -11    0.64    0.21
   1  -4 -11    0.73    0.14
   2   4 -11    1.18    0.20
   2  -4  11    1.05    0.17
   2  -4  11    1.18    0.18
  -2   4  11    1.41    0.27
   2   4 -11    1.84    0.26
  -2  -4 -11    1.17    0.21
   2  -4 -11    1.24    0.19
  -2   4 -11    1.31    0.26
   2  -4 -11    1.28    0.20
  -2  -4  11    0.95    0.19
   2   4  11    1.25    0.24
   3  -4  11   34.71    0.90
   3   4 -11   34.95    0.92
  -3   4  11   34.02    1.06
   3   4 -11   33.34    0.98
   3  -4  11   35.24    0.87
  -3  -4 -11   35.03    1.07
   3   4  11   34.59    1.05
  -3  -4  11   35.26    0.94
   3  -4 -11   36.35    0.96
  -3   4 -11   34.97    1.09
   4   4 -11    1.48    0.22
   4  -4  11    1.41    0.23
   4   4 -11    1.69    0.26
  -4   4  11    1.47    0.30
  -4  -4 -11    1.72    0.30
   4   4  11    2.02    0.30
  -4   4 -11    1.17    0.29
  -4  -4  11    1.85    0.27
   4  -4 -11    2.05    0.28
   5  -4  11    1.16    0.22
  -5   4  11    1.21    0.28
   5   4 -11    1.19    0.24
  -5  -4 -11    0.70    0.24
   5   4  11    1.18    0.25
  -5  -4  11    1.26    0.25
  -5   4 -11    0.83    0.28
   5  -4 -11    0.98    0.23
  -6  -4 -11    0.16    0.19
  -6   4  11    0.30    0.19
   6   4 -11    0.23    0.15
   6  -4  11    0.20    0.16
   6  -4 -11    0.02    0.15
  -6  -4  11    0.23    0.20
  -6   4 -11    0.08    0.20
   6   4  11    0.13    0.15
   7  -4  11   12.70    0.65
  -7  -4 -11   11.22    0.70
   7   4 -11   11.41    0.63
  -7   4  11   12.62    0.72
   7   4  11   13.22    0.71
   7  -4 -11   11.42    0.63
  -7  -4  11   11.99    0.64
  -7   4 -11   12.06    0.72
   8  -4  11    1.44    0.30
  -8  -4 -11    1.49    0.34
   8   4 -11    1.19    0.27
  -8   4  11    0.49    0.28
   8   4  11    0.87    0.28
   8  -4 -11    1.48    0.29
  -8  -4  11    0.73    0.27
  -8   4 -11    1.18    0.32
  -9   4  11    4.94    0.59
   9  -4  11    5.64    0.59
   9   4 -11    6.09    0.51
  -9  -4 -11    5.71    0.65
   9   4  11    5.11    0.57
   9  -4 -11    5.03    0.53
  -9   4 -11    6.48    0.65
  -9  -4  11    5.84    0.57
 -10   4  11    1.60    0.40
  10   4 -11    2.21    0.39
 -10  -4 -11    1.06    0.39
  10  -4  11    2.29    0.43
  10  -4 -11    1.21    0.32
 -10   4 -11    1.85    0.42
  10   4  11    1.32    0.36
 -10  -4  11    1.19    0.36
 -11  -4 -11   -0.13    0.31
  11  -4  11    0.22    0.27
 -11  -4  11    0.16    0.30
   0  -5  11   -0.01    0.07
   0  -5 -11   -0.10    0.08
   0  -5  11    0.11    0.09
   0   5 -11   -0.25    0.10
   0  -5 -11   -0.18    0.10
   0   5  11    0.10    0.13
  -1   5  11    7.38    0.46
  -1  -5 -11    7.90    0.45
   1  -5  11    7.66    0.40
   1  -5  11    7.54    0.34
   1   5 -11    7.54    0.45
   1  -5 -11    8.08    0.40
  -1   5 -11    7.15    0.46
   1  -5 -11    7.67    0.36
  -1  -5  11    7.40    0.41
   1   5  11    8.30    0.48
  -1  -5  11    7.81    0.36
   2  -5  11   17.91    0.61
   2   5 -11   17.94    0.67
  -2  -5 -11   16.99    0.69
   2   5 -11   17.06    0.65
   2  -5  11   17.68    0.56
  -2   5  11   18.25    0.74
   2  -5 -11   18.69    0.59
  -2  -5  11   18.40    0.59
   2   5  11   17.86    0.72
   2  -5 -11   18.14    0.61
  -2   5 -11   17.98    0.74
   3   5 -11   17.85    0.70
   3  -5  11   19.06    0.63
   3  -5  11   19.89    0.63
   3   5 -11   19.22    0.68
  -3   5  11   18.58    0.78
  -3  -5 -11   20.53    0.79
  -3   5 -11   18.37    0.78
   3  -5 -11   18.49    0.66
  -3  -5  11   18.98    0.65
   3   5  11   19.77    0.77
  -4   5  11    4.35    0.45
   4  -5  11    4.75    0.31
  -4  -5 -11    5.35    0.42
   4   5 -11    5.53    0.40
   4  -5  11    5.07    0.34
   4   5 -11    5.48    0.36
   4  -5 -11    4.95    0.37
  -4   5 -11    5.51    0.52
   4   5  11    5.07    0.41
  -4  -5  11    4.98    0.37
   5   5 -11  120.64    2.48
   5  -5  11  129.87    2.37
  -5  -5 -11  123.20    2.63
  -5   5  11  120.91    2.57
   5  -5 -11  122.63    2.45
  -5   5 -11  122.33    2.60
  -5  -5  11  125.99    2.37
   5   5  11  125.34    2.58
   6  -5  11   10.15    0.54
   6   5 -11   10.23    0.58
  -6   5  11    8.76    0.59
  -6  -5 -11    9.44    0.61
   6   5  11    9.44    0.59
   6  -5 -11    8.67    0.53
  -6   5 -11   10.56    0.66
  -6  -5  11    8.99    0.53
   7   5 -11    7.88    0.53
   7  -5  11    8.92    0.55
  -7   5  11    8.99    0.62
  -7  -5 -11    8.92    0.65
   7   5  11    8.04    0.57
  -7   5 -11    9.22    0.64
  -7  -5  11    9.43    0.57
   7  -5 -11    9.16    0.57
   8  -5  11    0.84    0.26
  -8   5  11    0.83    0.28
   8   5 -11    0.85    0.25
  -8  -5 -11    0.44    0.26
  -8   5 -11    1.25    0.35
   8  -5 -11    1.54    0.32
  -8  -5  11    0.96    0.28
   8   5  11    0.75    0.27
  -9  -5 -11   -0.28    0.18
   9   5 -11    0.29    0.19
  -9   5  11   -0.10    0.21
   9   5  11    0.01    0.20
  -9   5 -11   -0.23    0.21
   9  -5 -11    0.02    0.19
  -9  -5  11   -0.07    0.22
 -10  -5 -11   -0.25    0.25
 -10   5  11   -0.16    0.22
  10   5 -11   -0.05    0.18
 -10   5 -11   -0.09    0.27
  10   5  11    0.03    0.20
  10  -5 -11   -0.13    0.16
   0   6  11    4.96    0.39
   0  -6  11    4.62    0.33
   0  -6 -11    3.94    0.26
   0  -6 -11    4.52    0.34
   0   6 -11    3.58    0.38
  -1   6  11    0.81    0.22
   1  -6  11    0.96    0.18
   1   6 -11    0.74    0.21
  -1  -6 -11    0.78    0.19
   1  -6 -11    1.22    0.21
   1  -6 -11    0.88    0.16
  -1  -6  11    0.89    0.19
  -1   6 -11    0.52    0.20
   1   6  11    0.62    0.19
  -2   6  11    8.26    0.51
  -2  -6 -11    7.42    0.46
   2   6 -11    7.83    0.45
   2   6 -11    7.78    0.45
   2  -6  11    7.82    0.42
  -2   6 -11    7.56    0.50
   2   6  11    7.72    0.48
   2  -6 -11    7.89    0.40
  -3  -6 -11    0.06    0.14
  -3   6  11   -0.04    0.16
   3   6 -11    0.30    0.14
   3   6 -11    0.00    0.10
   3  -6  11   -0.10    0.08
   3   6  11    0.11    0.13
   3  -6 -11    0.21    0.14
  -3   6 -11   -0.01    0.18
   4   6 -11    0.36    0.16
  -4  -6 -11    0.39    0.18
  -4   6  11   -0.02    0.13
   4  -6  11    0.47    0.14
   4   6 -11    0.26    0.16
  -4   6 -11    0.53    0.24
   4   6  11    0.22    0.16
   4  -6 -11    0.64    0.18
  -5   6  11    0.14    0.18
   5   6 -11   -0.01    0.12
  -5  -6 -11   -0.04    0.15
   5  -6 -11    0.08    0.15
  -5   6 -11    0.14    0.21
   5   6  11    0.01    0.12
  -6  -6 -11    0.16    0.20
   6   6 -11    0.26    0.17
  -6   6  11    0.07    0.18
   6  -6 -11    0.54    0.18
  -6   6 -11   -0.15    0.20
   6   6  11    0.07    0.14
  -7  -6 -11    0.12    0.20
   7   6 -11   -0.03    0.14
  -7   6  11   -0.05    0.20
   7  -6 -11    0.34    0.19
   7   6  11    0.08    0.16
  -7   6 -11    0.27    0.21
  -8  -6 -11    2.16    0.42
   8   6 -11    2.16    0.35
  -8   6  11    2.39    0.43
  -8   6 -11    2.26    0.40
   8   6  11    2.33    0.38
   8  -6 -11    2.19    0.37
  -9   6  11    1.98    0.43
   9   6 -11    1.81    0.36
  -9  -6 -11    1.94    0.45
  -9   6 -11    2.26    0.45
   9  -6 -11    1.41    0.34
   9   6  11    1.93    0.38
 -10   6  11    0.88    0.36
 -10  -6 -11    0.69    0.34
  10   6 -11    1.53    0.33
  10  -6 -11    1.14    0.30
  10   6  11    0.41    0.25
   0  -7 -11   -0.31    0.08
   0   7  11    0.19    0.15
   0  -7  11   -0.02    0.10
   0   7 -11   -0.19    0.12
   1   7 -11    0.11    0.15
  -1  -7 -11    0.08    0.14
  -1   7  11    0.07    0.15
   1  -7  11   -0.03    0.09
   1  -7 -11    0.02    0.12
   1   7  11   -0.13    0.11
  -1   7 -11    0.02    0.15
  -1  -7  11    0.08    0.11
   1  -7 -11    0.00    0.09
   2   7 -11   13.28    0.61
  -2  -7 -11   13.07    0.62
   2  -7  11   12.51    0.55
  -2   7  11   12.82    0.66
   2  -7 -11   12.80    0.52
   2   7  11   13.31    0.64
  -2  -7  11   13.74    0.62
  -2   7 -11   13.95    0.68
   3  -7  11   24.81    0.81
  -3   7  11   25.98    0.95
   3   7 -11   25.82    0.86
   3   7 -11   24.43    0.87
  -3  -7 -11   25.10    0.92
   3  -7 -11   24.41    0.80
  -3   7 -11   22.62    0.91
   3   7  11   25.31    0.92
   4   7 -11    0.46    0.19
   4  -7  11    0.35    0.14
   4   7 -11    0.48    0.17
  -4   7  11    0.66    0.24
  -4  -7 -11    0.41    0.18
   4   7  11    0.28    0.16
  -4   7 -11    0.57    0.23
   4  -7 -11   -0.05    0.11
  -5  -7 -11   54.54    1.57
   5  -7  11   57.40    1.36
  -5   7  11   55.03    1.56
   5   7 -11   55.72    1.50
   5   7  11   54.72    1.53
  -5   7 -11   55.58    1.56
   5  -7 -11   55.30    1.43
  -6   7  11    5.49    0.57
   6   7 -11    4.69    0.49
  -6  -7 -11    4.69    0.51
   6  -7 -11    5.78    0.46
  -6   7 -11    5.04    0.54
   6   7  11    5.27    0.53
   7   7 -11    9.87    0.62
  -7   7  11    9.62    0.66
  -7  -7 -11    9.84    0.69
   7  -7 -11    9.60    0.60
  -7   7 -11    8.86    0.63
   7   7  11    9.63    0.65
  -8   7  11    1.61    0.37
  -8  -7 -11    2.00    0.42
   8   7 -11    1.69    0.31
  -8   7 -11    1.64    0.38
   8   7  11    1.08    0.32
   8  -7 -11    2.54    0.40
  -9  -7 -11    0.77    0.34
   9   7 -11    0.47    0.22
  -9   7  11    0.11    0.25
   9   7  11    0.41    0.24
  -9   7 -11    0.48    0.31
   9  -7 -11    0.55    0.24
 -10  -7 -11   -0.06    0.29
  10   7 -11    0.15    0.21
   0   8 -11    1.12    0.25
   0  -8 -11    1.35    0.25
   0  -8  11    0.94    0.22
   0   8  11    0.91    0.23
   1  -8  11    6.61    0.42
  -1  -8 -11    6.52    0.46
  -1   8  11    5.87    0.45
   1   8 -11    7.14    0.48
   1  -8 -11    6.33    0.41
  -1   8 -11    6.90    0.50
  -1  -8  11    6.77    0.44
   1   8  11    7.07    0.48
   1  -8 -11    6.22    0.37
   2   8 -11    1.72    0.29
   2  -8  11    1.30    0.23
  -2   8  11    1.25    0.27
  -2  -8 -11    1.29    0.26
  -2   8 -11    1.29    0.27
   2  -8 -11    1.26    0.21
  -2  -8  11    1.23    0.25
   2   8  11    1.21    0.25
   3   8 -11    2.08    0.31
   3  -8  11    1.72    0.26
  -3  -8 -11    2.15    0.34
  -3   8  11    2.20    0.35
   3   8  11    2.06    0.33
  -3  -8  11    1.82    0.30
   3  -8 -11    1.78    0.26
  -3   8 -11    1.64    0.30
   4   8 -11    0.23    0.16
  -4   8  11    0.56    0.21
  -4  -8 -11    0.48    0.22
   4   8 -11    0.49    0.18
   4  -8  11    0.56    0.17
  -4   8 -11    0.42    0.21
   4   8  11    0.49    0.20
   4  -8 -11    0.57    0.19
   5   8 -11    0.23    0.15
  -5   8  11    0.43    0.21
  -5  -8 -11    0.10    0.18
   5  -8  11    0.33    0.16
   5   8  11    0.39    0.21
   5  -8 -11    0.53    0.21
  -5   8 -11    0.62    0.25
  -6   8  11    1.34    0.33
  -6  -8 -11    2.50    0.41
   6   8 -11    2.52    0.37
   6   8  11    1.47    0.31
   6  -8 -11    2.08    0.33
  -6   8 -11    1.84    0.35
   7   8 -11    7.87    0.57
  -7  -8 -11    6.64    0.65
  -7   8  11    7.75    0.60
  -7   8 -11    8.25    0.61
   7   8  11    7.49    0.58
   7  -8 -11    7.30    0.53
  -8   8  11    1.21    0.34
   8   8 -11    0.95    0.27
  -8  -8 -11    0.77    0.30
   8   8  11    1.13    0.30
  -8   8 -11    1.01    0.31
   8  -8 -11    0.63    0.25
  -9  -8 -11    0.25    0.27
   9   8 -11    0.19    0.20
  -9   8  11    0.35    0.28
   9   8  11    0.41    0.27
   9  -8 -11    0.03    0.19
  -9   8 -11    0.36    0.28
   0  -9 -11   -0.03    0.13
   0   9 -11   -0.06    0.16
   0  -9  11   -0.08    0.10
   0   9  11   -0.22    0.12
   1  -9  11   91.52    1.99
   1   9 -11   92.19    2.09
  -1   9  11   89.96    2.07
  -1  -9 -11   93.62    2.04
   1   9  11   93.63    2.08
   1  -9 -11   91.29    1.91
  -1  -9  11   91.51    2.03
   1  -9 -11   93.26    1.82
  -1   9 -11   94.27    2.13
   2   9 -11    0.07    0.15
  -2   9  11    0.26    0.18
  -2  -9 -11    0.12    0.16
   2  -9  11    0.07    0.13
   2   9  11    0.25    0.17
  -2  -9  11    0.18    0.13
  -2   9 -11    0.23    0.19
   2  -9 -11    0.05    0.13
  -3  -9 -11    3.54    0.42
  -3   9  11    4.00    0.46
   3  -9  11    3.74    0.38
   3   9 -11    3.35    0.40
  -3  -9  11    3.22    0.39
  -3   9 -11    3.21    0.42
   3  -9 -11    3.21    0.35
   3   9  11    3.80    0.43
   4   9 -11    3.89    0.42
   4  -9  11    4.75    0.45
  -4   9  11    4.31    0.49
  -4  -9 -11    4.02    0.47
   4  -9 -11    4.52    0.43
   4   9  11    4.93    0.50
  -4   9 -11    4.61    0.49
  -4  -9  11    4.29    0.46
   5  -9  11    4.17    0.42
  -5   9  11    2.98    0.44
  -5  -9 -11    3.29    0.45
   5   9 -11    3.59    0.41
   5   9  11    3.27    0.43
   5  -9 -11    2.71    0.36
  -5  -9  11    2.90    0.41
  -5   9 -11    3.23    0.44
  -6  -9 -11   -0.24    0.17
   6   9 -11   -0.13    0.11
  -6   9  11    0.13    0.20
  -6   9 -11    0.32    0.22
   6   9  11    0.15    0.18
   6  -9 -11    0.01    0.16
   7   9 -11    4.11    0.48
  -7  -9 -11    4.15    0.53
  -7   9  11    5.61    0.61
  -7   9 -11    4.81    0.55
   7   9  11    4.31    0.52
   7  -9 -11    4.92    0.51
  -8  -9 -11    1.00    0.32
   8   9 -11    0.94    0.28
  -8   9  11    1.09    0.33
  -8   9 -11    0.58    0.28
   8  -9 -11    0.64    0.27
   8   9  11    0.42    0.26
  -9  -9 -11    8.44    0.82
   9   9 -11    7.93    0.63
  -9   9  11    6.99    0.74
   9   9  11    8.20    0.68
  -9   9 -11    7.47    0.63
   9  -9 -11    8.33    0.66
   0  10 -11   20.79    0.89
   0 -10  11   21.34    0.84
   0  10  11   22.34    0.88
   0 -10 -11   21.88    0.82
  -1 -10 -11    2.51    0.34
   1  10 -11    2.39    0.36
   1 -10  11    2.17    0.32
  -1  10  11    1.78    0.31
  -1  10 -11    2.16    0.34
   1  10  11    2.39    0.35
  -1 -10  11    2.16    0.32
   1 -10 -11    2.53    0.32
  -2  10  11    2.50    0.38
  -2 -10 -11    3.02    0.39
   2 -10  11    2.51    0.33
   2  10 -11    3.12    0.40
   2  10  11    2.47    0.35
   2 -10 -11    3.67    0.36
  -2  10 -11    2.48    0.38
  -2 -10  11    2.78    0.36
   3 -10  11    9.15    0.54
  -3  10  11    9.73    0.62
   3  10 -11   10.53    0.61
  -3 -10 -11    8.96    0.59
  -3  10 -11    8.42    0.59
   3  10  11    9.89    0.59
  -3 -10  11    9.00    0.57
   3 -10 -11    8.70    0.51
  -4  10  11    4.07    0.48
  -4 -10 -11    4.40    0.50
   4 -10  11    3.00    0.37
   4  10 -11    3.70    0.43
  -4  10 -11    3.62    0.45
   4  10  11    3.60    0.43
   4 -10 -11    2.62    0.35
  -4 -10  11    3.69    0.44
   5  10 -11    2.36    0.36
  -5 -10 -11    2.28    0.40
  -5  10  11    2.52    0.40
   5 -10  11    2.08    0.32
   5 -10 -11    2.29    0.35
  -5  10 -11    2.19    0.38
  -5 -10  11    1.41    0.30
   5  10  11    1.34    0.30
  -6 -10 -11    1.07    0.31
   6 -10  11    0.85    0.23
  -6  10  11    0.90    0.29
  -6 -10  11    0.93    0.26
   6 -10 -11    1.06    0.27
  -6  10 -11    0.95    0.30
   6  10  11    1.34    0.31
  -7 -10 -11    1.90    0.42
  -7  10  11    2.06    0.40
  -7 -10  11    1.85    0.37
   7 -10 -11    1.88    0.36
   7  10  11    2.02    0.38
  -7  10 -11    1.52    0.36
   8  10 -11    1.91    0.38
  -8 -10 -11    2.28    0.47
  -8  10  11    1.62    0.40
   8  10  11    2.04    0.39
   8 -10 -11    1.97    0.38
  -8  10 -11    2.58    0.44
   0 -11 -11    0.01    0.15
   0 -11  11    0.10    0.13
   0  11  11   -0.02    0.14
   0  11 -11    0.02    0.17
   1  11 -11   33.25    1.17
   1 -11  11   34.86    1.13
  -1  11  11   33.42    1.14
  -1 -11 -11   33.96    1.12
  -1  11 -11   32.09    1.18
   1  11  11   33.49    1.13
  -1 -11  11   33.42    1.13
   2  11 -11    4.35    0.48
  -2 -11 -11    4.77    0.50
   2 -11  11    3.63    0.42
  -2  11  11    4.47    0.47
  -2  11 -11    4.68    0.52
   2  11  11    4.09    0.45
  -2 -11  11    4.23    0.46
   2 -11 -11    4.35    0.41
   3  11 -11    3.25    0.43
   3 -11  11    3.80    0.42
  -3 -11 -11    3.74    0.47
  -3  11  11    3.24    0.43
   3 -11 -11    2.98    0.35
   3  11  11    3.03    0.40
  -3 -11  11    3.36    0.42
  -3  11 -11    3.66    0.47
  -4 -11 -11    0.54    0.24
   4  11 -11    0.48    0.22
   4 -11  11    0.87    0.24
  -4  11  11    1.07    0.29
  -4 -11  11    0.73    0.25
   4 -11 -11    0.27    0.18
   4  11  11    0.45    0.20
  -4  11 -11    0.56    0.25
  -5  11  11    1.69    0.35
  -5 -11 -11    1.00    0.30
   5  11 -11    1.80    0.34
   5 -11  11    1.62    0.31
  -5 -11  11    1.95    0.37
  -5  11 -11    1.64    0.34
   5 -11 -11    1.48    0.30
   5  11  11    0.97    0.27
  -6 -11 -11    0.62    0.27
  -6  11  11    0.59    0.27
   6 -11  11    0.69    0.24
  -6  11 -11    0.52    0.26
  -6 -11  11    0.36    0.22
   6  11  11    0.51    0.24
   6 -11 -11    0.94    0.27
  -7 -11 -11   11.66    0.82
  -7  11  11   10.57    0.74
  -7  11 -11   10.36    0.72
   7  11  11   10.73    0.72
   7 -11 -11   10.72    0.69
  -7 -11  11   11.47    0.73
  -8  11  11    0.12    0.26
  -8 -11 -11   -0.15    0.24
   8 -11 -11    0.31    0.24
  -8 -11  11    0.78    0.28
   8  11  11    0.25    0.24
  -8  11 -11    0.28    0.29
   0  12 -11    0.12    0.17
   0  12  11    0.15    0.16
   0 -12  11   -0.01    0.12
   0 -12 -11    0.35    0.18
   1  12 -11   10.43    0.66
   1 -12  11   10.24    0.61
  -1  12  11   10.83    0.64
  -1 -12 -11    8.70    0.59
  -1  12 -11   10.86    0.68
  -1 -12  11    9.29    0.59
   1  12  11   11.15    0.63
   2 -12  11    0.25    0.17
  -2 -12 -11    0.31    0.20
   2  12 -11    0.50    0.21
  -2  12  11    0.37    0.20
   2  12  11    0.14    0.17
  -2 -12  11    0.19    0.16
  -2  12 -11    0.24    0.23
  -3  12  11    0.84    0.25
  -3 -12 -11    0.47    0.22
   3 -12  11    0.50    0.21
   3  12 -11    0.94    0.27
  -3  12 -11    0.48    0.26
   3  12  11    0.73    0.24
  -3 -12  11    0.62    0.23
   3 -12 -11    0.75    0.22
  -4  12  11    8.78    0.62
   4 -12  11    7.40    0.56
   4  12 -11    9.48    0.64
  -4 -12 -11    7.86    0.62
  -4 -12  11    8.95    0.62
  -4  12 -11    8.47    0.64
   4 -12 -11    8.38    0.55
   4  12  11    8.66    0.60
   5 -12  11   -0.09    0.17
  -5 -12 -11   -0.05    0.18
  -5  12  11    0.19    0.22
   5  12 -11    0.32    0.22
   5  12  11   -0.07    0.19
  -5 -12  11    0.16    0.20
  -5  12 -11    0.69    0.27
   5 -12 -11    0.10    0.18
  -6 -12 -11    6.89    0.71
  -6  12  11    6.99    0.68
   6 -12  11    9.27    0.63
   6  12  11    7.89    0.62
  -6 -12  11    9.91    0.69
   6 -12 -11    7.97    0.59
  -6  12 -11    8.80    0.66
  -7 -12 -11    0.05    0.23
  -7  12  11    0.03    0.25
   7 -12 -11    0.05    0.20
  -7  12 -11    0.16    0.27
  -7 -12  11    0.35    0.24
   7  12  11    0.18    0.24
  -8  12  11    1.04    0.37
  -8  12 -11    1.45    0.37
   8  12  11    1.40    0.38
   0  13 -11    0.11    0.18
   0  13  11   -0.03    0.16
   0 -13 -11    0.06    0.17
   0 -13  11    0.04    0.16
  -1 -13 -11   17.48    0.83
   1  13 -11   15.71    0.86
   1 -13  11   16.28    0.80
  -1  13  11   17.89    0.83
   1  13  11   17.58    0.81
  -1  13 -11   16.03    0.86
  -1 -13  11   16.25    0.82
   2  13 -11    0.94    0.28
  -2  13  11    1.21    0.29
  -2 -13 -11    0.80    0.28
   2 -13  11    1.30    0.30
  -2 -13  11    0.88    0.25
  -2  13 -11    1.59    0.34
   2  13  11    1.29    0.29
  -3  13  11    1.24    0.31
   3 -13  11    1.81    0.33
  -3 -13 -11    1.49    0.33
   3  13 -11    1.69    0.35
  -3 -13  11    1.43    0.31
  -3  13 -11    1.99    0.40
   3  13  11    1.33    0.30
   3 -13 -11    1.67    0.30
   4  13 -11    0.14    0.20
  -4 -13 -11    0.29    0.23
  -4  13  11    0.13    0.22
   4 -13  11    0.08    0.17
  -4 -13  11   -0.16    0.19
   4  13  11    0.23    0.19
   4 -13 -11    0.39    0.19
  -4  13 -11    0.08    0.24
   5  13 -11    0.39    0.25
  -5  13  11    0.33    0.23
  -5 -13 -11    0.36    0.27
   5 -13  11   -0.03    0.19
   5  13  11    0.28    0.23
  -5  13 -11    0.54    0.28
  -5 -13  11    0.08    0.20
   5 -13 -11   -0.07    0.18
   6 -13  11    1.31    0.33
  -6  13  11    1.56    0.39
  -6 -13 -11    0.74    0.31
   6  13  11    0.21    0.24
   6 -13 -11    0.82    0.27
  -6  13 -11    1.12    0.33
  -6 -13  11    0.40    0.24
  -7  13  11    8.15    0.78
  -7  13 -11    8.13    0.67
   7  13  11    8.39    0.67
   0  14 -11   -0.09    0.16
   0 -14  11   -0.08    0.17
   1  14 -11    0.10    0.19
   1 -14  11   -0.02    0.15
  -1 -14 -11    0.16    0.19
  -1 -14  11   -0.19    0.13
  -1  14 -11    0.13    0.20
   2  14 -11    2.81    0.45
   2 -14  11    2.09    0.37
  -2 -14 -11    2.68    0.43
  -2  14 -11    2.06    0.39
  -2 -14  11    2.61    0.42
   3  14 -11    6.41    0.65
  -3 -14 -11    5.74    0.63
   3 -14  11    6.24    0.61
  -3  14 -11    6.14    0.64
  -3 -14  11    6.36    0.63
   4 -14  11    0.96    0.28
  -4 -14 -11    1.59    0.38
   4  14 -11    0.74    0.27
  -4  14 -11    0.53    0.28
   4 -14 -11    1.08    0.29
  -4 -14  11    0.86    0.29
  -5 -14 -11    0.02    0.21
   5 -14  11   -0.27    0.14
   5  14 -11    0.53    0.25
   5 -14 -11    0.09    0.21
  -5 -14  11    0.05    0.21
  -5  14 -11    0.21    0.24
   6 -14  11   -0.01    0.19
   6 -14 -11    0.00    0.20
  -6  14 -11    0.41    0.28
   0  15 -11    0.07    0.21
   0 -15  11    0.11    0.17
  -1 -15 -11    0.40    0.23
   1  15 -11    0.74    0.27
   1 -15  11    0.42    0.22
  -1  15 -11    0.43    0.26
  -1 -15  11    0.48    0.23
  -2 -15 -11    0.31    0.24
   2 -15  11    0.12    0.17
   2  15 -11    0.20    0.24
  -2  15 -11    0.54    0.29
  -2 -15  11   -0.15    0.18
  -3 -15 -11    8.53    0.70
   3 -15  11    9.80    0.69
   3  15 -11   10.18    0.72
  -3  15 -11    9.21    0.71
  -3 -15  11   10.43    0.72
  -4 -15 -11    0.61    0.28
   4  15 -11    1.54    0.37
   4 -15  11    1.08    0.32
  -4  15 -11    0.86    0.32
  -4 -15  11    0.72    0.29
   4 -15 -11    0.86    0.27
   5  15 -11    2.39    0.45
   5 -15 -11    2.27    0.41
   0 -16  11    0.38    0.23
   0  16 -11    0.72    0.29
  -1 -16 -11    0.27    0.25
   1 -16  11    0.34    0.23
   1  16 -11    0.65    0.28
  -1 -16  11    0.27    0.22
  -1  16 -11    0.53    0.29
   2 -16  11    0.24    0.21
  -2 -16 -11    0.27    0.24
   2  16 -11    0.07    0.21
  -3 -16 -11    0.21    0.25
   0   0  12   69.07    1.52
   0   0 -12   71.42    1.36
   0   0 -12   68.04    1.53
  -1   0 -12    2.67    0.20
  -1   0 -12    3.47    0.38
   1   0 -12    3.52    0.34
   1   0  12    3.04    0.32
  -1   0  12    2.91    0.32
   1   0 -12    3.19    0.25
   2   0 -12  154.26    2.66
   2   0 -12  160.52    2.73
  -2   0 -12  152.95    2.94
   2   0  12  159.91    2.83
  -2   0  12  153.58    2.83
  -3   0 -12   20.76    0.85
   3   0  12   19.48    0.73
   3   0 -12   21.67    0.72
  -3   0  12   21.92    0.79
  -4   0  12  114.88    2.31
   4   0 -12  108.70    2.21
  -4   0 -12  113.11    2.44
   4   0  12  115.62    2.28
  -5   0  12    1.89    0.30
  -5   0 -12    1.96    0.36
   5   0  12    1.63    0.28
   5   0 -12    1.84    0.28
  -6   0 -12    2.76    0.42
  -6   0  12    2.12    0.34
   6   0  12    2.26    0.33
   6   0 -12    2.70    0.35
  -7   0  12   22.59    0.94
   7   0 -12   25.00    0.95
   7   0  12   22.66    0.93
  -7   0 -12   22.15    1.01
   8   0 -12    4.04    0.47
   8   0  12    4.69    0.51
  -8   0  12    4.88    0.54
  -8   0 -12    5.28    0.63
  -9   0  12    7.35    0.69
  -9   0 -12    7.18    0.73
   9   0 -12    5.76    0.58
   9   0  12    6.10    0.63
 -10   0  12    1.71    0.40
  10   0  12    2.48    0.45
  10   0 -12    2.40    0.41
 -10   0 -12    1.63    0.45
 -11   0 -12   -0.12    0.33
   0   1  12    0.06    0.13
   0  -1 -12    0.00    0.07
   0  -1  12   -0.12    0.11
   0  -1 -12   -0.05    0.14
   0   1 -12    0.28    0.18
   0   1 -12   -0.03    0.07
   1  -1  12   39.00    1.03
  -1  -1 -12   38.19    0.82
   1   1 -12   41.73    0.97
  -1   1  12   39.81    1.08
  -1  -1 -12   38.21    1.09
   1   1 -12   38.53    1.00
  -1   1 -12   37.69    0.86
  -1   1 -12   38.45    1.10
   1   1  12   39.93    1.07
  -1  -1  12   37.74    1.02
   1  -1 -12   39.42    1.01
   1  -1 -12   38.34    0.92
  -2   1  12    0.82    0.23
   2  -1  12    1.31    0.22
   2   1 -12    0.99    0.19
   2   1 -12    0.90    0.20
  -2  -1 -12    1.15    0.25
   2  -1  12    1.05    0.14
   2   1  12    0.83    0.19
  -2  -1  12    1.02    0.22
   2  -1 -12    1.06    0.20
   2  -1 -12    0.92    0.18
  -2   1 -12    0.99    0.26
   3   1 -12    1.56    0.24
  -3   1  12    1.81    0.29
   3  -1  12    1.48    0.24
  -3  -1 -12    1.97    0.34
  -3   1 -12    1.32    0.29
   3  -1 -12    1.84    0.25
  -3  -1  12    1.79    0.29
   3   1  12    1.35    0.24
   4   1 -12    8.64    0.49
  -4   1  12   10.04    0.56
   4  -1  12    8.66    0.49
  -4  -1 -12    8.84    0.58
  -4  -1  12    8.82    0.54
   4  -1 -12    7.60    0.46
  -4   1 -12    8.72    0.60
   4   1  12    8.33    0.49
  -5   1  12    0.77    0.25
   5   1 -12    0.63    0.18
  -5  -1 -12    0.26    0.23
   5  -1  12    0.41    0.18
   5   1  12    0.69    0.21
  -5  -1  12    0.73    0.24
   5  -1 -12    0.26    0.16
  -5   1 -12    0.33    0.23
  -6   1  12    6.32    0.49
   6  -1  12    6.43    0.47
   6   1 -12    5.48    0.43
  -6  -1 -12    6.19    0.60
  -6   1 -12    5.77    0.59
   6   1  12    6.33    0.47
  -6  -1  12    5.74    0.52
   6  -1 -12    6.43    0.46
  -7  -1 -12    0.01    0.24
   7  -1  12   -0.12    0.14
  -7   1  12   -0.11    0.19
   7   1 -12    0.00    0.14
   7   1  12   -0.06    0.14
   7  -1 -12    0.23    0.17
  -7   1 -12   -0.03    0.24
  -7  -1  12    0.00    0.18
   8   1 -12    0.12    0.15
  -8  -1 -12    0.11    0.23
   8  -1  12   -0.02    0.17
  -8   1  12   -0.19    0.18
  -8   1 -12    0.13    0.26
   8   1  12    0.27    0.20
   8  -1 -12   -0.01    0.16
  -8  -1  12   -0.03    0.19
  -9   1  12    6.24    0.64
   9   1 -12    4.95    0.53
  -9  -1 -12    6.35    0.71
   9  -1  12    6.50    0.63
   9  -1 -12    6.43    0.53
  -9   1 -12    6.23    0.68
  -9  -1  12    5.05    0.57
   9   1  12    6.19    0.63
  10  -1  12   -0.16    0.21
 -10  -1 -12    0.07    0.32
 -10   1  12    0.12    0.26
  10   1 -12   -0.15    0.16
 -10   1 -12   -0.09    0.28
 -10  -1  12   -0.33    0.24
  10  -1 -12   -0.35    0.13
  10   1  12    0.05    0.24
 -11  -1 -12    0.87    0.42
 -11   1 -12    1.13    0.43
   0   2 -12    0.36    0.17
   0   2  12    0.01    0.12
   0  -2 -12    0.32    0.10
   0  -2 -12    0.05    0.15
   0   2 -12    0.18    0.09
   0  -2  12   -0.05    0.09
   1   2 -12    3.41    0.27
   1  -2  12    2.70    0.29
  -1  -2 -12    2.61    0.33
   1   2 -12    2.25    0.29
   1  -2  12    2.36    0.23
  -1   2  12    2.07    0.29
   1  -2 -12    2.57    0.25
   1   2  12    2.72    0.33
  -1   2 -12    2.45    0.32
  -1  -2  12    2.55    0.29
   1  -2 -12    2.63    0.30
  -2  -2 -12   29.05    0.96
   2  -2  12   29.32    0.73
   2  -2  12   27.61    0.83
   2   2 -12   28.76    0.83
  -2   2  12   27.89    0.93
   2   2 -12   28.77    0.81
   2  -2 -12   29.40    0.79
   2  -2 -12   28.77    0.81
  -2   2 -12   27.24    0.94
  -2  -2  12   29.10    0.87
   2   2  12   28.33    0.91
  -3  -2 -12   -0.11    0.13
   3   2 -12    0.05    0.11
  -3   2  12   -0.28    0.12
   3  -2  12   -0.07    0.10
   3   2 -12   -0.07    0.11
  -3   2 -12    0.09    0.20
   3  -2 -12   -0.02    0.10
  -3  -2  12   -0.03    0.15
   3   2  12   -0.02    0.11
   4   2 -12   17.74    0.69
  -4  -2 -12   18.19    0.81
   4  -2  12   17.72    0.69
  -4   2  12   17.09    0.76
  -4  -2  12   19.05    0.73
   4  -2 -12   17.81    0.69
  -4   2 -12   17.19    0.80
   4   2  12   17.15    0.74
  -5  -2 -12    4.40    0.49
   5   2 -12    4.66    0.38
   5  -2  12    4.75    0.39
  -5   2  12    4.90    0.48
  -5   2 -12    5.57    0.56
  -5  -2  12    4.41    0.44
   5  -2 -12    4.67    0.44
   5   2  12    4.65    0.46
  -6  -2 -12   13.24    0.76
   6  -2  12   13.77    0.66
  -6   2  12   12.86    0.71
   6   2 -12   13.30    0.66
   6   2  12   12.98    0.68
   6  -2 -12   12.82    0.64
  -6   2 -12   13.24    0.75
  -6  -2  12   13.53    0.67
   7  -2  12    0.01    0.17
  -7  -2 -12   -0.17    0.19
  -7   2  12   -0.06    0.19
   7   2 -12    0.20    0.18
  -7  -2  12   -0.06    0.20
   7  -2 -12   -0.29    0.11
  -7   2 -12    0.00    0.22
   7   2  12   -0.16    0.15
   8  -2  12    0.01    0.18
  -8   2  12   -0.10    0.21
  -8  -2 -12   -0.01    0.22
   8   2 -12   -0.04    0.14
   8   2  12    0.20    0.20
   8  -2 -12    0.18    0.17
  -8  -2  12    0.63    0.28
  -8   2 -12    0.01    0.25
   9   2 -12    3.67    0.47
  -9   2  12    3.80    0.51
  -9  -2 -12    3.44    0.55
   9  -2  12    3.92    0.52
   9   2  12    4.89    0.56
  -9   2 -12    4.04    0.58
  -9  -2  12    4.41    0.53
   9  -2 -12    3.45    0.45
  10  -2  12    0.49    0.29
  10   2 -12    0.71    0.25
 -10   2  12    0.98    0.34
 -10  -2 -12    0.40    0.36
  10   2  12    0.93    0.31
 -10  -2  12    0.12    0.27
  10  -2 -12    0.82    0.28
 -10   2 -12    0.53    0.37
 -11  -2 -12   -0.08    0.36
   0   3 -12   -0.20    0.13
   0  -3  12   -0.03    0.10
   0   3  12   -0.16    0.10
   0  -3 -12    0.01    0.07
   0  -3 -12   -0.03    0.13
   0   3 -12    0.04    0.09
   1   3 -12   47.73    1.18
  -1  -3 -12   47.56    1.24
   1   3 -12   47.86    1.13
   1  -3  12   47.54    1.08
   1  -3  12   46.62    1.10
   1   3  12   48.69    1.27
   1  -3 -12   47.16    1.05
   1  -3 -12   47.85    1.16
  -1  -3  12   48.21    1.13
  -1   3 -12   48.25    1.26
   2   3 -12   13.93    0.56
   2  -3  12   14.43    0.50
  -2   3  12   13.94    0.65
   2   3 -12   14.62    0.58
   2  -3  12   15.52    0.57
  -2  -3 -12   15.67    0.68
  -2  -3  12   14.79    0.59
   2  -3 -12   14.47    0.54
   2  -3 -12   14.90    0.56
   2   3  12   14.18    0.64
  -2   3 -12   14.66    0.68
  -3   3  12   19.56    0.79
   3   3 -12   20.10    0.66
  -3  -3 -12   20.77    0.83
   3  -3  12   19.90    0.69
   3   3 -12   20.83    0.74
  -3  -3  12   20.07    0.72
   3   3  12   20.27    0.78
  -3   3 -12   19.45    0.83
   3  -3 -12   20.16    0.70
  -4   3  12   42.39    1.26
   4  -3  12   43.65    1.13
  -4  -3 -12   41.02    1.27
   4   3 -12   42.10    1.16
  -4  -3  12   43.56    1.16
   4  -3 -12   41.93    1.13
   4   3  12   41.16    1.22
  -4   3 -12   41.93    1.29
   5  -3  12   74.16    1.67
  -5   3  12   70.46    1.77
  -5  -3 -12   74.38    1.87
   5   3 -12   72.41    1.70
   5   3  12   71.60    1.77
   5  -3 -12   71.96    1.68
  -5   3 -12   73.13    1.86
  -5  -3  12   73.84    1.68
  -6  -3 -12   15.52    0.81
   6  -3  12   18.54    0.76
   6   3 -12   17.04    0.75
  -6   3  12   15.94    0.78
  -6  -3  12   16.66    0.73
   6   3  12   15.97    0.78
  -6   3 -12   16.12    0.83
   6  -3 -12   17.90    0.77
  -7  -3 -12   16.17    0.86
   7   3 -12   17.40    0.79
   7  -3  12   17.40    0.78
  -7   3  12   17.49    0.86
  -7  -3  12   15.92    0.75
  -7   3 -12   14.12    0.83
   7   3  12   16.18    0.82
   7  -3 -12   17.85    0.80
  -8  -3 -12    2.34    0.43
   8   3 -12    3.53    0.43
  -8   3  12    3.12    0.45
   8  -3  12    3.37    0.44
   8  -3 -12    2.70    0.39
  -8  -3  12    3.08    0.43
  -8   3 -12    4.20    0.55
   8   3  12    3.11    0.45
  -9   3  12    8.95    0.70
  -9  -3 -12    8.32    0.70
   9   3 -12    9.17    0.63
   9  -3  12    9.15    0.66
  -9  -3  12    9.03    0.65
   9  -3 -12    7.44    0.58
   9   3  12    9.07    0.67
  -9   3 -12    8.89    0.73
  10   3 -12    0.02    0.19
  10  -3  12   -0.07    0.22
 -10  -3 -12   -0.25    0.27
 -10   3  12    0.07    0.28
  10   3  12    0.19    0.25
 -10  -3  12   -0.22    0.25
  10  -3 -12    0.29    0.21
 -10   3 -12   -0.22    0.28
   0   4 -12    0.37    0.17
   0   4  12    0.25    0.15
   0  -4  12    0.11    0.11
   0  -4  12   -0.08    0.07
   0  -4 -12    0.50    0.17
   0  -4 -12    0.18    0.09
   1   4 -12    5.45    0.39
   1  -4  12    5.09    0.32
   1  -4  12    5.12    0.32
   1   4 -12    5.28    0.34
  -1   4  12    5.45    0.43
  -1  -4 -12    5.74    0.41
   1   4  12    5.33    0.40
   1  -4 -12    5.96    0.39
  -1   4 -12    5.86    0.44
  -1  -4  12    5.37    0.33
   1  -4 -12    5.51    0.31
   2  -4  12    7.14    0.38
  -2   4  12    7.48    0.50
  -2  -4 -12    7.61    0.48
   2  -4  12    8.18    0.39
   2   4 -12    7.68    0.43
   2   4 -12    7.93    0.44
  -2   4 -12    6.60    0.48
  -2  -4  12    7.33    0.41
   2   4  12    7.00    0.47
   2  -4 -12    7.66    0.39
   3   4 -12   12.77    0.53
   3  -4  12   12.59    0.52
  -3  -4 -12   12.49    0.63
   3   4 -12   11.62    0.55
   3  -4  12   12.82    0.49
  -3   4  12   11.83    0.63
  -3  -4  12   12.28    0.55
   3   4  12   12.03    0.61
  -3   4 -12   11.29    0.65
   3  -4 -12   12.36    0.54
  -4  -4 -12    9.11    0.56
  -4   4  12    9.55    0.58
   4  -4  12   10.21    0.50
   4   4 -12    8.51    0.49
  -4  -4  12    9.63    0.51
  -4   4 -12    8.80    0.58
   4   4  12    8.39    0.52
   4  -4 -12    9.56    0.50
  -5   4  12    1.07    0.27
   5   4 -12    1.07    0.24
   5  -4  12    1.31    0.25
  -5  -4 -12    0.90    0.27
   5   4  12    0.86    0.23
  -5   4 -12    0.94    0.28
   5  -4 -12    1.07    0.24
  -5  -4  12    1.75    0.30
   6   4 -12   18.64    0.80
   6  -4  12   16.91    0.73
  -6   4  12   17.68    0.84
  -6  -4 -12   18.53    0.88
   6   4  12   16.71    0.80
  -6  -4  12   18.39    0.77
  -6   4 -12   16.39    0.83
   6  -4 -12   18.37    0.78
   7  -4  12    1.54    0.30
  -7  -4 -12    1.25    0.32
  -7   4  12    1.81    0.35
   7   4 -12    1.07    0.26
   7   4  12    1.63    0.32
  -7  -4  12    1.02    0.28
  -7   4 -12    1.74    0.37
   7  -4 -12    1.12    0.26
   8  -4  12   20.24    0.91
  -8   4  12   20.73    0.98
  -8  -4 -12   23.07    1.06
   8   4 -12   20.62    0.92
   8   4  12   22.14    0.99
   8  -4 -12   20.93    0.93
  -8  -4  12   20.38    0.91
  -8   4 -12   20.81    1.00
   9  -4  12    0.78    0.30
  -9   4  12    0.45    0.28
   9   4 -12    0.73    0.27
  -9  -4 -12    0.95    0.36
   9  -4 -12    0.54    0.25
   9   4  12    0.72    0.27
  -9  -4  12    0.83    0.32
  -9   4 -12    0.52    0.33
  10  -4  12    4.84    0.59
 -10   4  12    4.91    0.63
 -10  -4 -12    4.37    0.64
  10   4 -12    3.41    0.48
  10  -4 -12    4.56    0.55
 -10  -4  12    4.11    0.55
  10   4  12    4.30    0.57
 -10   4 -12    3.88    0.58
   0   5  12    0.05    0.12
   0   5 -12    0.22    0.17
   0  -5  12    0.00    0.08
   0  -5 -12    0.01    0.12
   1  -5  12   13.43    0.54
   1   5 -12   14.36    0.62
  -1   5  12   14.07    0.66
  -1  -5 -12   13.89    0.61
  -1   5 -12   14.82    0.68
   1  -5 -12   13.99    0.57
   1   5  12   14.17    0.65
  -1  -5  12   14.10    0.59
   1  -5 -12   13.82    0.50
   2   5 -12    7.70    0.44
   2   5 -12    7.30    0.44
  -2   5  12    7.69    0.50
  -2  -5 -12    6.85    0.45
   2  -5  12    7.17    0.38
   2   5  12    6.59    0.46
  -2   5 -12    7.50    0.51
   2  -5 -12    7.03    0.39
  -3  -5 -12    0.45    0.18
   3  -5  12    0.68    0.15
   3   5 -12    0.41    0.16
  -3   5  12    0.28    0.18
   3   5 -12    0.52    0.17
   3   5  12    0.22    0.14
  -3   5 -12    0.53    0.25
   3  -5 -12    0.48    0.16
   4   5 -12    5.82    0.42
  -4  -5 -12    5.54    0.46
  -4   5  12    6.24    0.48
  -4   5 -12    7.07    0.53
   4  -5 -12    6.58    0.42
   4   5  12    7.61    0.50
  -5   5  12    0.15    0.19
   5   5 -12    0.31    0.17
  -5  -5 -12    0.28    0.19
  -5   5 -12    0.17    0.24
   5   5  12    0.71    0.21
   5  -5 -12    0.15    0.16
   6   5 -12    0.88    0.25
  -6   5  12    0.67    0.25
  -6  -5 -12    0.64    0.27
  -6   5 -12    1.00    0.29
   6   5  12    0.86    0.24
   6  -5 -12    0.85    0.23
  -7   5  12    0.57    0.26
   7   5 -12    0.37    0.18
  -7  -5 -12    0.62    0.27
   7   5  12   -0.04    0.17
   7  -5 -12    0.40    0.20
  -7   5 -12    0.24    0.25
  -8   5  12    0.47    0.25
  -8  -5 -12    1.30    0.35
   8   5 -12    1.15    0.27
  -8   5 -12    0.75    0.32
   8  -5 -12    0.93    0.27
   8   5  12    0.98    0.29
  -9  -5 -12    2.38    0.47
   9   5 -12    2.65    0.42
  -9   5  12    2.40    0.43
   9   5  12    2.07    0.40
  -9   5 -12    2.59    0.48
   9  -5 -12    2.87    0.43
  10   5 -12    0.13    0.19
 -10  -5 -12    0.15    0.31
 -10   5  12    0.21    0.26
  10   5  12    0.20    0.25
 -10   5 -12   -0.03    0.29
   0  -6 -12   56.16    1.35
   0   6 -12   54.51    1.41
   0   6  12   55.94    1.45
   0  -6  12   55.10    1.33
   1  -6  12   18.87    0.68
   1   6 -12   20.37    0.77
  -1   6  12   17.81    0.77
  -1  -6 -12   18.68    0.74
  -1   6 -12   18.17    0.76
   1  -6 -12   19.24    0.68
   1  -6 -12   19.42    0.62
  -1  -6  12   19.10    0.72
   1   6  12   19.22    0.78
   2   6 -12   -0.10    0.12
   2  -6  12    0.07    0.12
  -2   6  12   -0.24    0.11
  -2  -6 -12   -0.08    0.11
   2   6 -12    0.10    0.12
   2  -6 -12   -0.05    0.10
  -2   6 -12    0.11    0.18
   2   6  12    0.02    0.12
   3  -6  12   21.01    0.71
  -3   6  12   21.60    0.87
  -3  -6 -12   21.08    0.84
   3   6 -12   20.87    0.79
   3   6 -12   20.56    0.75
  -3   6 -12   20.63    0.85
   3   6  12   21.40    0.84
   3  -6 -12   21.81    0.74
   4  -6  12   11.79    0.52
   4   6 -12   11.59    0.61
   4   6 -12   12.71    0.57
  -4   6  12   11.28    0.65
  -4  -6 -12   11.36    0.64
  -4   6 -12   11.89    0.68
   4   6  12   12.21    0.65
   4  -6 -12   11.93    0.57
   5   6 -12    1.06    0.24
  -5  -6 -12    0.51    0.23
  -5   6  12    0.72    0.24
   5  -6 -12    0.93    0.23
   5   6  12    0.98    0.25
  -5   6 -12    1.42    0.34
  -6  -6 -12   23.16    1.01
  -6   6  12   20.54    0.95
   6   6 -12   23.11    0.92
   6   6  12   23.01    0.96
  -6   6 -12   22.52    0.99
   6  -6 -12   21.89    0.87
  -7   6  12   12.63    0.75
   7   6 -12   12.04    0.68
  -7  -6 -12    9.90    0.71
  -7   6 -12   12.01    0.73
   7  -6 -12   11.12    0.65
   7   6  12   12.47    0.74
   8   6 -12   15.32    0.80
  -8   6  12   14.13    0.84
  -8  -6 -12   14.61    0.88
   8  -6 -12   16.10    0.81
   8   6  12   15.11    0.85
  -8   6 -12   14.59    0.83
  -9  -6 -12    2.23    0.46
   9   6 -12    2.52    0.40
  -9   6  12    2.98    0.51
   9  -6 -12    2.69    0.42
  -9   6 -12    2.30    0.44
   9   6  12    2.04    0.39
 -10  -6 -12   10.24    0.83
 -10   6 -12   10.51    0.78
   0  -7 -12    0.05    0.14
   0   7  12   -0.19    0.11
   0  -7  12   -0.08    0.10
   0   7 -12    0.05    0.15
  -1   7  12   41.94    1.25
   1  -7  12   40.93    1.11
   1   7 -12   41.37    1.20
  -1  -7 -12   41.52    1.17
  -1   7 -12   41.09    1.23
   1  -7 -12   40.35    0.99
   1  -7 -12   41.96    1.09
  -1  -7  12   40.11    1.15
   1   7  12   39.75    1.21
   2   7 -12    4.61    0.39
   2  -7  12    4.60    0.34
  -2   7  12    3.90    0.43
  -2  -7 -12    4.32    0.44
   2  -7 -12    4.56    0.33
  -2   7 -12    4.77    0.47
   2   7  12    4.11    0.43
  -2  -7  12    4.98    0.39
  -3   7  12    2.19    0.35
   3   7 -12    2.56    0.33
   3  -7  12    2.57    0.30
  -3  -7 -12    2.80    0.37
   3   7 -12    2.61    0.34
  -3   7 -12    2.81    0.38
   3  -7 -12    2.37    0.29
   3   7  12    2.43    0.36
  -4  -7 -12    3.11    0.40
   4   7 -12    3.36    0.36
   4   7 -12    3.18    0.38
   4  -7  12    3.54    0.35
  -4   7  12    3.12    0.42
   4  -7 -12    3.19    0.36
   4   7  12    2.44    0.36
  -4   7 -12    3.06    0.41
  -5   7  12    2.27    0.38
  -5  -7 -12    2.24    0.37
   5   7 -12    2.06    0.34
   5  -7 -12    1.77    0.29
   5   7  12    2.52    0.38
  -5   7 -12    1.86    0.34
  -6   7  12    4.50    0.52
  -6  -7 -12    3.56    0.48
   6   7 -12    4.00    0.45
  -6   7 -12    3.74    0.48
   6   7  12    4.57    0.51
   6  -7 -12    3.97    0.44
  -7  -7 -12   -0.05    0.20
   7   7 -12    0.50    0.22
  -7   7  12    0.57    0.25
  -7   7 -12    0.73    0.30
   7   7  12    0.04    0.18
   7  -7 -12    0.34    0.21
  -8   7  12    0.41    0.27
   8   7 -12    0.58    0.22
  -8  -7 -12    0.39    0.27
   8   7  12    0.41    0.25
   8  -7 -12    0.91    0.27
  -8   7 -12    0.80    0.32
   9   7 -12    5.87    0.60
  -9  -7 -12    6.03    0.70
  -9   7  12    5.99    0.67
  -9   7 -12    5.08    0.61
   9   7  12    5.47    0.62
   9  -7 -12    5.25    0.59
   0  -8 -12  104.12    2.13
   0   8  12  102.72    2.25
   0   8 -12  102.45    2.24
   0  -8  12   99.83    2.13
  -1  -8 -12    8.69    0.53
  -1   8  12    7.93    0.53
   1  -8  12    9.20    0.51
   1   8 -12    8.52    0.54
   1  -8 -12    8.47    0.48
  -1  -8  12    9.51    0.54
   1   8  12    7.44    0.53
  -1   8 -12    9.01    0.56
   2   8 -12   39.19    1.17
   2  -8  12   39.04    1.11
  -2   8  12   38.46    1.22
  -2  -8 -12   36.38    1.16
  -2  -8  12   36.11    1.14
   2  -8 -12   36.93    1.01
  -2   8 -12   36.29    1.19
   2   8  12   37.17    1.18
  -3  -8 -12    0.62    0.22
   3   8 -12    0.34    0.18
  -3   8  12    0.18    0.18
   3  -8  12    0.35    0.16
  -3   8 -12    0.45    0.22
   3   8  12    0.34    0.19
  -3  -8  12    0.46    0.18
   3  -8 -12    0.45    0.17
  -4   8  12    7.43    0.55
   4   8 -12    8.94    0.53
  -4  -8 -12    8.13    0.57
   4   8 -12    7.86    0.53
   4  -8  12    8.83    0.50
   4  -8 -12    8.60    0.50
  -4  -8  12    9.02    0.56
   4   8  12    7.43    0.53
  -4   8 -12    8.99    0.60
  -5  -8 -12    0.44    0.21
  -5   8  12    0.78    0.27
   5   8 -12    0.88    0.24
  -5   8 -12    1.13    0.30
   5   8  12    0.75    0.23
   5  -8 -12    0.79    0.22
   6   8 -12    4.76    0.50
  -6   8  12    5.36    0.57
  -6  -8 -12    4.65    0.55
   6  -8 -12    4.70    0.47
  -6   8 -12    4.43    0.53
   6   8  12    5.35    0.55
  -7   8  12    0.69    0.29
  -7  -8 -12    0.87    0.31
   7   8 -12    0.39    0.20
   7  -8 -12    0.63    0.23
  -7   8 -12    0.64    0.27
   7   8  12    0.56    0.24
  -8  -8 -12    4.38    0.60
  -8   8  12    4.27    0.57
   8   8 -12    4.73    0.53
   8   8  12    4.90    0.57
  -8   8 -12    6.31    0.64
   8  -8 -12    4.89    0.54
  -9   8  12   -0.26    0.22
  -9  -8 -12   -0.07    0.27
   9   8 -12    0.30    0.21
  -9   8 -12    0.56    0.32
   9   8  12   -0.06    0.20
   9  -8 -12    0.26    0.24
   0   9  12    0.12    0.16
   0  -9 -12    0.11    0.14
   0   9 -12    0.12    0.18
   0  -9  12   -0.07    0.10
   1   9 -12    5.76    0.54
  -1   9  12    5.03    0.50
   1  -9  12    4.42    0.43
  -1  -9 -12    4.24    0.44
   1   9  12    5.44    0.45
  -1   9 -12    5.30    0.52
  -1  -9  12    4.88    0.40
   2  -9  12    7.73    0.49
   2   9 -12    6.77    0.49
  -2  -9 -12    7.58    0.53
  -2   9  12    8.12    0.56
  -2  -9  12    7.74    0.51
   2  -9 -12    6.65    0.41
   2   9  12    7.38    0.53
  -2   9 -12    7.29    0.53
  -3   9  12    4.21    0.47
   3   9 -12    5.08    0.49
  -3  -9 -12    5.39    0.54
   3  -9  12    4.27    0.43
   3  -9 -12    5.46    0.40
  -3  -9  12    4.80    0.48
   3   9  12    4.66    0.49
  -3   9 -12    5.20    0.55
   4  -9  12    9.43    0.54
  -4  -9 -12   10.02    0.65
  -4   9  12    9.40    0.62
   4   9 -12    9.50    0.57
   4   9  12    9.34    0.60
   4  -9 -12    8.94    0.53
  -4   9 -12    8.98    0.62
  -4  -9  12    9.27    0.58
  -5   9  12   26.56    1.08
  -5  -9 -12   27.90    1.13
   5  -9  12   26.75    0.94
   5  -9 -12   27.37    0.99
  -5  -9  12   26.13    1.04
   5   9  12   27.65    1.08
  -5   9 -12   25.11    1.05
   6   9 -12    0.10    0.15
  -6  -9 -12   -0.06    0.18
  -6   9  12    0.30    0.25
  -6   9 -12    0.67    0.28
   6   9  12    0.38    0.23
   6  -9 -12    0.04    0.17
   7   9 -12   -0.23    0.15
  -7  -9 -12    0.05    0.21
  -7   9  12    0.02    0.19
   7   9  12   -0.03    0.19
  -7   9 -12    0.19    0.25
   7  -9 -12   -0.12    0.16
  -8  -9 -12    0.20    0.26
  -8   9  12    0.24    0.28
   8   9 -12    0.18    0.20
   8   9  12    0.07    0.19
   8  -9 -12    0.26    0.22
  -8   9 -12    0.23    0.26
  -9   9 -12    1.83    0.42
   0  10 -12    3.93    0.47
   0  10  12    2.90    0.39
   0 -10  12    3.48    0.41
   0 -10 -12    3.38    0.38
  -1 -10 -12    2.66    0.37
   1  10 -12    2.34    0.37
  -1  10  12    2.55    0.37
   1 -10  12    2.41    0.34
  -1 -10  12    2.09    0.34
  -1  10 -12    2.49    0.38
   1  10  12    2.70    0.38
   2  10 -12    3.10    0.41
  -2 -10 -12    3.36    0.42
   2 -10  12    3.04    0.38
  -2  10  12    2.69    0.39
  -2  10 -12    3.45    0.45
  -2 -10  12    3.36    0.41
   2  10  12    3.16    0.41
  -3  10  12    5.84    0.56
   3  10 -12    5.49    0.53
  -3 -10 -12    6.04    0.51
   3 -10  12    5.32    0.43
   3 -10 -12    5.68    0.42
  -3  10 -12    4.98    0.53
   3  10  12    4.71    0.49
  -3 -10  12    5.02    0.51
  -4 -10 -12    2.71    0.42
   4 -10  12    2.51    0.36
   4  10 -12    2.81    0.39
  -4  10  12    2.85    0.42
   4  10  12    2.75    0.40
  -4 -10  12    3.01    0.42
   4 -10 -12    2.08    0.31
  -4  10 -12    1.52    0.32
  -5 -10 -12   -0.12    0.17
   5 -10  12    0.67    0.23
  -5  10  12    0.35    0.21
  -5  10 -12    0.13    0.19
   5  10  12    0.43    0.21
   5 -10 -12    0.28    0.18
  -5 -10  12    0.43    0.22
  -6 -10 -12    0.13    0.21
  -6  10  12    0.30    0.23
   6  10  12    0.02    0.18
   6 -10 -12    0.26    0.19
  -6  10 -12    0.63    0.28
  -6 -10  12    0.48    0.22
  -7  10  12    1.41    0.37
  -7 -10 -12    1.27    0.36
   7  10  12    1.49    0.36
  -7  10 -12    1.32    0.35
   7 -10 -12    2.17    0.38
  -7 -10  12    1.66    0.34
   8  10 -12    1.16    0.31
  -8  10  12    1.58    0.40
  -8 -10 -12    1.63    0.42
   8 -10 -12    1.60    0.36
  -8  10 -12    1.24    0.35
   8  10  12    1.49    0.37
   0  11  12   -0.03    0.15
   0 -11  12   -0.09    0.13
   0  11 -12   -0.01    0.14
   0 -11 -12   -0.01    0.14
   1  11 -12    9.91    0.63
  -1 -11 -12   10.30    0.62
  -1  11  12    9.64    0.62
   1 -11  12    8.87    0.57
   1  11  12   10.11    0.62
  -1 -11  12    9.45    0.59
  -1  11 -12   10.13    0.65
  -2 -11 -12    3.32    0.44
   2  11 -12    2.44    0.37
  -2  11  12    2.20    0.36
   2 -11  12    2.56    0.36
   2  11  12    3.15    0.42
  -2  11 -12    3.27    0.44
  -2 -11  12    2.80    0.38
  -3 -11 -12    0.07    0.17
   3 -11  12    0.34    0.18
   3  11 -12    0.10    0.18
  -3  11  12   -0.15    0.16
   3  11  12    0.14    0.17
  -3 -11  12    0.28    0.18
   3 -11 -12   -0.13    0.13
  -3  11 -12    0.10    0.20
  -4 -11 -12    4.33    0.54
   4  11 -12    5.08    0.53
  -4  11  12    5.57    0.58
   4 -11  12    6.21    0.48
   4 -11 -12    5.04    0.48
   4  11  12    4.70    0.53
  -4  11 -12    5.51    0.59
  -4 -11  12    6.45    0.61
  -5 -11 -12    0.77    0.29
  -5  11  12    1.18    0.31
   5 -11  12    0.92    0.26
   5  11 -12    1.01    0.28
   5 -11 -12    0.86    0.25
  -5 -11  12    1.84    0.36
   5  11  12    0.68    0.26
  -5  11 -12    0.85    0.29
  -6 -11 -12    0.11    0.22
  -6  11  12    0.12    0.21
   6 -11 -12   -0.04    0.16
  -6  11 -12    0.40    0.27
   6  11  12   -0.21    0.18
  -6 -11  12   -0.17    0.15
  -7  11  12    0.42    0.27
  -7 -11 -12    0.02    0.24
   7  11  12    0.28    0.22
  -7  11 -12    0.19    0.23
   7 -11 -12    0.20    0.21
  -7 -11  12    0.16    0.20
  -8  11  12    0.17    0.26
  -8  11 -12    0.64    0.31
   8  11  12    0.49    0.29
   0  12  12    0.56    0.23
   0 -12  12    1.50    0.29
   0 -12 -12    0.58    0.22
   0  12 -12    0.76    0.25
   1  12 -12    3.26    0.45
  -1  12  12    4.13    0.48
  -1 -12 -12    3.95    0.46
   1 -12  12    3.35    0.41
  -1  12 -12    3.65    0.48
   1  12  12    3.63    0.45
  -1 -12  12    2.98    0.40
   2  12 -12   13.03    0.75
   2 -12  12   12.73    0.70
  -2 -12 -12   12.94    0.73
  -2  12  12   12.11    0.72
  -2  12 -12   12.99    0.78
   2  12  12   12.68    0.72
  -2 -12  12   12.38    0.71
  -3 -12 -12    0.24    0.23
  -3  12  12    0.92    0.28
   3 -12  12    1.04    0.27
   3  12 -12    0.62    0.23
   3  12  12    0.83    0.28
  -3 -12  12    1.15    0.28
   3 -12 -12    0.46    0.20
  -3  12 -12    1.15    0.31
  -4  12  12   13.13    0.78
   4  12 -12   13.26    0.76
  -4 -12 -12   13.48    0.81
   4 -12  12   12.31    0.70
   4 -12 -12   12.70    0.68
   4  12  12   12.87    0.75
  -4 -12  12   12.80    0.75
  -4  12 -12   14.29    0.82
   5  12 -12    1.11    0.30
  -5 -12 -12    1.11    0.34
   5 -12  12    0.38    0.22
  -5  12  12    1.26    0.33
   5 -12 -12    0.99    0.29
   5  12  12    0.67    0.26
  -5  12 -12    1.17    0.32
  -5 -12  12    0.55    0.26
  -6  12  12    8.06    0.66
  -6 -12 -12    7.48    0.74
  -6  12 -12    7.08    0.71
  -6 -12  12    7.56    0.62
   6 -12 -12    7.79    0.59
   6  12  12    6.36    0.64
  -7  12  12    1.51    0.40
   7 -12 -12    2.03    0.39
  -7 -12  12    2.63    0.44
   7  12  12    2.28    0.42
  -7  12 -12    1.76    0.41
   0  13 -12    0.07    0.17
   0  13  12    0.00    0.18
   0 -13  12   -0.14    0.13
  -1  13  12    2.85    0.41
   1  13 -12    2.89    0.45
  -1 -13 -12    3.00    0.42
   1 -13  12    2.89    0.43
  -1  13 -12    2.92    0.45
  -1 -13  12    2.42    0.39
   1  13  12    2.70    0.40
   2  13 -12    9.80    0.69
   2 -13  12    9.58    0.64
  -2  13  12   11.54    0.70
  -2 -13 -12   11.07    0.71
  -2 -13  12   10.09    0.66
  -2  13 -12    8.87    0.67
   2  13  12    9.46    0.63
  -3 -13 -12    0.56    0.27
   3 -13  12    0.34    0.20
   3  13 -12    0.80    0.28
  -3  13  12    0.78    0.27
  -3  13 -12    0.63    0.28
  -3 -13  12    0.93    0.29
   3  13  12    0.87    0.27
  -4 -13 -12    6.30    0.66
   4 -13  12    6.48    0.62
   4  13 -12    6.04    0.63
  -4  13  12    5.46    0.60
   4  13  12    5.11    0.56
  -4  13 -12    4.88    0.59
   4 -13 -12    5.25    0.52
  -4 -13  12    5.72    0.60
  -5  13  12    5.74    0.62
   5  13 -12    5.92    0.62
   5 -13  12    4.26    0.51
  -5 -13 -12    4.70    0.58
   5  13  12    4.96    0.56
  -5  13 -12    5.72    0.63
  -5 -13  12    4.87    0.58
   5 -13 -12    3.49    0.45
   6 -13  12    0.28    0.24
  -6  13  12    0.43    0.27
  -6  13 -12    0.55    0.30
   6 -13 -12    0.32    0.23
  -6 -13  12    0.30    0.24
   6  13  12    0.26    0.23
  -7  13  12   -0.03    0.24
   7  13  12    0.38    0.27
   0 -14  12    7.69    0.58
   0  14 -12    7.28    0.61
  -1 -14 -12   -0.13    0.18
   1 -14  12    0.15    0.19
   1  14 -12   -0.05    0.17
  -1  14 -12    0.02    0.19
  -1 -14  12   -0.04    0.16
   2 -14  12   20.00    0.95
   2  14 -12   21.19    1.04
  -2 -14 -12   20.75    0.99
  -2  14 -12   21.63    1.06
  -2 -14  12   20.49    0.97
   3  14 -12   -0.02    0.21
  -3 -14 -12    0.15    0.23
   3 -14  12    0.32    0.21
  -3  14 -12    0.13    0.23
  -3 -14  12    0.34    0.22
  -4 -14 -12    7.86    0.66
   4  14 -12    8.82    0.68
   4 -14  12    8.68    0.64
  -4 -14  12    8.33    0.65
  -4  14 -12    8.11    0.68
   5 -14  12    0.59    0.26
   5  14 -12    1.01    0.32
  -5  14 -12    0.72    0.32
   5 -14 -12    0.77    0.29
   6 -14  12    5.29    0.60
   0 -15  12    0.03    0.18
   0  15 -12    0.23    0.24
   1 -15  12    0.29    0.20
  -1 -15 -12    0.38    0.26
   1  15 -12   -0.09    0.19
  -1 -15  12    0.07    0.19
  -1  15 -12    0.10    0.19
  -2 -15 -12    0.25    0.22
   2  15 -12    0.02    0.18
   2 -15  12   -0.14    0.17
  -2 -15  12   -0.22    0.14
  -2  15 -12    0.09    0.23
  -3 -15 -12   -0.15    0.23
   3 -15  12    0.45    0.26
   3  15 -12    0.28    0.25
  -3 -15  12   -0.34    0.16
  -3  15 -12    0.60    0.28
   4  15 -12    0.73    0.30
   4 -15  12    0.31    0.23
  -2 -16 -12    1.74    0.42
   0   0  13    0.22    0.15
   0   0 -13   -0.05    0.08
   0   0 -13   -0.28    0.13
   1   0 -13    0.17    0.17
   1   0  13    0.09    0.12
  -1   0 -13   -0.23    0.15
   1   0 -13   -0.04    0.08
  -1   0  13   -0.06    0.13
   2   0  13    0.01    0.12
   2   0 -13    0.05    0.15
   2   0 -13    0.13    0.12
  -2   0 -13   -0.21    0.16
  -2   0  13    0.02    0.15
  -3   0 -13   -0.18    0.18
   3   0 -13   -0.06    0.10
   3   0  13   -0.10    0.12
  -3   0  13    0.06    0.17
  -4   0 -13    0.06    0.17
   4   0 -13   -0.15    0.09
   4   0  13    0.11    0.13
  -4   0  13   -0.01    0.17
  -5   0 -13   -0.01    0.21
  -5   0  13   -0.03    0.17
   5   0 -13    0.15    0.16
   5   0  13    0.12    0.15
   6   0 -13    0.02    0.14
  -6   0  13   -0.08    0.17
  -6   0 -13    0.11    0.24
   6   0  13    0.02    0.15
   7   0 -13   -0.06    0.14
  -7   0  13    0.20    0.21
   7   0  13    0.16    0.18
  -7   0 -13   -0.38    0.20
   8   0  13    0.13    0.20
  -8   0 -13   -0.06    0.24
  -8   0  13   -0.02    0.20
   8   0 -13    0.10    0.17
   9   0 -13   -0.18    0.14
  -9   0  13    0.15    0.24
  -9   0 -13   -0.17    0.25
   9   0  13   -0.03    0.21
  10   0  13    0.25    0.26
 -10   0 -13   -0.05    0.32
  10   0 -13   -0.07    0.14
 -10   0  13    0.03    0.25
   0   1 -13    0.07    0.18
   0   1  13    0.12    0.13
   0  -1 -13   -0.05    0.16
   0  -1  13   -0.10    0.11
   0  -1 -13   -0.05    0.08
   0   1 -13    0.06    0.09
  -1  -1 -13    4.46    0.44
   1  -1  13    5.75    0.39
  -1   1  13    5.32    0.41
   1   1 -13    5.57    0.34
   1   1 -13    5.36    0.40
   1   1  13    6.10    0.41
  -1   1 -13    6.04    0.45
  -1  -1  13    5.72    0.40
   1  -1 -13    5.32    0.40
   1  -1 -13    5.70    0.33
  -2  -1 -13   12.49    0.65
   2   1 -13   11.44    0.51
   2  -1  13   11.53    0.54
  -2   1  13   11.95    0.61
   2   1 -13   11.21    0.50
   2   1  13   11.95    0.57
  -2  -1  13   11.46    0.57
   2  -1 -13   11.69    0.50
   2  -1 -13   11.21    0.49
  -2   1 -13   12.42    0.65
   3   1 -13   65.45    1.49
  -3  -1 -13   68.72    1.72
   3  -1  13   64.56    1.52
  -3   1  13   63.35    1.59
  -3   1 -13   65.61    1.69
  -3  -1  13   66.45    1.56
   3  -1 -13   65.88    1.49
   3   1  13   64.92    1.57
   4  -1  13    0.04    0.15
   4   1 -13   -0.05    0.10
  -4  -1 -13    0.03    0.18
  -4   1  13   -0.04    0.16
  -4   1 -13   -0.11    0.17
  -4  -1  13    0.11    0.19
   4  -1 -13    0.32    0.17
   4   1  13    0.05    0.13
   5   1 -13   36.22    1.11
  -5   1  13   36.31    1.17
  -5  -1 -13   35.37    1.24
   5  -1  13   37.34    1.13
   5   1  13   34.60    1.13
  -5   1 -13   33.78    1.22
  -5  -1  13   36.39    1.14
   5  -1 -13   35.88    1.09
  -6  -1 -13    2.10    0.40
  -6   1  13    2.67    0.39
   6   1 -13    2.16    0.33
   6  -1  13    2.62    0.36
   6  -1 -13    1.95    0.31
  -6   1 -13    1.60    0.36
  -6  -1  13    2.57    0.39
   6   1  13    2.17    0.35
  -7   1  13   19.95    0.91
   7   1 -13   19.46    0.85
   7  -1  13   20.52    0.89
  -7  -1 -13   20.74    1.01
   7   1  13   19.55    0.89
  -7   1 -13   20.45    0.99
   7  -1 -13   19.32    0.86
  -7  -1  13   19.46    0.87
   8   1 -13    4.08    0.48
  -8  -1 -13    4.28    0.57
  -8   1  13    4.17    0.52
   8  -1  13    3.77    0.47
   8   1  13    4.78    0.54
  -8  -1  13    4.94    0.55
  -8   1 -13    4.32    0.59
   8  -1 -13    4.63    0.51
   9  -1  13    0.78    0.30
   9   1 -13    0.87    0.27
  -9  -1 -13    0.49    0.32
  -9   1  13    0.54    0.29
   9  -1 -13    0.22    0.22
   9   1  13    0.71    0.30
  -9   1 -13    0.61    0.33
  -9  -1  13    0.61    0.32
 -10  -1 -13    0.22    0.35
  10   1 -13    0.21    0.21
 -10   1  13    0.08    0.29
  10  -1  13    0.29    0.25
 -10   1 -13    0.58    0.34
  10   1  13    0.28    0.26
 -10  -1  13    0.63    0.34
  10  -1 -13    0.68    0.25
   0  -2 -13    3.40    0.24
   0  -2 -13    3.11    0.35
   0   2 -13    3.10    0.25
   0   2  13    3.07    0.36
   0   2 -13    3.14    0.36
   0  -2  13    2.80    0.30
   1   2 -13   27.45    0.79
  -1   2  13   25.55    0.90
   1  -2  13   27.31    0.83
   1   2 -13   27.01    0.85
   1  -2  13   25.75    0.73
  -1  -2 -13   28.54    0.95
  -1  -2  13   27.95    0.85
   1   2  13   27.92    0.92
   1  -2 -13   28.76    0.77
   1  -2 -13   26.79    0.84
  -1   2 -13   26.60    0.93
  -2   2  13    8.62    0.53
   2   2 -13    9.57    0.47
  -2  -2 -13    9.61    0.58
   2   2 -13    9.20    0.46
   2  -2  13    9.90    0.49
   2   2  13    8.99    0.52
   2  -2 -13    9.60    0.45
  -2  -2  13    9.84    0.51
  -2   2 -13    9.48    0.58
  -3  -2 -13   60.65    1.61
   3  -2  13   62.71    1.46
  -3   2  13   61.61    1.57
   3   2 -13   62.08    1.45
   3   2  13   60.82    1.53
   3  -2 -13   62.44    1.43
  -3  -2  13   62.99    1.49
  -3   2 -13   63.59    1.64
  -4   2  13    1.84    0.31
   4  -2  13    2.09    0.30
   4   2 -13    1.67    0.26
  -4  -2 -13    2.30    0.37
  -4  -2  13    1.43    0.29
   4   2  13    1.51    0.28
  -4   2 -13    2.13    0.36
   4  -2 -13    1.98    0.28
   5   2 -13    2.11    0.31
  -5   2  13    1.83    0.33
  -5  -2 -13    2.07    0.37
   5  -2  13    2.09    0.31
   5   2  13    2.41    0.35
   5  -2 -13    2.39    0.33
  -5   2 -13    2.46    0.40
  -5  -2  13    2.03    0.32
   6   2 -13    0.18    0.18
  -6  -2 -13    0.22    0.22
  -6   2  13    0.47    0.23
   6  -2  13    0.08    0.18
  -6  -2  13    0.42    0.23
   6   2  13    0.02    0.15
   6  -2 -13    0.09    0.14
  -6   2 -13    0.17    0.24
   7   2 -13    8.12    0.55
  -7   2  13    7.50    0.58
   7  -2  13    8.98    0.58
  -7  -2 -13    8.06    0.66
  -7   2 -13    7.08    0.69
   7  -2 -13    7.76    0.54
   7   2  13    7.66    0.58
  -7  -2  13    8.38    0.57
   8  -2  13   -0.07    0.18
  -8  -2 -13   -0.55    0.18
   8   2 -13    0.03    0.14
  -8   2  13    0.14    0.26
  -8  -2  13   -0.20    0.20
   8   2  13    0.14    0.21
  -8   2 -13   -0.06    0.24
   8  -2 -13    0.21    0.18
  -9   2  13    8.13    0.68
  -9  -2 -13    8.25    0.82
   9   2 -13    8.27    0.61
   9  -2  13    8.69    0.66
  -9  -2  13    8.91    0.68
   9   2  13    9.21    0.68
  -9   2 -13    8.73    0.82
   9  -2 -13    8.16    0.63
  10  -2  13   -0.16    0.23
 -10  -2 -13   -0.11    0.33
  10   2 -13   -0.07    0.19
 -10   2  13    0.14    0.28
 -10   2 -13    0.09    0.30
  10   2  13   -0.06    0.22
 -10  -2  13    0.41    0.30
  10  -2 -13    0.05    0.20
   0   3  13   -0.11    0.11
   0  -3  13   -0.14    0.09
   0   3 -13   -0.13    0.07
   0   3 -13    0.05    0.16
   0  -3 -13    0.15    0.17
   1   3 -13   17.08    0.67
   1  -3  13   16.86    0.62
   1   3 -13   17.07    0.62
  -1   3  13   17.63    0.75
   1  -3  13   16.17    0.57
  -1  -3 -13   17.24    0.73
  -1  -3  13   15.97    0.62
   1  -3 -13   17.24    0.58
  -1   3 -13   17.34    0.73
   1  -3 -13   17.66    0.68
   1   3  13   17.40    0.73
  -2  -3 -13    2.49    0.35
   2   3 -13    2.64    0.30
   2  -3  13    2.74    0.30
   2   3 -13    2.29    0.29
  -2   3  13    2.30    0.34
   2  -3  13    3.01    0.24
   2   3  13    2.27    0.32
  -2   3 -13    2.63    0.37
  -2  -3  13    2.71    0.32
   2  -3 -13    2.69    0.28
  -3   3  13   30.16    1.03
   3  -3  13   30.84    0.91
   3   3 -13   29.67    0.86
  -3  -3 -13   28.96    1.04
   3   3 -13   29.15    0.92
  -3   3 -13   30.52    1.07
   3   3  13   30.50    1.01
   3  -3 -13   30.62    0.90
  -3  -3  13   30.36    0.94
   4   3 -13    1.21    0.23
   4  -3  13    1.69    0.27
  -4   3  13    1.19    0.28
  -4  -3 -13    2.12    0.36
   4  -3 -13    2.03    0.28
  -4  -3  13    1.87    0.30
   4   3  13    1.60    0.28
  -4   3 -13    1.79    0.34
   5  -3  13   25.99    0.90
  -5  -3 -13   27.69    1.07
  -5   3  13   24.39    0.97
   5   3 -13   23.68    0.89
  -5  -3  13   25.08    0.90
  -5   3 -13   27.21    1.07
   5   3  13   24.62    0.96
   5  -3 -13   24.14    0.88
   6   3 -13    0.21    0.18
  -6  -3 -13    0.32    0.25
  -6   3  13    0.07    0.20
   6  -3  13    0.24    0.17
   6  -3 -13    0.05    0.16
  -6  -3  13    0.28    0.22
   6   3  13    0.11    0.17
  -6   3 -13    0.14    0.25
  -7   3  13    5.31    0.56
  -7  -3 -13    5.98    0.65
   7   3 -13    6.59    0.50
   7  -3  13    6.91    0.51
   7   3  13    7.46    0.57
   7  -3 -13    6.11    0.50
  -7   3 -13    5.18    0.59
  -7  -3  13    6.98    0.54
  -8   3  13    2.05    0.40
   8   3 -13    2.43    0.37
   8  -3  13    3.09    0.44
  -8  -3 -13    2.09    0.46
  -8   3 -13    2.18    0.44
   8  -3 -13    2.31    0.38
  -8  -3  13    2.35    0.39
   8   3  13    3.22    0.47
   9   3 -13   11.73    0.73
  -9  -3 -13   11.98    0.86
   9  -3  13   12.68    0.79
  -9   3  13   11.86    0.79
   9   3  13   12.50    0.80
  -9   3 -13   11.72    0.84
   9  -3 -13   12.61    0.75
  -9  -3  13   12.26    0.77
  10   3 -13    3.00    0.46
 -10  -3 -13    4.44    0.65
  10  -3  13    3.45    0.53
 -10   3  13    3.53    0.56
  10   3  13    3.68    0.55
  10  -3 -13    3.07    0.45
 -10   3 -13    3.36    0.57
 -10  -3  13    3.15    0.51
   0   4 -13    0.28    0.18
   0  -4  13    0.06    0.11
   0  -4 -13    0.09    0.16
   0  -4  13    0.40    0.14
   0   4  13    0.40    0.20
   1  -4  13   11.72    0.50
   1   4 -13   12.10    0.57
  -1   4  13   11.22    0.61
   1   4 -13   11.81    0.53
   1  -4  13   11.81    0.50
  -1  -4 -13   11.05    0.58
   1   4  13   12.07    0.62
   1  -4 -13   11.32    0.47
  -1  -4  13   12.36    0.52
   1  -4 -13   12.52    0.56
  -1   4 -13   12.12    0.63
   2  -4  13    9.56    0.43
   2  -4  13    8.81    0.44
   2   4 -13    8.37    0.47
   2   4 -13    9.30    0.49
  -2  -4 -13    8.53    0.53
  -2   4  13    8.18    0.53
  -2   4 -13    8.98    0.57
   2   4  13    9.04    0.54
  -2  -4  13    9.17    0.47
   2  -4 -13    9.30    0.45
   3   4 -13    2.01    0.28
  -3   4  13    2.44    0.36
   3   4 -13    2.61    0.29
  -3  -4 -13    2.45    0.35
   3  -4  13    2.90    0.31
  -3   4 -13    2.77    0.39
   3   4  13    2.42    0.34
   3  -4 -13    2.29    0.28
  -3  -4  13    2.61    0.32
  -4   4  13    1.03    0.28
   4  -4  13    0.48    0.17
  -4  -4 -13    0.70    0.22
   4   4 -13    0.86    0.23
   4  -4 -13    0.68    0.20
  -4  -4  13    0.79    0.23
  -4   4 -13    0.96    0.28
   4   4  13    0.87    0.22
   5   4 -13    1.07    0.24
  -5  -4 -13    1.51    0.32
   5  -4  13    0.94    0.23
  -5   4  13    0.82    0.26
   5  -4 -13    1.35    0.25
   5   4  13    1.09    0.26
  -5  -4  13    1.47    0.29
  -5   4 -13    1.10    0.31
   6  -4  13    0.92    0.23
  -6  -4 -13    0.93    0.30
   6   4 -13    0.81    0.24
  -6   4  13    1.47    0.34
   6  -4 -13    0.70    0.23
  -6  -4  13    1.58    0.30
   6   4  13    1.37    0.30
  -6   4 -13    1.58    0.36
  -7   4  13    2.03    0.39
  -7  -4 -13    1.43    0.35
   7  -4  13    2.19    0.35
   7   4 -13    2.30    0.36
  -7   4 -13    1.66    0.37
   7   4  13    1.56    0.33
   7  -4 -13    2.16    0.35
  -7  -4  13    2.41    0.38
   8   4 -13    0.46    0.22
   8  -4  13    0.56    0.25
  -8   4  13    0.57    0.29
  -8  -4 -13    0.41    0.31
  -8   4 -13   -0.07    0.25
   8  -4 -13    0.35    0.21
   8   4  13    0.54    0.23
  -8  -4  13    0.17    0.22
  -9  -4 -13    0.79    0.38
   9   4 -13    0.97    0.29
   9  -4  13    0.52    0.27
  -9   4  13    1.34    0.39
  -9   4 -13    1.05    0.39
   9  -4 -13    0.79    0.28
   9   4  13    0.81    0.30
  -9  -4  13    0.98    0.34
 -10  -4 -13   -0.39    0.24
 -10   4 -13   -0.01    0.29
   0  -5 -13    0.12    0.14
   0  -5  13   -0.09    0.09
   0   5 -13   -0.11    0.14
   0   5  13   -0.19    0.13
  -1  -5 -13   54.47    1.40
   1  -5  13   54.39    1.29
   1   5 -13   55.54    1.39
  -1   5  13   55.70    1.48
  -1  -5  13   53.98    1.34
   1   5  13   54.14    1.45
   1  -5 -13   56.05    1.21
   1  -5 -13   54.89    1.32
  -1   5 -13   55.41    1.45
   2   5 -13    1.69    0.25
  -2  -5 -13    1.27    0.26
   2   5 -13    1.62    0.27
  -2   5  13    1.38    0.28
   2  -5  13    1.45    0.21
  -2   5 -13    1.32    0.29
   2   5  13    2.10    0.33
   2  -5 -13    1.32    0.21
  -3  -5 -13    0.16    0.16
   3   5 -13    0.26    0.14
   3  -5  13    0.68    0.16
  -3   5  13    0.49    0.23
   3   5 -13    0.64    0.18
   3   5  13    0.09    0.15
  -3   5 -13    0.49    0.21
   3  -5 -13    0.58    0.17
   4   5 -13   -0.02    0.12
  -4  -5 -13    0.18    0.18
  -4   5  13   -0.16    0.15
   4  -5 -13    0.02    0.12
  -4   5 -13   -0.02    0.19
   4   5  13   -0.22    0.11
  -5   5  13    2.05    0.37
  -5  -5 -13    2.27    0.38
   5   5 -13    2.21    0.33
  -5   5 -13    1.50    0.34
   5   5  13    2.15    0.36
   5  -5 -13    1.84    0.28
   6   5 -13    0.47    0.20
  -6  -5 -13    0.58    0.25
  -6   5  13    0.77    0.29
   6   5  13    0.70    0.24
   6  -5 -13    0.79    0.24
  -6   5 -13    0.94    0.31
  -7  -5 -13   -0.19    0.17
   7   5 -13    0.16    0.16
  -7   5  13    0.05    0.21
   7   5  13    0.10    0.21
  -7   5 -13   -0.26    0.18
   7  -5 -13   -0.22    0.14
  -8   5  13   -0.07    0.24
  -8  -5 -13    0.35    0.28
   8   5 -13   -0.02    0.17
   8  -5 -13    0.19    0.18
  -8   5 -13    0.26    0.28
   8   5  13    0.62    0.27
  -9   5  13   17.34    0.99
  -9  -5 -13   15.15    0.96
   9   5 -13   15.75    0.85
   9   5  13   16.77    0.95
   9  -5 -13   16.40    0.89
  -9   5 -13   16.97    0.95
 -10   5 -13    1.57    0.42
   0  -6  13    5.96    0.40
   0   6  13    5.93    0.45
   0   6 -13    5.24    0.43
   0  -6 -13    6.14    0.42
   1   6 -13    0.66    0.20
  -1  -6 -13    0.26    0.17
   1  -6  13    0.93    0.19
  -1   6  13    0.50    0.20
   1   6  13    0.80    0.22
  -1  -6  13    0.34    0.15
  -1   6 -13    0.75    0.23
   1  -6 -13    0.56    0.19
  -2  -6 -13    1.18    0.25
   2   6 -13    1.19    0.23
   2   6 -13    1.73    0.27
   2  -6  13    1.75    0.25
  -2   6  13    1.37    0.28
   2  -6 -13    1.86    0.26
   2   6  13    1.46    0.28
  -2   6 -13    1.10    0.26
  -2  -6  13    1.23    0.24
  -3  -6 -13    8.16    0.54
   3   6 -13    8.04    0.50
  -3   6  13    7.81    0.55
   3   6 -13    8.73    0.49
   3  -6  13    7.41    0.42
  -3   6 -13    8.43    0.56
   3  -6 -13    7.59    0.45
   3   6  13    7.93    0.53
  -4   6  13    1.15    0.28
   4   6 -13    0.81    0.23
  -4  -6 -13    0.87    0.26
   4  -6 -13    0.91    0.22
  -4   6 -13    0.70    0.25
   4   6  13    0.66    0.21
  -5   6  13    0.13    0.18
  -5  -6 -13    0.11    0.18
   5   6 -13   -0.11    0.12
  -5   6 -13    0.10    0.20
   5   6  13   -0.07    0.14
   5  -6 -13    0.17    0.15
  -6   6  13   -0.07    0.18
  -6  -6 -13    0.20    0.21
   6   6 -13    0.02    0.14
  -6   6 -13   -0.11    0.20
   6  -6 -13    0.10    0.17
   6   6  13   -0.14    0.13
   7   6 -13    1.40    0.30
  -7   6  13    2.00    0.39
  -7  -6 -13    1.30    0.34
  -7   6 -13    1.76    0.39
   7   6  13    1.62    0.34
   7  -6 -13    1.51    0.30
   8   6 -13   -0.07    0.16
  -8  -6 -13   -0.26    0.21
  -8   6  13    0.16    0.23
  -8   6 -13   -0.24    0.23
   8  -6 -13   -0.01    0.16
   8   6  13   -0.01    0.20
  -9  -6 -13    0.51    0.32
   9   6 -13    0.61    0.26
  -9   6  13   -0.17    0.23
  -9   6 -13    1.12    0.38
   9  -6 -13    0.76    0.27
   9   6  13    0.28    0.25
 -10   6 -13    0.51    0.37
   0  -7  13    0.10    0.12
   0   7  13    0.15    0.17
   0  -7 -13   -0.17    0.13
   0   7 -13    0.04    0.15
   1  -7  13   76.81    1.71
  -1  -7 -13   76.50    1.79
   1   7 -13   77.99    1.82
  -1   7  13   75.88    1.87
  -1  -7  13   75.17    1.76
  -1   7 -13   77.64    1.86
   1   7  13   74.16    1.84
  -2  -7 -13    2.24    0.34
   2  -7  13    2.57    0.30
  -2   7  13    2.62    0.38
   2   7 -13    2.27    0.32
  -2  -7  13    2.68    0.35
   2  -7 -13    2.74    0.30
  -2   7 -13    2.55    0.37
   2   7  13    2.39    0.36
  -3  -7 -13   17.15    0.79
   3   7 -13   18.57    0.75
   3  -7  13   16.83    0.67
  -3   7  13   17.10    0.82
   3   7 -13   17.30    0.76
   3  -7 -13   17.96    0.70
   3   7  13   16.94    0.79
  -3   7 -13   18.29    0.84
   4   7 -13    3.06    0.38
  -4   7  13    3.04    0.43
  -4  -7 -13    3.27    0.43
   4   7  13    2.94    0.40
  -4   7 -13    3.23    0.43
   4  -7 -13    3.53    0.39
  -5   7  13    0.03    0.19
  -5  -7 -13    0.10    0.17
   5   7 -13    0.12    0.16
   5   7  13    0.07    0.17
   5  -7 -13    0.06    0.13
  -5   7 -13    0.09    0.20
  -6   7  13    1.29    0.31
  -6  -7 -13    1.16    0.30
   6   7 -13    0.69    0.24
   6  -7 -13    1.10    0.27
  -6   7 -13    0.45    0.27
   6   7  13    0.77    0.26
  -7  -7 -13   -0.09    0.20
   7   7 -13    0.07    0.16
  -7   7  13   -0.12    0.20
   7   7  13    0.10    0.20
   7  -7 -13    0.07    0.18
  -7   7 -13    0.19    0.24
  -8  -7 -13    0.53    0.28
   8   7 -13    0.88    0.27
  -8   7  13    0.66    0.29
   8   7  13    0.66    0.27
  -8   7 -13    1.00    0.34
   8  -7 -13    0.78    0.26
   9   7 -13    7.99    0.62
  -9   7  13    7.35    0.75
  -9  -7 -13    9.08    0.87
   9  -7 -13    7.36    0.62
   9   7  13    7.63    0.74
  -9   7 -13    8.65    0.72
   0  -8 -13   15.88    0.69
   0   8 -13   14.26    0.72
   0  -8  13   15.26    0.68
   0   8  13   14.80    0.74
  -1   8  13   27.83    1.04
   1  -8  13   29.45    0.96
  -1  -8 -13   26.79    0.96
   1   8 -13   27.33    0.99
  -1   8 -13   27.41    1.03
  -1  -8  13   28.09    0.98
   1   8  13   27.45    1.03
  -2   8  13    0.73    0.25
   2   8 -13    0.88    0.24
  -2  -8 -13    0.42    0.20
   2  -8  13    0.88    0.21
   2  -8 -13    0.92    0.20
  -2   8 -13    0.63    0.23
   2   8  13    0.45    0.20
  -2  -8  13    0.68    0.20
  -3  -8 -13   18.31    0.84
  -3   8  13   17.12    0.83
   3  -8  13   18.08    0.72
   3   8 -13   19.14    0.79
   3   8  13   18.52    0.84
  -3   8 -13   17.97    0.85
  -3  -8  13   17.59    0.79
   3  -8 -13   17.40    0.70
  -4  -8 -13    0.80    0.26
  -4   8  13    0.56    0.22
   4   8 -13    0.85    0.23
   4  -8  13    0.67    0.20
   4   8 -13    0.52    0.21
  -4   8 -13    0.49    0.27
   4  -8 -13    0.83    0.22
  -4  -8  13    0.36    0.18
   4   8  13    0.75    0.23
   5   8 -13    0.18    0.17
  -5   8  13    0.09    0.18
  -5  -8 -13   -0.08    0.18
  -5   8 -13    0.44    0.23
   5   8  13    0.11    0.18
   5  -8 -13   -0.01    0.14
  -6  -8 -13    1.32    0.34
  -6   8  13    1.51    0.34
   6   8 -13    1.86    0.33
   6   8  13    1.04    0.27
  -6   8 -13    1.75    0.39
   6  -8 -13    1.66    0.32
   7   8 -13    5.12    0.55
  -7  -8 -13    6.49    0.69
  -7   8  13    6.90    0.70
   7   8  13    6.53    0.65
  -7   8 -13    6.36    0.65
   7  -8 -13    6.85    0.54
   8   8 -13    1.60    0.34
  -8  -8 -13    1.17    0.38
  -8   8  13    1.13    0.37
   8   8  13    1.25    0.35
   8  -8 -13    1.79    0.36
  -8   8 -13    1.04    0.33
  -9   8 -13    5.94    0.66
   0  -9  13    0.04    0.12
   0   9 -13   -0.05    0.15
   0   9  13   -0.05    0.14
   0  -9 -13   -0.14    0.13
  -1  -9 -13   12.39    0.65
   1  -9  13   12.62    0.63
   1   9 -13   12.38    0.68
  -1   9  13   12.65    0.70
  -1  -9  13   12.07    0.64
  -1   9 -13   11.04    0.66
   1   9  13   11.63    0.67
   2  -9  13   19.35    0.79
  -2  -9 -13   19.70    0.86
  -2   9  13   20.53    0.91
   2   9 -13   19.37    0.84
  -2  -9  13   20.07    0.85
   2   9  13   19.58    0.87
  -2   9 -13   18.75    0.87
   3  -9  13    7.29    0.48
   3   9 -13    6.68    0.50
  -3   9  13    6.49    0.62
  -3  -9 -13    7.39    0.55
  -3  -9  13    7.50    0.53
  -3   9 -13    7.61    0.59
   3  -9 -13    7.29    0.46
   3   9  13    7.55    0.56
  -4  -9 -13    0.45    0.23
   4  -9  13    0.14    0.16
   4   9 -13    0.24    0.19
  -4   9  13   -0.14    0.16
  -4  -9  13    0.00    0.14
   4   9  13    0.27    0.19
  -4   9 -13   -0.08    0.19
   4  -9 -13    0.32    0.18
  -5   9  13    5.66    0.60
  -5  -9 -13    5.63    0.59
   5   9  13    5.99    0.58
  -5  -9  13    6.15    0.59
   5  -9 -13    6.17    0.47
  -5   9 -13    5.77    0.60
  -6   9  13    0.21    0.20
  -6  -9 -13   -0.06    0.19
   6   9 -13   -0.11    0.13
   6  -9 -13   -0.15    0.15
  -6   9 -13    0.31    0.23
   6   9  13   -0.11    0.18
  -7  -9 -13    0.30    0.27
   7   9 -13    0.85    0.26
  -7   9  13    0.99    0.33
   7  -9 -13    1.09    0.28
  -7   9 -13    1.39    0.35
   7   9  13    1.02    0.31
  -8   9  13    2.59    0.48
   8   9 -13    3.44    0.48
  -8  -9 -13    2.69    0.51
   8   9  13    2.71    0.45
   8  -9 -13    3.57    0.48
  -8   9 -13    2.66    0.47
   0 -10 -13    0.20    0.17
   0  10  13   -0.05    0.14
   0  10 -13   -0.04    0.16
   0 -10  13   -0.07    0.11
  -1  10  13    3.74    0.45
   1 -10  13    3.19    0.40
   1  10 -13    3.17    0.41
  -1 -10 -13    3.11    0.40
  -1  10 -13    2.80    0.42
  -1 -10  13    2.82    0.38
   1  10  13    2.78    0.39
  -2  10  13    1.09    0.27
   2 -10  13    0.65    0.21
   2  10 -13    0.87    0.26
  -2 -10 -13    0.60    0.24
  -2  10 -13    0.49    0.23
  -2 -10  13    0.82    0.24
   2  10  13    1.05    0.26
  -3 -10 -13   -0.11    0.15
  -3  10  13    0.06    0.18
   3  10 -13    0.04    0.16
   3 -10  13    0.09    0.13
   3  10  13    0.07    0.15
  -3 -10  13    0.21    0.16
   3 -10 -13    0.20    0.17
  -3  10 -13    0.17    0.20
  -4 -10 -13    0.38    0.25
   4 -10  13    0.54    0.21
   4  10 -13    0.65    0.23
  -4  10  13    0.59    0.22
  -4 -10  13    0.37    0.19
   4 -10 -13    0.51    0.19
  -4  10 -13    0.55    0.25
   4  10  13    0.08    0.18
  -5 -10 -13    0.91    0.31
  -5  10  13    1.43    0.34
  -5 -10  13    1.30    0.31
   5  10  13    0.98    0.29
   5 -10 -13    0.83    0.26
  -5  10 -13    0.57    0.27
  -6 -10 -13   -0.36    0.16
  -6  10  13   -0.03    0.19
  -6 -10  13   -0.25    0.16
   6 -10 -13   -0.01    0.18
  -6  10 -13    0.27    0.24
   6  10  13    0.15    0.20
  -7 -10 -13   -0.01    0.22
  -7  10  13    0.28    0.27
  -7 -10  13    0.42    0.23
   7 -10 -13    0.44    0.24
  -7  10 -13   -0.05    0.23
   7  10  13    0.45    0.28
  -8  10 -13    3.82    0.54
   0 -11  13   -0.14    0.12
   0  11  13    0.08    0.17
   0  11 -13    0.13    0.17
  -1  11  13    0.08    0.18
   1  11 -13    0.01    0.17
  -1 -11 -13    0.10    0.17
   1 -11  13    0.16    0.16
  -1 -11  13    0.08    0.15
   1  11  13    0.08    0.17
  -1  11 -13    0.13    0.19
  -2  11  13    0.16    0.19
   2  11 -13    0.39    0.20
   2 -11  13    0.01    0.14
  -2 -11 -13    0.12    0.18
  -2 -11  13   -0.28    0.12
  -2  11 -13    0.12    0.20
   2  11  13   -0.18    0.15
   3 -11  13   22.75    0.92
  -3 -11 -13   22.04    0.99
   3  11 -13   22.94    0.98
  -3  11  13   22.85    1.02
  -3  11 -13   21.92    1.02
   3  11  13   20.56    0.94
  -3 -11  13   22.18    0.97
   4  11 -13    3.16    0.44
  -4  11  13    2.72    0.45
   4 -11  13    3.03    0.40
  -4 -11 -13    2.60    0.42
   4  11  13    3.00    0.44
   4 -11 -13    3.13    0.39
  -4 -11  13    2.80    0.42
  -4  11 -13    2.54    0.44
  -5  11  13   43.84    1.51
  -5 -11 -13   42.79    1.52
   5  11  13   41.50    1.43
  -5 -11  13   42.46    1.46
  -5  11 -13   42.72    1.50
   5 -11 -13   42.13    1.34
  -6 -11 -13    2.88    0.48
  -6  11  13    2.35    0.45
  -6  11 -13    2.20    0.48
   6  11  13    1.85    0.39
  -6 -11  13    2.58    0.44
   6 -11 -13    2.72    0.40
  -7 -11 -13   17.95    1.02
  -7  11  13   20.82    1.06
   7  11  13   17.86    0.98
   7 -11 -13   18.35    0.92
  -7 -11  13   16.88    0.93
  -7  11 -13   18.51    0.98
   0  12  13    3.78    0.48
   0  12 -13    3.21    0.47
   0 -12  13    2.68    0.41
  -1 -12 -13    1.62    0.33
   1 -12  13    1.52    0.30
   1  12 -13    0.63    0.25
  -1  12  13    0.96    0.30
   1  12  13    1.57    0.33
  -1 -12  13    1.40    0.30
  -1  12 -13    1.68    0.35
   2  12 -13    0.26    0.20
  -2 -12 -13    0.00    0.18
  -2  12  13    0.04    0.20
   2 -12  13   -0.15    0.15
  -2  12 -13    0.22    0.21
   2  12  13    0.19    0.18
  -2 -12  13    0.39    0.21
   3  12 -13    3.87    0.49
  -3  12  13    2.83    0.43
  -3 -12 -13    4.31    0.53
   3 -12  13    4.39    0.49
   3  12  13    4.32    0.51
  -3 -12  13    4.44    0.51
  -3  12 -13    4.50    0.55
  -4  12  13    3.74    0.50
   4 -12  13    3.72    0.46
   4  12 -13    4.47    0.53
  -4 -12 -13    3.82    0.53
  -4  12 -13    4.59    0.58
   4  12  13    3.31    0.46
   4 -12 -13    3.18    0.40
  -4 -12  13    3.68    0.49
  -5  12  13    0.54    0.26
  -5 -12 -13    0.45    0.27
   5 -12  13    0.19    0.20
  -5 -12  13    0.28    0.23
   5  12  13    0.17    0.23
   5 -12 -13    0.43    0.22
  -5  12 -13   -0.02    0.23
  -6  12  13    0.76    0.31
  -6 -12 -13    1.36    0.39
  -6  12 -13    0.35    0.29
   6 -12 -13    0.87    0.30
  -6 -12  13    0.98    0.30
   6  12  13    0.15    0.22
   7  12  13    1.38    0.37
   0  13 -13    0.29    0.20
   0  13  13    0.07    0.20
   0 -13  13   -0.23    0.14
  -1 -13 -13   -0.08    0.17
   1  13 -13   -0.14    0.16
   1 -13  13    0.10    0.18
  -1  13  13    0.25    0.22
  -1  13 -13    0.04    0.20
   1  13  13   -0.22    0.16
  -1 -13  13   -0.02    0.16
  -2 -13 -13    0.35    0.23
   2 -13  13    0.42    0.22
  -2  13  13    0.54    0.25
   2  13 -13    0.41    0.24
   2  13  13    0.26    0.22
  -2 -13  13    0.37    0.22
  -2  13 -13    0.20    0.22
   3 -13  13    2.72    0.41
   3  13 -13    2.78    0.45
  -3  13  13    3.39    0.49
  -3 -13 -13    3.03    0.48
   3  13  13    3.20    0.46
  -3 -13  13    2.66    0.42
  -3  13 -13    3.02    0.47
  -4 -13 -13    3.66    0.53
   4  13 -13    4.52    0.56
  -4  13  13    3.10    0.48
   4 -13  13    3.81    0.49
  -4  13 -13    4.29    0.57
   4  13  13    3.36    0.47
  -4 -13  13    4.48    0.56
  -5  13  13    5.82    0.64
  -5 -13 -13    6.06    0.69
   5 -13  13    4.33    0.52
   5 -13 -13    4.48    0.51
   5  13  13    4.00    0.52
  -5  13 -13    5.06    0.62
  -5 -13  13    4.44    0.56
  -6  13  13    0.30    0.28
   6  13  13    0.27    0.26
   6 -13 -13   -0.23    0.16
   0  14  13    0.12    0.22
   0 -14  13    0.34    0.22
   0  14 -13    0.23    0.21
   1  14 -13    8.09    0.66
   1 -14  13    6.20    0.62
  -1  14  13    6.09    0.63
  -1 -14  13    7.90    0.62
   1  14  13    7.19    0.59
   2  14 -13    0.64    0.26
   2 -14  13    0.14    0.18
  -2 -14 -13    0.10    0.24
  -2  14  13    0.35    0.23
  -2  14 -13    0.65    0.30
  -2 -14  13    0.12    0.19
   2  14  13    0.14    0.21
   3  14 -13    1.56    0.36
  -3 -14 -13    1.32    0.36
  -3  14  13    2.00    0.39
   3 -14  13    1.08    0.28
  -3 -14  13    1.52    0.35
   3  14  13    1.55    0.33
  -3  14 -13    1.59    0.38
  -4 -14 -13    0.06    0.26
   4 -14  13    0.24    0.21
   4  14 -13    0.76    0.30
   4  14  13    0.36    0.24
  -4  14 -13    0.46    0.27
   5 -14  13    2.00    0.40
   5 -14 -13    1.98    0.39
   0  15 -13    0.21    0.24
   0 -15  13   -0.16    0.16
   1 -15  13    5.80    0.62
   1  15 -13    6.00    0.66
  -1 -15  13    6.90    0.68
  -1  15 -13    5.24    0.63
   2 -15  13    0.93    0.30
  -2 -15 -13    0.56    0.30
   2  15 -13    0.72    0.32
  -3 -15 -13   14.04    0.88
   3 -15  13   13.44    0.81
   0   0 -14   31.48    0.82
   0   0 -14   32.44    1.00
   0   0  14   31.37    0.98
   1   0 -14   18.32    0.62
  -1   0 -14   18.06    0.77
   1   0  14   16.81    0.70
  -1   0  14   16.40    0.70
   1   0 -14   18.57    0.70
  -2   0  14   33.40    1.05
   2   0 -14   35.43    0.95
   2   0 -14   32.60    0.93
  -2   0 -14   34.65    1.13
   2   0  14   33.69    1.03
   3   0  14   -0.04    0.11
   3   0 -14    0.11    0.12
  -3   0  14    0.14    0.17
  -3   0 -14   -0.17    0.19
   4   0  14    9.34    0.55
  -4   0 -14   11.00    0.67
  -4   0  14    9.86    0.59
   4   0 -14    9.37    0.53
  -5   0  14   15.03    0.74
  -5   0 -14   14.87    0.82
   5   0  14   14.34    0.71
   5   0 -14   14.34    0.68
   6   0  14   12.44    0.68
  -6   0  14   13.19    0.73
  -6   0 -14   12.96    0.80
   6   0 -14   12.02    0.65
   7   0 -14   10.72    0.64
  -7   0 -14   10.96    0.75
  -7   0  14    9.69    0.66
   7   0  14   10.10    0.65
   8   0  14    8.95    0.66
  -8   0 -14   10.52    0.79
   8   0 -14    9.31    0.64
  -8   0  14    8.88    0.66
  -9   0 -14    3.23    0.57
  -9   0  14    4.32    0.56
   9   0  14    4.32    0.55
   9   0 -14    3.38    0.47
 -10   0  14    2.80    0.49
 -10   0 -14    1.82    0.50
  10   0  14    1.64    0.40
   0   1 -14    0.18    0.20
   0  -1 -14    0.10    0.10
   0   1 -14   -0.02    0.08
   0   1  14    0.01    0.13
   0  -1  14   -0.07    0.12
   0  -1 -14   -0.08    0.18
  -1  -1 -14   23.88    0.89
   1  -1  14   23.52    0.82
   1   1 -14   24.27    0.82
   1   1 -14   24.77    0.75
  -1   1  14   24.77    0.89
  -1   1 -14   24.39    0.90
   1   1  14   24.30    0.86
  -1  -1  14   24.26    0.84
   1  -1 -14   23.86    0.72
   1  -1 -14   24.88    0.83
  -2   1  14    0.51    0.21
   2   1 -14    0.49    0.16
   2  -1  14    0.43    0.17
   2   1 -14    0.37    0.18
  -2  -1 -14    0.35    0.22
  -2  -1  14    0.51    0.22
   2  -1 -14    0.42    0.16
  -2   1 -14    0.41    0.24
   2   1  14    0.80    0.22
   3  -1  14    7.83    0.49
  -3  -1 -14    8.63    0.60
  -3   1  14    8.28    0.54
   3   1 -14    7.26    0.44
   3   1  14    8.08    0.51
  -3   1 -14    8.00    0.58
   3  -1 -14    7.72    0.45
  -3  -1  14    8.71    0.52
   4  -1  14    1.24    0.26
  -4   1  14    1.63    0.33
   4   1 -14    1.29    0.25
  -4  -1 -14    1.55    0.34
  -4  -1  14    1.25    0.28
   4   1  14    1.74    0.31
  -4   1 -14    1.22    0.31
   4  -1 -14    1.39    0.25
  -5   1  14    3.53    0.45
   5  -1  14    2.38    0.34
   5   1 -14    2.96    0.36
  -5  -1 -14    2.59    0.43
   5   1  14    2.77    0.38
  -5  -1  14    2.73    0.39
  -5   1 -14    3.83    0.50
   5  -1 -14    3.74    0.41
  -6  -1 -14    5.79    0.62
   6  -1  14    6.11    0.49
  -6   1  14    5.68    0.56
   6   1 -14    6.04    0.47
  -6  -1  14    6.37    0.52
   6  -1 -14    6.57    0.50
   6   1  14    6.15    0.49
  -6   1 -14    5.74    0.62
   7   1 -14   -0.13    0.14
  -7  -1 -14    0.10    0.26
  -7   1  14   -0.17    0.18
   7  -1  14    0.12    0.18
  -7   1 -14    0.74    0.31
  -7  -1  14   -0.01    0.20
   7  -1 -14    0.19    0.19
   7   1  14    0.21    0.20
   8  -1  14    2.37    0.40
  -8  -1 -14    0.81    0.34
  -8   1  14    1.81    0.38
   8   1 -14    1.55    0.32
  -8  -1  14    2.42    0.41
  -8   1 -14    1.55    0.42
   8   1  14    1.96    0.37
   8  -1 -14    1.48    0.33
   9  -1  14    5.08    0.60
   9   1 -14    5.52    0.59
  -9  -1 -14    5.16    0.73
  -9   1  14    5.62    0.65
   9   1  14    4.46    0.58
   9  -1 -14    5.20    0.58
  -9  -1  14    5.47    0.61
  -9   1 -14    4.86    0.64
  10  -1  14    0.01    0.26
 -10  -1 -14   -0.07    0.31
 -10  -1  14    0.39    0.30
 -10   1 -14   -0.14    0.28
   0  -2  14   10.86    0.53
   0  -2 -14   11.44    0.59
   0   2 -14   10.95    0.47
   0   2 -14   11.01    0.58
   0   2  14   10.49    0.57
   1  -2  14    2.11    0.24
  -1   2  14    2.16    0.33
   1   2 -14    2.04    0.30
   1  -2  14    1.67    0.25
   1   2 -14    2.30    0.27
  -1  -2 -14    1.45    0.30
   1  -2 -14    2.07    0.25
   1  -2 -14    2.13    0.30
  -1   2 -14    2.68    0.38
   1   2  14    1.73    0.29
  -1  -2  14    2.48    0.32
   2   2 -14    7.16    0.42
   2   2 -14    7.35    0.43
  -2   2  14    7.71    0.52
   2  -2  14    7.68    0.45
  -2  -2 -14    7.57    0.54
   2  -2 -14    7.91    0.43
   2   2  14    6.98    0.47
  -2  -2  14    8.07    0.48
  -2   2 -14    7.14    0.52
   3   2 -14   32.65    1.00
  -3   2  14   33.10    1.11
  -3  -2 -14   33.49    1.15
   3  -2  14   32.96    1.01
   3  -2 -14   34.84    1.00
  -3  -2  14   35.30    1.06
  -3   2 -14   34.94    1.18
   3   2  14   34.16    1.09
   4   2 -14    3.32    0.37
  -4   2  14    2.60    0.37
  -4  -2 -14    3.55    0.46
   4  -2  14    3.40    0.38
  -4  -2  14    3.91    0.42
   4  -2 -14    3.18    0.35
   4   2  14    2.93    0.38
  -4   2 -14    3.17    0.44
   5   2 -14    1.85    0.30
  -5   2  14    1.46    0.31
  -5  -2 -14    2.10    0.39
   5  -2  14    2.54    0.35
   5   2  14    1.53    0.31
  -5  -2  14    2.02    0.33
   5  -2 -14    2.03    0.31
  -5   2 -14    1.42    0.34
   6   2 -14    9.98    0.60
  -6  -2 -14    9.15    0.67
  -6   2  14    8.81    0.63
   6  -2  14   10.11    0.61
  -6   2 -14   10.42    0.73
   6   2  14    9.30    0.62
  -6  -2  14   10.28    0.62
   6  -2 -14   10.80    0.63
   7  -2  14    5.32    0.54
  -7  -2 -14    4.99    0.61
   7   2 -14    3.85    0.45
  -7   2  14    5.24    0.57
  -7   2 -14    5.63    0.63
   7   2  14    4.77    0.53
   7  -2 -14    5.90    0.48
  -7  -2  14    4.84    0.53
  -8   2  14   10.39    0.74
   8   2 -14    8.89    0.62
  -8  -2 -14    9.26    0.74
   8  -2  14    8.63    0.62
   8  -2 -14    8.39    0.60
  -8   2 -14    9.23    0.73
  -8  -2  14    9.88    0.67
   8   2  14   10.20    0.69
   9  -2  14    0.49    0.26
   9   2 -14    0.37    0.23
  -9  -2 -14    0.08    0.34
  -9   2  14    0.95    0.36
   9   2  14    0.22    0.24
   9  -2 -14    0.32    0.25
  -9   2 -14    0.85    0.38
  -9  -2  14    0.28    0.26
  10  -2  14    0.97    0.33
 -10   2 -14    0.91    0.42
 -10  -2  14    1.04    0.36
   0   3 -14    0.25    0.18
   0  -3  14   -0.22    0.07
   0  -3  14    0.16    0.13
   0   3  14    0.10    0.15
   0  -3 -14   -0.21    0.14
   1   3 -14   10.04    0.49
   1  -3  14   10.56    0.46
  -1  -3 -14   10.61    0.59
   1   3 -14   10.83    0.55
  -1   3  14   10.33    0.58
   1  -3  14   10.09    0.50
  -1   3 -14   10.60    0.59
   1   3  14   11.09    0.59
   1  -3 -14   10.35    0.45
   1  -3 -14    9.76    0.53
  -1  -3  14    9.80    0.50
  -2  -3 -14    0.64    0.23
  -2   3  14    0.98    0.25
   2   3 -14    1.33    0.24
   2  -3  14    1.07    0.21
   2   3 -14    1.38    0.23
  -2   3 -14    1.09    0.29
  -2  -3  14    1.11    0.23
   2   3  14    1.07    0.24
   2  -3 -14    1.25    0.22
  -3  -3 -14    9.48    0.61
  -3   3  14    9.89    0.59
   3   3 -14    9.46    0.52
   3  -3  14    9.06    0.49
   3  -3 -14    9.26    0.49
  -3   3 -14   10.23    0.62
  -3  -3  14    9.38    0.53
   3   3  14    8.52    0.55
  -4  -3 -14    0.58    0.24
   4   3 -14    1.15    0.25
  -4   3  14    0.89    0.28
   4  -3  14    0.82    0.22
  -4  -3  14    0.69    0.23
   4   3  14    1.11    0.27
  -4   3 -14    0.78    0.28
   4  -3 -14    1.03    0.22
  -5   3  14   10.01    0.64
   5   3 -14    9.79    0.57
  -5  -3 -14   10.45    0.69
   5  -3  14   10.26    0.57
   5  -3 -14   11.63    0.60
  -5   3 -14   10.94    0.72
  -5  -3  14   10.76    0.62
   5   3  14   10.82    0.64
  -6  -3 -14    8.48    0.65
   6   3 -14    8.42    0.56
  -6   3  14    8.78    0.62
   6  -3  14    8.59    0.56
  -6  -3  14    8.00    0.56
  -6   3 -14    7.83    0.72
   6   3  14    8.60    0.59
   6  -3 -14    7.81    0.53
  -7   3  14    4.49    0.53
   7  -3  14    5.90    0.56
  -7  -3 -14    4.42    0.57
   7   3 -14    5.57    0.54
   7   3  14    4.67    0.53
   7  -3 -14    5.20    0.52
  -7  -3  14    5.52    0.57
  -7   3 -14    5.16    0.61
  -8   3  14    2.38    0.43
   8   3 -14    2.40    0.39
  -8  -3 -14    1.93    0.44
   8  -3  14    2.07    0.39
  -8  -3  14    2.23    0.41
  -8   3 -14    2.26    0.47
   8  -3 -14    2.06    0.36
   8   3  14    2.05    0.41
  -9  -3 -14   -0.04    0.31
   9  -3  14   -0.04    0.25
  -9   3  14    0.37    0.30
   9   3 -14    0.16    0.19
  -9   3 -14    0.10    0.29
   9   3  14    0.38    0.27
  -9  -3  14    0.37    0.30
   9  -3 -14    0.01    0.20
  10  -3  14    3.60    0.53
 -10  -3  14    2.80    0.49
 -10   3 -14    3.22    0.57
   0  -4  14   28.89    0.88
   0  -4 -14   32.36    1.00
   0  -4  14   30.69    0.87
   0   4  14   30.28    1.04
   0   4 -14   29.57    0.99
  -1  -4 -14    5.25    0.44
   1   4 -14    5.15    0.40
   1  -4  14    4.60    0.35
   1   4 -14    4.85    0.36
  -1   4  14    4.70    0.47
   1  -4  14    4.76    0.33
   1  -4 -14    5.39    0.43
  -1   4 -14    6.03    0.47
  -1  -4  14    5.81    0.38
   1   4  14    5.04    0.48
   2   4 -14   30.91    0.97
  -2  -4 -14   32.62    1.09
  -2   4  14   33.02    1.11
   2   4 -14   33.28    0.99
   2  -4  14   33.02    0.94
   2  -4  14   34.57    0.91
  -2   4 -14   30.47    1.07
   2   4  14   31.80    1.08
  -2  -4  14   34.03    0.96
   2  -4 -14   34.11    0.93
  -3  -4 -14   14.73    0.74
   3   4 -14   13.93    0.64
   3  -4  14   14.84    0.62
  -3   4  14   14.35    0.73
  -3   4 -14   15.56    0.77
   3  -4 -14   14.92    0.63
  -3  -4  14   15.83    0.66
   3   4  14   13.72    0.71
   4  -4  14   12.22    0.59
  -4  -4 -14   12.21    0.70
   4   4 -14   12.58    0.63
  -4   4  14   12.34    0.70
   4  -4 -14   12.80    0.61
  -4   4 -14   13.31    0.73
   4   4  14   11.57    0.66
  -4  -4  14   12.08    0.60
   5   4 -14    1.43    0.28
  -5  -4 -14    1.58    0.33
  -5   4  14    1.39    0.33
   5  -4  14    2.20    0.32
  -5   4 -14    1.56    0.35
   5  -4 -14    1.87    0.30
  -5  -4  14    1.68    0.31
   5   4  14    1.87    0.34
   6  -4  14   18.42    0.79
  -6  -4 -14   18.69    0.95
   6   4 -14   16.27    0.78
  -6   4  14   17.73    0.88
  -6   4 -14   16.35    0.89
   6  -4 -14   15.66    0.76
  -6  -4  14   17.73    0.80
   6   4  14   16.27    0.84
   7   4 -14   19.46    0.88
  -7   4  14   17.99    0.93
  -7  -4 -14   19.14    0.99
  -7  -4  14   17.86    0.84
   7  -4 -14   17.45    0.83
  -7   4 -14   18.88    0.97
   7   4  14   19.43    0.94
  -8  -4 -14   15.00    0.92
   8   4 -14   15.48    0.82
  -8   4  14   15.29    0.88
  -8   4 -14   15.97    0.92
   8   4  14   13.36    0.82
   8  -4 -14   15.26    0.81
   9   4 -14    1.38    0.34
  -9   4  14    1.58    0.40
  -9  -4 -14    1.69    0.45
  -9   4 -14    2.09    0.47
   9   4  14    1.73    0.39
   9  -4 -14    1.93    0.40
   0   5 -14    0.01    0.14
   0   5  14   -0.11    0.13
   0  -5  14    0.02    0.10
   0  -5 -14    0.06    0.17
   1   5 -14    0.87    0.21
  -1  -5 -14    0.88    0.24
   1  -5  14    0.72    0.18
  -1   5  14    1.38    0.29
   1   5  14    0.65    0.23
  -1  -5  14    1.09    0.22
  -1   5 -14    1.81    0.31
   2  -5  14    8.60    0.44
   2   5 -14    8.33    0.50
  -2  -5 -14    9.12    0.57
  -2   5  14    8.34    0.56
   2   5 -14    9.51    0.52
  -2   5 -14    9.16    0.59
   2   5  14   10.21    0.61
   2  -5 -14    8.84    0.46
  -3   5  14    0.18    0.18
   3   5 -14    0.31    0.16
   3   5 -14    0.29    0.16
  -3  -5 -14    0.13    0.19
  -3   5 -14    0.72    0.26
   3  -5 -14    0.08    0.13
   3   5  14    0.08    0.15
  -4  -5 -14   -0.07    0.16
   4   5 -14    0.04    0.14
  -4   5  14    0.10    0.19
   4  -5 -14    0.24    0.16
   4   5  14    0.07    0.17
  -4   5 -14   -0.04    0.19
  -5   5  14    4.70    0.53
  -5  -5 -14    5.36    0.58
   5   5 -14    5.86    0.47
   5   5  14    6.96    0.55
   5  -5 -14    5.34    0.44
  -5   5 -14    5.60    0.58
  -6   5  14    1.18    0.32
   6   5 -14    0.81    0.25
  -6  -5 -14    1.36    0.34
  -6   5 -14    1.56    0.38
   6   5  14    1.43    0.34
   6  -5 -14    1.38    0.29
   7   5 -14    0.16    0.18
  -7  -5 -14   -0.21    0.21
  -7   5  14    0.16    0.23
  -7   5 -14   -0.11    0.23
   7   5  14    0.20    0.21
   7  -5 -14   -0.01    0.15
  -8   5  14    1.67    0.39
   8   5 -14    1.67    0.35
  -8  -5 -14    1.08    0.38
  -8   5 -14    2.64    0.48
   8  -5 -14    1.42    0.34
   8   5  14    1.54    0.38
  -9  -5 -14    0.46    0.35
  -9   5  14    0.81    0.35
   9   5 -14    0.48    0.24
   9   5  14    0.34    0.27
  -9   5 -14    0.34    0.30
   9  -5 -14    1.26    0.33
   0   6 -14   32.01    1.06
   0   6  14   31.93    1.11
   0  -6 -14   33.18    1.03
   0  -6  14   30.58    0.97
  -1   6  14   15.70    0.77
   1  -6  14   14.56    0.63
  -1  -6 -14   15.01    0.71
   1   6 -14   15.49    0.70
   1   6  14   15.55    0.75
  -1   6 -14   15.71    0.74
  -1  -6  14   15.12    0.67
  -2   6  14    2.33    0.36
  -2  -6 -14    2.42    0.36
   2  -6  14    2.22    0.28
   2   6 -14    2.59    0.34
   2  -6 -14    2.57    0.30
  -2   6 -14    2.80    0.38
   2   6  14    2.98    0.39
  -2  -6  14    2.22    0.32
  -3  -6 -14   23.83    0.96
   3   6 -14   22.93    0.84
  -3   6  14   22.63    0.96
   3   6 -14   23.08    0.87
   3  -6 -14   23.69    0.82
   3   6  14   23.77    0.96
  -3   6 -14   23.65    0.96
  -4  -6 -14    0.81    0.26
   4   6 -14    1.00    0.24
  -4   6  14    0.88    0.27
   4  -6 -14    1.21    0.24
  -4   6 -14    1.58    0.33
   4   6  14    0.94    0.26
   5   6 -14    2.78    0.39
  -5  -6 -14    2.69    0.42
  -5   6  14    2.69    0.42
  -5   6 -14    3.44    0.48
   5  -6 -14    3.11    0.39
   5   6  14    3.19    0.43
  -6  -6 -14    2.61    0.43
  -6   6  14    3.07    0.46
   6   6 -14    2.54    0.38
  -6   6 -14    2.54    0.44
   6   6  14    2.77    0.42
   6  -6 -14    2.40    0.36
  -7  -6 -14    8.53    0.69
   7   6 -14    8.36    0.60
  -7   6  14    9.23    0.68
   7  -6 -14    8.70    0.59
  -7   6 -14    8.08    0.66
   7   6  14    7.78    0.62
  -8   6  14    0.09    0.24
   8   6 -14    0.14    0.20
  -8  -6 -14    0.28    0.30
   8  -6 -14    0.18    0.21
   8   6  14    0.50    0.25
  -8   6 -14   -0.05    0.24
  -9   6 -14    4.54    0.61
   0   7  14    0.27    0.18
   0  -7 -14    0.05    0.16
   0   7 -14    0.09    0.17
   0  -7  14   -0.09    0.11
  -1   7  14   10.18    0.64
   1  -7  14   10.73    0.55
   1   7 -14   10.57    0.61
  -1  -7 -14   12.26    0.64
  -1  -7  14   11.55    0.60
   1   7  14   11.32    0.65
  -1   7 -14   11.65    0.65
  -2   7  14    7.90    0.56
   2   7 -14    7.48    0.50
   2  -7  14    7.22    0.45
  -2  -7 -14    6.67    0.50
   2   7  14    6.46    0.50
  -2   7 -14    7.50    0.56
  -2  -7  14    7.37    0.50
   3   7 -14    3.86    0.42
  -3   7  14    3.71    0.46
  -3  -7 -14    3.25    0.42
   3  -7  14    3.20    0.35
  -3   7 -14    3.09    0.43
  -3  -7  14    3.19    0.39
   3  -7 -14    4.12    0.34
   3   7  14    3.08    0.41
  -4  -7 -14    1.04    0.29
   4   7 -14    0.96    0.25
  -4   7  14    0.90    0.27
   4   7  14    1.88    0.35
  -4   7 -14    1.18    0.30
   4  -7 -14    1.13    0.25
  -5  -7 -14    4.28    0.53
   5   7 -14    3.68    0.44
  -5   7  14    3.72    0.47
   5   7  14    4.27    0.50
   5  -7 -14    4.59    0.46
  -5   7 -14    5.12    0.56
   6   7 -14    0.01    0.16
  -6  -7 -14    0.32    0.22
  -6   7  14    0.12    0.20
   6   7  14    0.21    0.22
  -6   7 -14    0.25    0.25
   6  -7 -14    0.00    0.16
  -7  -7 -14    0.71    0.32
   7   7 -14    0.45    0.21
  -7   7  14    0.66    0.30
  -7   7 -14    1.12    0.35
   7   7  14    0.77    0.28
   7  -7 -14    0.60    0.24
   8   7 -14    0.48    0.25
  -8  -7 -14    0.29    0.29
  -8   7  14   -0.04    0.22
  -8   7 -14    0.36    0.30
   8  -7 -14    0.45    0.25
   8   7  14    0.25    0.23
  -9   7 -14    0.26    0.29
   0  -8 -14   62.95    1.57
   0   8  14   63.12    1.71
   0   8 -14   61.72    1.67
   0  -8  14   64.05    1.59
   1   8 -14   -0.20    0.15
  -1  -8 -14   -0.15    0.15
   1  -8  14   -0.06    0.11
  -1   8  14    0.11    0.16
   1   8  14   -0.15    0.14
  -1  -8  14    0.05    0.13
  -1   8 -14   -0.20    0.14
   2  -8  14    1.50    0.27
  -2  -8 -14    1.60    0.32
   2   8 -14    2.10    0.33
  -2   8  14    1.59    0.33
   2   8  14    2.16    0.35
  -2   8 -14    2.08    0.37
  -2  -8  14    2.75    0.36
   3  -8  14    0.02    0.12
  -3   8  14    0.26    0.21
  -3  -8 -14    0.08    0.17
   3   8 -14   -0.10    0.15
   3  -8 -14   -0.04    0.12
  -3  -8  14    0.24    0.17
  -3   8 -14   -0.01    0.16
   3   8  14   -0.11    0.13
  -4  -8 -14   14.42    0.79
  -4   8  14   12.96    0.75
   4   8  14   13.10    0.75
   4  -8 -14   13.16    0.65
  -4   8 -14   12.61    0.75
  -4  -8  14   14.35    0.74
  -5  -8 -14    0.58    0.26
  -5   8  14    0.23    0.21
   5   8 -14    0.46    0.21
  -5   8 -14    0.53    0.28
   5   8  14    0.23    0.20
   5  -8 -14    0.28    0.18
  -6  -8 -14    6.89    0.68
   6   8 -14    6.98    0.55
  -6   8  14    7.35    0.71
   6  -8 -14    7.11    0.54
   6   8  14    6.59    0.65
  -6   8 -14    6.13    0.63
  -7   8  14   -0.01    0.24
   7   8 -14    0.12    0.18
  -7  -8 -14   -0.21    0.21
   7  -8 -14    0.08    0.18
   7   8  14    0.15    0.20
  -7   8 -14    0.19    0.26
   8   8 -14    4.49    0.55
  -8  -8 -14    4.20    0.60
  -8   8  14    5.25    0.64
   8  -8 -14    3.97    0.51
   8   8  14    3.78    0.55
  -8   8 -14    3.64    0.55
   0   9 -14   -0.16    0.16
   0   9  14    0.04    0.18
   0  -9 -14    0.02    0.16
   0  -9  14   -0.13    0.12
   1  -9  14    1.21    0.26
   1   9 -14    1.03    0.27
  -1   9  14    0.46    0.22
  -1  -9 -14    0.55    0.22
   1   9  14    1.45    0.31
  -1  -9  14    0.87    0.23
  -1   9 -14    0.84    0.26
   2  -9  14    0.97    0.24
   2   9 -14    0.94    0.25
  -2  -9 -14    0.53    0.22
  -2   9  14    0.58    0.24
  -2   9 -14    1.25    0.30
   2   9  14    1.37    0.30
  -2  -9  14    0.75    0.23
   3   9 -14    8.91    0.58
  -3  -9 -14    9.87    0.64
  -3   9  14    9.28    0.63
   3  -9  14    9.01    0.54
  -3   9 -14    9.31    0.64
  -3  -9  14    9.54    0.61
   3   9  14    8.66    0.60
  -4   9  14    2.91    0.43
  -4  -9 -14    1.67    0.34
   4  -9 -14    1.92    0.31
  -4   9 -14    2.49    0.41
   4   9  14    2.14    0.39
  -4  -9  14    2.08    0.35
  -5   9  14    5.90    0.62
  -5  -9 -14    5.67    0.62
  -5  -9  14    5.75    0.57
   5  -9 -14    5.82    0.48
  -5   9 -14    5.76    0.60
   5   9  14    5.97    0.60
  -6   9  14    0.30    0.23
   6   9 -14   -0.22    0.13
  -6  -9 -14    0.10    0.24
   6   9  14    0.21    0.21
  -6   9 -14    0.10    0.23
   6  -9 -14    0.02    0.17
   7   9 -14    2.60    0.41
  -7  -9 -14    2.43    0.45
  -7   9  14    2.89    0.49
   7   9  14    2.75    0.45
  -7   9 -14    3.44    0.51
   7  -9 -14    3.13    0.44
  -8   9 -14    1.00    0.36
   0  10 -14    5.99    0.59
   0 -10  14    7.88    0.53
   0  10  14    5.77    0.58
   1 -10  14    3.66    0.42
   1  10 -14    3.55    0.45
  -1 -10 -14    2.95    0.41
  -1  10  14    3.46    0.45
  -1 -10  14    3.19    0.42
  -1  10 -14    3.44    0.45
   1  10  14    3.79    0.47
  -2  10  14   10.45    0.67
   2  10 -14    9.31    0.61
  -2 -10 -14    8.65    0.59
   2 -10  14    9.88    0.59
   2  10  14    9.23    0.62
  -2  10 -14    8.65    0.64
  -2 -10  14    9.74    0.62
   3  10 -14    6.97    0.53
   3 -10  14    6.13    0.48
  -3 -10 -14    6.58    0.55
  -3  10  14    7.88    0.61
  -3  10 -14    6.48    0.65
   3  10  14    6.47    0.53
  -3 -10  14    5.31    0.55
  -4  10  14    2.50    0.42
   4 -10  14    1.66    0.31
  -4 -10 -14    1.53    0.35
   4  10 -14    2.14    0.36
   4 -10 -14    1.78    0.31
   4  10  14    2.17    0.39
  -4 -10  14    1.44    0.32
  -4  10 -14    2.19    0.42
  -5  10  14   -0.09    0.20
  -5 -10 -14    0.03    0.20
  -5  10 -14    0.04    0.22
  -5 -10  14   -0.34    0.13
   5  10  14    0.10    0.18
   5 -10 -14    0.08    0.18
  -6 -10 -14    8.37    0.68
  -6  10  14    8.44    0.68
  -6  10 -14    7.10    0.70
   6 -10 -14    9.39    0.63
   6  10  14    7.45    0.71
  -6 -10  14    9.06    0.65
  -7  10  14    1.20    0.35
  -7 -10 -14    1.79    0.43
  -7  10 -14    1.18    0.35
   7 -10 -14    1.64    0.36
   7  10  14    2.19    0.43
  -7 -10  14    1.41    0.36
   0  11 -14   -0.02    0.17
   0  11  14   -0.14    0.16
   0 -11  14    0.03    0.14
   1 -11  14   -0.04    0.13
  -1 -11 -14    0.00    0.19
  -1  11  14    0.09    0.19
   1  11 -14    0.48    0.24
   1  11  14    0.18    0.18
  -1  11 -14    0.29    0.18
  -1 -11  14    0.31    0.19
  -2  11  14    0.17    0.19
   2 -11  14    0.26    0.19
  -2 -11 -14   -0.23    0.18
   2  11 -14    0.23    0.19
   2  11  14    0.38    0.22
  -2  11 -14    0.08    0.20
  -2 -11  14    0.15    0.17
   3 -11  14   -0.16    0.14
   3  11 -14    0.05    0.19
  -3  11  14   -0.08    0.17
  -3 -11 -14    0.03    0.21
  -3 -11  14    0.21    0.18
   3  11  14    0.02    0.17
  -3  11 -14    0.02    0.22
   4 -11  14    1.52    0.31
  -4  11  14    0.84    0.30
  -4 -11 -14    1.31    0.33
   4  11 -14    1.42    0.32
  -4  11 -14    1.19    0.35
   4  11  14    0.78    0.28
  -4 -11  14    0.82    0.27
  -5 -11 -14    0.46    0.28
  -5  11  14    1.04    0.32
  -5 -11  14    0.65    0.26
   5  11  14    0.34    0.24
  -5  11 -14    1.11    0.34
   5 -11 -14    0.84    0.26
  -6  11  14    0.56    0.31
  -6 -11 -14    0.46    0.27
  -6 -11  14    0.04    0.18
  -6  11 -14    0.06    0.25
   6 -11 -14    0.51    0.25
   6  11  14    0.42    0.27
   0  12  14    1.49    0.36
   0 -12  14    2.35    0.39
   0  12 -14    1.87    0.38
   1  12 -14    8.65    0.64
  -1 -12 -14    7.14    0.57
  -1  12  14    7.57    0.60
   1 -12  14    7.36    0.56
   1  12  14    8.01    0.61
  -1 -12  14    7.03    0.56
  -1  12 -14    6.71    0.68
  -2  12  14   12.41    0.76
  -2 -12 -14   10.84    0.71
   2 -12  14   11.79    0.70
   2  12 -14   11.84    0.75
  -2  12 -14   11.99    0.77
  -2 -12  14   11.83    0.72
   2  12  14   11.36    0.72
  -3 -12 -14   16.87    0.91
   3 -12  14   18.91    0.89
  -3  12  14   20.89    1.01
   3  12 -14   19.93    0.95
   3  12  14   18.06    0.93
  -3 -12  14   19.90    0.95
  -3  12 -14   19.32    0.99
   4 -12  14    2.07    0.37
   4  12 -14    2.41    0.40
  -4  12  14    2.37    0.42
  -4 -12 -14    1.82    0.41
   4  12  14    2.18    0.42
  -4  12 -14    3.27    0.50
  -4 -12  14    2.84    0.43
  -5  12  14    0.18    0.25
  -5 -12 -14    0.47    0.26
  -5  12 -14    0.17    0.27
   5 -12 -14    0.09    0.20
   5  12  14    0.30    0.26
  -5 -12  14   -0.03    0.20
  -6  12  14    9.15    0.73
   6 -12 -14    9.09    0.65
   6  12  14   10.31    0.76
   0 -13  14    0.01    0.18
   0  13 -14    0.20    0.21
   0  13  14    0.31    0.24
   1 -13  14    0.03    0.15
   1  13 -14   -0.04    0.19
  -1  13  14    0.02    0.19
  -1  13 -14   -0.21    0.16
  -1 -13  14   -0.03    0.16
   1  13  14    0.05    0.19
  -2 -13 -14    0.16    0.20
   2 -13  14    0.00    0.18
   2  13 -14   -0.12    0.17
  -2  13  14   -0.11    0.18
  -2 -13  14    0.12    0.20
   2  13  14    0.09    0.20
  -2  13 -14    0.06    0.21
   3  13 -14    0.19    0.25
   3 -13  14    0.29    0.22
  -3  13  14    0.57    0.27
  -3 -13 -14    0.33    0.29
   3  13  14    0.04    0.20
  -3 -13  14    0.37    0.22
  -3  13 -14    0.03    0.22
  -4  13  14    1.31    0.37
   4 -13  14    1.30    0.34
   4  13 -14    0.82    0.29
  -4 -13 -14    0.56    0.30
  -4  13 -14    0.93    0.34
   4  13  14    1.22    0.32
  -4 -13  14    0.84    0.30
  -5  13  14    0.47    0.25
   5  13  14    0.13    0.22
   0  14 -14    5.54    0.65
   0 -14  14    4.61    0.55
   0  14  14    4.64    0.55
  -1  14  14    0.47    0.25
   1  14 -14    0.53    0.28
   1 -14  14    0.09    0.19
   1  14  14    0.51    0.27
  -1  14 -14    0.56    0.28
  -1 -14  14    0.44    0.23
  -2  14  14    3.15    0.49
   2  14 -14    3.57    0.52
  -2 -14 -14    3.38    0.49
   2 -14  14    2.69    0.44
  -2  14 -14    3.67    0.54
   2  14  14    3.27    0.48
  -2 -14  14    3.28    0.48
  -3 -14 -14    0.85    0.33
  -3  14  14    1.24    0.33
   3 -14  14    1.33    0.32
   3  14 -14    0.88    0.30
   3  14  14    1.11    0.30
   4 -14  14    1.04    0.31
   4  14 -14    1.01    0.32
  -4  14  14    1.01    0.35
   4  14  14    1.67    0.39
  -2 -15 -14    2.90    0.50
   0   0 -15   -0.14    0.17
   0   0  15   -0.09    0.11
  -1   0 -15   -0.34    0.17
   1   0 -15    0.21    0.12
   1   0 -15    0.26    0.19
   1   0  15   -0.08    0.13
  -1   0  15   -0.17    0.12
  -2   0 -15    0.26    0.21
   2   0  15   -0.09    0.13
   2   0 -15    0.23    0.14
  -2   0  15   -0.02    0.14
   3   0  15   -0.06    0.13
   3   0 -15   -0.12    0.12
  -3   0  15   -0.03    0.17
  -3   0 -15    0.15    0.22
   4   0 -15   -0.16    0.11
   4   0  15   -0.05    0.13
  -4   0 -15   -0.08    0.21
  -4   0  15    0.21    0.21
   5   0  15    0.04    0.16
  -5   0 -15   -0.18    0.21
   5   0 -15    0.12    0.15
  -5   0  15   -0.15    0.17
  -6   0 -15   -0.47    0.19
   6   0  15    0.16    0.20
   6   0 -15    0.03    0.16
  -6   0  15    0.26    0.22
   7   0  15    0.05    0.19
  -7   0 -15   -0.56    0.23
  -7   0  15    0.19    0.22
   7   0 -15   -0.08    0.12
   8   0 -15   -0.06    0.18
  -8   0  15   -0.20    0.23
   8   0  15    0.13    0.23
  -8   0 -15   -0.42    0.27
  -9   0  15   -0.30    0.21
   9   0 -15   -0.15    0.17
   9   0  15    0.30    0.26
  -9   0 -15   -0.63    0.27
   0  -1  15    0.09    0.14
   0  -1 -15   -0.13    0.16
   0   1  15   -0.10    0.14
   0   1 -15   -0.03    0.10
   0   1 -15   -0.19    0.14
   1   1 -15   50.34    1.30
   1   1 -15   50.86    1.22
   1  -1  15   47.80    1.30
  -1  -1 -15   50.95    1.42
  -1   1  15   48.46    1.36
  -1  -1  15   52.50    1.35
   1  -1 -15   53.21    1.21
   1  -1 -15   53.11    1.33
  -1   1 -15   51.78    1.42
   1   1  15   50.88    1.38
   2  -1  15    2.97    0.36
  -2  -1 -15    3.53    0.44
  -2   1  15    3.32    0.39
   2   1 -15    2.96    0.32
  -2   1 -15    3.27    0.43
  -2  -1  15    2.51    0.34
   2  -1 -15    3.06    0.32
   2   1  15    3.20    0.39
  -3  -1 -15   44.28    1.40
  -3   1  15   44.11    1.31
   3   1 -15   44.54    1.21
   3  -1  15   45.29    1.26
   3  -1 -15   43.30    1.19
   3   1  15   43.82    1.29
  -3  -1  15   45.13    1.29
  -3   1 -15   44.33    1.39
   4  -1  15    0.91    0.23
   4   1 -15    1.03    0.23
  -4  -1 -15    0.49    0.27
  -4   1  15    1.25    0.29
  -4  -1  15    0.93    0.27
   4  -1 -15    1.45    0.25
   4   1  15    0.97    0.25
  -4   1 -15    0.95    0.30
  -5   1  15    0.67    0.26
   5   1 -15    0.64    0.21
   5  -1  15    0.53    0.21
  -5  -1 -15   -0.18    0.19
  -5   1 -15    0.17    0.25
  -5  -1  15    0.32    0.22
   5  -1 -15    0.74    0.22
   5   1  15    0.63    0.22
  -6   1  15    3.77    0.48
   6  -1  15    4.11    0.47
   6   1 -15    4.79    0.49
  -6  -1 -15    4.59    0.57
  -6  -1  15    4.10    0.48
   6   1  15    5.01    0.53
   6  -1 -15    4.36    0.48
  -6   1 -15    4.71    0.57
   7  -1  15    3.94    0.49
  -7  -1 -15    2.60    0.48
  -7   1  15    3.87    0.50
   7   1 -15    3.01    0.41
   7  -1 -15    3.57    0.46
   7   1  15    4.44    0.51
  -7   1 -15    3.42    0.53
  -7  -1  15    4.16    0.50
  -8   1  15    3.07    0.48
   8  -1  15    2.23    0.41
  -8  -1 -15    1.43    0.42
   8   1 -15    1.64    0.35
   8  -1 -15    2.68    0.42
  -8  -1  15    2.61    0.45
   8   1  15    2.95    0.46
  -8   1 -15    2.25    0.47
   9  -1  15    4.18    0.55
   9   1 -15    3.31    0.48
  -9  -1 -15    3.54    0.60
  -9   1  15    2.72    0.49
  -9  -1  15    2.94    0.48
  -9   1 -15    2.88    0.53
   9   1  15    3.54    0.52
   9  -1 -15    3.21    0.48
   0  -2  15   23.57    0.82
   0  -2 -15   24.50    0.89
   0   2  15   23.30    0.89
   0   2 -15   23.46    0.74
   0   2 -15   24.63    0.89
   1   2 -15   14.41    0.65
   1   2 -15   15.00    0.60
  -1  -2 -15   16.12    0.74
  -1   2  15   14.75    0.71
   1  -2  15   15.73    0.66
  -1   2 -15   15.52    0.73
   1   2  15   14.87    0.71
   1  -2 -15   15.92    0.58
   1  -2 -15   15.26    0.66
  -1  -2  15   15.58    0.67
  -2   2  15    4.83    0.48
   2   2 -15    4.80    0.36
   2   2 -15    4.60    0.38
  -2  -2 -15    5.35    0.52
   2  -2  15    5.24    0.40
  -2   2 -15    4.84    0.50
  -2  -2  15    5.30    0.40
   2   2  15    4.36    0.45
   2  -2 -15    5.39    0.36
  -3   2  15   39.35    1.24
   3  -2  15   40.27    1.15
   3   2 -15   38.19    1.11
  -3  -2 -15   36.52    1.26
   3  -2 -15   37.16    1.08
   3   2  15   37.86    1.20
  -3  -2  15   38.76    1.16
  -3   2 -15   38.77    1.28
  -4   2  15    3.06    0.42
  -4  -2 -15    3.03    0.44
   4   2 -15    3.33    0.39
   4  -2  15    3.22    0.39
  -4   2 -15    3.54    0.46
   4   2  15    3.59    0.43
  -4  -2  15    3.00    0.40
   4  -2 -15    3.33    0.37
   5  -2  15    0.83    0.24
  -5   2  15    0.06    0.22
   5   2 -15    1.10    0.25
  -5  -2 -15    0.87    0.30
   5   2  15    0.91    0.26
  -5   2 -15    1.02    0.33
   5  -2 -15    0.61    0.22
  -5  -2  15    0.37    0.23
  -6  -2 -15    1.34    0.37
  -6   2  15    2.19    0.39
   6   2 -15    2.39    0.36
   6  -2  15    1.42    0.31
   6   2  15    1.58    0.33
   6  -2 -15    1.73    0.31
  -6  -2  15    1.91    0.36
  -6   2 -15    1.90    0.42
  -7  -2 -15   18.10    1.00
  -7   2  15   20.66    0.99
   7   2 -15   17.95    0.86
   7  -2  15   20.29    0.91
  -7   2 -15   21.38    1.05
   7   2  15   20.69    0.97
   7  -2 -15   20.19    0.91
  -7  -2  15   20.12    0.93
  -8  -2 -15    3.48    0.56
  -8   2  15    3.04    0.48
   8   2 -15    3.00    0.43
   8  -2  15    3.48    0.48
   8   2  15    2.36    0.42
  -8   2 -15    3.31    0.54
   8  -2 -15    2.50    0.41
  -8  -2  15    3.72    0.52
   9  -2  15    8.39    0.66
  -9  -2 -15    8.48    0.87
   9   2 -15    8.52    0.64
  -9   2  15    7.94    0.76
   9   2  15    8.26    0.78
   9  -2 -15    8.16    0.65
  -9   2 -15    7.20    0.78
  -9  -2  15    7.28    0.71
   0  -3 -15   -0.18    0.15
   0  -3  15    0.09    0.13
   0   3 -15    0.06    0.16
   0  -3  15    0.13    0.10
   0   3  15    0.04    0.15
  -1   3  15    0.58    0.23
   1  -3  15    0.24    0.15
   1   3 -15    0.33    0.18
   1   3 -15    0.55    0.18
  -1  -3 -15    0.81    0.25
   1  -3  15    0.74    0.17
   1   3  15    0.32    0.18
   1  -3 -15    0.77    0.24
  -1  -3  15    0.27    0.16
  -1   3 -15    0.58    0.25
   2  -3  15    3.92    0.38
   2   3 -15    3.35    0.36
  -2   3  15    2.75    0.38
  -2  -3 -15    4.48    0.49
   2   3 -15    3.59    0.37
   2  -3 -15    3.54    0.34
  -2   3 -15    2.73    0.39
  -2  -3  15    3.62    0.38
   2   3  15    3.81    0.43
  -3   3  15    2.29    0.37
  -3  -3 -15    3.06    0.43
   3   3 -15    2.61    0.34
   3  -3  15    2.61    0.33
  -3   3 -15    2.76    0.42
   3  -3 -15    2.31    0.31
   3   3  15    1.61    0.31
  -3  -3  15    2.61    0.35
   4   3 -15   -0.16    0.12
  -4  -3 -15   -0.05    0.20
   4  -3  15    0.05    0.15
  -4   3  15    0.17    0.20
  -4  -3  15   -0.15    0.17
   4   3  15    0.22    0.17
   4  -3 -15    0.32    0.17
  -4   3 -15   -0.23    0.18
  -5   3  15   16.04    0.83
   5   3 -15   15.57    0.74
  -5  -3 -15   15.12    0.84
   5  -3  15   16.24    0.74
  -5  -3  15   16.47    0.77
   5  -3 -15   16.85    0.75
   5   3  15   15.68    0.79
  -5   3 -15   14.66    0.82
   6  -3  15    0.29    0.21
   6   3 -15    0.17    0.17
  -6  -3 -15    0.77    0.29
  -6   3  15    0.68    0.27
   6  -3 -15    0.25    0.18
  -6   3 -15    0.24    0.27
   6   3  15    0.12    0.17
  -6  -3  15    0.20    0.22
  -7   3  15    0.97    0.33
  -7  -3 -15    0.61    0.32
   7   3 -15    0.90    0.27
   7  -3  15    0.93    0.27
   7   3  15    0.83    0.30
  -7   3 -15    0.45    0.33
   7  -3 -15    0.73    0.25
  -7  -3  15    0.99    0.31
   8   3 -15    0.58    0.25
  -8  -3 -15   -0.04    0.29
   8  -3  15    0.94    0.31
  -8   3  15    0.27    0.27
  -8   3 -15    0.10    0.28
   8   3  15    0.81    0.30
   8  -3 -15    0.49    0.26
  -8  -3  15    0.54    0.31
   9  -3  15    5.44    0.61
  -9   3  15    4.81    0.63
  -9  -3 -15    5.47    0.72
   9   3 -15    5.64    0.60
  -9  -3  15    5.69    0.62
   9   3  15    4.49    0.59
   9  -3 -15    5.05    0.58
  -9   3 -15    4.86    0.64
   0   4 -15    4.51    0.46
   0   4  15    3.87    0.44
   0  -4 -15    4.18    0.44
   0  -4  15    3.81    0.32
  -1  -4 -15    1.79    0.32
   1   4 -15    2.12    0.31
   1   4 -15    1.73    0.27
  -1   4  15    2.18    0.35
   1  -4  15    1.95    0.25
   1   4  15    2.17    0.34
  -1   4 -15    2.02    0.34
   2   4 -15    0.46    0.18
   2   4 -15    0.36    0.18
  -2   4  15    0.42    0.21
  -2  -4 -15    0.19    0.21
   2  -4 -15    0.44    0.16
  -2   4 -15    0.29    0.21
   2   4  15    0.14    0.18
  -3  -4 -15   13.42    0.73
   3   4 -15   12.77    0.63
  -3   4  15   13.41    0.73
   3   4  15   12.30    0.68
  -3   4 -15   14.04    0.75
   3  -4 -15   12.91    0.59
   4   4 -15    0.05    0.14
  -4   4  15   -0.05    0.18
  -4  -4 -15    0.07    0.19
   4   4  15    0.06    0.17
  -4   4 -15   -0.18    0.19
   4  -4 -15   -0.04    0.13
  -5   4  15   -0.04    0.23
  -5  -4 -15    0.13    0.23
   5   4 -15   -0.02    0.15
  -5   4 -15   -0.17    0.22
   5  -4 -15    0.36    0.20
   5   4  15    0.13    0.19
   6   4 -15    0.09    0.16
  -6  -4 -15   -0.23    0.19
  -6   4  15    0.19    0.25
  -6   4 -15    0.02    0.23
   6   4  15   -0.19    0.18
   6  -4 -15   -0.02    0.16
  -7   4  15    6.44    0.66
  -7  -4 -15    5.59    0.66
   7   4 -15    4.87    0.53
   7  -4 -15    6.24    0.52
  -7   4 -15    5.32    0.62
   7   4  15    5.54    0.60
   8   4 -15    0.56    0.25
  -8   4  15    0.16    0.29
  -8  -4 -15   -0.04    0.28
  -8   4 -15    0.11    0.31
   8  -4 -15    0.20    0.20
   8   4  15    0.61    0.31
   9  -4 -15    0.16    0.20
  -9   4 -15    0.17    0.32
   0  -5  15   -0.11    0.10
   0   5 -15   -0.05    0.15
   0   5  15    0.11    0.14
   0  -5 -15   -0.31    0.14
  -1   5  15    0.21    0.18
  -1  -5 -15    0.03    0.17
   1   5 -15    0.53    0.20
   1  -5  15    0.14    0.12
   1   5  15    0.37    0.18
  -1  -5  15    0.36    0.15
  -1   5 -15    0.45    0.21
  -2   5  15    1.63    0.32
   2   5 -15    1.40    0.26
  -2  -5 -15    1.03    0.27
   2   5 -15    1.12    0.25
   2   5  15    1.08    0.27
  -2   5 -15    0.49    0.25
   3   5 -15    7.50    0.49
  -3  -5 -15    8.22    0.59
  -3   5  15    7.18    0.55
   3  -5 -15    8.34    0.49
  -3   5 -15    7.53    0.58
   3   5  15    7.93    0.57
   4   5 -15    1.27    0.28
  -4  -5 -15    1.26    0.32
  -4   5  15    1.20    0.29
  -4   5 -15    0.76    0.26
   4   5  15    1.21    0.28
   4  -5 -15    1.68    0.29
  -5  -5 -15   39.12    1.40
  -5   5  15   40.25    1.37
   5   5 -15   40.23    1.28
   5   5  15   40.00    1.36
   5  -5 -15   38.58    1.21
  -5   5 -15   40.12    1.39
   6   5 -15    4.90    0.52
  -6  -5 -15    4.60    0.57
  -6   5  15    4.33    0.53
  -6   5 -15    4.96    0.58
   6   5  15    5.84    0.60
   6  -5 -15    4.67    0.50
   7   5 -15    8.00    0.60
  -7  -5 -15    8.06    0.79
  -7   5  15    6.79    0.69
   7   5  15    8.81    0.67
  -7   5 -15    8.45    0.71
   7  -5 -15    8.75    0.60
   8   5 -15    0.25    0.21
  -8   5  15   -0.15    0.23
  -8  -5 -15    0.56    0.36
   8  -5 -15    0.37    0.24
  -8   5 -15    0.63    0.34
   8   5  15   -0.09    0.22
  -9   5 -15    0.55    0.36
   0  -6  15    0.47    0.17
   0   6  15    0.73    0.24
   0  -6 -15    0.28    0.20
   0   6 -15    0.62    0.22
   1   6 -15    3.24    0.40
  -1   6  15    2.80    0.40
  -1  -6 -15    3.70    0.43
   1  -6  15    2.68    0.32
   1   6  15    3.24    0.42
  -1  -6  15    3.47    0.38
  -1   6 -15    4.10    0.46
  -2   6  15    3.07    0.42
   2   6 -15    3.20    0.39
   2  -6  15    3.09    0.34
  -2  -6 -15    3.44    0.44
  -2  -6  15    3.54    0.40
   2   6  15    3.79    0.46
  -2   6 -15    2.91    0.42
  -3   6  15    3.85    0.48
   3   6 -15    4.60    0.46
  -3  -6 -15    4.91    0.53
   3  -6 -15    5.36    0.40
  -3   6 -15    4.11    0.51
   3   6  15    4.87    0.52
  -4  -6 -15    2.11    0.39
   4   6 -15    1.35    0.28
  -4   6  15    1.68    0.36
   4  -6 -15    1.81    0.30
   4   6  15    1.70    0.33
  -4   6 -15    1.76    0.37
  -5  -6 -15    1.98    0.40
   5   6 -15    2.19    0.35
  -5   6  15    2.17    0.40
   5  -6 -15    1.52    0.31
  -5   6 -15    1.23    0.32
   5   6  15    1.39    0.32
  -6   6  15    0.49    0.26
  -6  -6 -15    0.29    0.24
   6   6 -15   -0.27    0.14
  -6   6 -15    0.00    0.23
   6  -6 -15   -0.03    0.15
   6   6  15    0.04    0.18
  -7   6  15    0.67    0.30
   7   6 -15    0.46    0.24
  -7  -6 -15    0.27    0.30
   7  -6 -15    0.67    0.25
   7   6  15    0.48    0.26
  -7   6 -15    0.79    0.32
   8   6 -15   -0.11    0.16
  -8   6  15    0.39    0.27
  -8  -6 -15   -0.22    0.29
   8  -6 -15    0.02    0.23
  -8   6 -15    0.23    0.28
   8   6  15    0.00    0.24
   0   7 -15   -0.21    0.14
   0   7  15   -0.23    0.12
   0  -7 -15   -0.21    0.15
   0  -7  15   -0.05    0.12
   1   7 -15    7.64    0.54
  -1  -7 -15    7.95    0.55
  -1   7  15    7.16    0.54
   1  -7  15    8.14    0.49
  -1  -7  15    7.30    0.50
  -1   7 -15    8.89    0.58
   1   7  15    7.98    0.57
   2  -7  15    8.90    0.51
   2   7 -15   10.29    0.59
  -2  -7 -15    9.74    0.63
  -2   7  15    9.06    0.62
  -2  -7  15   10.93    0.61
   2   7  15    8.63    0.59
  -2   7 -15   11.34    0.68
  -3   7  15   18.70    0.90
  -3  -7 -15   17.81    0.87
   3   7 -15   19.60    0.81
  -3  -7  15   19.63    0.85
   3  -7 -15   17.96    0.73
  -3   7 -15   18.50    0.90
   3   7  15   19.03    0.89
  -4   7  15    0.95    0.29
   4   7 -15    1.17    0.28
  -4  -7 -15    0.84    0.29
   4   7  15    1.57    0.34
  -4   7 -15    1.03    0.31
   4  -7 -15    1.37    0.28
   5   7 -15   22.10    0.96
  -5   7  15   24.53    1.08
  -5  -7 -15   22.87    1.06
  -5   7 -15   22.55    1.04
   5  -7 -15   24.06    0.93
   5   7  15   22.70    1.02
  -6  -7 -15    6.11    0.66
   6   7 -15    6.75    0.55
  -6   7  15    6.20    0.66
   6  -7 -15    6.80    0.53
   6   7  15    6.15    0.64
  -6   7 -15    5.38    0.60
  -7   7  15   10.84    0.76
   7   7 -15   11.52    0.73
  -7  -7 -15   11.37    0.80
   7  -7 -15   11.34    0.70
  -7   7 -15   11.76    0.80
   7   7  15   10.47    0.74
  -8   7  15    2.05    0.45
   8   7 -15    2.03    0.38
  -8   7 -15    1.70    0.41
   8  -7 -15    1.39    0.34
   8   7  15    1.45    0.38
   0   8  15    5.51    0.55
   0   8 -15    5.37    0.54
   0  -8  15    5.08    0.42
   1  -8  15   13.39    0.66
   1   8 -15   13.98    0.73
  -1   8  15   14.16    0.77
  -1  -8 -15   14.68    0.73
  -1  -8  15   13.61    0.69
   1   8  15   14.27    0.77
  -1   8 -15   14.45    0.77
  -2  -8 -15    0.16    0.20
   2  -8  15    0.15    0.15
  -2   8  15    0.42    0.22
   2   8 -15    0.48    0.20
  -2   8 -15    0.16    0.18
  -2  -8  15    0.26    0.17
   2   8  15    0.19    0.18
   3   8 -15   47.46    1.38
  -3  -8 -15   45.81    1.46
  -3   8  15   44.39    1.46
   3   8  15   43.90    1.44
  -3   8 -15   44.90    1.47
  -3  -8  15   46.41    1.42
  -4  -8 -15    1.17    0.30
  -4   8  15    0.96    0.29
   4   8  15    1.50    0.33
  -4   8 -15    1.48    0.36
  -4  -8  15    1.76    0.34
   4  -8 -15    1.47    0.29
   5   8 -15   -0.01    0.17
  -5   8  15    0.12    0.23
  -5  -8 -15    0.04    0.18
   5   8  15    0.52    0.24
  -5   8 -15    0.18    0.25
   5  -8 -15    0.14    0.17
  -6   8  15    1.77    0.40
   6   8 -15    1.28    0.32
  -6  -8 -15    2.03    0.44
   6  -8 -15    2.24    0.37
   6   8  15    2.25    0.41
  -6   8 -15    1.99    0.42
   7   8 -15   12.46    0.77
  -7   8  15   13.06    0.86
  -7  -8 -15   12.17    0.85
  -7   8 -15   12.00    0.83
   7  -8 -15   12.17    0.74
   7   8  15   13.26    0.84
   0   9 -15    0.22    0.17
   0  -9  15    0.10    0.15
   0   9  15    0.06    0.18
  -1  -9 -15    8.27    0.57
   1   9 -15    7.87    0.57
   1  -9  15    8.06    0.52
  -1   9  15    7.76    0.59
   1   9  15    8.24    0.60
  -1  -9  15    8.89    0.57
  -1   9 -15    7.28    0.58
   2  -9  15    0.07    0.14
   2   9 -15    0.38    0.20
  -2   9  15    0.02    0.17
  -2  -9 -15   -0.03    0.18
  -2  -9  15    0.04    0.15
   2   9  15    0.01    0.17
  -2   9 -15    0.33    0.23
  -3  -9 -15    6.28    0.62
  -3   9  15    7.27    0.59
   3   9 -15    7.21    0.53
   3  -9  15    7.00    0.50
  -3  -9  15    6.67    0.52
   3   9  15    6.64    0.64
  -3   9 -15    6.61    0.64
  -4   9  15    0.53    0.26
  -4  -9 -15    0.22    0.21
   4   9  15    0.21    0.19
  -4   9 -15   -0.06    0.19
  -4  -9  15    0.44    0.21
   4  -9 -15    0.09    0.16
  -5  -9 -15    4.15    0.55
  -5   9  15    3.81    0.52
  -5  -9  15    4.83    0.53
   5  -9 -15    4.73    0.50
   5   9  15    3.95    0.52
  -5   9 -15    3.50    0.50
  -6  -9 -15    0.24    0.27
  -6   9  15    1.43    0.38
   6   9 -15    1.09    0.31
   6  -9 -15    1.04    0.30
  -6   9 -15    0.86    0.33
  -6  -9  15    0.96    0.27
   6   9  15    1.11    0.33
  -7   9  15    3.39    0.53
   7   9 -15    3.51    0.51
  -7  -9 -15    3.57    0.57
  -7   9 -15    3.70    0.53
   7   9  15    3.84    0.54
   7  -9 -15    4.01    0.50
   0  10 -15    2.25    0.38
   0 -10  15    2.18    0.35
   0  10  15    1.50    0.32
   1  10 -15   -0.04    0.18
  -1 -10 -15   -0.12    0.16
  -1  10  15    0.06    0.17
   1 -10  15   -0.13    0.12
   1  10  15    0.04    0.16
  -1 -10  15   -0.14    0.11
  -1  10 -15   -0.08    0.17
   2  10 -15   -0.02    0.17
  -2  10  15    0.67    0.26
   2 -10  15    0.45    0.19
  -2 -10 -15    0.53    0.24
  -2 -10  15    0.34    0.20
   2  10  15    0.14    0.21
  -2  10 -15    0.02    0.20
  -3  10  15   22.38    1.04
  -3 -10 -15   20.55    0.97
   3  10 -15   20.77    0.93
   3 -10  15   19.24    0.86
   3  10  15   20.02    0.96
  -3 -10  15   20.08    0.93
  -3  10 -15   19.51    0.97
  -4 -10 -15    2.57    0.43
  -4  10  15    2.68    0.44
   4  10  15    2.58    0.43
  -4 -10  15    3.07    0.44
  -4  10 -15    2.28    0.42
  -5  10  15   -0.18    0.21
  -5 -10 -15    0.03    0.24
   5  10  15    0.15    0.22
  -5 -10  15   -0.16    0.17
  -5  10 -15    0.24    0.23
   5 -10 -15    0.05    0.18
  -6  10  15    1.07    0.33
  -6 -10 -15    1.09    0.35
  -6 -10  15    0.75    0.27
   6  10  15    0.93    0.32
  -6  10 -15    1.07    0.33
   6 -10 -15    0.66    0.26
   7 -10 -15    1.25    0.33
   0 -11  15   -0.01    0.15
   0  11  15    0.02    0.17
   0  11 -15    0.15    0.20
  -1  11  15    9.84    0.69
   1 -11  15   10.14    0.65
  -1 -11 -15    9.07    0.62
   1  11 -15   10.74    0.71
  -1 -11  15    9.38    0.62
  -1  11 -15   10.69    0.71
   1  11  15   10.68    0.71
  -2  11  15    2.27    0.41
   2 -11  15    1.84    0.33
  -2 -11 -15    1.54    0.35
   2  11 -15    2.57    0.42
  -2 -11  15    2.15    0.37
   2  11  15    2.68    0.43
  -2  11 -15    3.14    0.48
   3  11 -15    1.89    0.37
   3 -11  15    1.75    0.33
  -3 -11 -15    1.21    0.32
  -3  11  15    1.68    0.36
   3  11  15    1.03    0.30
  -3  11 -15    1.46    0.35
  -3 -11  15    1.50    0.34
  -4 -11 -15    0.07    0.23
  -4  11  15    0.13    0.21
  -4 -11  15    0.31    0.20
  -4  11 -15    0.13    0.24
   4  11  15   -0.14    0.17
  -5 -11 -15    0.12    0.25
  -5  11  15    0.08    0.24
   5  11  15    0.07    0.20
  -5  11 -15   -0.04    0.25
   5 -11 -15    0.16    0.19
  -5 -11  15    0.00    0.19
  -6  11  15    1.51    0.38
   6  11  15    1.64    0.41
   6 -11 -15    1.38    0.33
   0 -12  15    0.04    0.18
   0  12 -15    0.16    0.20
   0  12  15    0.20    0.23
   1 -12  15    0.17    0.19
   1  12 -15    0.18    0.22
  -1  12  15    0.11    0.23
  -1 -12  15   -0.02    0.16
  -1  12 -15    0.63    0.29
   1  12  15    0.36    0.25
   2  12 -15    1.28    0.32
  -2 -12 -15    0.61    0.28
   2 -12  15    0.66    0.24
  -2  12  15    1.13    0.32
  -2  12 -15    0.83    0.29
   2  12  15    0.67    0.28
  -2 -12  15    0.32    0.22
  -3 -12 -15    4.63    0.55
   3 -12  15    3.75    0.47
  -3  12  15    4.57    0.56
   3  12 -15    3.90    0.52
  -3 -12  15    4.16    0.53
   3  12  15    3.83    0.52
  -3  12 -15    5.38    0.64
  -4 -12 -15    0.12    0.24
  -4  12  15    0.36    0.26
  -4  12 -15    0.06    0.22
  -4 -12  15   -0.37    0.16
   4  12  15   -0.09    0.18
  -5 -12 -15    0.12    0.25
  -5  12  15    0.50    0.28
   5  12  15    0.56    0.28
   0 -13  15    0.09    0.18
   0  13  15   -0.01    0.22
   0  13 -15   -0.06    0.21
   1 -13  15    8.66    0.63
  -1  13  15    8.30    0.67
   1  13 -15    8.70    0.68
  -1 -13  15    7.72    0.62
   1  13  15    6.79    0.68
  -1  13 -15    7.36    0.72
   2 -13  15    0.11    0.21
  -2  13  15    0.76    0.29
  -2 -13 -15    0.21    0.25
   2  13 -15    0.45    0.26
   2  13  15    0.98    0.31
  -2 -13  15    0.34    0.23
  -2  13 -15    0.88    0.31
   3  13 -15   10.90    0.76
  -3 -13 -15    9.49    0.73
   3 -13  15   11.89    0.74
  -3  13  15   10.21    0.75
  -3 -13  15    9.88    0.71
  -3  13 -15    9.77    0.75
   3  13  15   11.24    0.75
  -4 -13 -15   -0.16    0.22
  -4  13  15    0.15    0.26
   4 -13  15    0.10    0.20
   4  13  15    0.01    0.22
   0 -14  15    0.15    0.23
   0  14  15    0.34    0.25
  -1  14  15    0.70    0.29
   1 -14  15    0.26    0.22
   1  14 -15    0.04    0.22
   1  14  15    0.29    0.24
   2  14 -15    3.08    0.49
   2 -14  15    1.74    0.36
  -2  14  15    2.23    0.42
  -2 -14 -15    2.15    0.44
   2  14  15    2.86    0.47
  -3 -14 -15    3.65    0.57
   3  14 -15    5.02    0.63
   3 -14  15    5.29    0.60
  -3  14  15    5.60    0.66
   3  14  15    4.95    0.59
   0   0  16    0.76    0.22
   0   0 -16    0.99    0.27
  -1   0 -16   22.84    0.92
   1   0 -16   25.52    0.88
  -1   0  16   23.94    0.90
   1   0 -16   24.98    0.79
   1   0  16   24.68    0.91
   2   0  16    0.54    0.21
  -2   0  16   -0.06    0.15
   2   0 -16    0.04    0.11
  -2   0 -16   -0.04    0.20
  -3   0 -16   32.38    1.20
   3   0  16   32.24    1.09
  -3   0  16   34.55    1.15
   3   0 -16   34.16    1.03
   4   0 -16    1.67    0.29
  -4   0 -16    1.58    0.36
   4   0  16    1.31    0.28
  -4   0  16    1.37    0.29
   5   0 -16    0.39    0.19
  -5   0 -16    0.58    0.27
  -5   0  16   -0.18    0.18
   5   0  16    0.39    0.21
  -6   0 -16    3.70    0.54
   6   0  16    4.11    0.50
  -6   0  16    3.69    0.49
   6   0 -16    3.85    0.45
   7   0  16   30.93    1.21
  -7   0  16   31.13    1.22
  -7   0 -16   30.27    1.32
   7   0 -16   31.19    1.17
   8   0  16    0.39    0.28
   8   0 -16    0.54    0.26
  -8   0  16    0.93    0.33
  -8   0 -16    0.82    0.37
  -9   0  16    0.47    0.33
   9   0  16    0.72    0.32
   0   1 -16   -0.10    0.18
   0  -1 -16   -0.33    0.16
   0  -1  16   -0.04    0.15
   0   1  16   -0.22    0.13
  -1   1  16   -0.01    0.15
   1   1 -16    0.12    0.12
   1  -1  16    0.06    0.16
  -1  -1 -16    0.04    0.20
   1   1 -16    0.09    0.17
  -1   1 -16    0.27    0.22
  -1  -1  16    0.17    0.17
   1   1  16    0.27    0.19
   1  -1 -16    0.10    0.19
  -2   1  16    0.53    0.22
   2   1 -16    0.55    0.18
   2  -1  16    1.00    0.24
  -2  -1 -16    0.22    0.24
  -2  -1  16    1.00    0.26
  -2   1 -16    0.54    0.27
   2  -1 -16    0.72    0.19
   2   1  16    0.47    0.21
   3  -1  16    0.32    0.18
  -3  -1 -16    0.74    0.29
   3   1 -16    0.24    0.16
  -3   1  16    0.40    0.21
  -3  -1  16    0.25    0.19
   3  -1 -16    0.30    0.16
  -3   1 -16    0.51    0.26
   3   1  16    0.48    0.21
  -4  -1 -16    6.54    0.65
  -4   1  16    6.71    0.55
   4   1 -16    7.25    0.49
   4  -1  16    7.51    0.51
   4   1  16    6.87    0.52
   4  -1 -16    8.56    0.53
  -4  -1  16    6.70    0.53
  -4   1 -16    6.52    0.64
  -5  -1 -16   -0.16    0.22
  -5   1  16    0.10    0.20
   5  -1  16   -0.20    0.13
   5   1 -16   -0.11    0.14
  -5   1 -16    0.36    0.25
   5  -1 -16    0.12    0.16
   5   1  16   -0.13    0.15
  -5  -1  16    0.19    0.20
   6  -1  16   -0.23    0.14
  -6   1  16    0.11    0.20
   6   1 -16    0.13    0.15
  -6  -1 -16    0.15    0.24
   6   1  16   -0.11    0.17
  -6  -1  16    0.33    0.24
  -6   1 -16   -0.34    0.20
   6  -1 -16    0.14    0.16
  -7   1  16    0.08    0.24
   7   1 -16    0.51    0.24
  -7  -1 -16    0.35    0.31
   7  -1  16    0.11    0.21
  -7  -1  16    0.56    0.28
   7  -1 -16   -0.12    0.18
   7   1  16    0.41    0.24
  -7   1 -16    0.00    0.27
   8   1 -16    1.25    0.33
  -8  -1 -16    0.59    0.38
   8  -1  16    1.21    0.34
  -8   1  16    1.20    0.38
   8  -1 -16    1.41    0.34
   8   1  16    0.45    0.28
  -8   1 -16    0.38    0.34
  -8  -1  16    0.76    0.34
  -9   1  16    0.87    0.35
   9  -1  16    0.05    0.27
  -9  -1  16    0.84    0.33
   9   1  16    0.35    0.27
   0  -2  16   22.67    0.84
   0   2  16   22.04    0.90
   0   2 -16   23.87    0.90
   0  -2 -16   24.27    0.91
   1   2 -16    8.85    0.47
   1  -2  16    8.78    0.52
  -1  -2 -16    8.19    0.57
  -1   2  16    8.12    0.56
   1   2 -16    8.26    0.51
   1   2  16    8.44    0.56
  -1   2 -16    8.87    0.59
  -1  -2  16    8.00    0.50
  -2  -2 -16   37.99    1.26
   2   2 -16   35.96    1.07
   2  -2  16   37.67    1.12
  -2   2  16   36.20    1.21
   2   2  16   35.04    1.17
  -2  -2  16   37.99    1.14
  -2   2 -16   38.02    1.25
   2  -2 -16   36.53    1.03
  -3  -2 -16   15.97    0.84
  -3   2  16   16.84    0.82
   3   2 -16   15.72    0.70
   3  -2  16   15.92    0.72
  -3   2 -16   16.10    0.84
  -3  -2  16   17.63    0.77
   3  -2 -16   16.74    0.69
   3   2  16   18.14    0.83
  -4   2  16    8.44    0.61
   4  -2  16    9.41    0.56
   4   2 -16    9.01    0.54
  -4  -2 -16   10.46    0.70
  -4  -2  16   10.00    0.61
  -4   2 -16    9.59    0.69
   4  -2 -16    9.59    0.55
   4   2  16    9.70    0.62
   5  -2  16    1.64    0.32
  -5   2  16    1.04    0.29
   5   2 -16    1.58    0.30
  -5  -2 -16    0.91    0.34
   5   2  16    1.44    0.31
  -5   2 -16    0.97    0.32
   5  -2 -16    1.37    0.30
  -5  -2  16    1.26    0.30
  -6   2  16    5.93    0.61
   6   2 -16    5.92    0.49
  -6  -2 -16    6.36    0.68
   6  -2  16    8.15    0.56
   6   2  16    6.24    0.61
  -6  -2  16    6.67    0.55
   6  -2 -16    6.88    0.53
  -6   2 -16    6.94    0.69
   7  -2  16    1.31    0.34
  -7   2  16    1.92    0.42
  -7  -2 -16    1.60    0.44
   7   2 -16    1.81    0.35
   7  -2 -16    2.29    0.39
   7   2  16    2.14    0.40
  -7  -2  16    1.74    0.37
  -7   2 -16    1.79    0.44
  -8  -2 -16    8.74    0.85
   8  -2  16    8.98    0.68
   8   2 -16    9.43    0.67
  -8   2  16    9.39    0.72
  -8  -2  16    9.54    0.69
  -8   2 -16    8.99    0.76
   8   2  16   10.05    0.72
   8  -2 -16    9.90    0.68
   9  -2  16    0.58    0.31
  -9  -2  16    1.75    0.43
   0  -3 -16    0.09    0.21
   0  -3  16    0.04    0.13
   0  -3  16    0.15    0.12
   0   3  16   -0.05    0.16
   0   3 -16    0.07    0.17
  -1   3  16   11.67    0.67
  -1  -3 -16   11.79    0.67
   1   3 -16   12.83    0.58
   1  -3  16   13.09    0.61
   1   3 -16   12.71    0.63
  -1  -3  16   12.16    0.59
  -1   3 -16   12.15    0.66
   1   3  16   11.90    0.67
  -2   3  16   19.42    0.88
   2   3 -16   20.31    0.77
  -2  -3 -16   20.69    0.92
   2  -3  16   20.36    0.78
  -2   3 -16   20.09    0.89
   2   3  16   20.03    0.87
  -2  -3  16   19.98    0.79
   3   3 -16    4.52    0.44
  -3   3  16    5.03    0.53
  -3  -3 -16    3.53    0.47
   3  -3  16    5.05    0.42
   3   3  16    5.04    0.51
   3  -3 -16    5.03    0.40
  -3  -3  16    4.55    0.46
  -3   3 -16    4.21    0.52
  -4   3  16    1.10    0.30
   4  -3  16    0.93    0.24
  -4  -3 -16    0.47    0.27
   4   3 -16    1.04    0.24
   4   3  16    0.83    0.24
  -4   3 -16    0.30    0.26
   4  -3 -16    0.81    0.22
  -4  -3  16    0.88    0.27
  -5   3  16   16.03    0.85
  -5  -3 -16   15.32    0.88
   5   3 -16   17.25    0.79
   5  -3  16   16.26    0.76
  -5  -3  16   15.60    0.77
   5  -3 -16   16.06    0.75
  -5   3 -16   15.06    0.86
   5   3  16   16.04    0.83
  -6  -3 -16    0.81    0.32
  -6   3  16    1.33    0.33
   6   3 -16    1.79    0.33
   6  -3  16    1.44    0.31
   6   3  16    0.58    0.25
  -6   3 -16    1.74    0.41
  -6  -3  16    1.61    0.34
   6  -3 -16    1.85    0.33
  -7   3  16    0.22    0.24
   7   3 -16    0.19    0.19
  -7  -3 -16    0.20    0.31
   7   3  16   -0.22    0.19
  -7  -3  16   -0.10    0.21
  -7   3 -16    0.17    0.29
   7  -3 -16   -0.06    0.20
  -8  -3 -16    2.74    0.54
  -8   3  16    2.32    0.47
   8   3 -16    3.72    0.51
   8   3  16    2.83    0.47
   8  -3 -16    3.80    0.52
  -8   3 -16    2.62    0.51
   0  -4 -16    1.10    0.28
   0   4 -16    0.45    0.23
   0  -4  16    1.30    0.23
   0   4  16    1.17    0.28
  -1  -4 -16    9.67    0.61
  -1   4  16    9.10    0.61
   1   4 -16    9.52    0.56
   1   4 -16    8.66    0.50
   1   4  16    9.09    0.61
  -1   4 -16    9.31    0.60
   2   4 -16    4.59    0.44
  -2  -4 -16    4.42    0.50
  -2   4  16    4.17    0.48
   2   4 -16    4.78    0.39
   2   4  16    4.32    0.49
  -2   4 -16    4.66    0.51
  -3  -4 -16    8.32    0.60
  -3   4  16    7.57    0.58
   3   4 -16    7.95    0.51
  -3   4 -16    9.01    0.64
   3   4  16    7.80    0.58
   3  -4 -16    8.72    0.49
  -4   4  16    9.74    0.67
   4   4 -16   11.24    0.62
  -4  -4 -16   10.85    0.72
  -4   4 -16    9.86    0.67
   4   4  16    8.77    0.61
   4  -4 -16    9.53    0.55
  -5  -4 -16    1.81    0.38
  -5   4  16    1.82    0.39
   5   4 -16    1.41    0.29
   5  -4 -16    2.29    0.36
  -5   4 -16    1.53    0.37
   5   4  16    1.49    0.34
  -6   4  16    6.53    0.66
  -6  -4 -16    6.73    0.69
   6   4 -16    6.22    0.52
  -6   4 -16    6.71    0.69
   6  -4 -16    8.33    0.57
   6   4  16    6.13    0.63
   7   4 -16    1.16    0.32
  -7   4  16    2.29    0.44
  -7  -4 -16    1.76    0.43
   7  -4 -16    2.93    0.43
   7   4  16    1.78    0.39
  -7   4 -16    2.11    0.45
   8   4 -16    2.93    0.45
  -8   4  16    3.02    0.52
  -8  -4 -16    1.27    0.46
   8  -4 -16    2.94    0.46
  -8   4 -16    2.90    0.52
   8   4  16    3.26    0.52
   0  -5 -16   -0.05    0.19
   0  -5  16   -0.06    0.11
   0   5  16   -0.06    0.15
   0   5 -16    0.11    0.18
  -1  -5 -16    0.08    0.20
  -1   5  16    0.38    0.21
   1   5 -16    0.07    0.17
   1  -5  16    0.05    0.13
   1   5  16    0.34    0.20
  -1   5 -16    0.09    0.19
  -1  -5  16    0.46    0.17
   2   5 -16    2.85    0.35
   2   5 -16    2.72    0.36
  -2   5  16    2.97    0.42
  -2  -5 -16    2.79    0.41
   2   5  16    2.61    0.39
  -2   5 -16    2.96    0.43
  -3  -5 -16    2.28    0.41
  -3   5  16    3.16    0.45
   3   5 -16    2.01    0.31
   3   5  16    2.17    0.36
  -3   5 -16    2.19    0.39
   3  -5 -16    2.79    0.34
   4   5 -16    0.07    0.16
  -4   5  16    0.54    0.26
  -4  -5 -16    0.00    0.22
   4   5  16    0.23    0.20
  -4   5 -16    0.20    0.23
   4  -5 -16    0.00    0.16
   5   5 -16    1.80    0.32
  -5  -5 -16    2.00    0.41
  -5   5  16    2.69    0.44
   5   5  16    2.12    0.38
  -5   5 -16    1.65    0.39
   5  -5 -16    2.59    0.38
  -6   5  16    0.49    0.27
   6   5 -16    0.56    0.23
  -6  -5 -16    0.54    0.31
   6  -5 -16    0.39    0.21
  -6   5 -16   -0.05    0.23
   6   5  16    0.73    0.30
  -7  -5 -16    4.43    0.63
  -7   5  16    3.58    0.54
   7   5 -16    5.09    0.56
   7  -5 -16    4.19    0.50
   7   5  16    4.87    0.59
  -7   5 -16    4.30    0.59
   8   5 -16    0.12    0.21
  -8  -5 -16    0.14    0.32
  -8   5  16    0.65    0.32
   8  -5 -16    0.50    0.25
  -8   5 -16    0.38    0.32
   8   5  16    0.35    0.28
   0   6  16   22.13    0.95
   0   6 -16   20.06    0.87
   0  -6  16   20.55    0.80
  -1  -6 -16    1.46    0.32
  -1   6  16    0.95    0.26
   1  -6  16    1.06    0.22
   1   6 -16    0.88    0.26
  -1  -6  16    0.58    0.19
  -1   6 -16    1.32    0.31
   1   6  16    1.09    0.28
   2   6 -16   14.99    0.72
  -2  -6 -16   13.42    0.75
  -2   6  16   15.29    0.81
  -2  -6  16   14.96    0.71
   2   6  16   13.73    0.75
  -2   6 -16   13.37    0.76
  -3   6  16   34.27    1.27
  -3  -6 -16   36.60    1.30
   3   6 -16   38.00    1.20
   3   6  16   36.32    1.28
  -3   6 -16   36.85    1.30
   4   6 -16   15.71    0.77
  -4  -6 -16   14.96    0.85
  -4   6  16   15.23    0.84
   4   6  16   17.10    0.87
  -4   6 -16   15.22    0.84
   4  -6 -16   16.29    0.74
  -5  -6 -16    3.64    0.53
  -5   6  16    3.32    0.48
   5   6 -16    2.21    0.37
   5  -6 -16    3.60    0.43
  -5   6 -16    2.49    0.43
   5   6  16    2.85    0.44
   6   6 -16    6.33    0.62
  -6  -6 -16    4.94    0.62
  -6   6  16    4.54    0.58
   6  -6 -16    6.49    0.53
   6   6  16    5.27    0.60
  -6   6 -16    6.07    0.67
  -7   6  16    6.84    0.71
  -7  -6 -16    4.45    0.63
   7   6 -16    4.47    0.52
  -7   6 -16    5.45    0.64
   7  -6 -16    5.11    0.56
   7   6  16    5.88    0.65
   8  -6 -16    2.94    0.46
  -8   6 -16    3.23    0.54
   0  -7  16   -0.17    0.10
   0   7 -16   -0.01    0.19
   0   7  16   -0.05    0.15
  -1   7  16    1.38    0.31
   1   7 -16    1.16    0.28
  -1  -7 -16    1.60    0.32
   1  -7  16    1.54    0.28
   1   7  16    1.79    0.33
  -1   7 -16    1.02    0.28
  -1  -7  16    1.00    0.26
  -2   7  16    0.67    0.25
  -2  -7 -16    0.80    0.27
   2   7 -16    0.52    0.23
  -2  -7  16    0.77    0.23
  -2   7 -16    0.54    0.24
   2   7  16    0.87    0.26
  -3   7  16    0.21    0.20
  -3  -7 -16    0.22    0.22
   3   7  16    0.50    0.23
  -3  -7  16    0.27    0.17
  -3   7 -16    0.18    0.19
  -4   7  16    1.02    0.29
  -4  -7 -16    1.45    0.37
   4   7 -16    0.92    0.27
   4  -7 -16    1.75    0.31
   4   7  16    1.55    0.34
  -4   7 -16    1.87    0.37
   5   7 -16    6.66    0.53
  -5   7  16    6.00    0.62
  -5  -7 -16    6.44    0.67
  -5   7 -16    6.81    0.69
   5   7  16    6.43    0.63
   5  -7 -16    7.42    0.52
   6   7 -16    0.31    0.21
  -6  -7 -16    0.75    0.32
  -6   7  16    0.33    0.25
  -6   7 -16    1.12    0.33
   6   7  16    0.36    0.24
   6  -7 -16    0.19    0.19
  -7  -7 -16    0.20    0.28
   7   7 -16    0.55    0.27
  -7   7  16    0.37    0.28
   7  -7 -16    0.50    0.26
  -7   7 -16    0.99    0.34
   7   7  16    0.61    0.28
   0  -8  16   11.00    0.61
   0   8  16   12.02    0.73
   0   8 -16   12.95    0.73
   1  -8  16    0.14    0.15
  -1   8  16    0.33    0.20
  -1  -8 -16    0.41    0.22
   1   8 -16    0.17    0.18
  -1   8 -16    0.39    0.24
  -1  -8  16    0.01    0.13
   1   8  16   -0.05    0.16
  -2  -8 -16    0.07    0.19
   2  -8  16    0.30    0.18
  -2   8  16    0.57    0.24
   2   8 -16    0.12    0.17
  -2  -8  16    0.47    0.19
   2   8  16    0.60    0.23
  -2   8 -16    0.30    0.22
  -3  -8 -16    0.07    0.21
  -3   8  16    0.17    0.22
   3   8  16    0.36    0.22
  -3   8 -16   -0.09    0.20
  -3  -8  16    0.29    0.20
  -4   8  16    3.90    0.52
  -4  -8 -16    4.32    0.54
  -4   8 -16    3.21    0.48
   4   8  16    4.17    0.52
  -4  -8  16    3.77    0.46
  -5   8  16   -0.03    0.22
  -5  -8 -16   -0.01    0.22
   5   8 -16   -0.01    0.17
   5  -8 -16   -0.06    0.14
   5   8  16   -0.02    0.18
  -5   8 -16    0.25    0.23
  -6   8  16    0.58    0.29
   6   8 -16    0.67    0.26
  -6  -8 -16    0.26    0.28
   6  -8 -16    0.34    0.22
  -6   8 -16    0.87    0.33
   6   8  16    0.88    0.29
   7  -8 -16    0.19    0.23
  -7   8 -16    0.13    0.25
   0   9 -16    0.10    0.18
   0  -9  16    0.07    0.15
   0   9  16    0.08    0.18
  -1  -9 -16    1.41    0.33
   1   9 -16    1.54    0.32
   1  -9  16    1.83    0.31
  -1   9  16    1.11    0.31
  -1   9 -16    1.62    0.35
  -1  -9  16    1.27    0.29
   1   9  16    0.61    0.25
  -2   9  16    1.66    0.37
   2   9 -16    2.26    0.37
   2  -9  16    2.54    0.36
  -2  -9 -16    2.02    0.38
  -2   9 -16    3.10    0.47
  -2  -9  16    2.76    0.41
   2   9  16    2.03    0.39
  -3   9  16   -0.13    0.18
  -3  -9 -16    0.10    0.24
   3   9 -16    0.43    0.21
  -3  -9  16    0.10    0.16
   3   9  16    0.12    0.20
  -3   9 -16    0.25    0.22
  -4  -9 -16    0.98    0.33
  -4   9  16    0.77    0.29
  -4  -9  16    0.96    0.28
  -4   9 -16    1.15    0.33
   4   9  16    1.23    0.32
  -5   9  16    2.42    0.43
  -5  -9 -16    1.84    0.40
  -5   9 -16    2.29    0.43
  -5  -9  16    2.77    0.43
   5  -9 -16    2.90    0.40
   5   9  16    1.59    0.36
  -6   9  16    0.39    0.29
  -6  -9 -16    0.38    0.30
  -6   9 -16    0.42    0.28
  -6  -9  16    1.11    0.29
   6  -9 -16    0.82    0.27
   6   9  16    0.46    0.27
   7  -9 -16    5.66    0.60
   0  10  16    8.09    0.63
   0 -10  16    9.53    0.61
   0  10 -16    7.85    0.60
   1 -10  16    1.81    0.33
   1  10 -16    1.90    0.37
  -1  10  16    1.65    0.37
  -1 -10  16    1.82    0.34
   1  10  16    2.02    0.39
  -1  10 -16    1.74    0.36
  -2  10  16   13.41    0.81
   2  10 -16   14.62    0.81
   2 -10  16   13.03    0.70
  -2 -10 -16   15.34    0.81
   2  10  16   13.46    0.81
  -2  10 -16   13.31    0.82
  -2 -10  16   12.67    0.74
  -3 -10 -16    3.36    0.50
  -3  10  16    3.21    0.49
   3  10 -16    3.42    0.47
  -3  10 -16    3.75    0.52
   3  10  16    2.68    0.44
  -3 -10  16    3.21    0.45
  -4  10  16   10.80    0.77
  -4 -10 -16   11.21    0.78
  -4  10 -16   11.59    0.78
   4  10  16   11.98    0.78
  -4 -10  16   10.25    0.69
  -5  10  16    0.57    0.29
  -5 -10 -16    0.42    0.28
   5  10  16    0.26    0.23
  -5 -10  16   -0.07    0.16
  -5  10 -16    0.80    0.32
   6 -10 -16    5.75    0.59
   0  11  16   -0.09    0.18
   0  11 -16   -0.03    0.18
   0 -11  16    0.05    0.17
   1  11 -16    1.26    0.34
  -1  11  16    0.54    0.25
   1 -11  16    1.05    0.28
  -1 -11  16    0.10    0.17
  -1  11 -16    0.27    0.23
   1  11  16    1.01    0.30
   2 -11  16    3.64    0.45
  -2  11  16    4.29    0.55
   2  11 -16    4.13    0.51
  -2 -11 -16    3.55    0.50
  -2 -11  16    3.62    0.49
   2  11  16    3.29    0.49
  -2  11 -16    3.74    0.53
  -3 -11 -16    1.58    0.38
   3  11 -16    1.87    0.37
  -3  11  16    2.15    0.40
  -3 -11  16    1.47    0.35
  -3  11 -16    1.96    0.42
   3  11  16    2.01    0.39
  -4 -11 -16    0.56    0.31
  -4  11  16    0.09    0.23
  -4  11 -16    0.98    0.33
   4  11  16    0.37    0.25
  -4 -11  16    0.90    0.29
  -5  11  16    0.28    0.27
  -5 -11 -16    0.13    0.26
   5  11  16    0.11    0.24
   6 -11 -16    0.24    0.23
   0  12 -16    0.90    0.31
   0 -12  16    1.04    0.29
   0  12  16    1.08    0.33
   1  12 -16    0.85    0.30
   1 -12  16    1.20    0.31
  -1  12  16    1.57    0.38
  -1 -12  16    1.44    0.33
   1  12  16    1.60    0.37
  -1  12 -16    0.91    0.31
  -2  12  16    7.50    0.73
   2 -12  16    8.64    0.61
  -2 -12 -16    9.18    0.68
   2  12 -16    8.18    0.66
   2  12  16    9.92    0.71
  -2 -12  16    8.90    0.66
  -2  12 -16    8.24    0.69
   3  12 -16    4.83    0.57
  -3  12  16    6.65    0.71
  -3 -12 -16    5.31    0.62
   3 -12  16    6.40    0.62
  -3 -12  16    6.31    0.67
  -3  12 -16    4.81    0.61
   3  12  16    6.40    0.68
  -4  12  16    1.05    0.33
  -4 -12 -16    0.18    0.28
   4  12  16    0.85    0.32
   0  13  16    0.09    0.21
   0 -13  16    0.03    0.19
   0  13 -16    0.14    0.21
   1  13 -16    3.44    0.52
  -1  13  16    4.17    0.54
   1 -13  16    3.97    0.50
  -1  13 -16    4.95    0.62
  -1 -13  16    3.77    0.51
   1  13  16    4.26    0.57
   2  13 -16    0.89    0.32
  -2  13  16    1.17    0.34
   2 -13  16    0.19    0.22
   2  13  16    0.49    0.28
  -3  13  16    2.55    0.46
   3  13 -16    1.98    0.41
  -3 -13 -16    2.73    0.47
   3 -13  16    3.11    0.46
   3  13  16    2.37    0.44
   0  14  16    0.09    0.25
  -1  14  16    0.03    0.23
   1  14  16    0.04    0.22
   0   0  17   -0.02    0.15
   0   0 -17   -0.31    0.16
   1   0  17   -0.02    0.14
  -1   0  17   -0.15    0.15
  -1   0 -17   -0.07    0.20
  -2   0  17   -0.10    0.15
   2   0 -17    0.19    0.14
   2   0  17   -0.12    0.12
  -2   0 -17    0.30    0.24
   3   0 -17    0.10    0.14
   3   0  17   -0.14    0.15
  -3   0  17    0.07    0.18
  -3   0 -17    0.05    0.24
   4   0 -17    0.04    0.15
  -4   0 -17   -0.19    0.19
   4   0  17    0.13    0.19
  -4   0  17    0.22    0.22
   5   0  17   -0.23    0.13
  -5   0 -17   -0.22    0.23
  -5   0  17   -0.10    0.18
   5   0 -17    0.01    0.15
  -6   0 -17   -0.27    0.22
   6   0  17   -0.05    0.18
  -6   0  17   -0.01    0.23
   6   0 -17   -0.19    0.14
   7   0  17    0.03    0.21
  -7   0  17    0.32    0.27
   7   0 -17    0.19    0.22
  -7   0 -17   -0.38    0.29
  -8   0  17    0.14    0.27
   8   0 -17    0.02    0.18
   8   0  17   -0.03    0.22
  -8   0 -17   -0.11    0.31
   0  -1  17    0.04    0.16
   0   1 -17    0.13    0.18
   0   1  17    0.02    0.16
   0  -1 -17   -0.15    0.18
   1  -1  17   -0.02    0.15
   1   1 -17    0.05    0.18
  -1  -1 -17   -0.14    0.19
  -1   1  17   -0.04    0.16
  -1   1 -17    0.10    0.21
  -1  -1  17    0.12    0.15
   1   1  17    0.15    0.17
  -2  -1 -17    7.25    0.59
   2  -1  17    5.51    0.45
  -2   1  17    6.37    0.52
   2   1 -17    5.58    0.40
  -2   1 -17    5.84    0.58
   2   1  17    6.90    0.51
   2  -1 -17    6.75    0.44
  -2  -1  17    7.17    0.50
  -3  -1 -17   10.66    0.70
   3   1 -17   10.22    0.56
   3  -1  17   10.34    0.61
  -3   1  17   10.48    0.66
   3  -1 -17    9.46    0.54
   3   1  17   10.57    0.63
  -3  -1  17   10.67    0.64
  -3   1 -17    9.81    0.67
   4  -1  17    1.05    0.27
  -4   1  17    1.54    0.33
   4   1 -17    1.16    0.25
  -4  -1 -17    1.30    0.35
   4   1  17    1.03    0.27
  -4  -1  17    0.99    0.28
  -4   1 -17    1.48    0.37
   4  -1 -17    0.87    0.23
   5  -1  17   17.83    0.85
   5   1 -17   18.12    0.82
  -5   1  17   19.71    0.94
  -5  -1 -17   17.74    0.95
   5   1  17   18.58    0.88
   5  -1 -17   19.04    0.83
  -5   1 -17   16.61    0.92
  -5  -1  17   18.53    0.87
  -6   1  17    0.93    0.32
   6  -1  17    1.26    0.31
  -6  -1 -17    1.38    0.38
   6   1 -17    1.08    0.28
  -6  -1  17    0.76    0.30
  -6   1 -17    0.64    0.34
   6   1  17    1.04    0.31
   6  -1 -17    1.27    0.30
   7  -1  17   20.65    0.98
  -7   1  17   21.12    1.04
   7   1 -17   20.57    0.95
  -7  -1 -17   19.71    1.08
   7   1  17   19.99    0.99
  -7   1 -17   20.94    1.10
  -7  -1  17   20.18    1.00
   7  -1 -17   20.90    0.96
  -8  -1 -17    0.41    0.39
  -8   1  17    2.22    0.44
   8   1 -17    1.43    0.34
   8  -1  17    1.85    0.41
   8   1  17    1.22    0.36
   8  -1 -17    1.58    0.35
  -8   1 -17    1.01    0.37
  -8  -1  17    2.15    0.45
   0  -2 -17    6.47    0.51
   0   2  17    6.12    0.50
   0   2 -17    6.62    0.51
   0  -2  17    5.82    0.45
   1  -2  17    1.23    0.27
  -1   2  17    1.57    0.31
   1   2 -17    1.68    0.27
   1   2 -17    1.80    0.30
  -1  -2 -17    1.65    0.34
  -1  -2  17    1.50    0.28
   1   2  17    1.32    0.30
  -1   2 -17    0.87    0.27
   2   2 -17    5.71    0.42
  -2   2  17    6.58    0.61
   2  -2  17    6.10    0.47
  -2  -2 -17    5.53    0.58
   2   2  17    5.33    0.54
  -2  -2  17    5.19    0.50
  -2   2 -17    6.39    0.53
   3   2 -17    8.06    0.50
   3  -2  17    7.77    0.52
  -3  -2 -17    6.21    0.63
  -3   2  17    7.83    0.58
  -3  -2  17    7.93    0.55
   3  -2 -17    7.21    0.47
   3   2  17    7.16    0.54
  -3   2 -17    6.97    0.58
  -4  -2 -17    0.04    0.23
   4  -2  17    0.07    0.17
  -4   2  17    0.14    0.20
   4   2 -17   -0.02    0.13
   4   2  17    0.22    0.19
   4  -2 -17    0.14    0.16
  -4   2 -17   -0.13    0.20
  -4  -2  17   -0.14    0.19
  -5   2  17    0.42    0.26
   5  -2  17   -0.08    0.16
   5   2 -17    0.04    0.15
  -5  -2 -17    0.10    0.27
  -5   2 -17   -0.13    0.21
   5  -2 -17    0.06    0.17
  -5  -2  17    0.03    0.21
   5   2  17    0.04    0.18
  -6   2  17    0.34    0.26
   6   2 -17    0.34    0.20
  -6  -2 -17    0.89    0.34
   6  -2  17    0.46    0.23
   6  -2 -17    0.19    0.19
   6   2  17    0.58    0.26
  -6   2 -17    0.48    0.31
  -6  -2  17    0.18    0.24
   7  -2  17    8.81    0.64
   7   2 -17    7.59    0.61
  -7   2  17    8.32    0.68
  -7  -2 -17    7.12    0.77
  -7   2 -17    9.14    0.85
  -7  -2  17    8.51    0.66
   7  -2 -17    8.65    0.65
   7   2  17    8.50    0.67
   8  -2  17    0.07    0.22
  -8   2  17    0.24    0.28
  -8  -2 -17    0.33    0.35
   8   2 -17   -0.09    0.18
  -8   2 -17   -0.35    0.29
   8   2  17    0.10    0.23
  -8  -2  17    0.10    0.27
   8  -2 -17   -0.28    0.16
   0   3  17    0.07    0.18
   0  -3 -17   -0.15    0.20
   0   3 -17    0.33    0.22
   1   3 -17   44.23    1.20
   1   3 -17   45.54    1.30
  -1  -3 -17   44.24    1.39
  -1   3  17   41.16    1.35
  -1   3 -17   46.33    1.38
   1   3  17   46.19    1.41
  -2  -3 -17    0.80    0.29
   2   3 -17    0.71    0.21
  -2   3  17    0.72    0.26
  -2   3 -17    0.55    0.26
   2   3  17    0.38    0.24
  -3  -3 -17    3.87    0.53
  -3   3  17    3.90    0.48
   3   3 -17    3.41    0.39
   3   3  17    3.62    0.46
   3  -3 -17    3.61    0.38
  -3   3 -17    3.59    0.49
  -4   3  17    1.20    0.31
   4   3 -17    0.78    0.24
  -4  -3 -17    0.70    0.32
  -4   3 -17    1.41    0.36
   4  -3 -17    0.51    0.21
   4   3  17    0.84    0.25
  -5   3  17    0.37    0.25
   5   3 -17    0.99    0.27
  -5  -3 -17    0.59    0.30
  -5   3 -17    0.74    0.34
   5   3  17    0.46    0.24
   5  -3 -17    0.54    0.21
  -6   3  17    0.63    0.28
   6   3 -17    0.28    0.21
  -6  -3 -17    0.60    0.32
  -6   3 -17    0.27    0.31
   6   3  17    0.59    0.27
   6  -3 -17    0.50    0.23
   7   3 -17    2.21    0.39
  -7  -3 -17    2.93    0.55
  -7   3  17    2.27    0.44
  -7   3 -17    2.23    0.48
   7  -3 -17    3.27    0.45
   7   3  17    3.05    0.49
  -8   3  17    1.84    0.43
  -8   3 -17    1.74    0.44
   8   3  17    2.25    0.45
   8  -3 -17    1.93    0.40
   0  -4  17    0.72    0.20
   0   4  17    1.01    0.28
   0   4 -17    1.68    0.33
  -1  -4 -17    8.75    0.62
  -1   4  17    8.89    0.61
   1   4 -17    9.82    0.59
  -1  -4  17    9.64    0.54
  -1   4 -17    9.34    0.61
   1   4  17   10.03    0.65
   2   4 -17    1.85    0.29
  -2   4  17    1.34    0.32
  -2  -4 -17    1.65    0.35
   2   4  17    1.77    0.34
  -2   4 -17    1.33    0.32
  -3  -4 -17    2.21    0.41
  -3   4  17    1.94    0.36
   3   4 -17    2.03    0.33
  -3   4 -17    1.77    0.38
   3   4  17    1.31    0.30
   4   4 -17    0.74    0.24
  -4  -4 -17    0.62    0.29
  -4   4  17    0.73    0.28
   4  -4 -17    1.03    0.25
   4   4  17    0.44    0.24
  -4   4 -17    0.68    0.29
  -5   4  17    0.49    0.25
  -5  -4 -17    0.17    0.27
   5   4 -17    0.37    0.20
   5  -4 -17    0.10    0.17
  -5   4 -17    0.64    0.29
   5   4  17    0.11    0.21
  -6   4  17    0.82    0.31
   6   4 -17    0.80    0.29
  -6  -4 -17    0.52    0.31
   6  -4 -17    0.76    0.25
  -6   4 -17    1.04    0.37
   6   4  17    0.62    0.28
  -7  -4 -17    3.13    0.54
   7   4 -17    3.67    0.48
  -7   4  17    3.56    0.53
   7   4  17    3.86    0.53
   7  -4 -17    3.82    0.50
  -7   4 -17    4.01    0.58
   0   5  17   -0.05    0.17
   0  -5  17   -0.06    0.12
   0   5 -17   -0.10    0.16
   1   5 -17   29.04    1.04
  -1   5  17   31.32    1.17
  -1  -5 -17   29.64    1.12
  -1   5 -17   30.14    1.12
  -1  -5  17   29.41    1.00
   1   5  17   29.24    1.13
   2   5 -17    1.39    0.27
  -2  -5 -17    1.12    0.31
  -2   5  17    1.12    0.30
  -2   5 -17    2.13    0.38
   2   5  17    1.80    0.35
  -3  -5 -17    1.40    0.35
   3   5 -17    1.63    0.30
  -3   5  17    1.78    0.36
  -3   5 -17    1.99    0.38
   3   5  17    0.92    0.27
  -4  -5 -17    4.92    0.59
  -4   5  17    4.07    0.52
   4   5 -17    5.37    0.52
   4   5  17    6.06    0.62
   4  -5 -17    5.35    0.45
  -4   5 -17    4.17    0.54
  -5  -5 -17    0.76    0.32
  -5   5  17    0.55    0.27
   5   5 -17    1.01    0.29
   5  -5 -17    1.05    0.26
   5   5  17    0.86    0.29
  -5   5 -17    0.33    0.27
   6   5 -17    0.42    0.23
  -6  -5 -17    0.25    0.27
  -6   5  17    0.53    0.28
   6  -5 -17    0.42    0.21
   6   5  17    0.43    0.26
  -6   5 -17    0.43    0.30
   7   5 -17    5.11    0.57
  -7   5  17    4.30    0.59
  -7  -5 -17    3.96    0.61
   7   5  17    5.82    0.65
  -7   5 -17    3.99    0.59
   7  -5 -17    5.59    0.59
   0  -6  17    1.71    0.29
   0   6 -17    1.72    0.33
   0   6  17    1.67    0.34
  -1   6  17    0.10    0.20
  -1  -6 -17   -0.09    0.21
   1   6 -17    0.36    0.22
  -1  -6  17    0.34    0.18
   1   6  17   -0.06    0.18
  -1   6 -17    0.16    0.20
  -2  -6 -17    3.36    0.47
   2   6 -17    4.06    0.45
  -2   6  17    4.11    0.50
   2   6  17    2.99    0.43
  -2  -6  17    3.17    0.41
  -2   6 -17    3.50    0.46
  -3  -6 -17   -0.40    0.17
  -3   6  17   -0.13    0.20
   3   6 -17   -0.13    0.13
   3   6  17    0.13    0.19
  -3   6 -17    0.34    0.23
  -4   6  17    1.06    0.33
   4   6 -17    0.24    0.19
  -4  -6 -17    0.59    0.30
   4   6  17    0.23    0.22
  -4   6 -17    0.58    0.26
  -5  -6 -17    0.50    0.29
  -5   6  17    0.59    0.31
   5   6 -17    0.48    0.23
  -5   6 -17    0.39    0.27
   5   6  17    0.99    0.29
   5  -6 -17    0.29    0.21
   6   6 -17    0.14    0.20
  -6   6  17   -0.20    0.23
  -6  -6 -17   -0.39    0.21
   6  -6 -17    0.33    0.20
  -6   6 -17    0.29    0.29
   6   6  17    0.29    0.25
  -7   6  17    1.69    0.43
  -7  -6 -17    0.79    0.36
   7   6 -17    1.13    0.32
  -7   6 -17    1.21    0.36
   7  -6 -17    1.37    0.33
   7   6  17    0.46    0.30
   0   7  17   -0.16    0.15
   0   7 -17    0.03    0.18
   0  -7  17   -0.05    0.13
   1  -7  17   18.51    0.78
   1   7 -17   19.30    0.88
  -1   7  17   19.79    0.94
  -1  -7 -17   19.29    0.90
  -1   7 -17   19.30    0.91
   1   7  17   19.28    0.94
  -1  -7  17   18.68    0.82
  -2  -7 -17    3.64    0.48
   2   7 -17    3.09    0.40
  -2   7  17    3.48    0.48
  -2   7 -17    3.77    0.50
  -2  -7  17    2.84    0.38
   2   7  17    3.86    0.49
  -3   7  17    0.44    0.25
  -3  -7 -17    0.11    0.24
   3   7  17    0.37    0.21
  -3   7 -17    0.00    0.21
  -3  -7  17    0.25    0.17
  -4  -7 -17    4.21    0.56
   4   7 -17    4.76    0.52
  -4   7  17    4.80    0.58
   4   7  17    3.65    0.50
  -4   7 -17    5.28    0.60
  -5  -7 -17    0.67    0.33
  -5   7  17    0.64    0.27
   5   7 -17    0.99    0.29
   5   7  17    1.49    0.34
  -5   7 -17    0.87    0.34
   5  -7 -17    0.19    0.22
  -6   7  17    0.94    0.33
  -6  -7 -17    1.34    0.40
   6   7 -17    0.59    0.26
  -6   7 -17    0.92    0.35
   6  -7 -17    0.44    0.26
   6   7  17    1.12    0.34
   7  -7 -17   -0.01    0.21
   0   8 -17    0.12    0.21
   0   8  17    0.05    0.18
   0  -8  17    0.03    0.15
   1  -8  17    2.07    0.31
  -1   8  17    0.98    0.29
   1   8 -17    1.21    0.29
  -1   8 -17    1.93    0.38
   1   8  17    1.64    0.35
  -1  -8  17    1.07    0.26
  -2  -8 -17    1.98    0.39
  -2   8  17    2.18    0.40
   2   8 -17    2.41    0.38
  -2   8 -17    2.62    0.43
   2   8  17    2.52    0.42
  -2  -8  17    2.29    0.37
  -3   8  17    4.35    0.55
  -3  -8 -17    3.56    0.52
  -3  -8  17    3.79    0.46
  -3   8 -17    4.35    0.54
   3   8  17    3.68    0.49
  -4   8  17    0.29    0.24
  -4  -8 -17   -0.08    0.21
   4   8  17    0.16    0.21
  -4  -8  17    0.24    0.18
  -4   8 -17    0.23    0.25
  -5  -8 -17   -0.14    0.24
  -5   8  17    0.00    0.23
  -5   8 -17    0.28    0.26
   5   8  17   -0.22    0.17
  -5  -8  17    0.10    0.20
  -6  -8 -17    0.66    0.31
  -6   8  17    0.01    0.25
   6   8 -17    0.10    0.20
   6  -8 -17    0.33    0.22
   6   8  17    0.05    0.24
  -6   8 -17    0.48    0.30
   0   9  17    0.23    0.21
   0  -9  17   -0.15    0.13
   0   9 -17    0.10    0.19
   1  -9  17    0.27    0.18
  -1   9  17    0.24    0.20
   1   9 -17    0.27    0.21
   1   9  17    0.07    0.18
  -1   9 -17    0.08    0.21
  -1  -9  17    0.21    0.19
  -2  -9 -17   -0.16    0.19
   2   9 -17    0.03    0.18
  -2   9  17    0.20    0.21
  -2  -9  17    0.08    0.17
  -2   9 -17   -0.17    0.18
   2   9  17   -0.06    0.18
  -3  -9 -17   13.58    0.82
  -3   9  17   13.80    0.83
  -3   9 -17   12.59    0.80
  -3  -9  17   14.20    0.79
   3   9  17   12.32    0.79
  -4  -9 -17    0.02    0.22
  -4   9  17    0.50    0.24
  -4   9 -17    0.44    0.28
   4   9  17    0.11    0.20
  -4  -9  17    0.27    0.22
  -5  -9 -17   17.56    1.00
  -5   9  17   16.75    0.97
  -5   9 -17   15.86    0.95
   5   9  17   17.18    0.95
  -5  -9  17   16.71    0.90
   6  -9 -17    0.16    0.22
   0 -10  17    0.06    0.16
   0  10 -17    0.21    0.22
   0  10  17   -0.08    0.20
   1  10 -17    6.26    0.64
   1 -10  17    5.33    0.54
  -1  10  17    6.25    0.66
  -1  10 -17    5.17    0.59
   1  10  17    6.74    0.68
  -1 -10  17    7.05    0.55
   2  10 -17    0.72    0.28
  -2 -10 -17    0.69    0.30
  -2  10  17    0.76    0.31
  -2  10 -17    0.83    0.32
   2  10  17    0.67    0.27
  -2 -10  17    0.34    0.22
  -3 -10 -17    3.07    0.49
  -3  10  17    2.37    0.44
  -3  10 -17    2.69    0.46
   3  10  17    2.50    0.44
  -3 -10  17    2.51    0.43
  -4  10  17    1.09    0.34
  -4 -10 -17    0.93    0.33
   4  10  17    1.13    0.34
  -4 -10  17    0.83    0.29
  -4  10 -17    0.83    0.31
  -5 -10 -17    0.06    0.27
   0 -11  17    0.05    0.18
   0  11  17   -0.15    0.19
   0  11 -17    0.19    0.23
  -1  11  17    1.08    0.34
   1  11 -17    1.31    0.33
   1 -11  17    1.18    0.32
   1  11  17    0.65    0.28
  -1  11 -17    1.23    0.35
  -1 -11  17    0.95    0.29
  -2  11  17    5.23    0.63
   2  11 -17    6.56    0.65
  -2 -11 -17    4.80    0.58
   2 -11  17    4.90    0.52
   2  11  17    4.12    0.55
  -2 -11  17    3.75    0.49
  -2  11 -17    5.68    0.63
  -3 -11 -17    2.53    0.46
  -3  11  17    4.63    0.59
  -3  11 -17    4.47    0.59
   3  11  17    3.71    0.52
  -3 -11  17    3.73    0.51
  -4 -11 -17    0.46    0.29
   4  11  17    1.29    0.37
   0 -12  17    3.90    0.51
   0  12  17    3.93    0.55
   0  12 -17    4.73    0.59
  -1  12  17    0.12    0.25
   1 -12  17    0.43    0.23
   1  12 -17   -0.08    0.23
  -1 -12  17    0.20    0.21
   1  12  17    0.30    0.26
  -1  12 -17    0.39    0.28
   2  12 -17    0.48    0.29
   2 -12  17    0.75    0.26
  -2  12  17    0.58    0.30
   2  12  17    0.87    0.33
  -2 -12  17    0.83    0.30
  -3 -12 -17    0.68    0.30
   1 -13  17    3.90    0.52
   2 -13  17    0.21    0.25
   0   0 -18   13.91    0.72
   0   0  18   12.38    0.69
  -1   0  18    5.92    0.48
   1   0  18    4.72    0.50
  -1   0 -18    5.23    0.55
  -2   0  18    4.87    0.51
   2   0  18    4.48    0.48
  -2   0 -18    4.01    0.51
  -3   0 -18    9.09    0.67
  -3   0  18    9.52    0.63
   3   0  18   11.31    0.67
   3   0 -18    9.08    0.55
   4   0 -18    7.38    0.51
  -4   0  18    7.06    0.56
   4   0  18    8.45    0.59
  -4   0 -18    7.98    0.75
  -5   0  18    0.54    0.28
   5   0  18    0.41    0.24
  -5   0 -18    0.06    0.24
   5   0 -18    0.16    0.18
  -6   0  18   13.28    0.82
  -6   0 -18   13.86    0.90
   6   0 -18   15.69    0.80
   6   0  18   15.01    0.83
  -7   0  18    0.91    0.34
   7   0 -18    0.51    0.25
   7   0  18    0.34    0.26
  -7   0 -18    0.48    0.37
   8   0  18   10.12    0.76
  -8   0  18    9.77    0.76
   0   1  18   -0.05    0.15
   0  -1 -18    0.01    0.22
   0   1 -18   -0.29    0.17
   0  -1  18    0.07    0.18
  -1  -1 -18   -0.09    0.21
  -1   1  18    0.30    0.21
   1  -1  18   -0.04    0.17
  -1   1 -18   -0.05    0.20
   1   1  18    0.17    0.19
  -1  -1  18    0.04    0.18
   2   1 -18    0.15    0.14
   2  -1  18   -0.12    0.14
  -2  -1 -18   -0.09    0.22
  -2   1  18    0.23    0.20
  -2  -1  18    0.07    0.19
  -2   1 -18   -0.14    0.20
   2   1  18    0.16    0.20
   3   1 -18    4.64    0.46
   3  -1  18    4.78    0.50
  -3   1  18    5.06    0.53
  -3  -1 -18    4.49    0.55
  -3  -1  18    5.39    0.53
   3   1  18    5.06    0.53
  -3   1 -18    4.07    0.53
   3  -1 -18    4.56    0.45
   4  -1  18    0.59    0.22
   4   1 -18    0.47    0.22
  -4  -1 -18   -0.05    0.25
  -4   1  18    0.49    0.25
  -4   1 -18    0.45    0.30
  -4  -1  18    0.49    0.25
   4  -1 -18    0.91    0.25
   4   1  18    0.68    0.24
  -5   1  18    1.52    0.34
   5  -1  18    1.51    0.33
  -5  -1 -18    1.57    0.42
   5   1 -18    1.28    0.28
  -5   1 -18    0.48    0.31
  -5  -1  18    1.41    0.34
   5  -1 -18    0.99    0.25
   5   1  18    1.50    0.33
   6   1 -18    1.13    0.30
  -6  -1 -18    2.21    0.49
   6  -1  18    2.17    0.40
  -6   1  18    2.58    0.45
  -6   1 -18    1.52    0.43
  -6  -1  18    1.63    0.39
   6   1  18    1.62    0.38
   6  -1 -18    1.72    0.34
  -7   1  18    2.64    0.47
   7   1 -18    2.00    0.38
   7  -1  18    1.63    0.40
  -7  -1 -18    2.31    0.51
   7   1  18    1.89    0.41
   7  -1 -18    1.92    0.37
  -7   1 -18    1.76    0.47
  -7  -1  18    1.87    0.41
   8  -1  18    0.56    0.31
  -8  -1  18    0.35    0.30
   0   2  18    6.07    0.58
   0  -2 -18    6.49    0.54
   0   2 -18    6.44    0.52
   0  -2  18    6.17    0.48
  -1   2  18    0.07    0.20
  -1  -2 -18    0.40    0.27
   1  -2  18    0.56    0.22
  -1  -2  18    0.68    0.23
  -1   2 -18    0.70    0.28
   1   2  18    1.11    0.30
   2   2 -18   16.57    0.72
  -2   2  18   17.28    0.86
   2  -2  18   16.49    0.77
  -2  -2 -18   18.57    0.91
  -2   2 -18   16.52    0.85
  -2  -2  18   17.32    0.79
   2   2  18   17.72    0.85
   3  -2  18    1.45    0.30
  -3   2  18    1.69    0.35
   3   2 -18    1.47    0.28
  -3  -2 -18    1.18    0.35
  -3  -2  18    1.43    0.31
  -3   2 -18    1.02    0.33
   3   2  18    1.16    0.29
  -4   2  18    0.56    0.27
   4  -2  18    0.40    0.21
  -4  -2 -18   -0.04    0.24
   4   2 -18    0.16    0.19
   4   2  18    0.46    0.24
  -4   2 -18    0.57    0.30
   4  -2 -18    0.12    0.16
  -4  -2  18    0.28    0.19
   5  -2  18    0.09    0.20
   5   2 -18    0.23    0.19
  -5   2  18    0.65    0.29
  -5  -2 -18    0.23    0.30
  -5   2 -18    0.58    0.30
   5  -2 -18    0.21    0.18
   5   2  18    0.29    0.22
  -5  -2  18    0.40    0.23
   6  -2  18    0.13    0.21
  -6  -2 -18    0.00    0.30
   6   2 -18   -0.03    0.20
  -6   2  18    0.25    0.25
   6  -2 -18    0.29    0.22
   6   2  18   -0.21    0.17
  -6  -2  18    0.22    0.26
  -6   2 -18    0.09    0.28
  -7   2  18    0.67    0.30
   7   2 -18    0.32    0.23
  -7  -2 -18    0.12    0.32
  -7   2 -18    0.62    0.36
  -7  -2  18    0.38    0.28
   7  -2 -18    0.21    0.21
   7   2  18   -0.02    0.22
   0   3 -18    0.03    0.19
   0   3  18   -0.10    0.18
   1   3 -18   47.68    1.37
  -1  -3 -18   47.78    1.47
  -1   3  18   45.46    1.46
   1   3  18   45.92    1.46
  -1   3 -18   47.80    1.45
  -2  -3 -18    0.44    0.30
  -2   3  18    0.50    0.25
   2   3 -18    0.53    0.20
   2   3  18    1.00    0.28
  -2   3 -18    0.58    0.29
  -3  -3 -18    2.03    0.41
  -3   3  18    1.34    0.32
   3   3 -18    1.69    0.30
   3   3  18    1.46    0.32
  -3   3 -18    1.97    0.37
   4   3 -18    0.34    0.20
  -4   3  18    0.58    0.28
  -4  -3 -18    0.22    0.28
   4  -3 -18    0.27    0.20
  -4   3 -18   -0.28    0.20
   4   3  18    0.19    0.21
  -5   3  18    5.78    0.62
   5   3 -18    4.10    0.48
  -5  -3 -18    4.25    0.59
   5   3  18    3.74    0.50
   5  -3 -18    4.34    0.48
  -5   3 -18    4.89    0.61
   6   3 -18    0.44    0.23
  -6  -3 -18   -0.04    0.27
  -6   3  18    0.73    0.31
   6  -3 -18    0.67    0.26
   6   3  18    0.48    0.27
  -6   3 -18    1.28    0.39
  -7   3  18    1.73    0.44
   7   3 -18    2.85    0.45
  -7  -3 -18    1.86    0.48
  -7   3 -18    2.21    0.50
   7   3  18    2.05    0.43
   7  -3 -18    2.61    0.43
   0   4  18    2.20    0.39
   0   4 -18    3.28    0.43
  -1  -4 -18    1.09    0.33
  -1   4  18    0.82    0.28
   1   4 -18    1.04    0.29
  -1  -4  18    0.96    0.23
  -1   4 -18    1.32    0.31
   1   4  18    0.75    0.29
  -2  -4 -18    2.60    0.44
  -2   4  18    2.43    0.40
   2   4 -18    2.76    0.36
  -2   4 -18    2.68    0.43
   2   4  18    2.89    0.43
   3   4 -18    0.35    0.19
  -3  -4 -18    0.82    0.33
  -3   4  18    1.12    0.30
   3   4  18    0.93    0.28
  -3   4 -18    0.70    0.30
   4   4 -18    8.83    0.59
  -4   4  18    8.89    0.68
  -4  -4 -18    8.62    0.71
  -4   4 -18    8.71    0.67
   4   4  18    8.55    0.65
   4  -4 -18    9.13    0.58
  -5   4  18    0.20    0.25
  -5  -4 -18   -0.03    0.28
   5   4 -18    0.02    0.18
  -5   4 -18    0.32    0.27
   5  -4 -18    0.03    0.16
   5   4  18   -0.16    0.18
   6   4 -18    1.60    0.34
  -6   4  18    1.84    0.43
  -6  -4 -18    1.57    0.43
  -6   4 -18    2.86    0.51
   6  -4 -18    1.95    0.37
   6   4  18    1.77    0.40
  -7  -4 -18    2.46    0.54
  -7   4  18    2.42    0.46
   7   4 -18    2.64    0.42
   7   4  18    3.21    0.51
  -7   4 -18    2.54    0.50
   7  -4 -18    2.47    0.43
   0   5 -18    0.08    0.19
   0   5  18   -0.17    0.16
  -1   5  18    1.20    0.31
   1   5 -18    1.28    0.31
  -1  -5 -18    1.05    0.32
  -1  -5  18    1.27    0.27
  -1   5 -18    1.63    0.34
   1   5  18    1.64    0.34
  -2  -5 -18    0.37    0.29
  -2   5  18   -0.05    0.19
  -2   5 -18    0.42    0.24
  -2  -5  18    0.42    0.19
   2   5  18    0.23    0.20
  -3   5  18    0.69    0.29
   3   5 -18    0.46    0.21
  -3  -5 -18    0.20    0.26
  -3   5 -18    0.49    0.28
   3   5  18    0.54    0.25
   4   5 -18    1.83    0.33
  -4  -5 -18    1.20    0.36
  -4   5  18    1.45    0.35
   4   5  18    1.21    0.32
  -4   5 -18    0.55    0.29
  -5   5  18    2.51    0.45
   5   5 -18    2.64    0.40
  -5  -5 -18    2.88    0.50
   5  -5 -18    3.11    0.43
  -5   5 -18    2.77    0.49
   5   5  18    2.33    0.42
   6   5 -18    0.15    0.22
  -6   5  18    0.46    0.30
  -6  -5 -18    0.53    0.34
   6   5  18    0.17    0.24
  -6   5 -18    0.50    0.30
   6  -5 -18    0.48    0.24
   7  -5 -18    0.16    0.23
   0   6 -18    1.05    0.29
   0   6  18    1.68    0.36
   0  -6  18    1.36    0.27
   1   6 -18    3.20    0.43
  -1  -6 -18    3.56    0.49
  -1   6  18    2.60    0.43
  -1  -6  18    3.45    0.42
   1   6  18    2.80    0.44
  -1   6 -18    2.27    0.39
  -2  -6 -18    7.44    0.62
  -2   6  18    7.20    0.60
   2   6  18    8.37    0.64
  -2   6 -18    7.88    0.62
  -2  -6  18    7.37    0.53
  -3   6  18    3.56    0.50
  -3  -6 -18    3.23    0.49
  -3  -6  18    4.38    0.48
  -3   6 -18    4.22    0.52
   3   6  18    3.41    0.48
   4   6 -18   28.02    1.10
  -4  -6 -18   27.48    1.23
  -4   6  18   27.29    1.19
  -4   6 -18   28.16    1.20
   4   6  18   27.49    1.18
  -5   6  18    1.71    0.41
  -5  -6 -18    1.88    0.44
   5   6 -18    2.04    0.39
  -5   6 -18    1.56    0.39
   5   6  18    1.92    0.40
   5  -6 -18    1.88    0.35
   6   6 -18    5.27    0.58
  -6   6  18    6.33    0.70
  -6  -6 -18    4.78    0.66
   6  -6 -18    5.25    0.56
   6   6  18    5.57    0.66
  -6   6 -18    5.40    0.65
   7  -6 -18    0.21    0.22
   0  -7  18   -0.06    0.14
   0   7  18   -0.29    0.16
   0   7 -18    0.16    0.21
  -1   7  18    4.40    0.55
   1   7 -18    4.69    0.52
   1   7  18    3.29    0.49
  -1  -7  18    4.44    0.48
  -1   7 -18    4.16    0.50
  -2   7  18    1.33    0.34
  -2  -7 -18    2.21    0.43
  -2   7 -18    2.26    0.41
   2   7  18    2.04    0.39
  -2  -7  18    2.49    0.37
  -3   7  18    3.74    0.51
  -3  -7 -18    4.02    0.55
  -3  -7  18    4.71    0.52
   3   7  18    3.56    0.49
  -3   7 -18    4.54    0.56
  -4  -7 -18    1.06    0.38
  -4   7  18    1.84    0.39
   4   7  18    1.11    0.33
  -4  -7  18    1.41    0.32
  -4   7 -18    1.16    0.34
   5   7 -18    9.47    0.66
  -5   7  18   10.59    0.77
  -5  -7 -18   10.34    0.82
  -5   7 -18   11.69    0.82
   5   7  18   10.67    0.76
  -6  -7 -18    0.90    0.38
   6   7 -18    1.82    0.37
   6  -7 -18    2.48    0.42
   0  -8  18    1.43    0.30
   0   8  18    1.45    0.36
   0   8 -18    1.87    0.38
  -1   8  18    0.57    0.28
   1   8 -18    0.57    0.26
  -1   8 -18    1.44    0.34
   1   8  18    0.82    0.30
  -1  -8  18    0.96    0.27
  -2   8  18    4.91    0.58
  -2  -8 -18    5.23    0.60
  -2   8 -18    5.82    0.63
  -2  -8  18    4.98    0.53
   2   8  18    6.74    0.67
  -3   8  18    1.24    0.35
  -3  -8 -18    0.85    0.33
  -3   8 -18    1.77    0.38
   3   8  18    0.69    0.27
  -3  -8  18    0.35    0.21
  -4  -8 -18   14.18    0.90
  -4   8  18   15.74    0.92
  -4   8 -18   14.85    0.89
   4   8  18   15.67    0.91
  -4  -8  18   16.07    0.85
  -5   8  18    0.34    0.27
  -5  -8 -18    0.00    0.30
  -5   8 -18    0.61    0.31
   5   8  18    0.00    0.20
  -5  -8  18   -0.06    0.19
   6  -8 -18    9.15    0.67
   0   9 -18   -0.04    0.20
   0   9  18    0.18    0.21
   0  -9  18    0.31    0.19
  -1   9  18    4.66    0.59
   1   9 -18    5.43    0.58
  -1   9 -18    5.94    0.64
   1   9  18    5.39    0.61
  -1  -9  18    5.42    0.55
  -2   9  18    0.67    0.29
   2   9 -18    1.14    0.30
  -2  -9 -18    0.63    0.31
  -2   9 -18    1.18    0.35
   2   9  18    1.06    0.33
  -2  -9  18    1.17    0.30
  -3   9  18    0.15    0.23
  -3  -9 -18   -0.26    0.19
   3   9  18    0.05    0.21
  -3   9 -18   -0.06    0.24
  -3  -9  18   -0.03    0.19
  -4   9  18    0.37    0.27
  -4  -9 -18    0.54    0.31
  -4  -9  18    0.16    0.18
  -4   9 -18    0.30    0.26
   4   9  18    0.26    0.23
   0  10 -18    0.31    0.25
   0 -10  18    0.07    0.18
   0  10  18    0.18    0.24
  -1  10  18    1.56    0.37
   1  10 -18    1.30    0.32
   1 -10  18    1.78    0.33
  -1 -10  18    1.11    0.30
   1  10  18    0.98    0.31
  -1  10 -18    1.57    0.36
  -2  10  18    0.72    0.28
   2  10 -18    1.07    0.33
  -2  10 -18    0.49    0.28
  -2 -10  18    0.37    0.25
   2  10  18    1.27    0.35
  -3  10  18    0.48    0.26
  -3 -10 -18    0.83    0.34
  -3 -10  18    0.23    0.23
   3  10  18    0.82    0.30
  -3  10 -18    0.65    0.33
  -4 -10 -18    4.23    0.60
   0  11  18    0.18    0.22
   0  11 -18    0.24    0.25
   0 -11  18    0.24    0.21
   1  11 -18    0.51    0.27
   1 -11  18    0.02    0.18
  -1  11  18    0.33    0.27
  -1 -11  18   -0.07    0.19
   1  11  18    0.17    0.23
  -1  11 -18    0.04    0.22
   2  11 -18    0.48    0.26
  -2  11  18    0.14    0.23
  -2 -11  18   -0.12    0.19
   2  11  18    0.03    0.23
  -3 -11 -18    0.07    0.26
   0 -12  18   10.83    0.73
   1 -12  18    1.90    0.39
   2  12 -18    5.56    0.65
   0   0 -19   -0.10    0.21
   0   0  19    0.07    0.19
   1   0  19   -0.01    0.18
  -1   0  19    0.11    0.19
  -1   0 -19   -0.14    0.23
   2   0  19    0.06    0.18
  -2   0  19    0.28    0.22
  -2   0 -19    0.09    0.22
   3   0  19    0.18    0.19
  -3   0 -19   -0.59    0.20
  -3   0  19    0.06    0.20
   4   0  19    0.12    0.19
  -4   0 -19    0.08    0.27
   4   0 -19   -0.11    0.17
  -4   0  19    0.08    0.19
  -5   0  19   -0.02    0.23
   5   0  19    0.12    0.20
  -5   0 -19   -0.24    0.27
   5   0 -19    0.09    0.19
  -6   0  19    0.00    0.22
   6   0  19   -0.16    0.19
  -6   0 -19   -0.35    0.26
   6   0 -19    0.35    0.22
   7   0 -19    0.11    0.21
   7   0  19    0.17    0.26
  -7   0  19    0.23    0.28
   0   1  19    0.00    0.18
   0   1 -19   -0.26    0.19
   0  -1  19    0.04    0.19
  -1   1  19   26.73    1.07
  -1  -1 -19   26.79    1.09
   1  -1  19   25.40    0.99
  -1   1 -19   28.06    1.10
   1   1  19   25.33    1.03
  -1  -1  19   26.71    1.03
   2  -1  19   -0.13    0.16
  -2  -1 -19    0.22    0.25
  -2   1  19    0.34    0.21
  -2  -1  19   -0.06    0.17
   2   1  19    0.30    0.21
  -2   1 -19    0.02    0.21
   3  -1  19    0.67    0.25
  -3  -1 -19    0.29    0.28
   3   1 -19    0.10    0.17
  -3   1  19    0.31    0.22
  -3   1 -19    0.58    0.31
  -3  -1  19    0.74    0.26
   3   1  19    0.09    0.19
  -4   1  19    0.78    0.27
   4   1 -19    0.96    0.25
   4  -1  19    0.56    0.26
  -4  -1 -19    0.35    0.31
   4  -1 -19    0.47    0.21
  -4   1 -19    0.53    0.32
   4   1  19    0.69    0.27
  -4  -1  19    0.99    0.32
  -5   1  19    1.34    0.35
   5   1 -19    1.27    0.30
  -5  -1 -19    0.63    0.34
   5  -1  19    0.80    0.27
   5   1  19    1.23    0.34
   5  -1 -19    1.68    0.33
  -5   1 -19    0.80    0.36
  -5  -1  19    1.07    0.32
   6   1 -19    4.77    0.54
  -6   1  19    4.13    0.56
   6  -1  19    4.50    0.55
  -6  -1 -19    4.55    0.63
  -6  -1  19    4.37    0.56
  -6   1 -19    4.90    0.65
   6  -1 -19    5.07    0.55
   6   1  19    3.96    0.54
   7  -1  19    0.94    0.32
   7   1 -19    1.59    0.37
  -7   1  19    1.30    0.38
   7  -1 -19    1.24    0.32
  -7  -1  19    1.23    0.35
   7   1  19    1.47    0.37
   0   2  19   20.84    0.94
   0   2 -19   20.91    0.91
   0  -2  19   19.37    0.84
  -1  -2 -19    1.11    0.33
   1  -2  19    0.89    0.25
  -1   2  19    0.84    0.27
  -1  -2  19    1.12    0.29
  -1   2 -19    0.57    0.28
   1   2  19    0.92    0.29
   2  -2  19    3.26    0.42
  -2  -2 -19    3.33    0.49
  -2   2  19    3.11    0.46
   2   2  19    3.21    0.47
  -2  -2  19    3.55    0.44
  -2   2 -19    3.05    0.47
   3   2 -19   11.06    0.62
  -3  -2 -19    9.73    0.72
  -3   2  19   11.36    0.72
   3   2  19   10.59    0.70
  -3   2 -19   11.66    0.77
  -4   2  19    2.78    0.45
   4   2 -19    2.73    0.39
  -4  -2 -19    3.70    0.54
  -4   2 -19    3.18    0.50
   4  -2 -19    2.96    0.40
   4   2  19    2.80    0.44
  -5  -2 -19    3.17    0.52
  -5   2  19    2.96    0.49
   5   2 -19    2.33    0.38
   5   2  19    2.33    0.42
   5  -2 -19    2.71    0.41
  -5   2 -19    2.46    0.49
  -6  -2 -19    1.57    0.43
   6   2 -19    0.77    0.27
  -6   2  19    1.52    0.38
  -6   2 -19    1.06    0.39
   6  -2 -19    1.81    0.36
   6   2  19    0.91    0.30
   7  -2 -19   -0.06    0.21
   7   2  19   -0.29    0.21
   0   3 -19    0.16    0.20
   0   3  19   -0.16    0.17
  -1   3  19   10.03    0.67
  -1  -3 -19    8.53    0.65
  -1   3 -19    8.84    0.62
   1   3  19    8.75    0.63
  -2   3  19    1.00    0.29
  -2  -3 -19    1.12    0.35
   2   3 -19    0.78    0.23
  -2   3 -19    1.07    0.33
   2   3  19    0.95    0.30
   3   3 -19    9.66    0.59
  -3  -3 -19    9.47    0.72
  -3   3  19    8.97    0.68
  -3   3 -19    8.48    0.68
   3   3  19    9.96    0.68
  -4   3  19    0.56    0.27
  -4  -3 -19    0.22    0.29
   4   3 -19    0.00    0.17
  -4   3 -19    0.14    0.25
   4   3  19    0.63    0.27
  -5   3  19   10.11    0.74
   5   3 -19    8.43    0.61
  -5  -3 -19    8.01    0.81
  -5   3 -19    7.85    0.77
   5  -3 -19    9.41    0.62
   5   3  19    9.32    0.70
  -6   3  19    0.15    0.26
  -6  -3 -19    0.06    0.30
   6   3 -19    0.39    0.22
  -6   3 -19   -0.13    0.25
   6  -3 -19    0.54    0.25
   6   3  19   -0.26    0.21
   7  -3 -19    5.52    0.60
   0   4 -19    2.40    0.39
   0   4  19    1.85    0.37
  -1   4  19    0.35    0.24
  -1  -4 -19    0.34    0.27
   1   4  19   -0.21    0.16
  -1   4 -19    0.16    0.22
  -2   4  19    0.08    0.22
   2   4 -19    0.01    0.16
  -2  -4 -19   -0.17    0.22
  -2   4 -19    0.03    0.21
   2   4  19    0.02    0.19
   3   4 -19    1.20    0.27
  -3   4  19    1.16    0.34
  -3  -4 -19    1.02    0.36
  -3   4 -19    1.66    0.37
   3   4  19    0.88    0.30
  -4   4  19    3.44    0.50
   4   4 -19    2.47    0.38
  -4  -4 -19    2.33    0.49
   4   4  19    2.62    0.45
  -4   4 -19    4.24    0.56
  -5   4  19    0.70    0.30
   5   4 -19    0.39    0.24
  -5  -4 -19   -0.02    0.29
   5   4  19    0.14    0.25
   5  -4 -19    0.05    0.20
  -5   4 -19   -0.09    0.25
  -6  -4 -19    0.26    0.34
   6   4 -19    0.21    0.21
  -6   4  19    0.09    0.27
   6   4  19    0.24    0.25
   6  -4 -19    0.22    0.22
  -6   4 -19    0.48    0.34
   0   5  19    0.40    0.22
   0   5 -19    0.04    0.20
  -1   5  19   -0.05    0.18
  -1   5 -19    0.42    0.24
   1   5  19    0.48    0.23
  -2  -5 -19    0.09    0.25
  -2   5  19    0.43    0.25
   2   5  19   -0.15    0.15
  -2   5 -19    0.05    0.22
  -2  -5  19   -0.02    0.15
  -3   5  19   15.08    0.87
  -3  -5 -19   13.85    0.87
   3   5 -19   13.59    0.73
  -3   5 -19   14.07    0.85
   3   5  19   12.87    0.80
  -4   5  19    1.86    0.40
  -4  -5 -19    1.45    0.43
   4   5 -19    1.46    0.33
  -4   5 -19    1.29    0.35
   4   5  19    1.50    0.36
  -5  -5 -19   13.61    0.94
  -5   5  19   16.43    0.95
   5   5 -19   17.21    0.87
  -5   5 -19   15.10    0.93
   5   5  19   15.97    0.93
   6   5 -19    0.03    0.20
   6  -5 -19    0.20    0.22
   0   6 -19    0.43    0.25
   0   6  19   -0.01    0.21
  -1   6  19    0.34    0.24
   1   6 -19   -0.22    0.17
   1   6  19    0.08    0.22
  -1  -6  19    0.19    0.19
  -1   6 -19    0.08    0.21
  -2   6  19    0.65    0.28
  -2  -6 -19    0.43    0.29
  -2  -6  19    1.02    0.27
   2   6  19    0.42    0.26
  -2   6 -19    1.05    0.32
  -3  -6 -19    0.97    0.35
  -3   6  19    1.26    0.36
  -3  -6  19    1.07    0.29
   3   6  19    1.39    0.34
  -3   6 -19    0.54    0.28
   4   6 -19    5.78    0.58
  -4   6  19    4.95    0.61
  -4  -6 -19    6.45    0.73
  -4   6 -19    7.64    0.75
   4   6  19    6.69    0.70
  -5  -6 -19    0.72    0.35
  -5   6  19    0.44    0.30
   5   6 -19    0.38    0.23
  -5   6 -19    0.33    0.28
   5   6  19    0.50    0.27
   6  -6 -19    3.66    0.48
   0   7 -19   -0.17    0.16
   0   7  19   -0.26    0.14
  -1   7  19    0.26    0.24
   1   7 -19   -0.04    0.17
  -1  -7  19    0.04    0.16
   1   7  19    0.50    0.26
  -1   7 -19    0.20    0.24
  -2   7  19    0.22    0.23
  -2  -7 -19   -0.38    0.21
   2   7  19   -0.04    0.18
  -2   7 -19   -0.23    0.20
  -2  -7  19    0.16    0.17
  -3  -7 -19    2.27    0.46
  -3   7  19    2.94    0.48
   3   7  19    1.55    0.38
  -3   7 -19    2.15    0.42
  -3  -7  19    1.70    0.34
  -4  -7 -19    0.72    0.33
  -4   7  19    0.32    0.26
  -4  -7  19    0.29    0.23
  -4   7 -19    0.24    0.27
   4   7  19    0.35    0.25
  -5  -7 -19   23.76    1.22
   5   7 -19   22.95    1.05
   0   8 -19    0.47    0.26
   0   8  19    0.70    0.31
  -1   8  19    1.09    0.33
   1   8 -19    1.50    0.34
   1   8  19    1.60    0.38
  -1  -8  19    1.55    0.33
  -1   8 -19    0.86    0.30
  -2   8  19    0.14    0.21
   2   8  19    0.37    0.25
  -2   8 -19    0.55    0.29
  -2  -8  19    0.36    0.20
  -3  -8 -19    1.06    0.38
  -3   8  19    1.23    0.36
  -3   8 -19    2.22    0.44
   3   8  19    1.49    0.37
  -3  -8  19    2.15    0.38
  -4  -8 -19    5.40    0.68
  -4   8 -19    5.31    0.63
  -4  -8  19    5.57    0.60
   0  -9  19    0.05    0.17
   0   9  19    0.03    0.22
   0   9 -19    0.25    0.23
   1   9 -19    3.58    0.49
  -1   9  19    3.20    0.49
  -1   9 -19    4.09    0.55
  -1  -9  19    4.90    0.53
   1   9  19    4.01    0.54
  -2   9  19   -0.14    0.19
   2   9  19   -0.07    0.18
  -2   9 -19    0.39    0.25
  -2  -9  19    0.03    0.16
  -3  -9 -19    2.11    0.47
  -3   9 -19    1.85    0.41
   3   9  19    1.73    0.38
  -3  -9  19    2.15    0.42
  -4  -9 -19    0.70    0.37
   0  10 -19    0.21    0.25
   0  10  19    0.00    0.22
   0 -10  19    0.12    0.18
   1  10 -19    0.58    0.28
  -1 -10  19    0.44    0.25
  -1  10 -19    0.76    0.31
   1  10  19    0.61    0.29
  -2 -10  19    2.38    0.43
  -3 -10 -19    0.00    0.26
   0 -11  19    0.10    0.21
   1  11 -19   29.44    1.26
  -1 -11  19   27.85    1.17
   0   0  20    0.45    0.24
  -1   0 -20    0.21    0.27
  -1   0  20    0.43    0.24
   1   0  20    0.55    0.23
  -2   0 -20    6.71    0.68
  -2   0  20    5.86    0.60
   2   0  20    6.38    0.61
   3   0  20    0.30    0.23
  -3   0  20    0.18    0.21
  -3   0 -20   -0.36    0.24
   4   0  20    9.56    0.66
   4   0 -20    9.37    0.61
  -4   0  20   10.80    0.73
  -4   0 -20    9.37    0.76
   5   0  20    0.05    0.23
  -5   0 -20   -0.13    0.31
   5   0 -20    0.13    0.22
  -5   0  20    0.36    0.27
   6   0 -20   14.29    0.81
   6   0  20   13.78    0.85
   0   1  20    0.04    0.19
   0  -1  20    0.06    0.18
   1  -1  20    0.38    0.22
  -1  -1 -20    0.44    0.29
  -1   1  20    0.73    0.26
  -1  -1  20    0.73    0.27
   1   1  20    0.38    0.23
  -1   1 -20    0.41    0.27
  -2   1  20   -0.08    0.17
  -2  -1 -20   -0.37    0.23
   2  -1  20    0.30    0.22
   2   1  20   -0.23    0.15
  -2   1 -20   -0.12    0.23
  -2  -1  20   -0.06    0.19
  -3  -1 -20    0.61    0.34
   3  -1  20    0.51    0.25
  -3   1  20    0.83    0.30
  -3   1 -20    0.38    0.30
   3   1  20    0.66    0.28
  -3  -1  20    1.16    0.32
   4  -1  20    0.70    0.27
  -4  -1 -20    0.51    0.33
  -4   1  20    0.91    0.31
   4   1 -20    0.73    0.26
  -4  -1  20    0.47    0.27
   4   1  20    0.99    0.31
  -4   1 -20    0.21    0.32
   5   1 -20   11.56    0.72
   5  -1  20   12.91    0.78
  -5   1  20   12.16    0.79
  -5  -1 -20   10.16    0.83
  -5  -1  20   11.10    0.77
   5   1  20   12.21    0.79
   5  -1 -20   13.59    0.74
  -5   1 -20   12.11    0.86
  -6   1  20    0.11    0.27
   6   1 -20    0.01    0.20
   6  -1  20    0.03    0.22
   6   1  20    0.19    0.25
  -6  -1  20   -0.02    0.24
   6  -1 -20    0.12    0.22
   0   2  20    0.64    0.27
  -1   2  20    0.18    0.24
  -1  -2 -20   -0.14    0.24
  -1   2 -20   -0.08    0.22
   1   2  20    0.06    0.20
  -2  -2 -20    1.16    0.37
  -2   2  20    0.48    0.27
  -2   2 -20    0.19    0.24
   2   2  20    1.21    0.33
  -3   2  20    0.55    0.29
  -3  -2 -20    0.53    0.31
   3   2  20    0.64    0.28
  -3   2 -20    0.69    0.32
   4   2 -20    6.96    0.53
  -4  -2 -20    5.95    0.70
  -4   2  20    7.82    0.64
  -4   2 -20    6.75    0.70
   4   2  20    6.99    0.69
   5   2 -20    0.06    0.21
  -5  -2 -20    0.36    0.34
  -5   2  20    0.62    0.32
   5   2  20   -0.23    0.19
   5  -2 -20    0.13    0.22
  -5   2 -20    0.02    0.28
  -6   2  20    5.47    0.64
   6   2 -20    5.16    0.58
   6  -2 -20    4.94    0.55
   6   2  20    4.59    0.59
   0   3 -20    0.05    0.22
   0   3  20   -0.18    0.18
  -1   3  20    3.35    0.48
   1   3  20    3.51    0.49
  -1   3 -20    2.91    0.45
  -2   3  20    0.17    0.22
  -2  -3 -20   -0.34    0.23
   2   3  20    0.48    0.25
  -2   3 -20    0.10    0.24
   3   3 -20    0.06    0.16
  -3  -3 -20   -0.17    0.25
  -3   3  20    0.37    0.24
   3   3  20    0.14    0.22
  -3   3 -20   -0.15    0.24
   4   3 -20    0.80    0.26
  -4  -3 -20    0.85    0.36
  -4   3  20    0.95    0.32
   4   3  20    0.28    0.26
  -4   3 -20   -0.29    0.27
  -5   3  20    8.45    0.70
  -5  -3 -20    7.33    0.79
   5   3 -20    6.86    0.58
  -5   3 -20    8.35    0.81
   5   3  20    7.90    0.66
   6  -3 -20    0.90    0.29
   0   4 -20   54.20    1.62
   0   4  20   55.81    1.73
  -1   4  20    1.77    0.41
  -1   4 -20    2.38    0.42
   1   4  20    2.10    0.41
  -2   4  20    8.91    0.68
  -2  -4 -20    9.43    0.73
  -2   4 -20   10.52    0.73
   2   4  20    8.32    0.66
  -3  -4 -20    3.49    0.55
  -3   4  20    3.68    0.52
   3   4 -20    4.37    0.48
   3   4  20    3.91    0.53
  -3   4 -20    4.69    0.60
  -4   4  20    2.48    0.47
  -4  -4 -20    2.61    0.52
   4   4 -20    3.10    0.43
  -4   4 -20    2.19    0.45
   4   4  20    2.70    0.47
  -5   4  20    0.04    0.27
   5   4 -20    0.08    0.22
  -5  -4 -20   -0.29    0.26
   5   4  20   -0.03    0.24
  -5   4 -20    0.12    0.27
   6  -4 -20    3.86    0.50
   0   5  20    0.00    0.20
   0   5 -20    0.06    0.22
  -1   5  20    1.10    0.32
   1   5  20    0.54    0.27
  -1   5 -20    0.49    0.25
  -2   5  20    1.81    0.39
  -2  -5 -20    1.97    0.44
  -2   5 -20    2.70    0.46
   2   5  20    2.52    0.45
  -2  -5  20    2.23    0.35
   3   5 -20   -0.24    0.15
  -3  -5 -20   -0.47    0.26
  -3   5  20   -0.08    0.21
  -3   5 -20    0.08    0.24
   3   5  20   -0.09    0.20
  -4   5  20    0.39    0.28
  -4  -5 -20    0.32    0.34
   4   5 -20    0.25    0.21
   4   5  20    0.54    0.26
  -4   5 -20    0.27    0.31
  -5  -5 -20   -0.23    0.28
   5   5 -20    0.24    0.23
   0   6  20    8.52    0.69
   0   6 -20   10.59    0.71
  -1   6  20    0.20    0.24
   1   6  20    0.41    0.29
  -1   6 -20    0.31    0.25
  -2  -6 -20    3.34    0.54
  -2   6  20    2.90    0.48
   2   6  20    2.88    0.48
  -2   6 -20    2.86    0.47
  -2  -6  20    3.29    0.42
  -3   6  20    1.57    0.38
  -3  -6 -20    0.83    0.38
   3   6  20    1.17    0.34
  -3   6 -20    1.44    0.39
  -3  -6  20    1.64    0.33
  -4   6  20    2.55    0.48
  -4  -6 -20    2.22    0.51
   4   6 -20    1.53    0.32
   4   6  20    2.26    0.45
  -4   6 -20    2.47    0.48
   0   7  20   -0.12    0.21
   0   7 -20    0.60    0.27
  -1   7  20    2.17    0.43
  -1   7 -20    2.30    0.43
   1   7  20    2.13    0.43
  -2   7  20    0.63    0.29
   2   7  20    0.48    0.28
  -2  -7  20    0.25    0.20
  -2   7 -20    0.31    0.27
  -3  -7 -20    0.18    0.33
  -3   7  20    0.54    0.29
  -3   7 -20    0.21    0.28
  -3  -7  20    0.04    0.18
   3   7  20    0.13    0.24
  -4  -7 -20    0.30    0.31
  -4  -7  20    0.00    0.19
   0   8 -20    6.65    0.67
   0   8  20    8.26    0.68
  -1   8  20    0.98    0.31
   1   8 -20    1.73    0.37
  -1  -8  20    0.78    0.27
  -1   8 -20    1.55    0.38
   1   8  20    1.29    0.35
  -2   8 -20    3.61    0.52
  -2  -8  20    2.89    0.43
  -3  -8 -20   -0.10    0.28
  -3  -8  20    0.33    0.22
   0   9 -20    0.43    0.25
   1   9 -20    6.60    0.66
  -1  -9  20    4.80    0.54
  -1   9 -20    6.37    0.69
  -2  -9  20    0.90    0.29
  -3  -9 -20   -0.38    0.27
   1  10 -20    0.38    0.27
  -1 -10  20    0.10    0.22
   0   0  21   -0.03    0.19
   1   0  21    0.08    0.21
  -1   0 -21   -0.30    0.21
  -1   0  21    0.05    0.21
  -2   0  21   -0.06    0.21
  -2   0 -21   -0.02    0.26
   2   0  21    0.43    0.24
   3   0  21   -0.07    0.18
  -3   0  21    0.14    0.23
  -3   0 -21    0.02    0.29
  -4   0 -21   -0.14    0.30
  -4   0  21   -0.08    0.23
   4   0  21   -0.09    0.19
  -5   0  21    0.25    0.26
   5   0 -21   -0.04    0.19
   5   0  21   -0.01    0.22
   0   1  21   -0.01    0.19
   0  -1  21    0.30    0.22
  -1   1  21    0.48    0.28
   1  -1  21    0.45    0.24
  -1  -1  21    0.04    0.21
  -1   1 -21    0.33    0.28
   1   1  21    0.62    0.28
  -2  -1 -21    4.44    0.59
  -2   1  21    3.09    0.48
  -2   1 -21    4.21    0.57
  -2  -1  21    4.22    0.51
   2   1  21    3.94    0.52
  -3  -1 -21    6.46    0.71
  -3   1  21    7.06    0.69
   3   1  21    7.19    0.69
  -3   1 -21    6.48    0.71
  -4  -1 -21    0.60    0.38
  -4   1  21    0.26    0.28
   4   1  21    0.41    0.28
  -4   1 -21    0.13    0.31
  -5   1  21   16.48    0.93
   5   1 -21   16.41    0.86
   5   1  21   15.31    0.90
   0   2  21    2.29    0.42
  -1   2  21    3.50    0.50
  -1   2 -21    3.26    0.49
   1   2  21    3.64    0.51
  -2   2  21    0.39    0.25
  -2  -2 -21    0.16    0.30
  -2   2 -21   -0.21    0.23
   2   2  21   -0.18    0.18
  -3  -2 -21    1.98    0.46
  -3   2  21    1.91    0.41
  -3   2 -21    3.05    0.52
   3   2  21    2.14    0.41
  -4   2  21    2.78    0.48
  -4  -2 -21    2.29    0.48
   4   2 -21    2.88    0.43
   4   2  21    3.01    0.48
  -4   2 -21    2.32    0.47
   5   2 -21    1.33    0.34
  -5   2  21    1.42    0.38
   5   2  21    0.74    0.33
   0   3  21   -0.25    0.22
  -1   3  21    0.75    0.30
  -1   3 -21    0.75    0.31
   1   3  21    0.60    0.28
  -2  -3 -21    0.68    0.33
  -2   3  21   -0.08    0.21
  -2   3 -21    0.84    0.33
   2   3  21   -0.11    0.20
  -3   3  21    3.25    0.51
  -3  -3 -21    2.30    0.49
   3   3  21    2.80    0.47
  -3   3 -21    2.91    0.50
  -4   3  21    0.18    0.24
  -4  -3 -21    0.36    0.35
   4   3 -21    0.16    0.20
  -4   3 -21   -0.13    0.26
   4   3  21    0.22    0.26
   5   3 -21    1.07    0.32
   0   4  21    3.70    0.53
  -1   4  21    0.17    0.23
   1   4  21   -0.02    0.23
  -1   4 -21    0.54    0.28
  -2  -4 -21    0.70    0.36
  -2   4  21    0.11    0.24
  -2   4 -21    0.27    0.28
   2   4  21    0.32    0.26
  -3  -4 -21    0.93    0.41
  -3   4  21    1.21    0.36
   3   4  21    1.10    0.33
  -3   4 -21    0.94    0.34
  -4   4  21    1.31    0.37
   4   4 -21    0.46    0.25
  -4  -4 -21    0.08    0.31
   4   4  21    0.58    0.31
  -4   4 -21    0.22    0.30
   0   5 -21    0.11    0.23
   0   5  21   -0.27    0.22
  -1   5  21    7.38    0.73
   1   5  21    8.09    0.77
  -1   5 -21   10.23    0.72
  -2   5  21    0.16    0.24
   2   5  21    0.06    0.24
  -2   5 -21   -0.03    0.24
  -3   5  21    6.53    0.69
  -3  -5 -21    6.77    0.76
  -3   5 -21    6.38    0.68
  -3  -5  21    7.37    0.57
   3   5  21    5.83    0.66
  -4  -5 -21    0.03    0.30
   4   5 -21    0.21    0.22
   0   6 -21   -0.13    0.21
   0   6  21    0.13    0.21
  -1   6  21    0.91    0.30
  -1   6 -21    0.85    0.32
   1   6  21    0.66    0.27
  -2   6  21    0.28    0.24
   2   6  21    0.15    0.24
  -2   6 -21    0.32    0.26
  -3  -6 -21   -0.13    0.32
  -3  -6  21    0.09    0.20
   0   7 -21   -0.09    0.20
  -1   7 -21    8.19    0.68
  -2   7 -21    3.10    0.50
  -3  -7 -21    4.21    0.65
  -3  -7  21    5.37    0.57
   0   8 -21    0.74    0.31
  -1   8 -21    0.00    0.26
  -2  -8  21    0.05    0.22
   0   0  22    6.74    0.66
  -1   0  22    1.50    0.37
   1   0  22    1.68    0.37
  -2   0 -22    2.59    0.49
   2   0  22    1.84    0.39
  -2   0  22    2.56    0.45
   3   0  22    7.71    0.65
  -3   0  22    9.00    0.69
  -3   0 -22    7.93    0.79
   4   0  22    1.13    0.34
  -4   0  22    1.88    0.39
   0   1  22    0.27    0.23
  -1   1  22    0.17    0.23
   1   1  22    0.02    0.23
  -2  -1 -22   -0.22    0.27
  -2   1  22   -0.29    0.21
  -2   1 -22    0.37    0.31
   2   1  22    0.12    0.22
  -3  -1 -22    0.33    0.34
  -3   1  22    0.15    0.22
  -3   1 -22    0.75    0.33
   3   1  22    0.13    0.23
  -4   1  22   -0.01    0.22
   4   1  22    0.16    0.24
   0   2  22    9.69    0.70
  -1   2  22    0.31    0.26
   1   2  22    1.52    0.35
  -2   2  22    6.45    0.67
  -2  -2 -22    6.09    0.69
  -2   2 -22    8.73    0.71
   2   2  22    8.49    0.69
  -3  -2 -22   -0.02    0.30
  -3   2  22   -0.21    0.22
  -3   2 -22   -0.10    0.29
   3   2  22    0.06    0.25
   0   3  22    0.05    0.23
  -1   3  22    0.10    0.24
  -1   3 -22    0.09    0.26
   1   3  22    0.36    0.26
  -2   3  22   13.01    0.83
  -2   3 -22   11.46    0.79
   2   3  22   11.41    0.80
  -3   3  22    0.04    0.25
  -3  -3 -22    0.71    0.39
   3   3  22    0.03    0.26
  -3   3 -22   -0.02    0.25
   0   4  22    4.70    0.60
  -1   4  22    4.03    0.55
   1   4  22    5.22    0.63
  -1   4 -22    4.05    0.55
   2   4  22    0.86    0.33
  -2   4 -22    0.52    0.30
  -3  -4 -22    2.39    0.52
  -1   5 -22    3.71    0.53
  -2   5 -22    0.45    0.29
  -3  -5 -22    0.60    0.38
  -1   6 -22    2.93    0.48
   0   1  23   -0.12    0.23
  -1   1  23    3.06    0.52
   1   1  23    3.48    0.53
  -2   1  23    2.43    0.47
  -2   1 -23    1.80    0.46
   2   1  23    1.70    0.40
   0   2  23    0.11    0.25
  -1   2  23    0.30    0.28
   1   2  23    0.44    0.30
  -2   2 -23   -0.46    0.23
   0   0   0    0.00    0.00
;
_shelx_hkl_checksum              11081
loop_
_space_group_symop_operation_xyz
'x, y, z'
'-x+1/2, -y, z+1/2'
'-x, y+1/2, -z+1/2'
'x+1/2, -y+1/2, -z'
'-x, -y, -z'
'x-1/2, y, -z-1/2'
'x, -y-1/2, z-1/2'
'-x-1/2, y-1/2, z'
loop_
_atom_site_label
_atom_site_type_symbol
_atom_site_fract_x
_atom_site_fract_y
_atom_site_fract_z
_atom_site_U_iso_or_equiv
_atom_site_adp_type
_atom_site_occupancy
_atom_site_site_symmetry_order
_atom_site_calc_flag
_atom_site_refinement_flags_posn
_atom_site_refinement_flags_adp
_atom_site_refinement_flags_occupancy
_atom_site_disorder_assembly
_atom_site_disorder_group
Ca Ca 0.5000 0.0000 0.5000 0.02505(10) Uani 1 2 d S . P . .
S S 0.59750(4) 0.41071(3) 0.73253(2) 0.04003(11) Uani 1 1 d . . . . .
N1 N 0.38380(10) 0.40966(7) 0.62724(6) 0.0258(2) Uani 1 1 d . . . . .
N3 N 0.49060(10) 0.26115(7) 0.65259(6) 0.0275(2) Uani 1 1 d . . . . .
O1 O 0.43578(11) 0.12854(6) 0.57882(6) 0.0375(2) Uani 1 1 d . . . . .
O2 O 0.20316(11) 0.42341(7) 0.53742(6) 0.0416(2) Uani 1 1 d . . . . .
C2 C 0.48330(12) 0.35754(9) 0.66733(7) 0.0259(2) Uani 1 1 d . . . . .
C4 C 0.41149(13) 0.21591(8) 0.59119(7) 0.0273(2) Uani 1 1 d . . . . .
C5 C 0.31302(14) 0.27244(9) 0.55168(8) 0.0318(3) Uani 1 1 d . . . . .
H5 H 0.2584 0.2447 0.5117 0.038 Uiso 1 1 calc R U . . .
C6 C 0.29271(13) 0.36888(9) 0.56943(7) 0.0283(2) Uani 1 1 d . . . . .
C7 C 0.36434(15) 0.51373(9) 0.64320(8) 0.0337(3) Uani 1 1 d . . . . .
H7A H 0.3957 0.5277 0.6967 0.040 Uiso 1 1 calc R U . . .
H7B H 0.2635 0.5295 0.6396 0.040 Uiso 1 1 calc R U . . .
C8 C 0.44686(19) 0.57622(11) 0.58598(11) 0.0482(4) Uani 1 1 d . . . . .
H8A H 0.4311 0.6428 0.5985 0.058 Uiso 1 1 calc R U . . .
H8B H 0.5470 0.5619 0.5900 0.058 Uiso 1 1 calc R U . . .
H8C H 0.4148 0.5636 0.5330 0.058 Uiso 1 1 calc R U . . .
C9 C 0.58012(15) 0.19743(10) 0.70261(8) 0.0371(3) Uani 1 1 d . . . . .
H9A H 0.5340 0.1351 0.7070 0.044 Uiso 1 1 calc R U . . .
H9B H 0.5863 0.2247 0.7553 0.044 Uiso 1 1 calc R U . . .
C10 C 0.72924(16) 0.18351(12) 0.67058(11) 0.0505(4) Uani 1 1 d . . . . .
H10A H 0.7820 0.1418 0.7052 0.061 Uiso 1 1 calc R U . . .
H10B H 0.7241 0.1551 0.6189 0.061 Uiso 1 1 calc R U . . .
H10C H 0.7765 0.2448 0.6672 0.061 Uiso 1 1 calc R U . . .
O O 0.38717(13) 0.06735(10) 0.38687(7) 0.0545(3) Uani 1 1 d D . . . .
H1 H 0.4404(19) 0.0805(15) 0.3520(10) 0.065 Uiso 1 1 d D U . . .
H2 H 0.3087(13) 0.0699(15) 0.3686(12) 0.065 Uiso 1 1 d D U . . .
loop_
_atom_site_aniso_label
_atom_site_aniso_U_11
_atom_site_aniso_U_22
_atom_site_aniso_U_33
_atom_site_aniso_U_23
_atom_site_aniso_U_13
_atom_site_aniso_U_12
Ca 0.02545(17) 0.01905(16) 0.03066(18) 0.00044(11) 0.00471(12) -0.00055(11)
S 0.03534(19) 0.0474(2) 0.0374(2) -0.01236(14) -0.01051(13) -0.00146(14)
N1 0.0261(5) 0.0216(4) 0.0298(5) -0.0041(4) -0.0022(4) 0.0024(4)
N3 0.0276(5) 0.0256(5) 0.0293(5) 0.0002(4) -0.0030(4) 0.0044(4)
O1 0.0423(5) 0.0226(4) 0.0478(6) -0.0063(4) 0.0014(4) 0.0040(4)
O2 0.0381(5) 0.0340(5) 0.0526(6) -0.0027(4) -0.0178(4) 0.0108(4)
C2 0.0246(5) 0.0281(6) 0.0251(5) -0.0029(4) 0.0007(4) 0.0004(4)
C4 0.0283(6) 0.0228(5) 0.0308(6) -0.0027(4) 0.0024(4) -0.0001(4)
C5 0.0340(6) 0.0264(6) 0.0349(6) -0.0047(5) -0.0103(5) -0.0009(5)
C6 0.0255(5) 0.0271(5) 0.0322(6) -0.0012(4) -0.0050(4) 0.0014(4)
C7 0.0379(7) 0.0232(5) 0.0401(7) -0.0086(5) -0.0027(5) 0.0047(5)
C8 0.0536(9) 0.0287(7) 0.0622(10) -0.0003(6) -0.0007(8) -0.0056(6)
C9 0.0393(7) 0.0351(7) 0.0367(7) 0.0092(5) -0.0036(5) 0.0071(5)
C10 0.0365(7) 0.0502(9) 0.0648(10) 0.0098(8) -0.0037(7) 0.0134(7)
O 0.0458(7) 0.0718(8) 0.0458(7) 0.0184(6) -0.0032(5) 0.0088(6)
loop_
_atom_type_symbol
_atom_type_description
_atom_type_scat_dispersion_real
_atom_type_scat_dispersion_imag
_atom_type_scat_source
C C 0.0033 0.0016 'International Tables Vol C Tables 4.2.6.8 and 6.1.1.4'
H H 0.0000 0.0000 'International Tables Vol C Tables 4.2.6.8 and 6.1.1.4'
N N 0.0061 0.0033 'International Tables Vol C Tables 4.2.6.8 and 6.1.1.4'
O O 0.0106 0.0060 'International Tables Vol C Tables 4.2.6.8 and 6.1.1.4'
S S 0.1246 0.1234 'International Tables Vol C Tables 4.2.6.8 and 6.1.1.4'
Ca Ca 0.2262 0.3064 'International Tables Vol C Tables 4.2.6.8 and 6.1.1.4'
loop_
_geom_angle_atom_site_label_1
_geom_angle_atom_site_label_2
_geom_angle_atom_site_label_3
_geom_angle
_geom_angle_site_symmetry_1
_geom_angle_site_symmetry_3
O2 Ca O2 180.0 8_655 4_556
O2 Ca O1 89.04(4) 8_655 .
O2 Ca O1 90.96(4) 4_556 .
O2 Ca O1 90.96(4) 8_655 5_656
O2 Ca O1 89.04(4) 4_556 5_656
O1 Ca O1 180.0 . 5_656
O2 Ca O 92.12(4) 8_655 .
O2 Ca O 87.88(4) 4_556 .
O1 Ca O 92.59(4) . .
O1 Ca O 87.41(4) 5_656 .
O2 Ca O 87.88(4) 8_655 5_656
O2 Ca O 92.12(4) 4_556 5_656
O1 Ca O 87.41(4) . 5_656
O1 Ca O 92.59(4) 5_656 5_656
O Ca O 180.0 . 5_656
C2 N1 C6 122.94(10) . .
C2 N1 C7 120.81(10) . .
C6 N1 C7 116.24(10) . .
C2 N3 C4 122.78(10) . .
C2 N3 C9 120.64(10) . .
C4 N3 C9 116.56(10) . .
C4 O1 Ca 153.31(9) . .
C6 O2 Ca 164.74(10) . 4_456
N1 C2 N3 117.74(10) . .
N1 C2 S 121.43(9) . .
N3 C2 S 120.82(9) . .
O1 C4 C5 126.19(12) . .
O1 C4 N3 117.11(11) . .
C5 C4 N3 116.69(10) . .
C4 C5 C6 122.37(11) . .
O2 C6 C5 125.62(11) . .
O2 C6 N1 117.37(11) . .
C5 C6 N1 116.99(10) . .
N1 C7 C8 112.36(11) . .
N3 C9 C10 113.18(11) . .
loop_
_geom_bond_atom_site_label_1
_geom_bond_atom_site_label_2
_geom_bond_distance
_geom_bond_site_symmetry_2
Ca O2 2.2675(9) 8_655
Ca O2 2.2675(9) 4_556
Ca O1 2.3068(9) .
Ca O1 2.3068(9) 5_656
Ca O 2.3765(11) .
Ca O 2.3765(11) 5_656
S C2 1.7033(12) .
N1 C2 1.3599(15) .
N1 C6 1.4149(15) .
N1 C7 1.4809(14) .
N3 C2 1.3627(15) .
N3 C4 1.4214(15) .
N3 C9 1.4829(16) .
O1 C4 1.2514(14) .
O2 C6 1.2520(14) .
O2 Ca 2.2675(9) 4_456
C4 C5 1.3822(17) .
C5 C6 1.3850(16) .
C7 C8 1.511(2) .
C9 C10 1.509(2) .

_cod_database_fobs_code 1542917
