#------------------------------------------------------------------------------
#$Date: 2016-03-31 05:07:35 +0300 (Thu, 31 Mar 2016) $
#$Revision: 180636 $
#$URL: svn://www.crystallography.net/cod/cif/1/54/29/1542984.cif $
#------------------------------------------------------------------------------
#
# This file is available in the Crystallography Open Database (COD),
# http://www.crystallography.net/
#
# All data on this site have been placed in the public domain by the
# contributors.
#
data_1542984
loop_
_publ_author_name
'Mague, Joel T.'
'Mohamed, Shaaban K.'
'Akkurt, Mehmet'
'Bakhite, Etify A.'
'Albayati, Mustafa R.'
_publ_section_title
;
 Ethyl
 3-({[(4-methylphenyl)carbamoyl]methyl}sulfanyl)-5,6-diphenylpyridazine-4-carboxylate
;
_journal_coeditor_code           XU4003
_journal_issue                   3
_journal_name_full               IUCrData
_journal_page_first              x160479
_journal_paper_doi               10.1107/S241431461600479X
_journal_volume                  1
_journal_year                    2016
_chemical_formula_iupac          'C28 H25 N3 O3 S'
_chemical_formula_moiety         'C28 H25 N3 O3 S'
_chemical_formula_sum            'C28 H25 N3 O3 S'
_chemical_formula_weight         483.57
_chemical_name_systematic
'Ethyl 3-({[(4-methylphenyl)carbamoyl]methyl}sulfanyl)-5,6-diphenylpyridazine-4-carboxylate'
_space_group_crystal_system      monoclinic
_space_group_IT_number           9
_space_group_name_Hall           'C -2yc'
_space_group_name_H-M_alt        'C 1 c 1'
_symmetry_space_group_name_Hall  'C -2yc'
_symmetry_space_group_name_H-M   'C 1 c 1'
_atom_sites_solution_hydrogens   geom
_atom_sites_solution_primary     direct
_atom_sites_solution_secondary   difmap
_audit_creation_method           SHELXL-2014
_cell_angle_alpha                90
_cell_angle_beta                 110.7180(10)
_cell_angle_gamma                90
_cell_formula_units_Z            4
_cell_length_a                   10.2254(3)
_cell_length_b                   26.6695(9)
_cell_length_c                   9.9210(3)
_cell_measurement_reflns_used    9986
_cell_measurement_temperature    150(2)
_cell_measurement_theta_max      66.2032
_cell_measurement_theta_min      3.3143
_cell_volume                     2530.56(14)
_computing_cell_refinement
;
<i>SAINT</i> (Bruker, 2016)
;
_computing_data_collection
;
<i>APEX3</i> (Bruker, 2016)
;
_computing_data_reduction
;
<i>SAINT</i> (Bruker, 2016)
;
_computing_molecular_graphics
;
<i>DIAMOND</i> (Brandenburg & Putz, 2012)
;
_computing_publication_material
;
<i>SHELXTL</i> (Sheldrick, 2008)
;
_computing_structure_refinement
;
<i>SHELXL2014</i> (Sheldrick, 2015b)
;
_computing_structure_solution
;
<i>SHELXT</i> (Sheldrick, 2015a)
;
_diffrn_ambient_temperature      150(2)
_diffrn_detector_area_resol_mean 10.4167
_diffrn_measured_fraction_theta_full 0.960
_diffrn_measured_fraction_theta_max 0.991
_diffrn_measurement_device_type  'Bruker D8 VENTURE PHOTON 100 CMOS'
_diffrn_measurement_method       '\w scans'
_diffrn_radiation_monochromator  mirror
_diffrn_radiation_type           CuK\a
_diffrn_radiation_wavelength     1.54178
_diffrn_reflns_av_R_equivalents  0.0293
_diffrn_reflns_limit_h_max       10
_diffrn_reflns_limit_h_min       -12
_diffrn_reflns_limit_k_max       31
_diffrn_reflns_limit_k_min       -31
_diffrn_reflns_limit_l_max       11
_diffrn_reflns_limit_l_min       -11
_diffrn_reflns_number            13580
_diffrn_reflns_theta_full        67.679
_diffrn_reflns_theta_max         66.201
_diffrn_reflns_theta_min         3.314
_exptl_absorpt_coefficient_mu    1.412
_exptl_absorpt_correction_T_max  0.88
_exptl_absorpt_correction_T_min  0.81
_exptl_absorpt_correction_type   multi-scan
_exptl_absorpt_process_details
;
(<i>SADABS</i>; Bruker, 2016)
;
_exptl_crystal_colour            colourless
_exptl_crystal_density_diffrn    1.269
_exptl_crystal_description       plate
_exptl_crystal_F_000             1016
_exptl_crystal_size_max          0.190
_exptl_crystal_size_mid          0.186
_exptl_crystal_size_min          0.095
_refine_diff_density_max         0.301
_refine_diff_density_min         -0.147
_refine_ls_abs_structure_details
;
Flack (1983), 1791 Friedel pairs
;
_refine_ls_abs_structure_Flack   0.032(17)
_refine_ls_extinction_coef       0.00168(17)
_refine_ls_extinction_expression Fc^*^=kFc[1+0.001xFc^2^\l^3^/sin(2\q)]^-1/4^
_refine_ls_extinction_method
;
<i>SHELXL2014</i> (Sheldrick, 2015b)
;
_refine_ls_goodness_of_fit_ref   1.041
_refine_ls_hydrogen_treatment    constr
_refine_ls_matrix_type           full
_refine_ls_number_parameters     326
_refine_ls_number_reflns         3992
_refine_ls_number_restraints     6
_refine_ls_restrained_S_all      1.041
_refine_ls_R_factor_all          0.0286
_refine_ls_R_factor_gt           0.0278
_refine_ls_shift/su_max          0.001
_refine_ls_shift/su_mean         0.000
_refine_ls_structure_factor_coef Fsqd
_refine_ls_weighting_details
'w=1/[\s^2^(Fo^2^)+(0.0428P)^2^+0.5908P] where P=(Fo^2^+2Fc^2^)/3'
_refine_ls_weighting_scheme      calc
_refine_ls_wR_factor_gt          0.0704
_refine_ls_wR_factor_ref         0.0710
_reflns_number_gt                3898
_reflns_number_total             3992
_reflns_threshold_expression     'I > 2\s(I)'
_cod_data_source_file            xu4003sup1.cif
_cod_data_source_block           I
_cod_database_code               1542984
_shelx_space_group_comment
;
The symmetry employed for this shelxl refinement is uniquely defined
by the following loop, which should always be used as a source of
symmetry information in preference to the above space-group names.
They are only intended as comments.
;
_shelx_estimated_absorpt_t_min   0.775
_shelx_estimated_absorpt_t_max   0.878
_shelx_hkl_file
;
   0   0  -1    0.00    0.04
   0   0   1    0.04    0.04
   0   0  -2  364.46   14.34
   0   0   2  376.68   14.33
   0   0   2  333.65   13.75
   0   0  -3    0.01    0.17
   0   0   3    0.09    0.09
   0   0   3    0.00    0.10
   0   0   4  101.00    3.76
   0   0   4   93.93    3.68
   0   0   4   91.91    3.68
   0   0   4   97.65    3.69
   0   0   4   89.73    3.70
   0   0   4   95.32    3.68
   0   0   4   98.15    4.01
   0   0   5    0.04    0.09
   0   0   5    0.02    0.26
   0   0   5   -0.03    0.06
   0   0   5    0.14    0.13
   0   0   5    0.03    0.05
   0   0   5    0.08    0.06
   0   0   5    0.01    0.06
   0   0   6   49.06    1.93
   0   0   6   47.55    1.93
   0   0   6   49.54    1.93
   0   0   6   47.21    2.55
   0   0   6   49.10    1.92
   0   0   6   50.46    2.07
   0   0   6   49.83    1.95
   0   0   7    0.07    0.18
   0   0   7    0.16    0.08
   0   0   7    0.01    0.13
   0   0   7    0.10    0.08
   0   0   7    0.15    0.08
   0   0   8   18.34    1.02
   0   0   8   20.14    0.86
   0   0  -9    0.02    0.11
   0   0   9    0.03    0.09
   0   0   9    0.03    0.08
   0   0   9   -0.09    0.26
   0   0   9   -0.10    0.09
   0   0 -10   13.28    0.62
   0   0  10   13.54    0.91
   0   0  10   13.10    0.61
   0   0  10   16.53    0.71
   0   0  11    0.04    0.11
   1  -1  10    6.69    0.34
   1  -1  10    6.99    0.35
   1  -1   9    9.61    0.46
   1  -1   9    9.40    0.46
   1  -1   9   10.02    0.72
   1  -1   8    1.45    0.16
   1  -1   8    1.37    0.37
   1  -1   8    1.47    0.17
   1  -1   8    1.56    0.17
   1  -1   8    1.59    0.24
  -1   1  -8    1.79    0.20
   1  -1   7    3.62    0.22
   1  -1   7    3.09    0.37
   1  -1   7    3.19    0.22
   1  -1   7    3.46    0.26
   1  -1   7    3.23    0.22
   1  -1   6    8.88    0.55
   1  -1   6    8.17    0.40
   1  -1   6    8.95    0.41
   1  -1   6    8.84    0.40
   1  -1   6    7.64    1.10
   1  -1   6    9.31    0.43
   1  -1   5   11.94    0.61
   1  -1   5   11.36    0.49
   1  -1   5   11.70    0.49
   1  -1   5   10.40    0.49
   1  -1   5   11.18    0.51
   1  -1   5   11.29    0.91
   1  -1   4   35.53    1.46
   1  -1   4   37.14    1.45
   1  -1   4   36.16    1.44
   1  -1   4   37.72    1.54
   1  -1   4   36.74    1.44
   1  -1   4   38.06    1.77
   1  -1   4   35.00    1.43
   1  -1   3   52.72    2.14
   1  -1   3   45.87    1.90
   1  -1   3   46.33    1.90
   1  -1   3   50.46    1.97
  -1   1  -3   48.67    2.19
   1  -1   2   10.09    0.54
   1  -1   2    8.96    0.46
  -1   1  -2   11.50    0.58
   1  -1   1    8.11    0.38
  -1   1  -1    7.44    0.38
   1  -1  -1   94.53    3.69
  -1   1   1   91.89    3.64
   1  -1  -2   20.56    0.98
  -1   1   2   22.32    0.98
   1  -1  -3  201.20    8.28
  -1   1   3  207.75    8.25
  -1   1   3  218.35    8.08
  -1   1   4   28.05    1.16
  -1   1   4   26.18    1.08
  -1   1   4   27.31    1.08
  -1   1   4   27.99    1.38
  -1   1   4   27.44    1.08
  -1   1   4   27.37    1.08
  -1   1   5   11.00    0.45
  -1   1   5   10.51    0.81
  -1   1   5   10.73    0.45
  -1   1   5   10.66    0.55
  -1   1   5    9.99    0.47
  -1   1   5   10.40    0.45
  -1   1   5   10.64    0.45
  -1   1   6    5.92    0.34
  -1   1   6    6.52    0.30
  -1   1   6    6.33    0.31
  -1   1   6    6.45    0.43
  -1   1   6    6.23    0.30
  -1   1   6    6.49    0.31
  -1   1   6    6.55    0.80
   1  -1  -7    0.85    0.27
  -1   1   7    1.34    0.15
  -1   1   7    1.09    0.13
  -1   1   7    1.02    0.13
  -1   1   7    1.03    0.22
  -1   1   7    1.41    0.48
  -1   1   8   14.70    0.63
  -1   1   8   13.23    0.81
  -1   1   8   13.94    0.62
  -1   1   8   14.60    0.63
  -1   1   9   -0.02    0.09
  -1   1   9    0.26    0.29
  -1   1   9    0.13    0.09
  -1   1   9   -0.01    0.09
   1  -1 -10   13.04    0.58
  -1   1  10   13.29    0.85
  -1   1  10   12.39    0.57
  -1   1  10   13.50    0.58
  -1   1  10   12.60    0.58
  -1   1  11    1.56    0.17
  -1   1  11    1.96    0.21
   2  -2  10    1.95    0.20
   2  -2  10    1.56    0.17
  -2   2 -10    1.06    0.29
   2  -2   9    0.50    0.15
   2  -2   9    0.37    0.10
   2  -2   9    0.68    0.23
   2  -2   9    0.88    0.37
   2  -2   8    6.00    0.32
   2  -2   8    6.05    0.37
   2  -2   8    5.68    0.32
   2  -2   8    5.98    0.55
   2  -2   7    6.28    0.41
   2  -2   7    6.54    0.55
   2  -2   7    7.44    0.39
   2  -2   6    2.03    0.20
   2  -2   6    1.81    0.30
   2  -2   6    2.10    0.18
   2  -2   6    2.18    0.17
   2  -2   6    2.08    0.17
   2  -2   5   12.76    0.56
   2  -2   5   13.02    0.56
   2  -2   5   13.28    0.56
   2  -2   5   12.15    1.09
   2  -2   5   12.95    0.58
   2  -2   5   13.75    0.70
   2  -2   4   46.78    1.84
   2  -2   4   47.81    1.96
   2  -2   4   46.14    1.86
   2  -2   4   47.03    1.84
   2  -2   4   48.03    2.20
   2  -2   4   45.68    1.84
   2  -2   3    4.57    0.41
   2  -2   3    4.17    0.23
   2  -2   3    4.12    0.21
   2  -2   3    4.11    0.21
   2  -2   3    4.18    0.21
   2  -2   3    4.37    0.29
  -2   2  -3    4.03    0.64
   2  -2   2   10.70    0.51
   2  -2   2   11.62    0.58
  -2   2  -2    9.56    0.60
   2  -2   1   10.57    0.49
   2  -2   1   11.22    0.50
  -2   2  -1   10.12    0.51
   2  -2   0   26.62    1.08
   2  -2  -1    2.56    0.18
   2  -2  -2   51.66    2.12
  -2   2   2   47.87    2.00
  -2   2   2   52.76    2.11
   2  -2  -3  185.29    7.69
  -2   2   3  193.40    7.48
  -2   2   3  202.18    7.67
  -2   2   4  176.81    6.65
  -2   2   4  166.92    6.57
  -2   2   4  165.05    6.57
  -2   2   4  171.26    6.57
  -2   2   4  172.67    6.57
  -2   2   4  173.03    6.90
  -2   2   5   93.93    3.64
  -2   2   5   95.34    4.09
  -2   2   5   97.19    3.74
  -2   2   5   92.51    3.64
  -2   2   5   92.10    3.65
  -2   2   5   94.33    3.65
  -2   2   6   92.35    3.51
  -2   2   6   87.25    3.39
  -2   2   6   85.48    3.38
  -2   2   6   83.29    3.96
  -2   2   6   89.29    3.38
  -2   2   6   85.40    3.39
   2  -2  -7   25.44    1.08
  -2   2   7   26.53    1.20
  -2   2   7   25.23    1.05
  -2   2   7   25.92    1.05
  -2   2   7   25.97    1.06
  -2   2   7   25.43    1.05
   2  -2  -8   18.76    0.83
  -2   2   8   18.06    0.78
  -2   2   8   17.13    0.96
  -2   2   8   18.82    0.79
  -2   2   8   18.75    0.78
  -2   2   9    0.65    0.15
  -2   2   9    0.42    0.28
  -2   2   9    0.36    0.11
  -2   2   9    0.58    0.15
  -2   2  10    8.59    0.42
  -2   2  10    8.42    0.68
  -2   2  10    8.46    0.41
  -2   2  10    8.46    0.41
   2  -2 -11    0.19    0.11
  -2   2  11    0.09    0.09
  -2   2  11    0.47    0.14
   3  -3   9    0.51    0.12
   3  -3   9    0.54    0.14
   3  -3   9    0.98    0.30
  -3   3  -9    0.35    0.14
   3  -3   8    0.79    0.14
   3  -3   8    0.71    0.21
   3  -3   8    0.35    0.31
   3  -3   8    0.71    0.14
   3  -3   7    7.99    0.43
   3  -3   7    7.62    0.60
   3  -3   7    7.31    0.38
   3  -3   7    7.38    0.38
   3  -3   6    9.73    0.48
   3  -3   6    8.58    0.62
   3  -3   6    9.60    0.45
   3  -3   6   10.00    0.46
   3  -3   5   31.95    1.34
   3  -3   5   32.54    1.32
   3  -3   5   33.24    1.32
   3  -3   4   25.48    1.07
   3  -3   4   25.50    1.05
   3  -3   4   25.76    1.05
   3  -3   4   26.26    1.18
   3  -3   3   60.63    2.43
   3  -3   3   62.04    2.51
   3  -3   3   60.95    2.41
   3  -3   3   60.47    2.41
   3  -3   3   64.21    2.65
   3  -3   2   76.70    3.13
   3  -3   2   77.41    3.14
   3  -3   2   83.25    3.22
   3  -3   2   88.88    3.27
   3  -3   2   77.11    3.13
  -3   3  -2   80.92    3.31
   3  -3   1   78.03    3.14
   3  -3   1   79.00    3.13
   3  -3   1   86.46    3.21
   3  -3   1   78.96    3.13
   3  -3   1   82.22    3.17
  -3   3  -1   81.23    3.19
   3  -3   0   41.79    1.69
   3  -3  -1   51.79    2.06
   3  -3  -1   50.68    2.05
   3  -3  -2   22.08    1.05
  -3   3   2   23.12    0.94
   3  -3  -3  181.42    6.95
  -3   3   3  179.01    6.89
  -3   3   3  160.09    6.64
  -3   3   3  170.96    6.69
  -3   3   4   11.79    0.49
  -3   3   4   12.21    0.56
  -3   3   4   11.95    0.49
  -3   3   4   11.48    0.49
  -3   3   4   11.52    0.49
  -3   3   4   11.70    0.77
  -3   3   5   62.15    2.49
  -3   3   5   62.73    2.48
  -3   3   5   64.42    2.48
  -3   3   5   66.09    2.49
  -3   3   5   63.39    2.93
  -3   3   5   64.41    2.59
  -3   3   6    2.72    0.17
  -3   3   6    2.68    0.63
  -3   3   6    2.69    0.18
  -3   3   6    2.79    0.17
  -3   3   6    2.65    0.18
  -3   3   6    2.42    0.29
   3  -3  -7   24.71    1.13
  -3   3   7   27.08    1.09
  -3   3   7   26.96    1.10
  -3   3   7   27.81    1.09
  -3   3   7   27.24    1.10
  -3   3   7   27.56    1.25
   3  -3  -8   32.31    1.28
  -3   3   8   30.31    1.23
  -3   3   8   27.59    1.39
  -3   3   8   29.95    1.24
  -3   3   8   30.68    1.23
   3  -3  -9   28.97    1.28
  -3   3   9   30.71    1.45
  -3   3   9   30.73    1.25
  -3   3   9   31.50    1.25
  -3   3   9   29.98    1.24
  -3   3  10    2.91    0.55
  -3   3  10    3.23    0.23
  -3   3  10    2.97    0.22
  -3   3  10    3.25    0.23
   3  -3 -11    5.51    0.29
  -3   3  11    5.51    0.29
  -3   3  11    5.45    0.31
  -3   3  11    5.29    0.29
   4  -4   8    3.31    0.28
   4  -4   8    3.49    0.24
   4  -4   8    3.32    0.56
  -4   4  -8    3.19    0.27
   4  -4   7    0.56    0.31
   4  -4   7    0.37    0.10
   4  -4   7    0.35    0.13
   4  -4   7    0.48    0.12
  -4   4  -7    0.86    0.18
   4  -4   6   10.83    0.50
   4  -4   6   11.14    0.54
   4  -4   6    9.73    0.71
   4  -4   6   10.65    0.50
   4  -4   5   21.98    1.14
   4  -4   5   22.93    0.96
   4  -4   5   23.74    0.99
   4  -4   5   23.03    0.96
   4  -4   4    0.35    0.20
   4  -4   4    0.34    0.12
   4  -4   4    0.25    0.08
   4  -4   4    0.34    0.09
   4  -4   3   17.34    0.75
   4  -4   3   17.16    0.72
   4  -4   3   17.21    0.72
   4  -4   3   17.39    0.86
   4  -4   2   22.90    0.97
   4  -4   2   23.11    0.95
   4  -4   2   23.75    1.07
   4  -4   2   24.12    0.95
   4  -4   1    0.31    0.07
   4  -4   1    0.38    0.11
   4  -4   1    0.54    0.16
  -4   4  -1    0.51    0.14
   4  -4   0   77.11    3.10
   4  -4   0   77.47    3.11
   4  -4   0   85.42    3.19
   4  -4  -1   43.62    1.75
  -4   4   1   45.75    1.75
   4  -4  -2   40.29    1.70
   4  -4  -2   43.03    1.71
   4  -4  -2   37.96    1.56
  -4   4   2   38.81    1.61
  -4   4   2   35.98    1.53
   4  -4  -3    9.76    0.79
  -4   4   3   10.19    0.43
  -4   4   3   10.12    0.51
  -4   4   3   10.58    0.43
  -4   4   4   29.05    1.11
  -4   4   4   27.93    1.20
  -4   4   4   27.78    1.11
  -4   4   4   26.86    1.11
  -4   4   4   28.12    1.11
  -4   4   5   20.87    0.85
  -4   4   5   21.47    0.85
  -4   4   5   21.54    0.95
  -4   4   5   21.36    0.85
  -4   4   5   19.44    1.37
  -4   4   5   20.53    0.85
   4  -4  -6   13.14    0.63
  -4   4   6   14.01    0.59
  -4   4   6   14.38    0.59
  -4   4   6   13.80    0.60
  -4   4   6   15.04    0.74
  -4   4   6   13.71    0.59
  -4   4   6   14.18    1.21
   4  -4  -7    7.53    0.38
  -4   4   7    6.47    0.32
  -4   4   7    5.93    0.70
  -4   4   7    6.18    0.33
  -4   4   7    6.52    0.33
  -4   4   7    6.27    0.33
   4  -4  -8    6.47    0.37
  -4   4   8    5.74    0.32
  -4   4   8    6.07    0.32
  -4   4   8    5.67    0.32
  -4   4   8    5.71    0.52
   4  -4  -9    0.10    0.12
  -4   4   9    0.01    0.28
  -4   4   9    0.05    0.09
  -4   4   9    0.03    0.10
  -4   4   9    0.11    0.09
   4  -4 -10   10.48    0.56
  -4   4  10   10.17    0.79
  -4   4  10    9.89    0.48
  -4   4  10   10.46    0.48
  -4   4  10   10.22    0.48
   4  -4 -11    1.16    0.16
  -4   4  11    1.63    0.16
  -4   4  11    1.45    0.22
  -4   4  11    1.62    0.18
   5  -5   8    3.01    0.21
   5  -5   8    3.22    0.35
   5  -5   7    2.00    0.49
   5  -5   7    1.44    0.21
   5  -5   7    1.65    0.16
   5  -5   6   14.82    0.65
   5  -5   6   14.55    0.87
   5  -5   6   14.63    0.68
  -5   5  -6   14.02    0.65
   5  -5   5    5.61    0.30
   5  -5   5    5.43    0.34
   5  -5   5    5.12    0.50
  -5   5  -5    4.69    0.31
   5  -5   4   19.49    1.07
   5  -5   4   22.14    0.90
   5  -5   4   21.81    0.94
  -5   5  -4   21.61    0.90
   5  -5   3   14.50    0.64
   5  -5   3   13.44    0.61
  -5   5  -3   13.61    0.61
   5  -5   2   19.33    0.84
   5  -5   2   18.89    0.81
   5  -5   2   20.94    0.96
  -5   5  -2   18.99    0.81
   5  -5   1   36.19    1.43
   5  -5   1   35.02    1.41
   5  -5   1   35.64    1.53
  -5   5  -1   34.55    1.40
   5  -5   0   40.49    1.53
   5  -5   0   40.17    1.55
  -5   5   0   35.40    1.52
   5  -5  -1   42.94    1.74
   5  -5  -1   46.29    1.74
  -5   5   1   41.77    1.72
   5  -5  -2   14.02    0.61
   5  -5  -2   13.03    0.61
  -5   5   2   14.32    0.58
  -5   5   2   14.43    0.68
   5  -5  -3    1.23    0.41
  -5   5   3    0.79    0.21
  -5   5   3    0.83    0.10
  -5   5   3    0.61    0.12
  -5   5   3    0.83    0.12
   5  -5  -4   27.30    1.15
  -5   5   4   27.62    1.11
  -5   5   4   27.58    1.11
  -5   5   4   27.09    1.11
  -5   5   4   28.20    1.12
  -5   5   4   29.16    1.22
   5  -5  -5   58.40    2.34
  -5   5   5   62.03    2.42
  -5   5   5   58.20    2.31
  -5   5   5   59.12    2.30
  -5   5   5   58.29    2.31
  -5   5   5   57.11    2.30
   5  -5  -6   27.09    1.18
  -5   5   6   28.21    1.14
  -5   5   6   28.19    1.13
  -5   5   6   27.61    1.13
  -5   5   6   27.46    1.14
  -5   5   6   30.52    1.30
   5  -5  -7   14.46    0.65
  -5   5   7   13.72    0.59
  -5   5   7   14.01    0.61
  -5   5   7   13.46    0.60
  -5   5   7   13.36    0.60
  -5   5   7   13.59    0.77
   5  -5  -8   18.89    0.84
  -5   5   8   16.91    0.95
  -5   5   8   18.49    0.77
  -5   5   8   16.86    0.82
  -5   5   8   18.49    0.79
   5  -5  -9   13.80    0.63
  -5   5   9   12.58    0.57
  -5   5   9   12.66    0.57
  -5   5   9   12.46    0.81
  -5   5   9   12.10    0.57
  -5   5  10    1.00    0.49
  -5   5  10    0.73    0.18
  -5   5  10    0.68    0.15
  -5   5  10    1.16    0.19
   5  -5 -11    3.14    0.21
  -5   5  11    2.77    0.23
  -5   5  11    2.93    0.28
  -5   5  11    2.88    0.22
   6  -6   7    9.70    0.47
   6  -6   7    9.28    0.44
   6  -6   6    5.68    0.31
   6  -6   6    5.77    0.34
   6  -6   5   25.19    1.10
   6  -6   5   25.09    1.06
   6  -6   5   26.05    1.42
   6  -6   4   14.38    0.68
   6  -6   4   14.67    0.64
   6  -6   4   13.92    0.85
   6  -6   3    6.23    0.53
   6  -6   3    7.21    0.36
   6  -6   3    6.84    0.39
   6  -6   2   21.85    0.95
   6  -6   2   20.96    1.08
   6  -6   2   22.86    0.92
   6  -6   1    4.41    0.28
   6  -6   1    4.45    0.25
   6  -6   0   17.65    0.77
   6  -6   0   17.72    0.75
  -6   6   0   18.08    0.75
   6  -6  -1   11.88    0.62
  -6   6   1   12.25    0.54
  -6   6   1   13.31    0.68
   6  -6  -2    2.36    0.25
   6  -6  -2    2.36    0.23
  -6   6   2    2.43    0.17
  -6   6   2    2.94    0.32
   6  -6  -3   35.98    1.50
  -6   6   3   36.48    1.48
  -6   6   3   39.09    1.60
  -6   6   3   36.94    1.47
   6  -6  -4    0.74    0.16
  -6   6   4    0.83    0.27
  -6   6   4    0.69    0.12
  -6   6   4    0.75    0.19
  -6   6   4    0.74    0.12
   6  -6  -5   15.94    0.68
  -6   6   5   14.66    0.78
  -6   6   5   15.10    0.63
  -6   6   5   14.90    0.64
  -6   6   5   13.58    0.63
   6  -6  -6    9.19    0.47
  -6   6   6    8.30    0.58
  -6   6   6    9.20    0.42
  -6   6   6    9.07    0.42
  -6   6   6    9.02    0.42
   6  -6  -7    0.19    0.11
  -6   6   7    0.28    0.10
  -6   6   7    0.64    0.27
  -6   6   7    0.37    0.13
  -6   6   7    0.42    0.11
   6  -6  -8    6.60    0.39
  -6   6   8    6.53    0.58
  -6   6   8    6.82    0.35
  -6   6   8    6.50    0.35
  -6   6   8    6.46    0.35
   6  -6  -9   13.26    0.65
  -6   6   9   13.69    0.60
  -6   6   9   13.38    0.60
  -6   6   9   13.63    0.60
  -6   6   9   12.52    1.13
   6  -6 -10    7.51    0.42
  -6   6  10    6.88    0.95
  -6   6  10    7.41    0.39
  -6   6  10    7.30    0.36
  -6   6  10    6.34    0.41
   6  -6 -11    1.61    0.18
   6  -6 -11    1.76    0.32
  -6   6  11    1.11    0.18
   7  -7   6    1.64    0.18
   7  -7   6    1.73    0.22
  -7   7  -6    1.62    0.18
   7  -7   5   10.51    0.50
   7  -7   5   10.38    0.47
  -7   7  -5    8.60    0.49
   7  -7   4    3.54    0.24
   7  -7   4    3.57    0.27
   7  -7   3    9.60    0.47
   7  -7   3   10.05    0.51
   7  -7   2    0.33    0.14
   7  -7   2    0.34    0.11
  -7   7  -2    0.26    0.10
   7  -7   1   34.28    1.41
   7  -7   1   33.47    1.44
  -7   7  -1   36.74    1.42
   7  -7   0    4.57    0.31
  -7   7   0    4.57    0.27
   7  -7  -1   10.93    0.55
  -7   7   1   11.18    0.67
  -7   7   1   11.45    0.51
   7  -7  -2   12.70    0.62
  -7   7   2   13.39    0.58
  -7   7   2   13.76    0.80
   7  -7  -3   55.42    2.22
  -7   7   3   56.14    2.18
  -7   7   3   54.01    2.38
  -7   7   3   55.47    2.18
   7  -7  -4   11.99    0.56
  -7   7   4   10.67    0.69
  -7   7   4   11.69    0.52
  -7   7   4   11.35    0.51
   7  -7  -5   63.73    2.39
  -7   7   5   56.26    2.48
  -7   7   5   58.57    2.34
  -7   7   5   58.27    2.33
   7  -7  -6   11.58    0.55
  -7   7   6    9.70    0.69
  -7   7   6   10.53    0.50
  -7   7   6   11.51    0.51
   7  -7  -7    6.64    0.40
  -7   7   7    6.98    0.36
  -7   7   7    7.13    0.36
  -7   7   7    6.72    0.58
   7  -7  -8    8.08    0.46
  -7   7   8    7.95    0.69
  -7   7   8    8.33    0.41
  -7   7   8    8.84    0.42
   7  -7  -9   16.18    0.81
  -7   7   9   18.01    1.11
  -7   7   9   18.99    0.78
  -7   7   9   18.55    0.77
   7  -7 -10    0.31    0.14
   7  -7 -10    0.30    0.13
  -7   7  10    0.08    0.10
  -7   7  10    0.13    0.28
   8  -8   5    3.44    0.31
   8  -8   4    1.07    0.21
  -8   8  -4    0.69    0.15
   8  -8   3    6.05    0.36
  -8   8  -3    5.32    0.31
   8  -8   2    7.75    0.45
  -8   8  -2    8.76    0.41
   8  -8   1    5.79    0.38
  -8   8  -1    6.12    0.33
  -8   8  -1    7.04    0.61
   8  -8   0   25.69    1.13
  -8   8   0   26.22    1.29
  -8   8   0   27.08    1.10
   8  -8  -1   46.05    2.04
  -8   8   1   47.96    2.20
  -8   8   1   58.77    2.13
  -8   8   2   12.76    0.56
  -8   8   2   12.37    0.77
  -8   8   2   12.13    0.56
   8  -8  -3   36.14    1.59
  -8   8   3   36.25    1.69
  -8   8   3   40.10    1.53
  -8   8   3   39.31    1.53
   8  -8  -4   13.66    0.65
  -8   8   4   14.06    0.60
  -8   8   4   13.91    0.61
  -8   8   4   12.59    0.81
   8  -8  -5   13.29    0.64
  -8   8   5   11.85    0.58
  -8   8   5   12.61    0.79
  -8   8   5   12.76    0.58
   8  -8  -6    0.86    0.20
  -8   8   6    0.91    0.35
  -8   8   6    0.84    0.16
  -8   8   6    0.89    0.17
   8  -8  -7    2.47    0.24
  -8   8   7    2.11    0.20
  -8   8   7    2.32    0.52
  -8   8   7    2.33    0.22
   8  -8  -8    3.52    0.28
  -8   8   8    3.81    0.74
  -8   8   8    3.68    0.25
  -8   8   8    3.96    0.27
   8  -8  -9    1.62    0.21
  -8   8   9    1.14    0.18
  -8   8   9    1.23    0.27
   8  -8 -10    7.55    0.40
  -8   8  10    7.64    0.38
   9  -9   3    0.98    0.25
  -9   9  -3    0.94    0.17
   9  -9   2    6.59    0.40
  -9   9  -2    6.74    0.89
  -9   9  -2    6.56    0.35
   9  -9   1    5.72    0.38
  -9   9  -1    5.14    0.30
  -9   9  -1    5.13    0.69
   9  -9   0    1.11    0.28
  -9   9   0    0.67    0.15
  -9   9   0    0.48    0.36
  -9   9   1    1.77    0.54
  -9   9   1    1.82    0.18
  -9   9   1    2.01    0.20
  -9   9   2    1.18    0.39
  -9   9   2    1.47    0.18
  -9   9   2    1.57    0.20
  -9   9   3    0.28    0.12
  -9   9   3    0.35    0.10
  -9   9   3    0.42    0.36
  -9   9   4   13.84    0.89
  -9   9   4   14.04    0.61
  -9   9   4   13.36    0.61
   9  -9  -5    6.61    0.42
  -9   9   5    7.15    0.37
  -9   9   5    7.48    0.69
  -9   9   5    7.51    0.37
   9  -9  -6    0.21    0.13
  -9   9   6    0.23    0.11
  -9   9   6    0.22    0.13
  -9   9   6    0.21    0.44
   9  -9  -7   11.68    0.54
  -9   9   7    9.97    0.49
  -9   9   7    9.84    0.50
   9  -9  -9   12.45    0.59
  -9   9   9   12.34    0.56
 -10  10  -1    3.34    0.27
 -10  10  -1    3.55    0.25
 -10  10   0    3.16    0.24
 -10  10   0    3.53    0.27
 -10  10   1   10.08    0.50
 -10  10   1   11.03    0.55
 -10  10   2   18.92    0.78
 -10  10   2   17.61    0.89
 -10  10   2   17.45    1.20
 -10  10   3    3.14    0.26
 -10  10   3    3.12    0.23
 -10  10   3    3.35    0.85
 -10  10   4   13.80    1.09
 -10  10   4   13.46    0.66
 -10  10   4   14.57    0.62
 -10  10   5    0.46    0.12
 -10  10   5    0.09    0.14
  10 -10  -6    7.97    0.48
 -10  10   6    6.85    0.42
  10 -10  -7    4.82    0.35
 -10  10   7    5.40    0.30
  10 -10  -8    3.06    0.29
 -10  10   8    3.24    0.25
 -11  11   2   13.70    0.68
 -11  11   3    1.42    0.21
 -11  11   4    6.53    0.35
 -11  11   5    2.72    0.25
 -10  12   7    1.43    0.23
  10 -12  -7    1.80    0.31
 -10  12   6    9.22    0.47
 -10  12   6    9.30    0.45
 -10  12   5    0.95    0.19
 -10  12   5    0.95    0.21
 -10  12   4    0.33    0.14
 -10  12   4    1.15    0.92
 -10  12   4    0.17    0.13
 -10  12   3    3.94    0.28
 -10  12   3    2.89    0.86
 -10  12   3    4.25    0.27
 -10  12   2    3.73    0.26
 -10  12   2    3.86    0.27
 -10  12   1    3.06    0.24
 -10  12   1    3.37    0.25
 -10  12   0    1.81    0.23
 -10  12   0    2.29    0.22
  -9  11   9    3.46    0.41
   9 -11  -9    3.72    0.27
  -9  11   8    1.48    0.26
   9 -11  -8    0.93    0.19
  -9  11   7    6.50    0.35
  -9  11   7    5.86    0.82
   9 -11  -7    6.54    0.38
  -9  11   6   22.42    0.95
  -9  11   6   22.95    0.95
  -9  11   6   22.14    1.23
   9 -11  -6   23.37    1.00
  -9  11   5    2.40    0.21
  -9  11   5    2.32    0.57
  -9  11   5    2.40    0.22
   9 -11  -5    2.36    0.28
  -9  11   4   23.64    0.99
  -9  11   4   23.57    0.98
  -9  11   3    0.97    0.39
  -9  11   3    0.19    0.11
  -9  11   3    0.43    0.12
  -9  11   2    9.45    0.45
  -9  11   2    9.42    0.45
  -9  11   1    2.04    0.52
  -9  11   1    2.23    0.20
  -9  11   1    1.77    0.20
  -9  11   0    1.10    0.17
  -9  11   0    0.76    0.17
  -9  11   0    0.64    0.38
   9 -11   0    0.54    0.19
  -9  11  -1    2.00    0.56
  -9  11  -1    1.27    0.19
   9 -11   1    1.33    0.38
  -9  11  -2    3.27    0.24
   9 -11   2    3.65    0.30
   8 -10 -10    2.18    0.23
  -8  10   9    3.00    0.23
  -8  10   9    2.93    0.27
   8 -10  -9    3.03    0.24
  -8  10   8    4.03    0.26
  -8  10   8    4.02    0.27
  -8  10   8    4.24    0.69
   8 -10  -8    4.14    0.29
  -8  10   7    2.39    0.21
  -8  10   7    2.29    0.22
  -8  10   7    1.77    0.49
   8 -10  -7    2.92    0.25
  -8  10   6   34.56    1.68
  -8  10   6   36.72    1.49
  -8  10   6   35.81    1.48
   8 -10  -6   40.01    1.55
  -8  10   5    2.43    0.21
  -8  10   5    2.07    0.45
  -8  10   5    2.65    0.21
   8 -10  -5    2.28    0.24
  -8  10   4   42.53    1.71
  -8  10   4   42.85    1.90
  -8  10   4   42.81    1.71
   8 -10  -4   42.15    1.75
  -8  10   3   26.07    1.28
  -8  10   3   26.86    1.11
   8 -10  -3   26.19    1.18
  -8  10   2    2.82    0.21
  -8  10   2    2.07    0.27
  -8  10   2    2.37    0.43
   8 -10  -2    2.12    0.30
  -8  10   1   14.88    0.62
  -8  10   1   13.67    0.82
   8 -10  -1   12.75    0.65
  -8  10   0    0.43    0.32
  -8  10   0    0.66    0.15
   8 -10   0    0.71    0.22
  -8  10  -1    2.89    0.23
  -8  10  -1    3.19    0.50
   8 -10   1    3.74    0.28
  -8  10  -2    0.28    0.33
  -8  10  -2    0.35    0.11
   8 -10   2    0.81    0.20
  -8  10  -3    2.79    0.22
  -8  10  -3    2.69    0.59
   8 -10   3    3.10    0.26
  -8  10  -4    2.50    0.22
   8 -10   4    2.55    0.24
  -7   9  10    9.87    0.44
  -7   9  10    9.93    0.47
   7  -9 -10    9.23    0.48
   7  -9 -10    8.34    0.46
  -7   9   9    2.03    0.52
  -7   9   9    1.63    0.19
  -7   9   9    1.53    0.21
   7  -9  -9    1.52    0.21
   7  -9  -9    1.92    0.33
  -7   9   8    3.02    0.72
  -7   9   8    3.19    0.23
  -7   9   8    3.31    0.23
   7  -9  -8    2.45    0.26
   7  -9  -8    2.85    0.25
  -7   9   7    7.70    0.61
  -7   9   7    8.77    0.42
  -7   9   7    8.36    0.41
   7  -9  -7    8.57    0.46
  -7   9   6    0.50    0.14
  -7   9   6    0.60    0.28
  -7   9   6    0.54    0.16
  -7   9   5    1.74    0.17
  -7   9   5    1.79    0.18
  -7   9   5    1.59    0.37
  -7   9   4   61.03    2.41
  -7   9   4   57.71    2.56
  -7   9   4   62.70    2.42
   7  -9  -4   63.43    2.46
  -7   9   3   33.15    1.28
  -7   9   3   29.65    1.43
  -7   9   3   32.85    1.29
   7  -9  -3   30.94    1.31
  -7   9   2    8.40    0.37
  -7   9   2    8.21    0.55
   7  -9  -2    6.71    0.42
   7  -9  -2    6.64    0.41
  -7   9   1   17.50    0.95
  -7   9   1   18.89    0.78
   7  -9  -1   18.63    0.82
  -7   9   0   25.20    1.24
  -7   9   0   25.96    1.06
   7  -9   0   25.87    1.10
  -7   9  -1    0.80    0.15
   7  -9   1    0.69    0.18
  -7   9  -2    2.20    0.19
   7  -9   2    1.76    0.19
   7  -9   2    1.66    0.21
  -7   9  -3    0.28    0.11
   7  -9   3    0.28    0.11
   7  -9   3    0.16    0.12
  -7   9  -4    2.54    0.21
   7  -9   4    2.46    0.20
   7  -9   4    2.25    0.23
  -7   9  -5    5.00    0.27
   7  -9   5    4.38    0.26
   7  -9   5    4.24    0.30
   7  -9   6    0.99    0.23
  -6   8  11    7.83    0.41
   6  -8 -11    9.22    0.48
  -6   8  10   11.02    0.51
  -6   8  10   11.03    0.57
  -6   8  10   10.72    1.25
   6  -8 -10   10.66    0.49
  -6   8   9   12.09    0.55
  -6   8   9   12.19    0.55
  -6   8   9   11.73    0.82
  -6   8   9   13.45    0.63
   6  -8  -9   10.83    0.59
  -6   8   8    8.72    0.43
  -6   8   8    9.17    0.46
  -6   8   8    8.51    0.65
  -6   8   8    8.85    0.43
   6  -8  -8    9.14    0.49
  -6   8   7   19.17    0.80
  -6   8   7   18.12    0.80
  -6   8   7   17.27    0.98
  -6   8   7   19.34    0.79
   6  -8  -7   19.01    0.85
  -6   8   6    6.31    0.32
  -6   8   6    5.95    0.32
  -6   8   6    5.20    0.48
   6  -8  -6    6.87    0.37
  -6   8   5    3.30    0.41
  -6   8   5    3.42    0.22
  -6   8   5    3.45    0.21
   6  -8  -5    2.93    0.23
  -6   8   4   21.95    0.92
  -6   8   4   22.59    0.92
  -6   8   4   23.24    1.06
   6  -8  -4   21.73    0.96
  -6   8   3   26.60    1.20
  -6   8   3   25.42    1.06
  -6   8   3   24.75    1.06
   6  -8  -3   27.98    1.10
   6  -8  -3   26.34    1.10
  -6   8   2    1.77    0.15
  -6   8   2    1.74    0.29
   6  -8  -2    2.06    0.21
   6  -8  -2    1.39    0.20
  -6   8   1   37.75    1.62
  -6   8   1   35.13    1.48
   6  -8  -1   38.69    1.51
   6  -8   0    1.28    0.14
   6  -8   0    1.23    0.17
  -6   8  -1   65.11    2.45
   6  -8   1   60.15    2.47
   6  -8   1   60.94    2.44
   6  -8   2   17.29    0.77
   6  -8   2   16.62    0.73
   6  -8   3    3.53    0.30
   6  -8   3    3.73    0.31
   6  -8   4   15.93    0.70
   6  -8   4   15.83    0.74
   6  -8   5    3.37    0.23
   6  -8   5    3.32    0.26
   6  -8   7   13.59    0.59
  -5   7  11    0.77    0.16
  -5   7  11    0.69    0.16
   5  -7 -11    0.58    0.15
  -5   7  10   13.40    0.91
  -5   7  10   12.65    0.57
  -5   7  10   12.72    0.57
  -5   7  10   12.35    0.56
   5  -7 -10   12.40    0.56
   5  -7 -10   12.17    0.61
  -5   7   9   28.20    1.15
  -5   7   9   27.89    1.16
  -5   7   9   28.34    1.37
  -5   7   9   28.99    1.16
   5  -7  -9   27.13    1.20
  -5   7   8    7.00    0.58
  -5   7   8    7.32    0.38
  -5   7   8    7.78    0.38
   5  -7  -8    7.53    0.42
  -5   7   7   34.31    1.36
  -5   7   7   34.23    1.37
  -5   7   7   30.92    1.52
  -5   7   7   34.18    1.37
   5  -7  -7   35.18    1.42
  -5   7   6    7.63    0.37
  -5   7   6    7.42    0.38
  -5   7   6    7.81    0.37
  -5   7   6    7.69    0.52
   5  -7  -6    7.89    0.41
  -5   7   5   23.68    1.04
  -5   7   5   22.00    0.90
  -5   7   5   22.31    0.90
  -5   7   5   22.37    0.90
   5  -7  -5   20.01    0.93
  -5   7   4   29.56    1.26
  -5   7   4   28.38    1.14
  -5   7   4   28.25    1.14
   5  -7  -4   27.63    1.17
  -5   7   3   10.05    0.40
  -5   7   3   10.58    0.52
   5  -7  -3    7.34    0.44
   5  -7  -3    8.04    0.42
  -5   7   2   24.61    1.06
  -5   7   2   23.53    0.95
   5  -7  -2   22.72    0.97
   5  -7  -2   23.17    0.97
  -5   7   1   43.42    1.69
  -5   7   1   44.17    1.79
   5  -7  -1   43.25    1.72
   5  -7  -1   41.18    1.71
  -5   7   0    7.03    0.39
   5  -7   0    7.06    0.33
   5  -7   0    6.93    0.35
   5  -7   1   48.40    1.92
   5  -7   1   49.04    1.95
   5  -7   2   13.02    0.59
   5  -7   2   12.59    0.56
   5  -7   2   12.75    0.70
   5  -7   3   32.56    1.34
   5  -7   3   33.20    1.31
   5  -7   3   30.79    1.47
   5  -7   4    3.58    0.24
   5  -7   4    3.42    0.42
   5  -7   4    3.94    0.27
   5  -7   5   16.13    0.91
   5  -7   5   16.21    0.70
   5  -7   5   15.56    0.74
   5  -7   6    4.48    0.31
   5  -7   6    4.29    0.26
   5  -7   6    4.56    0.51
   5  -7   7    0.55    0.15
   5  -7   7    0.34    0.39
  -4   6  11    4.91    0.28
  -4   6  11    4.95    0.30
  -4   6  11    4.55    0.29
   4  -6 -11    5.77    0.28
  -4   6  10    0.03    0.36
  -4   6  10    0.08    0.11
  -4   6  10   -0.09    0.11
  -4   6  10    0.04    0.10
   4  -6 -10    0.12    0.18
   4  -6 -10    0.02    0.08
  -4   6   9    0.10    0.10
  -4   6   9    0.17    0.29
  -4   6   9    0.06    0.09
  -4   6   9    0.33    0.12
   4  -6  -9    0.20    0.14
  -4   6   8   22.06    0.92
  -4   6   8   22.42    0.92
  -4   6   8   20.25    1.10
  -4   6   8   22.62    0.92
   4  -6  -8   21.68    0.97
  -4   6   7    0.46    0.13
  -4   6   7    0.39    0.19
  -4   6   7    0.54    0.13
  -4   6   7    0.62    0.13
  -4   6   6    9.13    0.42
  -4   6   6    8.45    1.05
  -4   6   6    9.00    0.41
  -4   6   6    8.96    0.41
  -4   6   6    9.42    0.55
   4  -6  -6    9.09    0.45
  -4   6   5   52.49    1.99
  -4   6   5   52.91    2.10
  -4   6   5   51.30    1.98
  -4   6   5   50.27    1.99
  -4   6   5   51.90    2.48
  -4   6   5   46.36    2.00
   4  -6  -5   49.56    2.02
  -4   6   4    8.42    0.37
  -4   6   4    8.43    0.70
  -4   6   4    8.56    0.37
  -4   6   4    8.43    0.46
  -4   6   4    8.43    0.37
  -4   6   4    7.80    0.38
   4  -6  -4    8.82    0.41
  -4   6   3   93.99    3.62
  -4   6   3   97.68    3.62
  -4   6   3   99.36    3.70
   4  -6  -3   87.52    3.92
   4  -6  -3   89.51    3.64
  -4   6   2   38.96    1.54
  -4   6   2   40.43    1.62
   4  -6  -2   38.59    1.56
   4  -6  -1    6.14    0.31
   4  -6  -1    5.93    0.31
   4  -6   0   29.85    1.22
   4  -6   0   30.58    1.20
   4  -6   1   19.60    0.90
   4  -6   1   19.65    0.80
   4  -6   1   19.24    0.81
  -4   6  -2    3.18    0.23
   4  -6   2    3.32    0.22
   4  -6   2    3.53    0.31
   4  -6   2    3.17    0.21
   4  -6   2    3.57    0.19
   4  -6   3   14.60    0.62
   4  -6   3   14.32    0.62
   4  -6   3   14.25    0.64
   4  -6   3   14.28    0.76
   4  -6   4   31.99    1.31
   4  -6   4   32.86    1.34
   4  -6   4   32.17    1.31
   4  -6   5   14.74    0.63
   4  -6   5   14.16    0.66
   4  -6   5   12.72    0.80
   4  -6   5   14.66    0.63
   4  -6   6   16.55    0.73
   4  -6   6   17.00    0.76
   4  -6   6   16.30    0.94
   4  -6   6   16.71    0.73
  -4   6  -7   11.55    0.55
   4  -6   7   11.28    0.76
   4  -6   7   11.49    0.53
   4  -6   7   11.59    0.53
   4  -6   7   11.96    0.57
   4  -6   8    0.36    0.11
   4  -6   8    0.44    0.16
  -3   5  11    3.53    0.24
  -3   5  11    3.30    0.22
   3  -5 -11    3.34    0.22
  -3   5  10    2.35    0.20
  -3   5  10    2.32    0.20
  -3   5  10    2.30    0.20
  -3   5  10    2.42    0.55
   3  -5 -10    2.36    0.19
  -3   5   9   45.84    2.04
  -3   5   9   45.44    1.83
  -3   5   9   45.77    1.83
  -3   5   9   45.70    1.82
   3  -5  -9   45.58    1.87
  -3   5   8   11.21    0.51
  -3   5   8   11.63    0.52
  -3   5   8   10.52    0.69
  -3   5   8   12.14    0.52
   3  -5  -8   10.62    0.56
  -3   5   7   15.09    0.62
  -3   5   7   14.58    0.62
  -3   5   7   14.65    0.62
   3  -5  -7   12.76    0.65
  -3   5   6   21.30    0.86
  -3   5   6   20.06    1.43
  -3   5   6   21.14    0.87
  -3   5   6   21.26    0.86
  -3   5   6   22.45    1.00
  -3   5   6   21.29    0.86
   3  -5  -6   19.92    0.89
  -3   5   5    0.48    0.44
  -3   5   5    0.58    0.11
  -3   5   5    0.70    0.10
  -3   5   5    0.67    0.12
  -3   5   5    0.80    0.22
  -3   5   5    0.79    0.11
  -3   5   4   41.51    1.95
  -3   5   4   39.46    1.62
  -3   5   4   42.34    1.62
  -3   5   4   42.80    1.70
  -3   5   4   40.78    1.62
  -3   5   4   41.34    1.62
   3  -5  -4   40.93    1.65
  -3   5   3   57.81    2.49
  -3   5   3   59.35    2.40
  -3   5   3   60.51    2.40
  -3   5   3   67.05    2.66
   3  -5  -3   62.85    2.43
   3  -5  -3   64.40    2.71
  -3   5   2    1.46    0.17
  -3   5   2    1.63    0.22
   3  -5  -2    1.29    0.26
   3  -5   0   28.21    1.18
   3  -5   1    8.22    0.36
   3  -5   1    8.50    0.36
   3  -5   1    8.49    0.44
   3  -5   1    7.81    0.37
  -3   5  -2   48.73    4.80
   3  -5   2   48.98    2.00
   3  -5   2   52.47    2.08
   3  -5   2   52.14    1.99
   3  -5   2   51.09    1.99
   3  -5   3   78.39    2.91
   3  -5   3   72.42    2.92
   3  -5   3   69.87    2.95
   3  -5   3   78.07    3.03
   3  -5   4    6.06    0.42
   3  -5   4    5.42    0.31
   3  -5   4    5.58    0.29
   3  -5   4    5.82    0.29
   3  -5   5   16.56    0.70
   3  -5   5   16.27    0.73
   3  -5   5   16.99    0.70
   3  -5   5   15.38    0.85
   3  -5   6    4.46    0.26
   3  -5   6    3.29    0.42
   3  -5   6    4.57    0.26
   3  -5   6    4.40    0.30
   3  -5   7   11.71    0.53
   3  -5   7   11.35    0.57
   3  -5   7   11.95    0.76
   3  -5   7   11.19    0.53
   3  -5   8   10.88    0.50
   3  -5   8   10.67    0.54
   3  -5   8   10.87    0.50
   3  -5   8   10.77    0.74
  -3   5  -9    5.79    0.36
   3  -5   9    5.15    0.29
  -2   4  11    0.65    0.17
  -2   4  11    0.83    0.16
   2  -4 -11    0.88    0.16
  -2   4  10    6.56    0.34
  -2   4  10    6.90    0.62
  -2   4  10    6.85    0.34
  -2   4  10    6.60    0.34
   2  -4 -10    6.27    0.34
  -2   4   9   10.41    0.50
  -2   4   9   10.62    0.50
  -2   4   9   10.59    0.71
  -2   4   9   10.81    0.50
  -2   4   8    0.88    0.15
  -2   4   8    1.13    0.15
  -2   4   8    0.87    0.15
  -2   4   8    1.15    0.33
   2  -4  -8    0.60    0.24
  -2   4   7   12.86    0.57
  -2   4   7   13.28    0.57
  -2   4   7   12.17    0.83
  -2   4   7   12.83    0.57
   2  -4  -7   13.46    0.61
  -2   4   6   15.83    1.22
  -2   4   6   17.29    0.71
  -2   4   6   17.39    0.71
  -2   4   6   17.98    0.84
  -2   4   6   17.33    0.82
  -2   4   6   17.16    0.71
  -2   4   6   17.10    0.71
   2  -4  -6   16.23    0.74
  -2   4   5   16.44    0.69
  -2   4   5   17.35    0.79
  -2   4   5   16.94    0.70
  -2   4   5   14.96    0.71
  -2   4   5   16.22    1.14
  -2   4   5   17.28    0.69
  -2   4   5   16.94    0.69
   2  -4  -5   18.73    0.72
  -2   4   4   10.15    0.45
  -2   4   4   11.38    0.53
  -2   4   4   10.23    0.45
  -2   4   4   10.75    0.45
  -2   4   4   11.12    0.45
  -2   4   4   11.21    0.74
  -2   4   3   51.75    2.07
  -2   4   3   55.41    2.26
   2  -4  -3   48.56    2.28
  -2   4   2   69.12    2.79
  -2   4   2   75.93    2.91
   2  -4  -2   69.03    2.92
  -2   4   1  120.13    4.45
  -2   4   1  116.17    4.47
   2  -4  -1  107.58    4.47
   2  -4   0  154.06    5.96
  -2   4  -1  173.65    6.72
   2  -4   1  173.00    6.71
   2  -4   2    2.09    0.20
   2  -4   2    2.01    0.13
   2  -4   2    2.12    0.15
   2  -4   2    2.13    0.29
   2  -4   3   13.03    0.56
   2  -4   3   14.32    0.77
   2  -4   3   12.99    0.55
   2  -4   3   13.00    0.56
   2  -4   3   13.34    0.58
   2  -4   3   13.55    0.65
   2  -4   4    8.47    0.39
   2  -4   4    8.64    0.38
   2  -4   4    8.13    0.40
   2  -4   4    8.82    0.50
   2  -4   4    8.62    0.72
   2  -4   5    6.84    0.35
   2  -4   5    6.70    0.33
   2  -4   5    6.68    0.33
   2  -4   5    6.56    0.33
   2  -4   5    7.37    0.48
   2  -4   6    0.96    0.16
   2  -4   6    0.91    0.13
   2  -4   6    0.98    0.15
   2  -4   6    0.87    0.14
   2  -4   6    0.94    0.29
   2  -4   7    6.27    0.54
   2  -4   7    6.36    0.36
   2  -4   7    6.28    0.37
   2  -4   8    1.56    0.43
   2  -4   8    1.75    0.24
   2  -4   8    1.53    0.17
   2  -4   8    1.60    0.17
   2  -4   9    4.29    0.25
   2  -4   9    3.87    0.58
   2  -4   9    4.26    0.26
   2  -4  10    0.38    0.11
  -1   3  11    3.07    0.23
  -1   3  11    2.85    0.21
   1  -3 -11    2.65    0.33
  -1   3  10   10.08    0.75
  -1   3  10   10.38    0.48
  -1   3  10   10.10    0.48
  -1   3  10   10.66    0.48
   1  -3 -10   10.13    0.48
  -1   3   9    3.12    0.23
  -1   3   9    3.22    0.45
  -1   3   9    3.24    0.23
  -1   3   9    3.11    0.22
  -1   3   8    0.47    0.11
  -1   3   8    0.42    0.23
  -1   3   8    0.81    0.14
  -1   3   8    0.57    0.14
  -1   3   7    1.87    0.33
  -1   3   7    1.95    0.17
  -1   3   7    1.91    0.16
  -1   3   7    2.35    0.17
  -1   3   7    2.09    0.24
   1  -3  -7    1.92    0.28
  -1   3   6    2.73    0.23
  -1   3   6    3.13    0.31
  -1   3   6    2.80    0.67
  -1   3   6    2.84    0.18
  -1   3   6    2.98    0.19
  -1   3   6    2.83    0.18
   1  -3  -6    3.64    0.26
  -1   3   5    3.69    0.19
  -1   3   5    3.50    0.29
  -1   3   5    3.27    0.23
  -1   3   5    3.61    0.20
  -1   3   5    3.60    0.20
  -1   3   5    3.70    0.19
   1  -3  -5    4.20    0.24
  -1   3   4   25.28    1.32
  -1   3   4   25.72    1.02
  -1   3   4   25.93    1.02
  -1   3   4   26.04    1.02
  -1   3   4   26.75    1.10
  -1   3   4   24.41    1.02
  -1   3   3   98.93    3.98
  -1   3   3  102.73    4.17
   1  -3  -3  104.72    4.23
  -1   3   2  160.68    6.12
  -1   3   2  166.90    6.25
   1  -3  -2  147.69    6.24
  -1   3   1  130.09    5.22
   1  -3  -1  132.69    5.17
  -1   3   0   32.89    1.27
   1  -3   0   32.00    1.27
  -1   3  -1  270.15   10.11
   1  -3   1  261.54   10.17
   1  -3   1  242.12    9.92
  -1   3  -2   25.15    1.08
   1  -3   2   23.69    1.04
   1  -3   2   20.93    0.96
  -1   3  -3   91.85    3.93
   1  -3   3   92.51    3.65
   1  -3   3   97.63    3.72
   1  -3   3   90.74    3.67
   1  -3   3  103.29    3.89
   1  -3   3   91.52    3.65
   1  -3   4   50.16    1.96
   1  -3   4   50.43    1.98
   1  -3   4   53.01    2.30
   1  -3   4   48.89    1.96
   1  -3   4   48.99    1.96
   1  -3   4   51.14    2.05
   1  -3   4   47.99    1.95
   1  -3   5   21.97    0.97
   1  -3   5   20.28    0.84
   1  -3   5   19.20    0.96
   1  -3   5   20.23    0.83
   1  -3   5   19.99    1.30
   1  -3   5   20.69    0.83
   1  -3   5   20.50    0.84
   1  -3   6   31.67    1.29
   1  -3   6   32.82    1.29
   1  -3   6   33.08    1.32
   1  -3   6   29.92    2.01
   1  -3   6   33.09    1.45
   1  -3   6   31.61    1.30
   1  -3   7    2.58    0.24
   1  -3   7    2.61    0.19
   1  -3   7    2.67    0.19
   1  -3   7    2.39    0.19
   1  -3   7    2.55    0.36
   1  -3   8    9.28    0.44
   1  -3   8    8.66    0.44
   1  -3   8    9.42    0.66
   1  -3   8    9.59    0.45
   1  -3   8    9.23    0.49
   1  -3   9   11.07    0.53
   1  -3   9   11.85    0.54
   1  -3   9   12.30    0.80
   1  -3  10    3.43    0.23
   1  -3  10    3.79    0.24
   0   2  10   15.03    0.95
   0   2  10   16.31    0.71
   0   2  10   15.98    0.68
   0  -2 -10   15.66    0.68
   0   2   9    4.69    0.50
   0   2   9    4.87    0.28
   0   2   9    4.92    0.28
   0   2   9    5.05    0.29
   0  -2  -9    4.83    0.29
   0   2   8    7.56    0.58
   0   2   8    7.59    0.41
   0   2   8    7.50    0.40
   0   2   8    8.30    0.51
   0   2   7    0.54    0.13
   0   2   7    0.14    0.17
   0   2   7    0.42    0.12
   0   2   7    0.30    0.13
   0   2   7    0.41    0.10
   0   2   6    8.02    0.50
   0   2   6    7.76    0.37
   0   2   6    7.57    0.36
   0   2   6    7.38    0.97
   0   2   6    8.15    0.36
   0   2   6    7.60    0.39
   0   2   5    3.23    0.19
   0   2   5    2.82    0.51
   0   2   5    2.96    0.17
   0   2   5    3.20    0.21
   0   2   5    3.30    0.28
   0   2   5    3.04    0.18
   0  -2  -5    3.05    0.27
   0   2   4   12.83    0.60
   0   2   4   12.23    0.52
   0   2   4   11.89    0.54
   0   2   4   13.01    0.52
   0   2   4   12.30    0.52
   0   2   4   12.48    0.52
   0   2   4   13.46    0.82
   0   2   3   11.66    0.53
   0  -2  -3   11.38    0.73
   0   2   2  203.26    7.81
   0   2   2  186.59    7.34
   0  -2  -2  181.81    7.48
   0   2   1  368.33   14.29
   0  -2  -1  347.48   14.16
   0   2   0   49.78    1.95
   0  -2   0   49.48    1.95
   0   2  -1  377.32   14.49
   0  -2   1  357.25   14.49
   0   2  -2  186.24    7.41
   0  -2   2  202.72    7.72
   0  -2   2  178.54    7.29
   0   2  -3   11.17    0.71
   0  -2   3   12.12    0.68
   0  -2   3   12.06    0.54
   0  -2   4   12.64    0.52
   0  -2   4   12.73    0.52
   0  -2   4   12.85    0.79
   0  -2   4   12.41    0.52
   0  -2   4   11.49    0.54
   0  -2   4   12.98    0.52
   0  -2   4   12.87    0.60
   0  -2   5    3.24    0.18
   0  -2   5    2.96    0.49
   0  -2   5    3.08    0.28
   0  -2   5    2.99    0.21
   0  -2   5    3.00    0.18
   0  -2   5    3.33    0.18
   0  -2   5    3.35    0.18
   0  -2   6    7.91    0.36
   0  -2   6    7.89    0.40
   0  -2   6    8.51    0.51
   0  -2   6    7.93    0.37
   0  -2   6    7.94    0.37
   0  -2   6    7.49    0.97
   0  -2   6    7.76    0.37
   0  -2   7    0.47    0.21
   0  -2   7    0.25    0.09
   0  -2   7    0.41    0.12
   0  -2   7    0.33    0.09
   0  -2   7    0.40    0.15
   0  -2   8    7.61    0.45
   0  -2   8    7.72    0.40
   0  -2   8    8.44    0.46
   0  -2   8    7.37    0.40
   0  -2   8    6.73    0.57
   0  -2   9    4.83    0.29
   0  -2   9    4.97    0.56
   0  -2   9    5.23    0.29
   0  -2   9    5.06    0.29
   0  -2  10   15.20    1.00
   0  -2  10   15.45    0.69
   0  -2  10   15.78    0.67
   1   1  10    7.02    0.35
   1   1  10    7.17    0.35
   1   1   9    9.41    0.45
   1   1   9    9.66    0.45
   1   1   9    9.21    0.52
   1   1   9    9.94    0.71
  -1  -1  -9    9.01    0.46
   1   1   8    1.24    0.16
   1   1   8    1.28    0.17
   1   1   8    1.52    0.17
   1   1   8    1.14    0.36
   1   1   8    1.54    0.22
   1   1   7    3.09    0.39
   1   1   7    3.32    0.22
   1   1   7    3.45    0.22
   1   1   7    3.59    0.27
   1   1   7    3.52    0.23
   1   1   6    8.41    0.40
   1   1   6    9.34    0.56
   1   1   6    7.45    1.08
   1   1   6    8.60    0.40
   1   1   6    8.66    0.40
   1   1   6    8.59    0.43
   1   1   5   11.57    0.49
   1   1   5   10.99    0.92
   1   1   5   11.50    0.60
   1   1   5   11.73    0.49
   1   1   5   10.00    0.60
   1   1   4   37.38    1.48
   1   1   4   36.74    1.46
   1   1   4   37.66    1.55
   1   1   4   37.64    1.46
   1   1   4   37.04    1.80
   1   1   4   36.08    1.46
   1   1   3   44.43    1.90
   1   1   3   52.49    2.17
   1   1   3   48.01    1.90
   1   1   3   46.36    1.90
   1   1   3   52.36    1.98
  -1  -1  -3   49.58    2.23
   1   1   2   10.02    0.56
   1   1   2    9.21    0.45
   1   1   1    8.42    0.42
  -1  -1  -1    7.47    0.42
   1   1   0   66.76    2.75
  -1  -1   0   73.10    2.75
   1   1  -1   93.86    3.69
   1   1  -2   20.18    0.97
  -1  -1   2   21.80    0.96
   1   1  -3  199.37    8.12
  -1  -1   3  208.83    8.09
  -1  -1   3  206.38    7.90
  -1  -1   4   25.61    1.05
  -1  -1   4   26.97    1.12
  -1  -1   4   27.10    1.05
  -1  -1   4   26.70    1.34
  -1  -1   4   27.01    1.06
  -1  -1   4   26.30    1.06
  -1  -1   5   11.00    0.45
  -1  -1   5   10.52    0.54
  -1  -1   5   10.33    0.80
  -1  -1   5   11.00    0.45
  -1  -1   5   10.21    0.49
  -1  -1   5   10.41    0.45
  -1  -1   5   10.49    0.45
  -1  -1   5    9.62    0.47
  -1  -1   6    6.33    0.80
  -1  -1   6    6.64    0.32
  -1  -1   6    6.14    0.35
  -1  -1   6    6.73    0.44
  -1  -1   6    6.76    0.31
  -1  -1   6    6.26    0.31
  -1  -1   6    6.67    0.31
  -1  -1   7    1.06    0.13
  -1  -1   7    0.56    0.21
  -1  -1   7    1.10    0.14
  -1  -1   7    1.19    0.14
  -1  -1   7    1.13    0.14
  -1  -1   8   14.34    0.63
  -1  -1   8   14.71    0.63
  -1  -1   8   14.71    0.63
  -1  -1   8   13.06    0.80
  -1  -1   9    0.02    0.09
  -1  -1   9    0.05    0.08
  -1  -1   9    0.02    0.10
  -1  -1   9    0.04    0.26
   1   1 -10   12.03    0.57
  -1  -1  10   12.37    0.89
  -1  -1  10   13.05    0.57
  -1  -1  10   12.83    0.57
  -1  -1  10   13.32    0.58
  -1  -1  11    1.77    0.25
  -1  -1  11    1.87    0.18
   2   0  10   20.51    0.86
   2   0  10   20.79    0.86
  -2   0 -10   20.91    0.86
   2   0   9   -0.04    0.34
   2   0   9   -0.12    0.08
   2   0   9   -0.04    0.17
   2   0   9    0.17    0.10
   2   0   8    0.49    0.14
   2   0   8    0.74    0.14
   2   0   8    0.59    0.20
   2   0   8    0.28    0.27
   2   0   7   -0.13    0.11
   2   0   7   -0.09    0.08
   2   0   7    0.35    0.22
   2   0   7    0.06    0.08
  -2   0  -7    0.05    0.12
   2   0   6   10.51    1.62
   2   0   6   13.28    0.56
   2   0   6   11.49    0.70
   2   0   6   12.66    0.56
   2   0   6   13.00    0.59
   2   0   6   12.82    0.56
  -2   0  -6   13.09    0.55
   2   0   5   -0.14    0.43
   2   0   5   -0.13    0.08
   2   0   5   -0.02    0.14
   2   0   5    0.00    0.06
   2   0   5   -0.06    0.06
   2   0   5    0.05    0.07
   2   0   4   42.70    2.06
   2   0   4   43.03    1.69
   2   0   4   42.01    1.70
   2   0   4   42.84    1.68
   2   0   4   43.26    1.68
   2   0   4   42.29    1.79
   2   0   3    0.02    0.09
   2   0   3    0.02    0.05
   2   0   3    0.01    0.06
   2   0   3    0.07    0.17
   2   0   3   -0.02    0.06
   2   0   3    0.01    0.06
  -2   0  -3    0.15    0.33
   2   0   2   17.70    0.84
   2   0   2   17.32    0.72
  -2   0  -2   13.70    0.85
   2   0   1    0.03    0.06
   2   0   1    0.10    0.08
  -2   0  -1    0.07    0.10
   2   0   0  139.23    5.73
  -2   0   0  151.76    5.72
   2   0  -1    0.05    0.07
   2   0  -1   -0.01    0.06
   2   0  -2  802.59   31.46
   2   0  -3   -0.06    0.16
  -2   0   3   -0.05    0.09
  -2   0   3    0.01    0.10
  -2   0   4   45.50    1.85
  -2   0   4   45.16    1.83
  -2   0   4   42.58    1.83
  -2   0   4   46.23    1.83
  -2   0   4   48.54    1.89
  -2   0   4   48.77    2.15
  -2   0   4   51.59    1.85
  -2   0   5    0.02    0.19
  -2   0   5    0.03    0.13
  -2   0   5   -0.07    0.05
  -2   0   5    0.05    0.07
  -2   0   5    0.08    0.07
  -2   0   5    0.00    0.05
  -2   0   6   61.14    2.35
  -2   0   6   60.58    2.35
  -2   0   6   57.77    2.91
  -2   0   6   61.07    2.46
  -2   0   6   61.01    2.35
  -2   0   6   58.97    2.35
  -2   0   7   -0.07    0.07
  -2   0   7    0.18    0.61
  -2   0   7    0.09    0.19
  -2   0   7   -0.03    0.07
  -2   0   7    0.06    0.07
  -2   0   7    0.08    0.08
   2   0  -8   11.53    0.64
  -2   0   8   14.02    0.60
  -2   0   8   14.56    0.59
  -2   0   8   12.63    0.77
  -2   0   8   13.58    0.60
  -2   0   8   14.18    0.60
  -2   0   9   -0.03    0.09
  -2   0   9   -0.01    0.10
  -2   0   9    0.10    0.09
  -2   0   9   -0.03    0.28
  -2   0  10    6.17    0.32
  -2   0  10    5.30    0.65
  -2   0  10    6.15    0.32
  -2   0  10    5.87    0.33
   2   0 -11    0.26    0.12
  -2   0  11    0.17    0.15
  -2   0  11    0.07    0.10
  -2   0  11    0.06    0.10
   3  -1   9    9.77    0.53
   3  -1   9   10.20    0.46
   3  -1   9   10.34    0.46
  -3   1  -9   10.00    0.47
   3  -1   8    0.84    0.32
   3  -1   8    0.84    0.15
   3  -1   8    0.86    0.15
   3  -1   8    0.96    0.21
   3  -1   7    9.82    0.47
   3  -1   7    9.89    0.47
   3  -1   7    9.55    0.68
   3  -1   7    9.67    0.50
   3  -1   6    8.11    0.40
   3  -1   6    8.26    0.43
   3  -1   6    8.39    0.40
   3  -1   6    7.03    0.56
   3  -1   5   24.38    1.14
   3  -1   5   23.00    0.99
   3  -1   5   22.89    0.97
   3  -1   5   23.28    0.97
   3  -1   4   47.65    2.35
   3  -1   4   50.36    2.07
   3  -1   4   49.99    1.97
   3  -1   4   48.69    1.94
   3  -1   4   49.54    1.95
   3  -1   3    2.76    0.17
   3  -1   3    2.60    0.42
   3  -1   3    2.99    0.27
   3  -1   3    2.82    0.17
   3  -1   3    2.71    0.18
  -3   1  -3    2.90    1.00
   3  -1   2   36.30    1.48
   3  -1   2   40.73    1.68
   3  -1   2   38.71    1.57
   3  -1   2   36.75    1.50
   3  -1   2   36.26    1.48
  -3   1  -2   37.28    1.74
   3  -1   1   13.88    0.61
   3  -1   1   12.95    0.54
  -3   1  -1   12.54    0.71
   3  -1   0  100.26    3.73
   3  -1   0   97.88    3.76
  -3   1   0   87.75    3.76
   3  -1  -1   25.30    1.10
   3  -1  -1   25.02    1.10
   3  -1  -2    4.73    0.39
  -3   1   2    6.41    0.30
   3  -1  -3    8.32    0.64
  -3   1   3    9.67    0.44
  -3   1   4   48.88    1.90
  -3   1   4   48.36    1.90
  -3   1   4   49.53    1.96
  -3   1   4   44.71    1.89
  -3   1   4   52.26    2.24
  -3   1   4   48.74    1.90
  -3   1   5   46.18    1.78
  -3   1   5   44.33    1.78
  -3   1   5   45.35    1.78
  -3   1   5   45.52    2.21
  -3   1   5   44.41    1.78
  -3   1   5   47.12    1.88
  -3   1   6   66.16    2.59
  -3   1   6   67.89    2.71
  -3   1   6   63.79    3.16
  -3   1   6   66.05    2.60
  -3   1   6   68.16    2.60
  -3   1   6   67.12    2.60
  -3   1   7   32.40    1.32
  -3   1   7   32.81    1.32
  -3   1   7   32.59    1.47
  -3   1   7   32.21    1.33
  -3   1   7   34.87    1.33
   3  -1  -8   12.05    0.56
  -3   1   8   11.06    0.51
  -3   1   8    9.86    0.68
  -3   1   8   11.01    0.51
  -3   1   8   11.50    0.50
  -3   1   8   11.18    0.51
   3  -1  -9   18.62    0.84
  -3   1   9   17.58    0.79
  -3   1   9   18.59    0.79
  -3   1   9   18.73    0.79
  -3   1   9   18.67    1.00
  -3   1  10    6.11    0.34
  -3   1  10    6.30    0.34
  -3   1  10    6.39    0.33
  -3   1  10    6.30    0.69
   3  -1 -11    0.32    0.10
  -3   1  11    0.62    0.16
  -3   1  11    0.54    0.15
  -3   1  11    0.61    0.13
   4  -2   8    9.04    0.72
   4  -2   8    9.62    0.47
   4  -2   8    9.83    0.48
  -4   2  -8    8.94    0.45
   4  -2   7    3.11    0.57
   4  -2   7    3.05    0.25
   4  -2   7    2.70    0.21
   4  -2   7    3.00    0.21
  -4   2  -7    2.93    0.23
   4  -2   6   27.03    1.13
   4  -2   6   27.21    1.16
   4  -2   6   27.12    1.33
   4  -2   6   27.47    1.13
   4  -2   5   18.94    0.81
   4  -2   5   16.81    0.94
   4  -2   5   18.02    0.77
   4  -2   5   18.14    0.77
   4  -2   4   19.97    0.84
   4  -2   4   20.16    0.98
   4  -2   4   18.77    0.81
   4  -2   4   18.53    0.81
   4  -2   3    9.04    0.42
   4  -2   3    9.03    0.44
   4  -2   3    9.42    0.42
   4  -2   3    9.71    0.55
   4  -2   2   83.90    3.42
   4  -2   2   91.42    3.58
   4  -2   2   85.94    3.40
   4  -2   2   88.54    3.41
   4  -2   2   88.77    3.51
   4  -2   1   10.68    0.55
   4  -2   1   10.42    0.45
   4  -2   1   10.80    0.55
   4  -2   1   10.68    0.47
  -4   2  -1   10.95    0.62
  -4   2  -1   10.58    0.46
   4  -2   0   88.51    3.39
   4  -2   0   85.85    3.38
   4  -2   0   86.69    3.32
   4  -2   0   82.23    3.33
   4  -2  -1   83.40    3.40
   4  -2  -1   86.10    3.41
  -4   2   1   86.45    3.30
   4  -2  -2   33.64    1.44
   4  -2  -2   31.42    1.43
  -4   2   2   31.15    1.29
  -4   2   2   29.32    1.23
   4  -2  -3   15.35    0.96
  -4   2   3   14.91    0.60
  -4   2   3   15.11    0.66
  -4   2   3   13.88    0.60
  -4   2   3   14.10    0.60
  -4   2   4   18.68    0.78
  -4   2   4   19.06    0.78
  -4   2   4   19.25    0.79
  -4   2   4   20.79    0.87
  -4   2   4   19.40    0.78
  -4   2   5   47.89    1.85
  -4   2   5   48.19    1.85
  -4   2   5   41.90    1.90
  -4   2   5   48.52    1.85
  -4   2   5   49.10    1.95
  -4   2   6   73.17    2.94
  -4   2   6   76.62    2.95
  -4   2   6   76.51    2.95
  -4   2   6   73.63    2.94
  -4   2   6   78.22    3.07
  -4   2   7    4.69    0.26
  -4   2   7    4.54    0.26
  -4   2   7    4.76    0.25
  -4   2   7    4.52    0.26
  -4   2   7    4.72    0.43
   4  -2  -8   96.86    3.92
  -4   2   8   94.28    4.03
  -4   2   8  101.43    3.88
  -4   2   8  101.72    3.87
  -4   2   8  100.10    3.87
  -4   2   8  102.20    3.88
   4  -2  -9    8.01    0.44
  -4   2   9    7.33    0.63
  -4   2   9    7.42    0.38
  -4   2   9    7.32    0.38
  -4   2   9    7.10    0.38
   4  -2 -10   20.17    0.91
  -4   2  10   20.07    0.84
  -4   2  10   19.49    0.84
  -4   2  10   19.17    1.14
  -4   2  10   19.87    0.84
  -4   2  11    1.33    0.15
  -4   2  11    1.09    0.16
  -4   2  11    1.25    0.26
   5  -3   8    3.70    0.29
   5  -3   8    3.94    0.23
   5  -3   7   26.81    1.34
   5  -3   7   28.65    1.16
   5  -3   7   27.83    1.12
  -5   3  -7   25.33    1.13
   5  -3   6    8.95    0.68
   5  -3   6    9.36    0.49
   5  -3   6    9.43    0.46
  -5   3  -6   10.02    0.47
   5  -3   5    9.23    0.46
   5  -3   5    8.46    0.42
   5  -3   5    8.97    0.43
   5  -3   5    8.54    0.63
  -5   3  -5    7.24    0.46
   5  -3   4    7.22    0.56
   5  -3   4    8.16    0.39
   5  -3   4    7.97    0.39
   5  -3   4    7.98    0.42
  -5   3  -4    7.53    0.39
   5  -3   3    7.44    0.40
   5  -3   3    8.13    0.54
   5  -3   3    7.39    0.37
   5  -3   3    7.45    0.37
  -5   3  -3    8.67    0.39
   5  -3   2    4.75    0.39
   5  -3   2    5.23    0.26
   5  -3   2    4.58    0.27
   5  -3   1   79.07    3.05
   5  -3   1   72.88    2.94
  -5   3  -1   73.30    2.92
   5  -3   0   13.31    0.56
   5  -3   0   12.53    0.58
  -5   3   0   14.13    0.56
   5  -3  -1  134.23    5.42
   5  -3  -1  146.55    5.41
  -5   3   1  137.85    5.41
  -5   3   1  142.97    5.41
   5  -3  -2    6.12    0.31
   5  -3  -2    6.00    0.54
   5  -3  -2    6.03    0.46
  -5   3   2    4.50    0.27
  -5   3   2    4.72    0.26
  -5   3   2    5.04    0.34
   5  -3  -3   64.82    3.24
   5  -3  -3   74.56    3.05
  -5   3   3   71.26    2.80
  -5   3   3   68.74    2.71
  -5   3   3   70.92    2.72
  -5   3   3   69.54    2.72
  -5   3   4   33.54    1.28
  -5   3   4   30.26    1.30
  -5   3   4   31.89    1.28
  -5   3   4   31.30    1.27
  -5   3   4   34.06    1.38
  -5   3   5   36.64    1.45
  -5   3   5   36.50    1.55
  -5   3   6   10.21    0.60
  -5   3   6   10.16    0.45
  -5   3   6   10.26    0.45
  -5   3   6    9.66    0.45
  -5   3   6   10.01    0.45
   5  -3  -7    1.69    0.19
  -5   3   7    1.43    0.15
  -5   3   7    1.41    0.15
  -5   3   7    1.38    0.15
  -5   3   7    1.25    0.17
   5  -3  -8   27.81    1.20
  -5   3   8   28.48    1.15
  -5   3   8   25.16    1.32
  -5   3   8   29.34    1.15
  -5   3   8   28.20    1.15
  -5   3   8   28.93    1.16
  -5   3   9    2.75    0.53
  -5   3   9    3.36    0.23
  -5   3   9    3.12    0.23
  -5   3   9    2.99    0.22
   5  -3 -10   10.56    0.57
  -5   3  10   11.68    0.53
  -5   3  10   12.28    0.96
  -5   3  10   11.46    0.53
  -5   3  10   12.31    0.54
  -5   3  11    3.19    0.23
  -5   3  11    3.67    0.23
   6  -4   7    2.50    0.24
   6  -4   7    2.62    0.20
   6  -4   6    3.00    0.52
   6  -4   6    2.37    0.22
   6  -4   6    2.37    0.20
   6  -4   5    5.21    0.53
   6  -4   5    5.19    0.34
   6  -4   5    5.17    0.30
  -6   4  -5    6.14    0.34
   6  -4   4    0.10    0.26
   6  -4   4    0.26    0.10
   6  -4   4    0.16    0.11
  -6   4  -4    0.40    0.15
   6  -4   3   21.90    0.92
   6  -4   3   19.33    1.08
   6  -4   3   23.17    0.95
  -6   4  -3   21.90    0.91
   6  -4   2   26.13    1.07
   6  -4   2   24.36    1.20
   6  -4   2   26.19    1.04
  -6   4  -2   23.93    1.03
   6  -4   1   13.33    0.56
   6  -4   1   13.75    0.59
  -6   4  -1   11.18    0.56
   6  -4   0    5.15    0.27
   6  -4   0    5.16    0.30
  -6   4   0    5.17    0.27
  -6   4   0    4.87    0.28
   6  -4  -1   13.63    0.64
  -6   4   1   14.51    0.62
  -6   4   1   15.33    0.62
   6  -4  -2    3.76    0.31
   6  -4  -2    3.73    0.27
  -6   4   2    4.19    0.25
  -6   4   2    4.74    0.23
  -6   4   2    4.49    0.36
  -6   4   3    2.28    0.19
  -6   4   3    2.37    0.19
  -6   4   3    2.61    0.17
  -6   4   3    2.37    0.30
   6  -4  -4   62.69    2.52
  -6   4   4   62.57    2.48
  -6   4   4   62.37    2.48
  -6   4   4   67.53    2.60
  -6   4   4   62.27    2.48
   6  -4  -5   49.31    2.89
   6  -4  -5   53.63    2.18
  -6   4   5   54.12    2.13
  -6   4   5   54.52    2.13
  -6   4   5   56.47    2.14
  -6   4   5   57.22    2.26
  -6   4   5   54.58    2.13
   6  -4  -6   10.46    0.50
  -6   4   6    9.89    0.62
  -6   4   6    9.59    0.44
  -6   4   6    9.84    0.45
  -6   4   6    9.66    0.45
  -6   4   6    9.08    0.45
   6  -4  -7    9.11    0.50
  -6   4   7    9.23    0.44
  -6   4   7    9.38    0.64
  -6   4   7    9.88    0.44
  -6   4   7   10.04    0.45
  -6   4   7    9.88    0.45
   6  -4  -8   14.87    0.74
  -6   4   8   16.15    0.70
  -6   4   8   15.31    0.90
  -6   4   8   16.57    0.70
  -6   4   8   16.57    0.69
   6  -4  -9   18.53    0.79
  -6   4   9   17.00    0.74
  -6   4   9   16.61    0.74
  -6   4   9   16.36    0.73
  -6   4   9   16.21    1.09
   6  -4 -10    1.16    0.21
  -6   4  10    0.90    0.19
  -6   4  10    0.67    0.15
  -6   4  10    0.68    0.18
   6  -4 -11    5.46    0.38
   6  -4 -11    4.95    0.29
  -6   4  11    6.43    0.30
  -6   4  11    5.44    0.32
   7  -5   6    5.23    0.29
   7  -5   6    5.27    0.31
  -7   5  -6    4.87    0.28
   7  -5   5   12.65    0.60
   7  -5   5   12.56    0.57
   7  -5   4    2.25    0.20
   7  -5   4    2.43    0.23
   7  -5   3    1.51    0.21
   7  -5   3    1.40    0.18
   7  -5   2   30.61    1.26
   7  -5   2   30.74    1.30
   7  -5   1    4.81    0.31
   7  -5   1    5.15    0.28
  -7   5  -1    4.23    0.27
   7  -5   0   25.05    1.07
  -7   5   0   25.53    1.05
   7  -5  -1   28.89    1.27
  -7   5   1   32.24    1.40
  -7   5   1   31.35    1.25
  -7   5   2    3.59    0.38
  -7   5   2    3.31    0.21
   7  -5  -3   17.49    0.75
  -7   5   3   16.56    0.70
  -7   5   3   16.41    0.85
  -7   5   3   16.03    0.70
  -7   5   4    1.26    0.14
  -7   5   4    0.94    0.16
  -7   5   4    0.97    0.20
  -7   5   4    0.85    0.27
   7  -5  -5   16.49    0.74
  -7   5   5   15.91    0.69
  -7   5   5   16.95    0.70
  -7   5   5   15.71    0.69
   7  -5  -6    3.76    0.28
  -7   5   6    3.59    0.24
  -7   5   6    2.81    0.46
  -7   5   6    3.12    0.25
  -7   5   6    3.19    0.23
   7  -5  -7    0.12    0.14
  -7   5   7    0.39    0.14
  -7   5   7    0.22    0.13
  -7   5   7    0.23    0.31
   7  -5  -8    5.77    0.36
  -7   5   8    5.41    0.33
  -7   5   8    5.64    0.33
  -7   5   8    5.64    0.65
  -7   5   8    6.12    0.32
   7  -5  -9   31.84    1.36
  -7   5   9   32.96    1.32
  -7   5   9   31.99    1.31
  -7   5   9   32.06    1.31
   7  -5 -10    3.51    0.35
  -7   5  10    3.89    0.24
  -7   5  10    3.03    0.29
   7  -5 -11   14.88    0.68
  -7   5  11   14.72    0.63
   8  -6   5    3.91    0.29
  -8   6  -5    3.77    0.24
   8  -6   4    0.65    0.19
   8  -6   3    0.31    0.11
   8  -6   3    0.39    0.14
  -8   6  -3    0.74    0.15
   8  -6   2    0.58    0.19
  -8   6  -2    0.72    0.16
   8  -6   1   13.83    0.68
  -8   6  -1   15.40    0.65
   8  -6   0    5.06    0.34
  -8   6   0    4.97    0.36
  -8   6   0    5.07    0.54
   8  -6  -1   23.81    1.00
  -8   6   1   21.34    1.14
  -8   6   1   23.01    0.96
  -8   6   2   15.20    0.64
  -8   6   2   13.85    0.84
  -8   6   2   14.95    0.65
  -8   6   3   19.19    0.79
  -8   6   3   19.28    0.80
  -8   6   3   17.63    0.96
   8  -6  -4   14.50    0.67
  -8   6   4   13.45    0.83
  -8   6   4   14.29    0.63
  -8   6   4   14.29    0.62
   8  -6  -5   26.68    1.19
  -8   6   5   29.43    1.15
  -8   6   5   26.21    1.32
  -8   6   5   28.98    1.14
   8  -6  -6    8.08    0.44
  -8   6   6    7.28    0.65
  -8   6   6    7.71    0.39
  -8   6   6    7.62    0.39
   8  -6  -7    3.02    0.26
  -8   6   7    2.03    0.24
  -8   6   7    2.32    0.20
  -8   6   7    2.03    0.57
   8  -6  -8    0.41    0.13
  -8   6   8    0.44    0.10
  -8   6   8    0.54    0.16
   8  -6  -9    1.12    0.19
  -8   6   9    1.35    0.17
   8  -6 -10    1.44    0.21
  -8   6  10    1.70    0.18
   9  -7   3    1.36    0.25
  -9   7  -3    1.81    0.18
   9  -7   2   -0.21    0.23
  -9   7  -2    0.06    0.09
  -9   7  -2   -0.03    0.49
   9  -7   1    9.78    0.53
  -9   7  -1   10.47    0.48
  -9   7  -1   10.24    0.86
   9  -7   0    2.53    0.33
  -9   7   0    2.29    0.20
  -9   7   0    1.64    0.76
  -9   7   1    0.95    0.16
  -9   7   1    1.02    0.37
  -9   7   1    0.99    0.19
  -9   7   2   16.64    0.71
  -9   7   2   15.70    0.70
  -9   7   2   16.26    0.95
  -9   7   3    4.90    0.60
  -9   7   3    4.61    0.30
  -9   7   3    4.93    0.29
  -9   7   4    2.48    0.23
  -9   7   4    2.34    0.20
  -9   7   4    2.32    0.58
   9  -7  -5   44.54    1.82
  -9   7   5   43.93    1.77
  -9   7   5   45.37    1.79
  -9   7   5   43.78    1.98
   9  -7  -6   10.10    0.53
  -9   7   6   10.37    0.48
  -9   7   6    9.90    0.49
   9  -7  -7   24.50    1.06
  -9   7   7   24.09    1.01
   9  -7  -8    4.34    0.31
  -9   7   8    4.14    0.26
   9  -7  -9    4.43    0.29
  -9   7   9    4.20    0.26
   9  -7 -10    0.21    0.14
 -10   8  -2    1.25    0.23
 -10   8  -1   10.13    0.45
 -10   8  -1    9.45    0.48
 -10   8   0    2.32    0.26
 -10   8   1    7.97    0.99
 -10   8   1    8.22    0.56
 -10   8   1    8.25    0.40
 -10   8   2    1.58    0.24
 -10   8   2    0.98    0.64
 -10   8   2    1.30    0.17
 -10   8   3    4.02    0.25
 -10   8   3    3.52    0.29
 -10   8   4    6.93    0.36
 -10   8   4    7.07    0.39
 -10   8   5    3.51    0.24
  10  -8  -6    3.96    0.35
 -10   8   6    3.55    0.24
  10  -8  -7    2.22    0.28
 -10   8   7    2.87    0.21
  10  -8  -8    4.00    0.31
 -10   8   8    4.39    0.27
 -11   9   1    7.48    0.38
 -11   9   2    4.19    0.26
 -11   9   3    5.80    0.31
 -11   9   4    0.48    0.12
 -11   9   5    3.57    0.24
 -11   9   6    0.35    0.12
 -10  14   6   11.11    0.53
 -10  14   5    3.33    0.30
 -10  14   5    3.33    0.26
 -10  14   4    5.11    0.30
 -10  14   4    4.66    0.36
 -10  14   3    1.02    0.19
 -10  14   3    0.65    0.16
 -10  14   2    2.93    0.28
 -10  14   2    2.39    0.23
 -10  14   1    3.27    0.25
 -10  14   0    2.56    0.28
  -9  13   8    2.12    0.29
  -9  13   8    2.05    0.26
   9 -13  -8    2.51    0.24
  -9  13   7    2.08    0.22
  -9  13   7    2.09    0.23
   9 -13  -7    1.81    0.23
  -9  13   6    1.57    0.49
  -9  13   6    1.34    0.22
  -9  13   6    1.94    0.20
   9 -13  -6    1.42    0.24
  -9  13   5    2.99    0.59
  -9  13   5    3.24    0.23
  -9  13   5    3.26    0.25
   9 -13  -5    3.34    0.31
  -9  13   4    1.40    0.18
  -9  13   4    1.26    0.20
  -9  13   4    1.55    0.48
  -9  13   3    3.96    0.27
  -9  13   3    4.34    0.59
  -9  13   3    4.27    0.27
  -9  13   2   22.41    0.99
  -9  13   2   24.25    0.99
  -9  13   2   24.91    1.24
  -9  13   1    0.09    0.11
  -9  13   1    0.02    0.37
  -9  13   1    0.10    0.12
  -9  13   0    6.35    0.34
  -9  13   0    6.60    0.67
  -9  13   0    6.41    0.35
  -9  13  -1    0.10    0.13
  -9  13  -1    0.19    0.46
  -9  13  -1    0.22    0.10
   9 -13   1    0.16    0.18
  -9  13  -2    2.87    0.30
  -9  13  -2    2.16    0.20
   9 -13   2    2.20    0.28
  -8  12   9    2.08    0.24
  -8  12   9    2.40    0.25
   8 -12  -9    2.16    0.21
  -8  12   8    0.12    0.13
  -8  12   8    0.40    0.45
  -8  12   8    0.27    0.13
   8 -12  -8    0.50    0.18
  -8  12   7    2.85    0.23
  -8  12   7    2.67    0.51
  -8  12   7    3.06    0.23
   8 -12  -7    2.99    0.26
  -8  12   6   25.69    1.06
  -8  12   6   24.93    1.05
  -8  12   6   25.20    1.27
   8 -12  -6   25.86    1.11
  -8  12   5    9.91    0.46
  -8  12   5    9.85    0.47
  -8  12   5    9.77    0.70
   8 -12  -5    9.55    0.51
  -8  12   4   26.81    1.31
  -8  12   4   26.50    1.10
  -8  12   4   26.22    1.10
   8 -12  -4   27.17    1.14
  -8  12   3    0.98    0.33
  -8  12   3    1.00    0.18
  -8  12   3    1.01    0.17
   8 -12  -3    1.30    0.27
  -8  12   2   20.74    0.85
  -8  12   2   21.00    0.85
  -8  12   2   19.79    1.06
   8 -12  -2   18.69    0.90
  -8  12   1    0.90    0.32
  -8  12   1    1.03    0.17
  -8  12   1    0.92    0.17
   8 -12  -1    0.91    0.23
  -8  12   0    2.79    0.49
  -8  12   0    2.32    0.21
   8 -12   0    2.52    0.26
  -8  12  -1    1.81    0.20
   8 -12   1    1.90    0.23
  -8  12  -2    3.12    0.24
  -8  12  -2    3.28    0.54
   8 -12   2    3.27    0.27
  -8  12  -3    0.94    0.44
  -8  12  -3    0.99    0.19
   8 -12   3    0.94    0.20
   8 -12   4    6.67    0.37
  -7  11  10    2.24    0.24
  -7  11  10    2.07    0.22
   7 -11 -10    1.65    0.22
  -7  11   9    0.46    0.17
  -7  11   9    0.33    0.49
   7 -11  -9    0.50    0.17
  -7  11   8    1.03    0.17
  -7  11   8    0.45    0.33
  -7  11   8    0.70    0.16
   7 -11  -8    0.74    0.17
  -7  11   7    0.40    0.26
  -7  11   7    0.66    0.16
  -7  11   7    0.79    0.16
   7 -11  -7    0.57    0.18
  -7  11   6   23.26    0.98
  -7  11   6   22.90    1.17
  -7  11   6   24.06    0.98
   7 -11  -6   24.07    1.04
  -7  11   5   30.67    1.50
  -7  11   5   34.67    1.33
  -7  11   5   33.26    1.33
   7 -11  -5   32.17    1.38
  -7  11   4    6.45    0.34
  -7  11   4    6.28    0.33
  -7  11   4    5.88    0.53
   7 -11  -4    7.14    0.39
  -7  11   3   68.93    2.67
  -7  11   3   64.24    2.83
  -7  11   3   69.88    2.67
   7 -11  -3   68.75    2.71
  -7  11   2    0.22    0.24
  -7  11   2    0.38    0.10
  -7  11   2    0.72    0.15
   7 -11  -2    0.37    0.16
   7 -11  -2    0.43    0.17
  -7  11   1    9.02    0.63
  -7  11   1    9.44    0.43
   7 -11  -1    8.92    0.47
  -7  11   0   19.63    0.81
  -7  11   0   18.30    1.00
   7 -11   0   19.23    0.85
  -7  11  -1    5.64    0.54
  -7  11  -1    5.71    0.32
   7 -11   1    6.66    0.37
  -7  11  -2    4.06    0.27
   7 -11   2    4.84    0.32
  -7  11  -3    2.96    0.23
   7 -11   3    3.02    0.26
  -7  11  -4    4.18    0.27
   7 -11   4    4.33    0.30
  -7  11  -5    1.89    0.20
   7 -11   5    1.30    0.20
  -6  10  10   13.04    0.58
  -6  10  10   12.46    0.57
   6 -10 -10   12.72    0.57
   6 -10 -10   13.70    0.62
  -6  10   9    9.85    0.76
  -6  10   9   10.70    0.51
  -6  10   9   10.75    0.50
   6 -10  -9   11.38    0.55
   6 -10  -9   11.60    0.50
  -6  10   8    6.06    0.32
  -6  10   8    5.79    0.56
  -6  10   8    6.00    0.32
   6 -10  -8    5.28    0.32
   6 -10  -8    5.73    0.36
  -6  10   7    6.79    0.35
  -6  10   7    6.59    0.54
  -6  10   7    6.45    0.34
   6 -10  -7    6.38    0.39
   6 -10  -7    6.43    0.35
  -6  10   6    9.07    0.64
  -6  10   6   10.17    0.47
  -6  10   6   10.09    0.47
   6 -10  -6   10.69    0.52
   6 -10  -6   10.50    0.47
  -6  10   5   12.77    0.73
  -6  10   5   13.73    0.57
  -6  10   5   13.21    0.57
   6 -10  -5   12.13    0.61
  -6  10   4   16.00    0.73
  -6  10   4   16.88    0.74
   6 -10  -4   19.54    0.79
  -6  10   3   15.69    0.68
  -6  10   3   15.97    0.83
  -6  10   3   15.86    0.68
   6 -10  -3   16.97    0.72
   6 -10  -3   16.06    0.72
  -6  10   2   11.11    0.64
  -6  10   2   10.76    0.48
   6 -10  -2   10.67    0.52
   6 -10  -2   11.02    0.53
  -6  10   1   53.37    2.16
  -6  10   1   56.27    2.31
   6 -10  -1   55.11    2.19
   6 -10  -1   54.59    2.20
  -6  10   0   82.74    3.27
   6 -10   0   84.85    3.31
  -6  10  -1   36.11    1.38
   6 -10   1   32.43    1.41
   6 -10   1   33.47    1.38
   6 -10   2   10.57    0.49
   6 -10   2   10.12    0.52
   6 -10   3   18.98    0.86
   6 -10   3   19.25    0.82
   6 -10   4    4.74    0.28
   6 -10   4    4.61    0.31
   6 -10   5    0.13    0.12
   6 -10   5    0.16    0.10
  -6  10  -6    0.99    0.18
   6 -10   6    1.45    0.21
   6 -10   6    1.53    0.17
  -5   9  11   11.18    0.54
   5  -9 -11   11.89    0.51
  -5   9  10   11.26    0.57
  -5   9  10   10.80    0.83
  -5   9  10   10.82    0.51
   5  -9 -10   10.54    0.59
   5  -9 -10   11.15    0.49
  -5   9   9    2.00    0.20
  -5   9   9    2.71    0.67
  -5   9   9    2.05    0.19
  -5   9   9    1.74    0.25
   5  -9  -9    2.02    0.18
   5  -9  -9    2.30    0.25
  -5   9   8    3.81    0.48
  -5   9   8    4.04    0.26
  -5   9   8    3.84    0.26
  -5   9   8    3.65    0.29
   5  -9  -8    4.51    0.31
  -5   9   7   18.01    0.75
  -5   9   7   17.05    0.75
  -5   9   7   16.11    0.92
  -5   9   7   18.22    0.75
   5  -9  -7   17.79    0.81
  -5   9   6   14.85    0.65
  -5   9   6   14.46    0.81
  -5   9   6   15.62    0.66
   5  -9  -6   16.26    0.71
  -5   9   5    1.02    0.14
  -5   9   5    1.51    0.29
  -5   9   5    1.03    0.13
   5  -9  -5    1.52    0.17
  -5   9   4   14.98    0.73
  -5   9   4   14.19    0.59
  -5   9   4   13.85    0.59
   5  -9  -4   12.67    0.62
  -5   9   3    1.55    0.27
  -5   9   3    1.75    0.14
  -5   9   3    1.58    0.15
   5  -9  -3    2.29    0.22
  -5   9   2   23.02    0.99
  -5   9   2   23.71    1.11
   5  -9  -2   25.99    1.03
   5  -9  -2   25.73    1.02
  -5   9   1    5.73    0.34
  -5   9   1    6.23    0.42
   5  -9  -1    6.60    0.35
   5  -9  -1    6.84    0.36
  -5   9   0   10.69    0.52
   5  -9   0   12.73    0.53
   5  -9   0   12.77    0.55
   5  -9   1   13.35    0.61
   5  -9   1   13.62    0.58
   5  -9   2   13.03    0.61
   5  -9   2   13.40    0.58
   5  -9   3   42.78    1.69
   5  -9   3   43.09    1.66
   5  -9   3   37.53    1.82
   5  -9   4   11.65    0.66
   5  -9   4   10.03    0.69
   5  -9   5    7.60    0.61
   5  -9   5    7.49    0.42
   5  -9   6    3.64    0.51
   5  -9   6    3.48    0.24
   5  -9   6    3.65    0.27
   5  -9   7    3.96    0.29
   5  -9   7    3.89    0.24
  -4   8  11    2.67    0.22
  -4   8  11    2.61    0.22
   4  -8 -11    2.81    0.20
  -4   8  10    6.69    0.65
  -4   8  10    6.91    0.34
  -4   8  10    6.29    0.35
  -4   8  10    6.43    0.34
   4  -8 -10    6.34    0.33
   4  -8 -10    5.88    0.63
  -4   8   9    3.36    0.49
  -4   8   9    3.58    0.24
  -4   8   9    3.51    0.24
  -4   8   9    3.45    0.23
   4  -8  -9    2.98    0.29
  -4   8   8    6.44    0.33
  -4   8   8    6.01    0.32
  -4   8   8    5.16    0.51
  -4   8   7    0.18    0.19
  -4   8   7    0.21    0.09
  -4   8   7    0.47    0.13
  -4   8   7    0.47    0.11
   4  -8  -7    0.84    0.17
  -4   8   6   11.22    0.50
  -4   8   6   10.66    0.49
  -4   8   6   11.24    0.64
  -4   8   6   11.07    0.49
  -4   8   6    9.80    1.22
   4  -8  -6   12.36    0.55
  -4   8   5   55.79    2.35
  -4   8   5   55.59    2.23
  -4   8   5   57.43    2.23
  -4   8   5   56.64    2.78
  -4   8   5   57.30    2.23
   4  -8  -5   59.04    2.27
  -4   8   4    7.58    0.41
  -4   8   4    8.24    0.36
  -4   8   4    8.56    0.73
  -4   8   4    8.72    0.43
   4  -8  -4    7.13    0.39
  -4   8   3   63.19    2.59
  -4   8   3   59.85    2.41
  -4   8   3   58.59    2.32
  -4   8   3   60.08    2.32
   4  -8  -3   56.40    2.35
  -4   8   2    1.09    0.20
  -4   8   2    0.94    0.12
   4  -8  -2    1.45    0.16
   4  -8  -2    1.30    0.32
   4  -8  -2    1.49    0.16
  -4   8   1    0.97    0.12
  -4   8   1    1.44    0.22
   4  -8  -1    1.14    0.15
   4  -8  -1    1.06    0.15
   4  -8   0   75.02    2.84
   4  -8   0   74.75    2.86
   4  -8   0   69.07    2.85
   4  -8   1    5.26    0.28
   4  -8   1    5.69    0.37
   4  -8   1    5.03    0.27
   4  -8   2   12.93    0.58
   4  -8   2   12.82    0.68
   4  -8   2   12.91    0.55
   4  -8   3   22.73    0.93
   4  -8   3   22.67    0.94
   4  -8   3   22.33    0.96
   4  -8   3   23.35    1.09
   4  -8   4    0.59    0.13
   4  -8   4    0.61    0.15
   4  -8   4    0.61    0.24
   4  -8   4    0.53    0.12
   4  -8   5   15.48    0.68
   4  -8   5   12.75    0.81
   4  -8   5   14.62    0.64
   4  -8   5   14.55    0.64
   4  -8   6    3.16    0.26
   4  -8   6    2.71    0.21
   4  -8   6    2.56    0.43
   4  -8   6    2.88    0.22
   4  -8   7    0.37    0.34
   4  -8   7    0.37    0.10
   4  -8   7    0.32    0.15
   4  -8   8    0.75    0.24
   4  -8   8    0.58    0.15
  -3   7  11    8.99    0.41
  -3   7  11    8.83    0.41
   3  -7 -11    7.95    0.40
  -3   7  10    0.93    0.15
  -3   7  10    0.81    0.35
  -3   7  10    0.73    0.16
  -3   7  10    0.77    0.17
   3  -7 -10    0.68    0.14
  -3   7   9   26.98    1.10
  -3   7   9   26.24    1.31
  -3   7   9   26.55    1.11
  -3   7   9   27.14    1.11
   3  -7  -9   26.21    1.16
  -3   7   8   14.55    0.62
  -3   7   8   14.27    0.62
  -3   7   8   14.62    0.63
  -3   7   8   12.45    0.79
   3  -7  -8   13.83    0.66
  -3   7   7   50.23    1.96
  -3   7   7   50.41    1.95
  -3   7   7   51.09    1.96
  -3   7   7   45.89    2.10
   3  -7  -7   48.57    1.99
  -3   7   6    4.90    0.25
  -3   7   6    4.48    0.38
  -3   7   6    3.86    0.80
  -3   7   6    4.24    0.25
  -3   7   6    4.49    0.24
   3  -7  -6    4.52    0.28
  -3   7   5   47.77    1.87
  -3   7   5   44.75    1.89
  -3   7   5   46.53    2.35
  -3   7   5   47.88    1.98
  -3   7   5   47.63    1.87
  -3   7   5   48.34    1.87
   3  -7  -5   50.28    1.91
  -3   7   4   15.87    0.65
  -3   7   4   15.57    0.66
  -3   7   4   14.89    0.68
  -3   7   4   16.52    0.99
  -3   7   4   15.69    0.66
  -3   7   4   16.40    0.75
   3  -7  -4   16.69    0.69
  -3   7   3   63.00    2.50
  -3   7   3   63.61    2.50
  -3   7   3   65.32    2.58
  -3   7   3   68.97    2.77
   3  -7  -3   62.89    2.84
   3  -7  -3   62.85    2.52
  -3   7   2   92.12    4.05
  -3   7   2  105.57    3.95
   3  -7  -2  103.85    3.98
   3  -7  -2  108.50    4.15
  -3   7   1  192.29    7.45
   3  -7   0   16.75    0.67
   3  -7   0   16.18    0.69
   3  -7   1   66.70    2.59
   3  -7   1   64.62    2.61
   3  -7   1   68.90    2.68
   3  -7   2    9.88    0.45
   3  -7   2   10.22    0.53
   3  -7   2    9.84    0.43
   3  -7   2    9.65    0.43
   3  -7   3   12.75    0.67
   3  -7   3   12.65    0.57
   3  -7   4    1.52    0.15
   3  -7   4    1.45    0.28
   3  -7   4    1.22    0.16
   3  -7   4    1.44    0.14
   3  -7   5    1.41    0.18
   3  -7   5    1.00    0.15
   3  -7   5    1.15    0.14
   3  -7   5    1.02    0.29
   3  -7   6    2.20    0.22
   3  -7   6    2.15    0.20
   3  -7   6    2.27    0.23
   3  -7   6    1.74    0.38
   3  -7   7    4.11    0.49
   3  -7   7    4.09    0.25
   3  -7   7    3.85    0.30
   3  -7   7    3.83    0.25
   3  -7   8    1.17    0.16
   3  -7   8    1.24    0.24
   3  -7   8    1.02    0.16
   3  -7   8    1.46    0.50
   3  -7   9    4.07    0.25
  -2   6  11    1.53    0.18
  -2   6  11    1.52    0.18
   2  -6 -11    1.54    0.18
  -2   6  10    7.44    0.38
  -2   6  10    7.41    0.38
  -2   6  10    7.12    0.65
  -2   6  10    7.85    0.38
   2  -6 -10    8.17    0.38
  -2   6   9    8.63    0.45
  -2   6   9    9.31    0.46
  -2   6   9    9.39    0.68
  -2   6   9    9.49    0.45
   2  -6  -9   10.49    0.45
  -2   6   8    5.48    0.51
  -2   6   8    6.08    0.32
  -2   6   8    5.87    0.33
  -2   6   8    6.59    0.33
   2  -6  -8    6.15    0.40
  -2   6   7   13.73    0.78
  -2   6   7   15.35    0.64
  -2   6   7   14.99    0.63
  -2   6   7   15.45    0.64
   2  -6  -7   13.92    0.67
  -2   6   6   17.48    0.77
  -2   6   6   16.80    1.34
  -2   6   6   18.36    0.88
  -2   6   6   17.94    0.75
  -2   6   6   18.10    0.74
  -2   6   6   18.49    0.74
   2  -6  -6   17.56    0.77
  -2   6   5   49.12    1.93
  -2   6   5   49.41    1.91
  -2   6   5   48.19    1.91
  -2   6   5   49.35    2.39
  -2   6   5   51.74    2.03
  -2   6   5   50.29    1.91
   2  -6  -5   42.97    1.93
  -2   6   4    4.97    0.24
  -2   6   4    4.59    0.27
  -2   6   4    5.06    0.24
  -2   6   4    4.89    0.32
  -2   6   4    5.05    0.24
  -2   6   4    4.92    0.50
   2  -6  -4    5.01    0.27
  -2   6   3   57.08    2.31
  -2   6   3   63.00    2.59
   2  -6  -3   58.02    2.34
   2  -6  -3   60.85    2.65
  -2   6   2   83.38    3.27
  -2   6   2   77.18    3.14
   2  -6  -2   79.91    3.29
  -2   6   1  121.42    4.86
  -2   6   1  122.21    4.82
   2  -6  -1  128.70    4.87
   2  -6   1  132.28    5.15
   2  -6   2  117.67    4.58
   2  -6   2  122.30    4.65
   2  -6   2  119.85    4.57
   2  -6   2  114.24    4.57
  -2   6  -3   18.37    1.12
   2  -6   3   18.17    0.77
   2  -6   3   19.01    0.85
   2  -6   3   17.51    0.75
   2  -6   3   18.09    0.75
   2  -6   3   19.17    0.75
   2  -6   4   14.63    0.72
   2  -6   4   14.12    0.59
   2  -6   4   13.50    0.61
   2  -6   4   14.21    0.60
   2  -6   4   13.90    0.59
   2  -6   5    0.17    0.10
   2  -6   5    0.30    0.08
   2  -6   5    0.26    0.18
   2  -6   5    0.37    0.09
   2  -6   5    0.33    0.09
   2  -6   6   14.67    0.66
   2  -6   6   13.43    0.79
   2  -6   6   14.40    0.63
   2  -6   6   14.80    0.63
   2  -6   6   14.41    0.63
   2  -6   7    7.33    0.41
   2  -6   7    7.37    0.37
   2  -6   7    7.19    0.58
   2  -6   7    7.47    0.38
   2  -6   8    9.45    0.45
   2  -6   8    9.63    0.46
   2  -6   8    9.44    0.50
   2  -6   9    3.00    0.63
   2  -6   9    3.28    0.25
   2  -6   9    3.39    0.23
  -1   5  11    0.83    0.17
  -1   5  11    0.97    0.18
  -1   5  10    1.72    0.18
  -1   5  10    1.92    0.47
  -1   5  10    1.75    0.18
   1  -5 -10    2.01    0.18
  -1   5   9    7.47    0.61
  -1   5   9    7.45    0.37
  -1   5   9    7.29    0.37
  -1   5   9    6.95    0.37
   1  -5  -9    6.91    0.37
  -1   5   8   12.33    0.54
  -1   5   8   10.79    0.72
  -1   5   8   11.24    0.58
  -1   5   8   11.93    0.55
  -1   5   8   11.84    0.54
  -1   5   7   24.47    1.01
  -1   5   7   25.29    1.01
  -1   5   7   22.90    1.16
  -1   5   7   24.88    1.01
  -1   5   7   24.66    1.04
   1  -5  -7   24.71    1.05
  -1   5   6    0.28    0.17
  -1   5   6    0.08    0.41
  -1   5   6    0.20    0.07
  -1   5   6    0.31    0.11
  -1   5   6    0.43    0.11
   1  -5  -6    0.19    0.13
  -1   5   5    5.24    0.29
  -1   5   5    5.31    0.63
  -1   5   5    5.76    0.26
  -1   5   5    5.36    0.26
  -1   5   5    5.37    0.27
  -1   5   5    5.51    0.37
  -1   5   4   11.97    0.52
  -1   5   4   12.59    0.53
  -1   5   4   12.59    0.83
  -1   5   4   12.00    0.54
  -1   5   4   13.41    0.62
  -1   5   4   12.80    0.52
   1  -5  -4   12.85    0.55
  -1   5   3  198.50    7.77
  -1   5   3  209.31    8.01
   1  -5  -3  195.26    8.04
  -1   5   2   90.43    3.45
  -1   5   2   80.76    3.30
   1  -5  -2   82.29    3.45
  -1   5   1  169.33    6.28
  -1   5   1  161.20    6.35
   1  -5  -1  157.71    6.36
  -1   5   0  382.20   14.83
   1  -5   0  376.14   14.82
  -1   5  -1  295.11   11.57
  -1   5  -1  300.90   11.62
   1  -5   1  287.53   11.33
  -1   5  -2   19.94    0.93
   1  -5   2   18.92    0.83
  -1   5  -3    5.79    0.59
   1  -5   3    7.60    0.32
   1  -5   3    6.85    0.42
   1  -5   3    7.18    0.31
   1  -5   3    7.50    0.33
   1  -5   4    5.81    0.28
   1  -5   4    5.70    0.37
   1  -5   4    5.94    0.30
   1  -5   4    5.89    0.28
   1  -5   4    5.42    0.28
   1  -5   4    6.11    0.28
   1  -5   5   40.52    1.59
   1  -5   5   40.58    1.62
   1  -5   5   41.05    1.72
   1  -5   5   40.13    1.60
   1  -5   5   40.51    1.60
   1  -5   5   39.03    1.59
   1  -5   6    9.29    0.43
   1  -5   6    9.32    0.42
   1  -5   6    9.12    0.45
   1  -5   6    8.78    0.42
   1  -5   6    9.78    0.59
   1  -5   6    8.77    0.42
   1  -5   7   29.00    1.17
   1  -5   7   28.56    1.20
   1  -5   7   26.41    1.34
   1  -5   7   29.55    1.17
   1  -5   7   28.93    1.17
   1  -5   8   13.32    0.83
   1  -5   8   13.13    0.60
   1  -5   8   13.86    0.65
   1  -5   8   13.48    0.60
   1  -5   8   12.96    0.59
   1  -5   9   13.43    0.60
   1  -5   9   13.19    0.59
   1  -5   9   13.48    0.88
   1  -5  10    6.19    0.33
   1  -5  10    5.89    0.31
   0   4  10    2.61    0.56
   0  -4 -10    3.85    0.26
   0   4   9    8.99    0.43
   0   4   9    8.93    0.65
   0   4   9    8.60    0.46
   0  -4  -9    8.24    0.42
   0   4   8    4.66    0.40
   0   4   8    6.08    0.52
   0   4   8    5.09    0.29
   0   4   8    5.32    0.29
   0   4   8    5.28    0.29
   0  -4  -8    4.83    0.29
   0   4   7   11.77    0.53
   0   4   7   11.64    0.52
   0   4   7   11.90    0.52
   0   4   7   10.74    0.68
   0   4   7   11.82    0.56
   0   4   6   10.30    0.45
   0   4   6    9.45    0.44
   0   4   6    9.90    0.47
   0   4   6   10.25    0.58
   0   4   6    9.91    0.44
   0   4   6    9.73    1.06
   0   4   5   62.30    2.91
   0   4   5   62.27    2.44
   0   4   5   61.46    2.42
   0   4   5   60.74    2.42
   0   4   5   64.72    2.53
   0  -4  -5   60.11    2.43
   0   4   4   35.09    1.69
   0   4   4   33.03    1.33
   0   4   4   33.93    1.35
   0   4   4   31.68    1.32
   0   4   4   35.70    1.41
   0   4   4   32.53    1.32
   0   4   3   12.97    0.59
   0   4   3   12.24    0.75
   0  -4  -3   13.20    0.85
   0   4   2  988.95   38.04
   0   4   2 1000.00   39.02
   0  -4  -2  976.85   39.07
   0  -4  -1   61.10    2.50
   0   4   0   17.67    0.78
   0  -4   0   17.45    0.78
   0   4  -1   60.66    2.44
   0   4  -2  917.63   36.28
   0  -4   2  925.96   35.43
   0   4  -3   13.76    0.81
   0  -4   3   13.50    0.74
   0  -4   3   12.19    0.59
   0  -4   4   31.64    1.33
   0  -4   4   35.55    1.64
   0  -4   4   32.79    1.32
   0  -4   4   34.31    1.40
   0  -4   4   33.17    1.32
   0  -4   4   33.20    1.32
   0  -4   4   33.74    1.32
   0  -4   5   62.79    2.40
   0  -4   5   57.83    2.43
   0  -4   5   60.70    2.42
   0  -4   5   61.24    2.40
   0  -4   5   63.68    2.40
   0  -4   5   61.19    2.50
   0  -4   5   63.21    2.40
   0  -4   6    9.83    0.44
   0  -4   6   10.13    0.44
   0  -4   6    9.62    0.58
   0  -4   6    9.98    0.44
   0  -4   6    9.45    0.43
   0  -4   6    9.77    0.47
   0  -4   7   11.20    0.55
   0  -4   7   10.87    0.67
   0  -4   7   11.42    0.51
   0  -4   7   11.31    0.50
   0  -4   7   11.48    0.51
   0  -4   7   10.94    0.51
   0  -4   8    5.07    0.30
   0  -4   8    4.99    0.51
   0  -4   8    5.26    0.29
   0  -4   8    5.50    0.30
   0  -4   9    8.83    0.44
   0  -4   9    9.40    0.44
   0  -4   9    8.84    0.43
   0  -4   9    9.02    0.93
   0  -4  10    3.77    0.31
   0  -4  10    2.92    0.24
   1   3  10    3.63    0.23
   1   3  10    3.76    0.24
   1   3   9   11.47    0.52
   1   3   9   11.72    0.76
   1   3   9   11.33    0.57
   1   3   9   11.63    0.52
  -1  -3  -9   10.86    0.52
   1   3   8    9.82    0.67
   1   3   8    9.53    0.50
   1   3   8    9.62    0.46
   1   3   8    9.14    0.46
  -1  -3  -8   10.02    0.46
   1   3   7    2.52    0.19
   1   3   7    2.29    0.18
   1   3   7    2.74    0.19
   1   3   7    2.34    0.22
   1   3   7    2.52    0.36
  -1  -3  -7    1.99    0.18
   1   3   6   33.01    1.32
   1   3   6   33.41    1.47
   1   3   6   33.37    1.32
   1   3   6   29.73    2.03
   1   3   6   32.80    1.32
   1   3   6   33.75    1.35
   1   3   5   20.65    1.35
   1   3   5   20.92    0.86
   1   3   5   21.43    0.89
   1   3   5   21.77    0.99
   1   3   5   21.26    0.87
   1   3   4   49.29    1.98
   1   3   4   53.48    2.39
   1   3   4   49.64    1.98
   1   3   4   50.74    2.07
   1   3   4   50.19    2.00
   1   3   4   50.99    1.98
   1   3   3   96.58    3.89
   1   3   3   91.81    3.58
   1   3   3   89.92    3.58
   1   3   3   90.43    3.60
   1   3   3  100.89    3.66
   1   3   3   91.97    3.58
  -1  -3  -3   88.15    3.97
   1   3   2   21.14    0.95
   1   3   2   23.24    1.11
  -1  -3  -2   24.73    1.15
   1   3   1  300.35   11.47
  -1  -3  -1  258.75   10.85
   1   3   0   35.26    1.48
  -1  -3   0   35.40    1.48
   1   3  -1  126.32    4.97
   1   3  -2  147.17    5.83
   1   3  -3  103.84    4.11
  -1  -3   3   94.80    3.86
  -1  -3   4   26.47    1.32
  -1  -3   4   26.60    1.13
  -1  -3   4   25.87    1.02
  -1  -3   4   24.24    1.02
  -1  -3   4   26.97    1.09
  -1  -3   4   23.68    1.02
  -1  -3   4   26.06    1.02
  -1  -3   5    2.99    0.25
  -1  -3   5    3.43    0.25
  -1  -3   5    3.63    0.20
  -1  -3   5    3.59    0.19
  -1  -3   5    3.63    0.20
  -1  -3   5    3.17    0.28
  -1  -3   5    3.53    0.19
  -1  -3   5    3.68    0.52
  -1  -3   6    2.98    0.26
  -1  -3   6    3.05    0.19
  -1  -3   6    2.99    0.19
  -1  -3   6    2.98    0.31
  -1  -3   6    3.01    0.19
  -1  -3   6    2.83    0.18
  -1  -3   7    1.96    0.17
  -1  -3   7    2.22    0.34
  -1  -3   7    1.94    0.17
  -1  -3   7    2.01    0.16
  -1  -3   7    1.98    0.17
  -1  -3   8    0.59    0.14
  -1  -3   8    0.36    0.11
  -1  -3   8    0.49    0.26
  -1  -3   8    0.62    0.14
  -1  -3   8    0.63    0.14
  -1  -3   9    3.27    0.23
  -1  -3   9    3.18    0.23
  -1  -3   9    3.68    0.51
  -1  -3   9    3.09    0.22
  -1  -3  10   10.55    0.49
  -1  -3  10   10.06    0.48
  -1  -3  10   10.58    0.48
  -1  -3  10   10.47    0.87
  -1  -3  11    2.78    0.21
   2   2  10    1.55    0.18
   2   2  10    1.68    0.17
  -2  -2 -10    1.22    0.18
   2   2   9    1.07    0.37
   2   2   9    0.53    0.15
   2   2   9    0.57    0.14
   2   2   9    0.89    0.27
   2   2   8    5.92    0.33
   2   2   8    5.70    0.55
   2   2   8    6.14    0.37
   2   2   8    6.03    0.33
  -2  -2  -8    6.02    0.36
   2   2   7    7.41    0.40
   2   2   7    7.10    0.56
   2   2   7    7.90    0.41
   2   2   7    7.71    0.42
  -2  -2  -7    8.14    0.38
   2   2   6    2.32    0.17
   2   2   6    2.02    0.17
   2   2   6    1.96    0.33
   2   2   6    2.07    0.17
   2   2   6    2.05    0.20
  -2  -2  -6    2.53    0.19
   2   2   5   13.21    0.57
   2   2   5   13.31    0.60
   2   2   5   13.61    0.58
   2   2   5   12.78    1.15
   2   2   5   13.55    0.57
   2   2   5   13.75    0.71
  -2  -2  -5   12.91    0.56
   2   2   4   45.78    1.83
   2   2   4   45.54    1.91
   2   2   4   45.99    1.80
   2   2   4   47.75    2.24
   2   2   4   44.37    1.80
   2   2   4   46.17    1.81
   2   2   3    4.31    0.22
   2   2   3    4.84    0.46
   2   2   3    4.08    0.22
   2   2   3    4.03    0.21
   2   2   3    4.58    0.30
   2   2   3    4.23    0.23
   2   2   2   11.14    0.52
   2   2   2   11.97    0.68
  -2  -2  -2   10.10    0.71
   2   2   1   10.87    0.51
   2   2   1   12.22    0.62
  -2  -2  -1   10.95    0.63
  -2  -2   0   24.33    1.16
   2   2  -1    2.78    0.26
   2   2  -2   53.02    2.25
   2   2  -3  192.72    7.71
  -2  -2   3  193.55    7.45
  -2  -2   4  165.52    6.60
  -2  -2   4  171.14    6.63
  -2  -2   4  174.71    6.60
  -2  -2   4  177.31    6.66
  -2  -2   4  169.78    6.60
  -2  -2   5   96.53    3.66
  -2  -2   5   94.81    3.66
  -2  -2   5   91.66    3.66
  -2  -2   5   96.99    3.74
  -2  -2   5   94.20    3.69
  -2  -2   5   93.63    3.66
  -2  -2   6   88.12    3.40
  -2  -2   6   88.88    3.40
  -2  -2   6   90.37    3.51
  -2  -2   6   82.14    3.42
  -2  -2   6   88.07    3.40
  -2  -2   7   25.05    1.05
  -2  -2   7   25.73    1.05
  -2  -2   7   26.01    1.05
  -2  -2   7   26.88    1.20
  -2  -2   7   25.27    1.05
  -2  -2   8   18.06    0.77
  -2  -2   8   17.89    0.77
  -2  -2   8   17.88    0.76
  -2  -2   8   16.82    0.94
  -2  -2   8   18.70    0.77
  -2  -2   9    0.58    0.14
  -2  -2   9    0.36    0.10
  -2  -2   9    0.52    0.30
  -2  -2   9    0.66    0.17
  -2  -2  10    8.35    0.41
  -2  -2  10    8.42    0.41
  -2  -2  10    8.48    0.42
  -2  -2  10    8.50    0.82
   2   2 -11    0.23    0.13
  -2  -2  11    0.42    0.11
  -2  -2  11    0.47    0.14
   3   1   9   10.12    0.47
   3   1   9    9.99    0.52
   3   1   9   10.37    0.47
  -3  -1  -9   10.06    0.47
   3   1   8    0.77    0.14
   3   1   8    0.93    0.15
   3   1   8    1.05    0.36
   3   1   8    0.64    0.19
   3   1   7    9.29    0.46
   3   1   7   10.02    0.50
   3   1   7    8.90    0.67
   3   1   7    9.96    0.46
   3   1   6    8.15    0.40
   3   1   6    7.85    0.40
   3   1   6    8.42    0.43
   3   1   6    8.02    0.58
   3   1   5   24.08    1.11
   3   1   5   20.98    1.71
   3   1   5   23.03    0.95
   3   1   5   23.01    0.95
   3   1   5   23.84    0.98
  -3  -1  -5   21.92    0.93
   3   1   4   50.47    2.05
   3   1   4   49.53    1.92
   3   1   4   50.44    1.94
   3   1   4   49.93    1.91
  -3  -1  -4   41.98    1.89
   3   1   3    2.71    0.46
   3   1   3    2.79    0.27
   3   1   3    2.76    0.17
   3   1   3    2.65    0.18
   3   1   3    2.84    0.17
  -3  -1  -3    2.89    0.19
   3   1   2   37.30    1.50
   3   1   2   38.42    1.58
   3   1   2   36.64    1.50
   3   1   2   41.54    1.77
   3   1   2   37.06    1.52
  -3  -1  -2   38.40    1.86
   3   1   1   14.63    0.66
   3   1   1   14.68    0.76
  -3  -1  -1   14.98    0.82
   3   1   0  104.98    4.00
   3   1   0  101.06    3.89
  -3  -1   0   93.49    4.02
   3   1  -1   27.72    1.25
   3   1  -2    4.70    0.42
   3   1  -2    4.86    0.40
  -3  -1   2    6.11    0.29
   3   1  -3    8.60    0.66
  -3  -1   3    9.08    0.43
  -3  -1   4   55.08    2.01
  -3  -1   4   49.15    1.97
  -3  -1   4   48.90    1.94
  -3  -1   4   48.14    1.94
  -3  -1   4   47.54    1.94
  -3  -1   5   44.82    1.79
  -3  -1   5   46.20    1.79
  -3  -1   5   46.31    1.83
  -3  -1   5   45.56    1.80
  -3  -1   5   45.23    1.80
  -3  -1   5   46.73    1.88
  -3  -1   6   64.92    2.61
  -3  -1   6   67.48    2.61
  -3  -1   6   68.13    2.71
  -3  -1   6   65.34    2.61
  -3  -1   6   68.21    2.61
  -3  -1   7   33.44    1.45
  -3  -1   7   31.20    1.30
  -3  -1   7   32.21    1.31
  -3  -1   7   31.41    1.30
  -3  -1   7   33.98    1.31
  -3  -1   8   10.96    0.51
  -3  -1   8   11.41    0.50
  -3  -1   8   11.32    0.51
  -3  -1   8   10.49    0.70
  -3  -1   8   10.88    0.51
   3   1  -9   18.89    0.85
  -3  -1   9   18.31    0.79
  -3  -1   9   18.00    1.00
  -3  -1   9   18.79    0.78
  -3  -1   9   17.06    0.78
  -3  -1  10    6.16    0.33
  -3  -1  10    6.14    0.32
  -3  -1  10    5.71    0.73
  -3  -1  10    6.16    0.35
  -3  -1  11    0.45    0.11
  -3  -1  11    0.29    0.10
   4   0   9   -0.04    0.12
   4   0   8    4.67    0.28
   4   0   8    5.10    0.59
   4   0   8    4.92    0.28
   4   0   8    4.65    0.33
  -4   0  -8    4.63    0.30
   4   0   7    0.25    0.12
   4   0   7    0.22    0.31
   4   0   7   -0.06    0.09
   4   0   7    0.03    0.09
  -4   0  -7    0.00    0.10
   4   0   6    1.71    0.20
   4   0   6    1.75    0.17
   4   0   6    1.69    0.17
   4   0   6    1.33    0.38
   4   0   5    0.08    0.10
   4   0   5   -0.06    0.07
   4   0   5   -0.05    0.21
   4   0   5    0.04    0.08
   4   0   4   42.43    1.78
   4   0   4   40.27    1.62
   4   0   4   39.28    1.65
   4   0   4   40.43    1.62
   4   0   3    0.01    0.06
   4   0   3    0.13    0.17
   4   0   3    0.12    0.09
   4   0   3    0.03    0.06
   4   0   3    0.14    0.36
   4   0   2   61.10    2.44
   4   0   2   62.28    2.53
   4   0   2   62.17    2.43
   4   0   2   64.09    2.69
   4   0   2   61.09    2.43
   4   0   1    0.14    0.07
   4   0   1    0.07    0.07
   4   0   1    0.07    0.05
   4   0   1    0.09    0.13
   4   0   1   -0.09    0.17
  -4   0  -1    0.14    0.32
  -4   0  -1    0.08    0.07
   4   0   0    4.43    0.36
   4   0   0    4.04    0.29
  -4   0   0    4.90    0.23
  -4   0   0    4.88    0.43
   4   0  -1    0.05    0.13
  -4   0   1    0.00    0.05
   4   0  -2  101.51    3.87
   4   0  -2   93.38    3.84
  -4   0   2   91.22    3.64
  -4   0   2   86.82    3.60
   4   0  -3    0.18    0.31
   4   0  -3    0.02    0.17
  -4   0   3    0.07    0.13
  -4   0   3   -0.08    0.08
  -4   0   3    0.09    0.05
  -4   0   3    0.12    0.07
  -4   0   4  109.26    4.14
  -4   0   4  103.29    4.10
  -4   0   4  107.46    4.16
  -4   0   4  103.19    4.10
  -4   0   4  108.44    4.10
  -4   0   4  105.94    4.10
  -4   0   5   -0.03    0.16
  -4   0   5    0.05    0.06
  -4   0   5    0.03    0.06
  -4   0   5    0.09    0.05
  -4   0   5    0.01    0.08
  -4   0   6   13.63    0.58
  -4   0   6   13.58    0.70
  -4   0   6   13.52    0.58
  -4   0   6   14.01    0.58
  -4   0   6   13.28    0.59
  -4   0   7   -0.07    0.07
  -4   0   7    0.00    0.07
  -4   0   7   -0.09    0.24
  -4   0   7    0.26    0.10
  -4   0   8   13.39    0.60
  -4   0   8   13.70    0.60
  -4   0   8   13.89    0.60
  -4   0   8   12.57    0.78
  -4   0   8   14.34    0.61
   4   0  -9    0.01    0.13
  -4   0   9   -0.05    0.34
  -4   0   9    0.06    0.12
  -4   0   9   -0.01    0.08
  -4   0   9    0.01    0.08
  -4   0   9   -0.14    0.08
   4   0 -10    5.89    0.41
  -4   0  10    6.06    0.32
  -4   0  10    6.19    0.35
  -4   0  10    6.11    1.19
  -4   0  10    6.37    0.33
  -4   0  11    0.07    0.08
  -4   0  11    0.09    0.10
   5  -1   8    6.26    0.32
   5  -1   8    6.52    0.37
   5  -1   7    0.91    0.17
   5  -1   7    0.98    0.36
   5  -1   7    0.78    0.15
  -5   1  -7    1.09    0.20
   5  -1   6   40.28    1.86
   5  -1   6   40.24    1.68
   5  -1   6   40.06    1.64
  -5   1  -6   42.18    1.64
   5  -1   5   14.52    0.87
   5  -1   5   14.96    0.67
   5  -1   5   15.18    0.70
   5  -1   5   15.39    0.67
   5  -1   4   36.14    1.47
   5  -1   4   35.95    1.47
   5  -1   4   34.68    1.64
   5  -1   4   36.53    1.50
  -5   1  -4   37.50    1.46
   5  -1   3    0.40    0.11
   5  -1   3    0.32    0.20
   5  -1   3    0.11    0.09
   5  -1   3    0.09    0.07
  -5   1  -3    0.22    0.10
   5  -1   2    1.28    0.15
   5  -1   2    1.30    0.14
   5  -1   2    1.23    0.27
   5  -1   1    3.25    0.31
   5  -1   1    3.41    0.22
   5  -1   1    3.42    0.20
  -5   1  -1    3.81    0.21
   5  -1   0   46.83    1.91
   5  -1   0   43.70    1.76
   5  -1   0   43.93    1.78
   5  -1   0   44.73    1.86
  -5   1   0   45.30    1.76
   5  -1  -1   17.79    0.96
   5  -1  -1   17.85    0.75
   5  -1  -1   19.56    0.94
   5  -1  -1   16.66    0.77
  -5   1   1   19.94    0.75
  -5   1   1   18.95    0.75
   5  -1  -2  218.24    8.41
   5  -1  -2  210.91    8.44
  -5   1   2  206.13    8.16
  -5   1   2  214.31    8.16
   5  -1  -3   49.11    2.15
  -5   1   3   45.16    1.78
  -5   1   3   43.07    1.77
  -5   1   3   43.10    1.77
  -5   1   3   46.51    1.84
  -5   1   3   45.16    1.78
   5  -1  -4   76.97    3.35
  -5   1   4   73.60    2.86
  -5   1   4   73.34    2.86
  -5   1   4   74.79    2.94
  -5   1   4   70.58    2.85
  -5   1   4   72.71    2.86
  -5   1   5    3.20    0.19
  -5   1   5    3.13    0.19
  -5   1   5    3.14    0.33
  -5   1   5    3.05    0.20
  -5   1   6    5.63    0.29
  -5   1   6    5.59    0.29
  -5   1   6    5.57    0.45
  -5   1   6    5.79    0.29
  -5   1   6    5.67    0.28
  -5   1   7    3.22    0.20
  -5   1   7    3.17    0.23
  -5   1   7    3.09    0.21
  -5   1   7    3.12    0.42
  -5   1   7    3.12    0.21
  -5   1   8   13.77    0.60
  -5   1   8   12.41    0.79
  -5   1   8   13.49    0.60
  -5   1   8   13.79    0.59
  -5   1   8   13.60    0.60
   5  -1  -9   16.89    0.78
  -5   1   9   16.94    0.72
  -5   1   9   16.49    0.98
  -5   1   9   16.41    0.72
  -5   1   9   16.61    0.72
  -5   1   9   16.27    0.71
   5  -1 -10    0.18    0.15
  -5   1  10   -0.05    0.08
  -5   1  10    0.18    0.10
  -5   1  10   -0.16    0.29
  -5   1  11    1.23    0.16
  -5   1  11    1.22    0.17
   6  -2   7    1.40    0.17
   6  -2   7    1.70    0.21
   6  -2   6    8.99    0.43
   6  -2   6    8.93    0.70
   6  -2   6    9.24    0.47
  -6   2  -6    8.72    0.45
   6  -2   5    4.98    0.30
   6  -2   5    5.36    0.34
   6  -2   5    4.89    0.55
  -6   2  -5    5.78    0.32
   6  -2   4   26.52    1.11
   6  -2   4   26.40    1.07
   6  -2   4   25.15    1.27
  -6   2  -4   24.74    1.12
   6  -2   3    5.62    0.33
   6  -2   3    5.46    0.31
   6  -2   3    5.22    0.48
  -6   2  -3    5.90    0.32
   6  -2   2   15.40    0.67
   6  -2   2   16.06    0.83
   6  -2   2   15.13    0.69
  -6   2  -2   15.07    0.66
   6  -2   1    9.72    0.43
   6  -2   1    9.56    0.45
   6  -2   1   10.09    0.58
  -6   2  -1    7.89    0.42
   6  -2   0    3.45    0.21
   6  -2   0    3.02    0.25
  -6   2   0    3.95    0.23
   6  -2  -1    5.26    0.30
  -6   2   1    4.51    0.26
  -6   2   1    4.83    0.25
   6  -2  -2   19.16    0.91
  -6   2   2   21.90    0.88
  -6   2   2   22.59    0.99
  -6   2   2   23.09    0.89
  -6   2   3    5.94    0.41
  -6   2   3    5.83    0.29
  -6   2   3    5.77    0.28
  -6   2   3    5.74    0.29
   6  -2  -4   33.59    2.05
  -6   2   4   38.76    1.55
  -6   2   4   43.36    1.67
  -6   2   4   39.65    1.56
  -6   2   4   39.71    1.55
  -6   2   4   39.99    1.56
   6  -2  -5   14.46    1.42
  -6   2   5   17.79    0.73
  -6   2   5   18.49    0.85
  -6   2   5   17.70    0.72
  -6   2   5   17.58    0.72
  -6   2   5   17.87    0.73
   6  -2  -6    3.12    1.38
  -6   2   6    1.99    0.18
  -6   2   6    1.74    0.36
  -6   2   6    2.25    0.17
  -6   2   6    2.03    0.17
  -6   2   6    2.08    0.21
  -6   2   7   22.11    0.91
  -6   2   7   23.03    0.91
  -6   2   7   21.99    0.91
  -6   2   7   21.68    0.92
  -6   2   7   20.66    1.08
   6  -2  -8    4.07    0.30
  -6   2   8    4.41    0.57
  -6   2   8    4.10    0.26
  -6   2   8    4.65    0.30
   6  -2  -9    0.23    0.13
  -6   2   9    0.08    0.09
  -6   2   9   -0.16    0.15
  -6   2   9    0.09    0.10
  -6   2  10    1.09    0.17
  -6   2  10    1.11    0.16
   6  -2 -11    0.00    0.17
  -6   2  11    0.08    0.13
  -6   2  11    0.04    0.10
   7  -3   6    2.98    0.24
   7  -3   6    2.86    0.23
  -7   3  -6    3.06    0.21
   7  -3   5    5.04    0.32
   7  -3   5    5.22    0.30
   7  -3   4    6.74    0.38
   7  -3   4    6.69    0.35
  -7   3  -4    5.68    0.38
   7  -3   3   17.98    0.80
   7  -3   3   18.15    0.84
  -7   3  -3   20.06    0.82
   7  -3   2   27.24    1.10
   7  -3   2   26.31    1.13
  -7   3  -2   25.98    1.10
   7  -3   1    3.87    0.26
   7  -3   1    3.56    0.23
  -7   3  -1    2.83    0.21
  -7   3  -1    2.79    0.24
   7  -3   0    2.39    0.23
   7  -3   0    2.43    0.20
  -7   3   0    2.64    0.19
  -7   3   0    2.72    0.22
   7  -3  -1    9.64    0.50
  -7   3   1   10.49    0.62
  -7   3   1    9.98    0.46
  -7   3   1   10.48    0.46
  -7   3   2    1.59    0.14
  -7   3   2    1.39    0.19
  -7   3   2    1.47    0.33
   7  -3  -3    2.04    0.24
  -7   3   3    2.75    0.38
  -7   3   3    2.25    0.20
  -7   3   3    2.37    0.17
  -7   3   3    2.00    0.20
   7  -3  -4    2.27    0.23
  -7   3   4    1.96    0.19
  -7   3   4    1.68    0.39
  -7   3   4    1.77    0.16
  -7   3   4    1.89    0.19
   7  -3  -5   19.25    0.92
  -7   3   5   22.05    0.89
  -7   3   5   21.68    0.88
  -7   3   5   21.30    0.88
  -7   3   5   21.99    1.04
   7  -3  -6   22.37    0.90
  -7   3   6   18.11    1.02
  -7   3   6   19.39    0.84
  -7   3   6   20.54    0.84
  -7   3   6   19.74    0.83
  -7   3   6   19.44    0.84
   7  -3  -7   41.37    1.75
  -7   3   7   43.85    1.68
  -7   3   7   41.97    1.65
  -7   3   7   37.54    1.82
  -7   3   7   41.66    1.66
  -7   3   7   41.98    1.66
   7  -3  -8    4.36    0.34
  -7   3   8    5.76    0.31
  -7   3   8    5.07    0.37
  -7   3   8    5.44    0.30
   7  -3  -9   21.37    0.92
  -7   3   9   19.91    0.86
  -7   3   9   19.53    0.86
   7  -3 -10    4.31    0.30
  -7   3  10    4.15    0.26
  -7   3  10    4.11    0.28
   7  -3 -11    0.14    0.12
   7  -3 -11    0.15    0.16
  -7   3  11    0.26    0.10
   8  -4   5    1.79    0.22
  -8   4  -5    1.80    0.18
   8  -4   4    6.01    0.36
  -8   4  -4    5.37    0.31
   8  -4   3    5.39    0.31
   8  -4   3    5.49    0.35
  -8   4  -3    4.74    0.29
   8  -4   2    7.37    0.40
   8  -4   2    7.48    0.43
  -8   4  -2    8.15    0.40
   8  -4   1   37.37    1.51
  -8   4  -1   34.78    1.47
   8  -4   0   41.06    1.62
  -8   4   0   37.23    1.76
  -8   4   0   39.53    1.59
   8  -4  -1   19.19    0.94
  -8   4   1   23.14    0.91
  -8   4   1   22.32    1.11
  -8   4   2   18.89    0.79
  -8   4   2   17.82    0.97
  -8   4   2   19.00    0.79
  -8   4   3   21.96    1.11
  -8   4   3   22.88    0.94
  -8   4   3   22.79    0.94
   8  -4  -4   16.07    0.72
  -8   4   4   15.05    0.68
  -8   4   4   14.47    0.87
  -8   4   4   16.19    0.68
  -8   4   4   16.40    0.68
  -8   4   5    6.12    0.35
  -8   4   5    6.64    0.35
  -8   4   5    5.68    0.59
  -8   4   5    6.58    0.34
   8  -4  -6   39.11    1.64
  -8   4   6   41.68    1.58
  -8   4   6   38.08    1.78
  -8   4   6   38.42    1.59
   8  -4  -7    7.86    0.45
  -8   4   7    8.58    0.43
  -8   4   7    8.23    0.41
   8  -4  -8    1.24    0.21
  -8   4   8    1.31    0.16
  -8   4   8    1.65    0.24
   8  -4  -9    0.09    0.12
  -8   4   9    0.07    0.18
  -8   4   9    0.04    0.08
   8  -4 -10    0.81    0.22
   8  -4 -10    1.06    0.19
  -8   4  10    0.96    0.16
  -9   5  -4    2.37    0.20
   9  -5   3    3.22    0.30
  -9   5  -3    3.06    0.22
   9  -5   2    6.23    0.39
  -9   5  -2    5.84    0.32
  -9   5  -2    5.11    0.86
   9  -5   1    2.30    0.30
  -9   5  -1    2.49    0.71
  -9   5  -1    2.65    0.21
   9  -5   0    1.08    0.32
  -9   5   0    1.29    0.17
  -9   5   0    1.01    0.45
  -9   5   1   18.64    0.80
  -9   5   1   18.78    1.06
  -9   5   2   21.18    0.89
  -9   5   2   21.35    1.13
  -9   5   2   21.19    0.90
  -9   5   3    6.16    0.67
  -9   5   3    5.36    0.31
  -9   5   3    5.78    0.34
  -9   5   4    6.36    0.65
  -9   5   4    6.41    0.35
  -9   5   4    6.77    0.37
  -9   5   5    0.68    0.15
   9  -5  -6    0.93    0.23
  -9   5   6    0.83    0.16
   9  -5  -7   14.99    0.71
  -9   5   7   14.77    0.66
   9  -5  -8    0.16    0.13
  -9   5   8    0.26    0.10
   9  -5  -9   10.24    0.51
  -9   5   9   10.09    0.47
   9  -5 -10    2.50    0.24
  -9   5  10    2.43    0.21
 -10   6  -2    2.76    0.22
 -10   6  -1    9.59    0.52
 -10   6  -1   10.63    0.47
 -10   6   0    0.17    0.09
 -10   6   0    0.41    0.18
 -10   6   1    9.26    0.52
 -10   6   1   10.12    0.46
 -10   6   2    8.26    0.42
 -10   6   2    8.96    0.50
 -10   6   3   11.12    0.51
 -10   6   5   12.54    0.57
  10  -6  -6    3.88    0.43
 -10   6   6    3.73    0.25
  10  -6  -7    4.52    0.34
 -10   6   7    4.97    0.28
  10  -6  -8    0.93    0.22
 -10   6   8    0.99    0.16
  10  -6  -9    8.50    0.45
 -10   6   9    8.99    0.41
 -11   7   0    1.97    0.21
 -11   7   1    7.31    0.36
 -11   7   2    0.07    0.10
 -11   7   3    2.17    0.19
 -11   7   4    3.79    0.25
 -11   7   5    3.55    0.24
 -11   7   6   11.03    0.50
 -11   7   7    7.81    0.39
 -10  16   5    3.84    0.27
 -10  16   4    3.68    0.26
 -10  16   3    6.13    0.33
 -10  16   2    0.00    0.12
   9 -15  -8    0.58    0.19
  -9  15   7    7.41    0.37
   9 -15  -7    7.05    0.40
  -9  15   6    4.14    0.26
  -9  15   6    4.37    0.76
   9 -15  -6    3.37    0.30
  -9  15   5    4.08    0.25
  -9  15   5    3.36    0.59
  -9  15   5    3.40    0.31
   9 -15  -5    3.80    0.33
  -9  15   4    0.73    0.22
  -9  15   4    0.89    0.41
  -9  15   4    0.69    0.16
  -9  15   3    2.98    0.57
  -9  15   3    2.75    0.22
  -9  15   3    2.66    0.28
  -9  15   2   13.96    0.90
  -9  15   2   14.12    0.62
  -9  15   1    0.32    0.40
  -9  15   1    0.06    0.10
  -9  15   1   -0.14    0.16
  -9  15   0    6.92    0.72
  -9  15   0    7.63    0.37
   9 -15   0    7.15    0.45
  -9  15  -1    2.30    0.20
   9 -15   1    2.05    0.29
  -9  15  -2    1.91    0.20
  -8  14   9    2.15    0.25
   8 -14  -9    2.22    0.23
  -8  14   8   17.03    0.73
  -8  14   8   16.46    0.75
   8 -14  -8   17.67    0.77
  -8  14   7    2.89    0.54
  -8  14   7    3.24    0.23
  -8  14   7    2.88    0.27
   8 -14  -7    3.04    0.25
  -8  14   6   14.48    0.65
  -8  14   6   14.70    0.89
  -8  14   6   14.30    0.64
   8 -14  -6   14.45    0.68
  -8  14   5    2.15    0.23
  -8  14   5    2.12    0.19
  -8  14   5    1.83    0.46
   8 -14  -5    1.81    0.24
  -8  14   4    2.24    0.20
  -8  14   4    2.30    0.47
  -8  14   4    2.06    0.23
   8 -14  -4    2.72    0.27
  -8  14   3   31.09    1.47
  -8  14   3   30.64    1.25
  -8  14   3   31.15    1.26
   8 -14  -3   29.85    1.30
  -8  14   2    8.23    0.41
  -8  14   2    8.58    0.65
  -8  14   2    8.04    0.41
  -8  14   1   10.67    0.50
  -8  14   1   10.71    0.74
  -8  14   1   10.80    0.50
   8 -14  -1   10.35    0.55
  -8  14   0    1.57    0.21
   8 -14   0    1.47    0.22
  -8  14  -1    0.30    0.37
  -8  14  -1    0.06    0.13
   8 -14   1    0.28    0.14
  -8  14  -2    1.06    0.21
  -8  14  -2    0.95    0.38
   8 -14   2    0.77    0.20
  -8  14  -3    1.78    0.31
   8 -14   3    1.59    0.21
   7 -13 -10    2.31    0.26
  -7  13   9    1.29    0.18
  -7  13   9    1.29    0.26
   7 -13  -9    1.24    0.19
  -7  13   8    7.10    0.65
  -7  13   8    7.60    0.38
  -7  13   8    8.19    0.40
   7 -13  -8    7.59    0.43
  -7  13   7    1.60    0.41
  -7  13   7    1.98    0.19
  -7  13   7    1.91    0.22
   7 -13  -7    2.02    0.23
  -7  13   6   19.16    0.79
  -7  13   6   19.05    0.79
  -7  13   6   18.43    1.01
   7 -13  -6   17.44    0.84
  -7  13   5    3.68    0.46
  -7  13   5    3.35    0.23
  -7  13   5    3.56    0.25
   7 -13  -5    3.47    0.28
  -7  13   4   11.99    0.74
  -7  13   4   12.63    0.55
   7 -13  -4   10.84    0.64
  -7  13   3    4.39    0.48
  -7  13   3    4.73    0.28
  -7  13   3    5.13    0.30
   7 -13  -3    5.11    0.34
  -7  13   2   52.27    2.09
  -7  13   2   54.55    2.10
  -7  13   2   49.30    2.27
   7 -13  -2   53.21    2.13
   7 -13  -2   54.01    2.13
  -7  13   1    2.61    0.41
  -7  13   1    3.06    0.23
   7 -13  -1    3.13    0.26
  -7  13   0    6.42    0.57
  -7  13   0    5.66    0.39
   7 -13   0    7.12    0.38
  -7  13  -1    2.23    0.22
  -7  13  -1    2.09    0.43
   7 -13   1    2.19    0.23
  -7  13  -2    8.65    0.66
  -7  13  -2    8.71    0.43
   7 -13   2    8.27    0.46
  -7  13  -3    0.09    0.12
  -7  13  -3    0.34    0.35
   7 -13   3    0.02    0.12
  -7  13  -4    8.89    0.44
  -7  13  -4    8.81    0.75
   7 -13   4    8.70    0.54
   7 -13   5    1.14    0.19
  -6  12  10    7.88    0.42
  -6  12  10    8.00    0.38
   6 -12 -10    7.22    0.39
   6 -12 -10    7.83    0.43
  -6  12   9    0.14    0.11
  -6  12   9    0.36    0.13
  -6  12   9    0.02    0.38
   6 -12  -9    0.21    0.13
   6 -12  -9    0.47    0.21
  -6  12   8   11.02    0.51
  -6  12   8   11.27    0.52
  -6  12   8   11.38    0.74
   6 -12  -8   10.55    0.50
   6 -12  -8   10.78    0.55
  -6  12   7    7.92    0.62
  -6  12   7    8.78    0.42
  -6  12   7    8.70    0.41
   6 -12  -7    8.13    0.46
   6 -12  -7    8.43    0.41
  -6  12   6    8.51    0.41
  -6  12   6    8.52    0.41
  -6  12   6    7.60    0.59
   6 -12  -6    7.38    0.49
  -6  12   5    5.75    0.30
  -6  12   5    5.44    0.30
  -6  12   5    4.77    0.47
   6 -12  -5    5.32    0.34
  -6  12   4    4.35    0.44
  -6  12   4    4.66    0.28
  -6  12   4    4.70    0.27
   6 -12  -4    5.72    0.32
  -6  12   3    3.27    0.21
  -6  12   3    3.38    0.38
  -6  12   3    3.23    0.23
   6 -12  -3    3.59    0.26
  -6  12   2   19.09    0.86
  -6  12   2   18.87    1.02
  -6  12   2   20.42    0.86
   6 -12  -2   23.08    0.91
   6 -12  -2   22.35    0.91
  -6  12   1   15.24    0.64
  -6  12   1   14.33    0.80
   6 -12  -1   15.15    0.67
   6 -12  -1   14.28    0.68
  -6  12   0   40.71    1.85
  -6  12   0   43.31    1.69
   6 -12   0   42.86    1.73
  -6  12  -1    5.38    0.29
   6 -12   1    4.83    0.32
  -6  12  -2   26.02    1.08
  -6  12  -3    0.08    0.11
   6 -12   3    0.04    0.10
   6 -12   3    0.12    0.12
  -6  12  -4    6.20    0.33
   6 -12   4    5.58    0.36
   6 -12   4    5.59    0.32
  -6  12  -5    1.18    0.20
   6 -12   5    1.42    0.17
   6 -12   5    1.28    0.20
  -6  12  -6    3.14    0.29
   6 -12   6    4.55    0.29
  -5  11  10   15.74    0.69
  -5  11  10   16.96    0.69
  -5  11  10   14.87    1.12
   5 -11 -10   15.51    0.68
   5 -11 -10   16.09    0.74
  -5  11   9    5.94    0.32
  -5  11   9    5.81    0.33
  -5  11   9    6.02    0.59
   5 -11  -9    6.04    0.32
   5 -11  -9    6.08    0.37
  -5  11   8    0.92    0.30
  -5  11   8    1.06    0.16
  -5  11   8    1.09    0.18
   5 -11  -8    0.83    0.16
   5 -11  -8    0.96    0.19
  -5  11   7    8.52    0.40
  -5  11   7    7.24    0.58
   5 -11  -7    8.25    0.39
   5 -11  -7    7.37    0.51
  -5  11   6    0.49    0.23
  -5  11   6    0.93    0.14
  -5  11   6    0.81    0.13
   5 -11  -6    0.74    0.17
   5 -11  -6    0.68    0.16
  -5  11   5    2.25    0.42
  -5  11   5    2.51    0.18
  -5  11   5    2.62    0.20
   5 -11  -5    3.24    0.24
   5 -11  -5    2.82    0.22
  -5  11   4    0.48    0.21
  -5  11   4    0.71    0.14
  -5  11   4    0.75    0.12
  -5  11   3   16.02    0.78
  -5  11   3   14.90    0.64
  -5  11   3   15.65    0.64
   5 -11  -3   14.51    0.67
  -5  11   2   20.26    0.82
  -5  11   2   20.45    0.82
  -5  11   2   22.04    0.97
   5 -11  -2   18.53    0.85
   5 -11  -2   18.65    0.85
  -5  11   1   23.48    1.07
  -5  11   1   22.31    0.94
   5 -11  -1   23.49    0.98
   5 -11  -1   22.99    0.97
  -5  11   0   33.41    1.29
   5 -11   0   31.25    1.32
   5 -11   0   31.78    1.33
  -5  11  -1    1.59    0.17
   5 -11   1    1.87    0.18
   5 -11   1    1.95    0.16
   5 -11   2    1.74    0.19
   5 -11   2    1.71    0.16
   5 -11   3   21.22    0.94
   5 -11   3   21.45    0.90
   5 -11   4    1.02    0.15
   5 -11   4    0.95    0.18
   5 -11   5    0.53    0.14
   5 -11   5    0.59    0.17
   5 -11   6    0.95    0.16
   5 -11   6    1.17    0.20
   5 -11   7    1.18    0.17
   5 -11   7    1.38    0.22
  -4  10  11    0.28    0.12
   4 -10 -11    0.09    0.10
  -4  10  10    1.55    0.18
  -4  10  10    1.27    0.22
  -4  10  10    1.22    0.42
   4 -10 -10    1.71    0.16
  -4  10   9    6.30    0.35
  -4  10   9    6.06    0.34
  -4  10   9    6.41    0.82
  -4  10   9    6.27    0.32
   4 -10  -9    5.65    0.38
   4 -10  -9    5.98    0.32
  -4  10   8    2.82    0.21
  -4  10   8    2.58    0.42
  -4  10   8    2.99    0.24
  -4  10   8    3.29    0.23
   4 -10  -8    2.35    0.19
   4 -10  -8    2.66    0.26
  -4  10   7    3.64    0.22
  -4  10   7    3.21    0.38
  -4  10   7    3.43    0.25
  -4  10   7    3.41    0.23
   4 -10  -7    2.91    0.26
  -4  10   6    9.68    1.44
  -4  10   6    9.95    0.62
  -4  10   6   10.41    0.46
  -4  10   6   10.53    0.47
  -4  10   6   10.87    0.47
   4 -10  -6    9.51    0.50
  -4  10   5    3.28    0.21
  -4  10   5    3.04    0.19
  -4  10   5    2.62    0.80
  -4  10   5    3.00    0.32
  -4  10   5    2.74    0.29
   4 -10  -5    2.76    0.22
  -4  10   4    6.80    0.75
  -4  10   4    7.03    0.33
  -4  10   4    7.29    0.44
  -4  10   4    6.98    0.34
  -4  10   4    6.98    0.37
   4 -10  -4    6.75    0.33
   4 -10  -4    7.40    0.37
  -4  10   3   29.32    1.45
  -4  10   3   29.42    1.17
  -4  10   3   28.76    1.17
  -4  10   3   29.33    1.27
  -4  10   2   62.65    2.60
  -4  10   2   65.80    2.60
  -4  10   2   67.15    2.71
   4 -10  -2   69.39    2.64
   4 -10  -2   69.71    2.63
  -4  10   1   12.38    0.57
  -4  10   1   13.40    0.67
   4 -10  -1   14.83    0.61
   4 -10  -1   14.28    0.61
  -4  10   0   68.66    2.57
   4 -10   0   64.45    2.60
   4 -10   0   65.00    2.60
   4 -10   1    2.71    0.19
   4 -10   1    2.44    0.17
   4 -10   2    2.78    0.18
   4 -10   2    3.11    0.33
   4 -10   2    2.69    0.20
   4 -10   3   24.95    1.06
   4 -10   3   25.03    1.09
   4 -10   3   27.43    1.24
   4 -10   4    9.34    0.47
   4 -10   4    9.42    0.43
   4 -10   4    8.18    0.59
   4 -10   5    3.79    0.45
   4 -10   5    4.02    0.26
   4 -10   5    4.13    0.29
   4 -10   6    1.68    0.21
   4 -10   6    1.64    0.17
   4 -10   6    2.22    0.44
   4 -10   7    1.03    0.16
   4 -10   7    1.23    0.21
   4 -10   7    1.61    0.53
   4 -10   8    3.69    0.24
   4 -10   8    3.56    0.33
  -3   9  11    9.54    0.43
   3  -9 -11    8.57    0.41
  -3   9  10    1.16    0.38
  -3   9  10    1.18    0.17
  -3   9  10    1.18    0.18
   3  -9 -10    0.83    0.14
  -3   9   9    3.91    0.25
  -3   9   9    3.70    0.24
  -3   9   9    3.67    0.48
  -3   9   9    3.53    0.25
   3  -9  -9    3.24    0.23
   3  -9  -9    3.35    0.35
  -3   9   8    1.17    0.32
  -3   9   8    1.53    0.24
  -3   9   8    1.31    0.16
  -3   9   7   19.74    1.07
  -3   9   7   22.31    0.91
  -3   9   7   21.58    0.91
  -3   9   7   22.46    0.91
   3  -9  -7   22.90    0.96
  -3   9   6   10.72    0.46
  -3   9   6   10.89    0.47
  -3   9   6   10.00    0.50
  -3   9   6   11.32    0.63
  -3   9   6    9.89    1.22
  -3   9   6   10.27    0.46
   3  -9  -6    8.99    0.49
  -3   9   5   97.14    3.79
  -3   9   5   94.17    3.81
  -3   9   5  101.62    3.92
  -3   9   5   98.20    3.80
  -3   9   5   98.45    3.80
  -3   9   5   97.18    4.35
   3  -9  -5   98.58    3.83
  -3   9   4    8.71    0.42
  -3   9   4    8.40    0.42
  -3   9   4    9.16    0.39
  -3   9   4    8.44    0.40
  -3   9   4    9.32    0.50
  -3   9   4    9.23    0.77
   3  -9  -4    9.00    0.43
  -3   9   3    4.71    0.49
  -3   9   3    4.13    0.24
  -3   9   3    4.63    0.23
  -3   9   3    4.67    0.32
   3  -9  -3    5.79    1.00
  -3   9   2   14.71    0.62
  -3   9   2   16.32    0.81
  -3   9   2   15.17    0.71
   3  -9  -2   15.61    0.66
   3  -9  -2   15.20    0.65
   3  -9  -2   14.52    0.88
  -3   9   1   33.27    1.24
   3  -9  -1   27.51    1.18
   3  -9  -1   26.94    1.17
  -3   9   0   37.96    1.49
   3  -9   0   38.73    1.52
   3  -9   0   36.60    1.52
   3  -9   0   39.02    1.50
   3  -9   1   79.54    3.02
   3  -9   1   73.10    3.03
   3  -9   1   80.58    3.04
   3  -9   2   23.18    0.98
   3  -9   2   23.19    0.95
   3  -9   2   24.49    1.06
   3  -9   2   23.27    0.95
   3  -9   3    9.99    0.45
   3  -9   3   10.10    0.45
   3  -9   3   10.18    0.48
   3  -9   3   10.50    0.59
   3  -9   4   15.68    0.79
   3  -9   4   14.35    0.63
   3  -9   4   14.43    0.66
   3  -9   4   14.23    0.63
   3  -9   5   31.97    1.57
   3  -9   5   34.52    1.40
   3  -9   5   36.02    1.44
   3  -9   5   35.89    1.41
   3  -9   6    0.39    0.26
   3  -9   6    0.39    0.10
   3  -9   6    0.32    0.13
   3  -9   6    0.28    0.11
   3  -9   7    3.36    0.50
   3  -9   7    4.05    0.25
   3  -9   7    3.63    0.24
   3  -9   7    3.73    0.30
   3  -9   8    3.29    0.24
   3  -9   8    3.83    0.31
   3  -9   8    3.38    0.60
  -2   8  11    2.27    0.21
   2  -8 -11    3.20    0.21
  -2   8  10    7.95    0.68
  -2   8  10    8.18    0.40
  -2   8  10    7.84    0.40
   2  -8 -10    8.73    0.40
  -2   8   9    5.94    0.33
  -2   8   9    5.80    0.55
  -2   8   9    5.94    0.32
  -2   8   9    5.76    0.33
   2  -8  -9    6.61    0.33
  -2   8   8   24.96    1.26
   2  -8  -8   26.52    1.11
  -2   8   7   19.07    0.79
  -2   8   7   19.58    0.79
  -2   8   7   18.61    0.82
  -2   8   7   18.34    0.96
  -2   8   7   18.53    0.79
   2  -8  -7   18.08    0.83
  -2   8   6   12.91    0.54
  -2   8   6   12.68    0.58
  -2   8   6   11.44    1.17
  -2   8   6   12.54    0.55
  -2   8   6   12.64    0.55
  -2   8   6   13.63    0.70
   2  -8  -6   12.11    0.58
  -2   8   5    0.34    0.07
  -2   8   5    0.34    0.11
  -2   8   5    0.64    0.38
  -2   8   5    0.30    0.13
  -2   8   5    0.49    0.09
  -2   8   5    0.56    0.12
   2  -8  -5    0.65    0.14
  -2   8   4   64.38    2.56
  -2   8   4   63.61    2.54
  -2   8   4   66.40    2.94
  -2   8   4   64.24    2.54
  -2   8   4   66.47    2.63
  -2   8   4   65.46    2.54
   2  -8  -4   66.70    2.57
  -2   8   3   55.88    2.31
  -2   8   3   54.61    2.24
  -2   8   3   61.35    2.56
  -2   8   3   54.64    2.25
   2  -8  -3   61.89    2.27
  -2   8   2   27.22    1.11
  -2   8   2   24.72    1.04
  -2   8   2   29.13    1.26
   2  -8  -2   25.44    1.07
   2  -8  -2   25.49    1.29
  -2   8   1   83.23    3.17
  -2   8   1   79.77    3.31
   2  -8  -1   78.68    3.25
  -2   8   0   91.37    3.59
  -2   8  -1   36.54    1.58
  -2   8  -1   36.93    1.58
   2  -8   1   39.88    1.54
   2  -8   1   39.65    1.53
   2  -8   1   41.57    1.60
  -2   8  -2    9.26    0.71
   2  -8   2   10.60    0.52
   2  -8   2    9.76    0.43
   2  -8   2   10.38    0.45
   2  -8   2    9.91    0.43
  -2   8  -3  126.35    4.68
   2  -8   3  119.46    4.52
   2  -8   3  114.90    4.41
   2  -8   3  103.05    4.40
   2  -8   3  110.00    4.43
   2  -8   3  111.59    4.41
  -2   8  -4   11.06    0.94
   2  -8   4   11.05    0.51
   2  -8   4   11.76    0.51
   2  -8   4   11.78    0.53
   2  -8   4   12.09    0.51
   2  -8   4   12.71    0.64
   2  -8   5   23.42    1.03
   2  -8   5   24.51    1.01
   2  -8   5   25.66    1.16
   2  -8   5   24.20    1.00
   2  -8   5   24.70    1.00
   2  -8   6    6.36    0.52
   2  -8   6    6.62    0.34
   2  -8   6    6.81    0.34
   2  -8   6    6.35    0.35
   2  -8   6    6.67    0.38
   2  -8   7    4.77    0.33
   2  -8   7    4.66    0.28
   2  -8   7    4.69    0.50
   2  -8   7    4.65    0.28
   2  -8   8    7.31    0.45
   2  -8   8    8.05    0.39
   2  -8   8    8.07    0.67
   2  -8   8    8.01    0.40
   2  -8   9    2.74    0.21
   2  -8   9    2.73    0.22
  -1   7  11    4.24    0.27
  -1   7  10    2.89    0.50
  -1   7  10    3.32    0.22
   1  -7 -10    3.18    0.22
  -1   7   9    8.39    0.42
  -1   7   9    8.09    0.41
  -1   7   9    8.20    0.42
  -1   7   9    8.08    0.64
   1  -7  -9    9.74    0.42
  -1   7   8   13.79    0.83
  -1   7   8   14.37    0.63
  -1   7   8   14.37    0.64
  -1   7   8   13.81    0.65
   1  -7  -8   13.91    0.62
  -1   7   7    6.44    0.32
  -1   7   7    5.06    0.46
  -1   7   7    6.55    0.32
  -1   7   7    6.14    0.32
  -1   7   7    5.85    0.35
   1  -7  -7    5.94    0.39
  -1   7   6    1.85    0.19
  -1   7   6    2.03    0.16
  -1   7   6    1.51    0.76
  -1   7   6    1.96    0.30
  -1   7   6    1.97    0.15
  -1   7   6    1.84    0.16
   1  -7  -6    1.48    0.22
  -1   7   5   15.18    0.63
  -1   7   5   15.42    0.65
  -1   7   5   14.72    0.63
  -1   7   5   15.86    0.75
  -1   7   5   14.80    1.08
  -1   7   5   15.39    0.63
   1  -7  -5   13.84    0.65
  -1   7   4   48.88    2.24
  -1   7   4   46.14    1.83
  -1   7   4   45.10    1.84
  -1   7   4   45.98    1.83
  -1   7   4   47.51    1.82
   1  -7  -4   46.56    1.85
  -1   7   3   25.26    1.00
  -1   7   3   26.50    1.07
  -1   7   3   24.63    1.01
  -1   7   3   27.51    1.30
   1  -7  -3   22.13    1.02
  -1   7   2   14.31    0.64
  -1   7   2   15.00    0.79
   1  -7  -2   13.85    0.82
  -1   7   1  107.04    4.18
  -1   7   1  109.12    4.30
   1  -7  -1  106.60    4.32
  -1   7   0  148.89    5.86
   1  -7   0  150.02    5.87
  -1   7  -1  513.01   19.75
  -1   7  -1  496.20   19.75
   1  -7   1  503.53   19.36
  -1   7  -2   20.54    1.02
  -1   7  -2   21.36    1.01
   1  -7   2   21.00    0.90
  -1   7  -3  138.86    5.51
   1  -7   3  126.98    5.19
   1  -7   3  137.96    5.26
   1  -7   3  135.68    5.18
   1  -7   3  132.61    5.18
   1  -7   4   29.89    1.16
   1  -7   4   27.20    1.15
   1  -7   4   29.59    1.26
   1  -7   4   28.64    1.15
   1  -7   4   29.27    1.16
   1  -7   4   28.94    1.17
   1  -7   5    9.11    0.42
   1  -7   5    9.30    0.42
   1  -7   5    8.95    0.42
   1  -7   5    9.46    0.42
   1  -7   5    9.57    0.56
   1  -7   5    9.21    0.44
   1  -7   6    2.50    0.22
   1  -7   6    2.50    0.23
   1  -7   6    3.12    0.20
   1  -7   6    2.79    0.20
   1  -7   6    2.54    0.20
   1  -7   7    5.65    0.53
   1  -7   7    5.94    0.32
   1  -7   7    6.32    0.32
   1  -7   7    6.19    0.38
   1  -7   7    6.01    0.32
   1  -7   8   11.24    0.53
   1  -7   8   10.93    0.76
   1  -7   8   11.37    0.52
   1  -7   8   11.76    0.53
   1  -7   8   11.59    0.58
   1  -7   9    4.70    0.29
   1  -7   9    4.92    0.29
   1  -7   9    5.19    0.67
   1  -7  10    1.66    0.36
   1  -7  10    1.21    0.19
   0   6  10    1.50    0.18
   0   6  10    1.90    0.53
   0   6  10    1.57    0.16
   0  -6 -10    1.62    0.19
   0   6   9    4.45    0.29
   0   6   9    4.38    0.52
   0   6   9    4.68    0.28
   0  -6  -9    5.66    0.29
   0   6   8   45.14    1.82
   0   6   8   45.10    2.02
   0   6   8   45.60    1.85
   0   6   8   43.56    1.81
   0   6   8   45.04    1.82
   0  -6  -8   47.20    1.81
   0   6   7    8.81    0.45
   0   6   7    8.75    0.41
   0   6   7    8.90    0.41
   0   6   7    8.47    0.41
   0   6   7    8.02    0.57
   0   6   6    8.25    0.41
   0   6   6    8.18    0.39
   0   6   6    7.58    1.08
   0   6   6    8.94    0.54
   0   6   6    8.21    0.39
   0   6   6    8.61    0.39
   0   6   5   38.31    1.60
   0   6   5   39.07    1.49
   0   6   5   37.81    1.51
   0   6   5   36.76    1.49
   0   6   5   36.12    1.99
   0   6   5   37.23    1.49
   0  -6  -5   37.15    1.51
   0   6   4   21.41    0.91
   0   6   4   20.80    0.82
   0   6   4   20.23    1.19
   0   6   4   20.39    0.82
   0   6   4   19.75    0.82
   0   6   4   20.78    0.84
   0  -6  -4   18.62    0.84
   0   6   3  199.24    7.78
   0   6   3  183.61    7.44
   0   6   3  183.54    7.45
   0   6   3  208.66    7.52
   0   6   2  139.47    5.45
   0  -6  -2  142.07    5.70
   0   6   1  390.20   15.19
   0   6   1  375.67   14.73
   0  -6  -1  385.47   15.20
   0   6   0  100.66    3.93
   0  -6   0   96.03    3.93
   0   6  -1  426.17   16.95
   0   6  -2  134.24    5.47
   0   6  -2  138.99    5.47
   0  -6   2  137.85    5.31
   0   6  -3  196.75    7.94
   0  -6   3  200.58    7.69
   0  -6   4   19.79    0.79
   0  -6   4   19.01    0.83
   0  -6   4   19.29    0.82
   0  -6   4   20.62    0.88
   0  -6   4   20.12    0.80
   0  -6   4   19.72    0.80
   0  -6   4   19.47    0.80
   0  -6   5   35.37    1.50
   0  -6   5   36.60    1.49
   0  -6   5   37.98    1.47
   0  -6   5   38.06    1.47
   0  -6   5   37.99    1.58
   0  -6   5   36.90    1.47
   0  -6   6    7.89    0.41
   0  -6   6    8.20    0.38
   0  -6   6    8.20    0.38
   0  -6   6    8.54    0.38
   0  -6   6    8.21    0.52
   0  -6   6    8.07    0.38
   0  -6   7    8.60    0.41
   0  -6   7    7.99    0.46
   0  -6   7    9.05    0.41
   0  -6   7    8.75    0.40
   0  -6   7    7.91    0.58
   0  -6   7    7.96    0.40
   0  -6   8   43.22    1.77
   0  -6   8   44.17    1.77
   0  -6   8   44.55    1.97
   0  -6   8   44.63    1.77
   0  -6   9    4.51    0.28
   0  -6   9    5.25    0.63
   0  -6   9    4.08    0.26
   0  -6   9    4.67    0.27
   0  -6  10    0.79    0.22
   0  -6  10    1.48    0.17
   1   5  10    5.94    0.31
   1   5  10    6.01    0.32
   1   5   9   12.98    0.83
   1   5   9   13.54    0.61
   1   5   9   13.60    0.65
   1   5   9   13.49    0.60
  -1  -5  -9   14.24    0.61
   1   5   8   13.18    0.62
   1   5   8   13.75    0.63
   1   5   8   14.20    0.66
   1   5   8   13.62    0.84
  -1  -5  -8   14.76    0.62
   1   5   7   28.98    1.19
   1   5   7   26.27    1.36
   1   5   7   30.09    1.20
   1   5   7   30.32    1.23
   1   5   7   30.01    1.19
  -1  -5  -7   28.44    1.18
   1   5   6    9.14    0.42
   1   5   6    9.44    0.45
   1   5   6    9.30    0.58
   1   5   6    7.59    1.28
   1   5   6    8.89    0.42
   1   5   6    9.14    0.42
  -1  -5  -6    9.23    0.41
   1   5   5   41.74    1.65
   1   5   5   41.63    1.65
   1   5   5   41.18    1.67
   1   5   5   40.69    2.20
   1   5   5   42.39    1.78
   1   5   5   42.15    1.65
   1   5   4    5.99    0.28
   1   5   4    5.92    0.28
   1   5   4    6.06    0.62
   1   5   4    5.95    0.28
   1   5   4    6.22    0.38
   1   5   4    5.74    0.30
   1   5   3    7.29    0.33
   1   5   3    7.91    0.60
   1   5   3    7.51    0.33
   1   5   3    7.47    0.43
   1   5   3    7.34    0.35
   1   5   3    7.36    0.33
   1   5   2   20.18    0.87
   1   5   2   21.42    1.06
  -1  -5  -2   20.56    1.10
   1   5   1  310.31   12.24
  -1  -5  -1  296.15   11.84
   1   5   0  430.47   16.76
  -1  -5   0  403.50   16.27
   1   5  -1  183.64    6.77
  -1  -5   1  159.63    6.75
   1   5  -2   86.43    3.55
   1   5  -2   86.41    3.54
   1   5  -3  197.60    7.84
  -1  -5   3  194.32    7.56
  -1  -5   4   12.80    0.60
  -1  -5   4   12.16    0.53
  -1  -5   4   12.67    0.53
  -1  -5   4   14.12    0.55
  -1  -5   4   12.31    0.53
  -1  -5   4   12.74    0.56
  -1  -5   5    5.66    0.37
  -1  -5   5    5.58    0.27
  -1  -5   5    5.76    0.27
  -1  -5   5    5.46    0.27
  -1  -5   5    4.72    0.31
  -1  -5   5    5.49    0.27
  -1  -5   5    5.39    0.31
  -1  -5   6    0.21    0.08
  -1  -5   6    0.17    0.18
  -1  -5   6    0.26    0.08
  -1  -5   6    0.31    0.09
  -1  -5   6    0.27    0.08
  -1  -5   7   25.17    1.04
  -1  -5   7   24.94    1.03
  -1  -5   7   25.93    1.47
  -1  -5   7   25.18    1.04
  -1  -5   7   25.71    1.04
  -1  -5   8   11.82    0.52
  -1  -5   8   11.77    0.55
  -1  -5   8   11.41    0.53
  -1  -5   8   11.87    0.53
  -1  -5   8   10.63    0.72
  -1  -5   9    7.51    0.38
  -1  -5   9    7.00    0.68
  -1  -5   9    7.59    0.39
  -1  -5   9    7.44    0.38
  -1  -5  10    1.71    0.17
  -1  -5  10    1.89    0.18
  -1  -5  10    2.76    0.98
  -1  -5  10    1.76    0.23
  -1  -5  11    0.97    0.18
   2   4  10    0.70    0.16
   2   4  10    0.38    0.14
  -2  -4 -10    0.59    0.16
   2   4   9    4.42    0.32
   2   4   9    4.29    0.26
   2   4   9    3.88    0.58
   2   4   9    4.07    0.26
   2   4   8    1.82    0.40
   2   4   8    1.72    0.17
   2   4   8    1.43    0.22
   2   4   8    1.70    0.18
  -2  -4  -8    1.93    0.21
   2   4   7    6.48    0.54
  -2  -4  -7    6.61    0.34
   2   4   6    0.97    0.13
   2   4   6    0.83    0.24
   2   4   6    0.69    0.16
   2   4   6    1.08    0.15
  -2  -4  -6    0.51    0.14
   2   4   5    7.12    0.36
   2   4   5    7.42    0.34
   2   4   5    6.82    0.96
   2   4   5    7.31    0.49
   2   4   5    6.81    0.34
   2   4   5    7.39    0.34
  -2  -4  -5    6.54    0.33
   2   4   4    8.83    0.40
   2   4   4    8.77    0.40
   2   4   4    7.97    0.93
   2   4   4    8.85    0.50
  -2  -4  -4    9.78    0.39
   2   4   3   13.47    0.56
   2   4   3   13.44    0.57
   2   4   3   13.27    0.56
   2   4   3   13.69    0.88
   2   4   3   14.16    0.65
   2   4   3   13.56    0.58
   2   4   2    2.35    0.21
   2   4   2    1.99    0.15
   2   4   2    2.35    0.32
  -2  -4  -2    2.48    0.51
   2   4   1  189.18    7.22
   2   4   1  174.48    7.02
  -2  -4  -1  182.31    7.24
   2   4   0  171.78    6.62
  -2  -4   0  163.02    6.63
   2   4  -1  116.63    4.69
  -2  -4   1  117.10    4.70
   2   4  -2   75.68    3.15
   2   4  -3   49.13    2.23
  -2  -4   3   48.89    1.94
  -2  -4   4   10.50    0.52
  -2  -4   4   10.60    0.45
  -2  -4   4   10.73    0.45
  -2  -4   4   10.72    0.48
  -2  -4   4   10.62    0.45
  -2  -4   5   17.01    0.70
  -2  -4   5   16.85    0.69
  -2  -4   5   17.28    0.79
  -2  -4   5   17.51    0.73
  -2  -4   5   15.98    0.69
  -2  -4   5   16.96    0.70
  -2  -4   6   16.88    0.70
  -2  -4   6   17.47    0.81
  -2  -4   6   14.88    0.76
  -2  -4   6   16.78    0.70
  -2  -4   6   17.02    0.69
  -2  -4   6   16.84    0.74
  -2  -4   7   12.43    0.57
  -2  -4   7   13.27    0.57
  -2  -4   7   13.28    0.73
  -2  -4   7   12.71    0.57
  -2  -4   7   13.09    0.56
  -2  -4   8    1.06    0.17
  -2  -4   8    1.17    0.15
  -2  -4   8    1.04    0.15
  -2  -4   8    1.40    0.39
  -2  -4   8    1.15    0.16
  -2  -4   9   10.43    0.49
  -2  -4   9   10.09    0.74
  -2  -4   9   11.25    0.51
  -2  -4   9   10.71    0.50
  -2  -4  10    6.54    0.37
  -2  -4  10    6.48    0.34
  -2  -4  10    6.38    0.34
   2   4 -11    0.72    0.21
  -2  -4  11    0.76    0.15
  -2  -4  11    0.78    0.15
   3   3   9    0.55    0.15
   3   3   9    0.62    0.19
   3   3   9    0.53    0.15
  -3  -3  -9    0.64    0.16
   3   3   8    0.57    0.15
   3   3   8    0.48    0.17
   3   3   8    0.51    0.32
   3   3   8    0.84    0.15
   3   3   7    7.03    0.61
   3   3   7    7.93    0.43
   3   3   7    7.90    0.40
   3   3   7    8.04    0.40
   3   3   6    8.53    0.62
   3   3   6    9.99    0.46
   3   3   6   10.51    0.49
   3   3   6    9.56    0.45
  -3  -3  -6    8.23    0.44
   3   3   5   27.98    2.08
   3   3   5   31.98    1.28
   3   3   5   33.38    1.45
   3   3   5   32.82    1.28
   3   3   5   32.37    1.31
  -3  -3  -5   30.33    1.26
   3   3   4   24.85    1.57
   3   3   4   26.04    1.06
   3   3   4   25.81    1.06
   3   3   4   25.58    1.08
   3   3   4   27.21    1.20
  -3  -3  -4   26.98    1.05
   3   3   3   61.11    2.35
   3   3   3   64.74    2.46
   3   3   3   61.86    2.75
   3   3   3   61.67    2.37
   3   3   3   59.20    2.35
  -3  -3  -3   52.32    2.33
   3   3   2   80.70    3.14
   3   3   2   82.02    3.14
   3   3   2   89.32    3.47
   3   3   2   77.21    3.15
   3   3   2   75.66    3.26
   3   3   1   87.23    3.30
   3   3   1   88.80    3.49
  -3  -3  -1   81.62    3.53
  -3  -3  -1   78.11    3.24
   3   3   0   43.52    1.83
   3   3   0   39.25    1.66
  -3  -3   0   42.57    1.88
   3   3  -1   53.99    2.30
   3   3  -2   23.82    1.18
   3   3  -3  175.82    6.77
   3   3  -3  168.87    6.81
  -3  -3   3  159.43    6.46
  -3  -3   3  159.69    6.44
  -3  -3   3  172.65    6.47
  -3  -3   3  168.93    6.44
  -3  -3   4   11.85    0.49
  -3  -3   4   12.00    0.56
  -3  -3   4   11.82    0.49
  -3  -3   4   11.64    0.53
  -3  -3   5   64.27    2.49
  -3  -3   5   59.52    2.48
  -3  -3   5   66.43    2.57
  -3  -3   5   63.02    2.49
  -3  -3   5   65.62    2.53
  -3  -3   5   64.78    2.49
  -3  -3   6    2.74    0.18
  -3  -3   6    2.50    0.19
  -3  -3   6    2.55    0.17
  -3  -3   6    2.90    0.23
  -3  -3   6    2.77    0.17
  -3  -3   6    3.04    0.34
  -3  -3   7   27.02    1.10
  -3  -3   7   26.21    1.09
  -3  -3   7   26.58    1.10
  -3  -3   7   27.74    1.25
  -3  -3   7   27.56    1.10
  -3  -3   8   30.16    1.23
  -3  -3   8   28.67    1.40
  -3  -3   8   30.47    1.23
  -3  -3   8   30.47    1.23
  -3  -3   8   30.93    1.24
   3   3  -9   29.28    1.30
  -3  -3   9   30.68    1.26
  -3  -3   9   30.52    1.25
  -3  -3   9   32.34    1.27
  -3  -3   9   31.65    1.26
  -3  -3   9   30.56    1.47
  -3  -3  10    3.08    0.22
  -3  -3  10    3.28    0.29
  -3  -3  10    3.07    0.22
  -3  -3  11    5.65    0.30
  -3  -3  11    5.59    0.30
   4   2   8    9.36    0.75
   4   2   8   10.20    0.53
   4   2   8   10.62    0.55
   4   2   8    9.96    0.51
   4   2   7    3.52    0.72
   4   2   7    2.89    0.22
   4   2   7    2.97    0.22
   4   2   7    3.25    0.25
  -4  -2  -7    2.66    0.23
   4   2   6   27.49    1.14
   4   2   6   26.99    1.17
   4   2   6   27.48    1.14
   4   2   6   27.76    1.34
   4   2   5   18.79    0.79
   4   2   5   18.82    0.82
   4   2   5   17.82    0.97
   4   2   5   17.95    0.78
   4   2   4   18.63    0.83
   4   2   4   19.19    0.80
   4   2   4   19.78    0.96
   4   2   4   18.45    0.80
   4   2   3   10.43    0.57
   4   2   3    9.54    0.45
   4   2   3    9.66    0.43
   4   2   3    9.08    0.88
   4   2   3    9.59    0.43
   4   2   2   90.22    3.53
   4   2   2   89.43    3.43
   4   2   2   84.35    3.44
   4   2   2   86.00    3.42
   4   2   2   92.21    3.78
  -4  -2  -2   87.79    3.43
   4   2   1   10.37    0.47
   4   2   1   10.43    0.46
   4   2   1   11.33    0.70
  -4  -2  -1   10.93    0.46
  -4  -2  -1   10.34    0.94
   4   2   0   99.28    3.81
   4   2   0   91.56    3.61
  -4  -2   0   88.09    3.56
  -4  -2   0   89.27    3.86
   4   2  -1   93.91    3.65
  -4  -2   1   85.51    3.40
  -4  -2   1   84.61    3.40
   4   2  -2   32.47    1.55
   4   2  -2   35.22    1.53
  -4  -2   2   29.40    1.25
  -4  -2   2   27.96    1.21
  -4  -2   2   29.36    1.21
   4   2  -3   16.10    0.95
  -4  -2   3   15.08    0.63
  -4  -2   3   15.11    0.69
  -4  -2   3   15.60    0.63
  -4  -2   3   15.44    0.66
  -4  -2   3   15.43    0.63
   4   2  -4   22.69    1.24
  -4  -2   4   19.82    0.82
  -4  -2   4   20.18    0.85
  -4  -2   4   19.24    0.81
  -4  -2   4   19.88    0.88
  -4  -2   4   19.57    0.81
  -4  -2   5   47.84    1.90
  -4  -2   5   49.38    1.89
  -4  -2   5   44.93    1.89
  -4  -2   5   48.95    1.90
  -4  -2   5   50.51    1.98
  -4  -2   6   73.95    2.95
  -4  -2   6   73.78    2.90
  -4  -2   6   77.48    3.00
  -4  -2   6   75.47    2.90
  -4  -2   6   72.80    2.89
  -4  -2   6   72.86    2.90
  -4  -2   7    4.46    0.25
  -4  -2   7    4.56    0.27
  -4  -2   7    5.35    0.49
  -4  -2   7    4.42    0.25
  -4  -2   7    4.53    0.25
  -4  -2   8  102.08    3.92
  -4  -2   8  101.36    3.92
  -4  -2   8   99.88    3.91
  -4  -2   8  102.68    3.92
  -4  -2   8   96.40    4.07
   4   2  -9    7.89    0.43
  -4  -2   9    7.10    0.39
  -4  -2   9    7.30    0.37
  -4  -2   9    7.38    0.38
  -4  -2   9    7.37    0.70
  -4  -2   9    7.17    0.37
   4   2 -10   18.46    0.87
  -4  -2  10   19.75    0.82
  -4  -2  10   19.58    0.82
  -4  -2  11    1.48    0.16
  -4  -2  11    1.47    0.16
   5   1   8    6.40    0.33
   5   1   8    6.48    0.36
  -5  -1  -8    6.28    0.34
   5   1   7    0.92    0.19
   5   1   7    0.86    0.16
   5   1   7    0.94    0.40
  -5  -1  -7    0.91    0.18
   5   1   6   39.53    1.65
   5   1   6   39.95    1.62
   5   1   6   38.52    1.83
  -5  -1  -6   41.58    1.62
   5   1   5   14.74    0.88
   5   1   5   15.25    0.67
   5   1   5   15.63    0.67
   5   1   5   14.67    0.70
  -5  -1  -5   14.77    0.67
   5   1   4   37.66    1.50
   5   1   4   35.38    1.67
   5   1   4   36.54    1.53
   5   1   4   37.20    1.50
  -5  -1  -4   38.11    1.50
   5   1   3    0.26    0.10
   5   1   3    0.09    0.08
   5   1   3    0.20    0.08
   5   1   3    0.26    0.21
  -5  -1  -3    0.38    0.10
   5   1   2    1.34    0.14
   5   1   2    1.15    0.28
   5   1   2    1.07    0.15
   5   1   1    3.55    0.32
   5   1   1    3.17    0.20
   5   1   1    3.86    0.56
   5   1   1    3.29    0.22
  -5  -1  -1    3.54    0.20
   5   1   0   45.65    1.83
   5   1   0   46.23    2.00
   5   1   0   43.04    1.76
   5   1   0   42.08    1.74
  -5  -1   0   45.15    1.75
   5   1  -1   19.72    1.04
   5   1  -1   17.67    0.78
  -5  -1   1   19.49    0.78
  -5  -1   1   19.76    0.78
   5   1  -2  211.98    8.58
   5   1  -2  219.14    8.53
  -5  -1   2  219.61    8.26
  -5  -1   2  206.59    8.21
  -5  -1   2  210.61    8.21
   5   1  -3   47.81    2.21
  -5  -1   3   47.75    1.85
  -5  -1   3   44.60    1.80
  -5  -1   3   45.47    1.87
  -5  -1   3   45.95    1.81
  -5  -1   3   45.51    1.81
   5   1  -4   76.59    3.35
  -5  -1   4   73.69    2.89
  -5  -1   4   66.51    2.93
  -5  -1   4   73.67    2.84
  -5  -1   4   75.93    2.85
  -5  -1   4   75.01    2.85
  -5  -1   4   71.53    2.85
   5   1  -5    2.90    0.69
  -5  -1   5    3.31    0.35
  -5  -1   5    3.00    0.22
  -5  -1   5    3.10    0.19
  -5  -1   5    3.35    0.19
  -5  -1   5    3.13    0.19
   5   1  -6    4.88    1.02
  -5  -1   6    5.49    0.28
  -5  -1   6    5.66    0.33
  -5  -1   6    5.73    0.28
  -5  -1   6    5.54    0.47
  -5  -1   6    5.57    0.28
  -5  -1   7    3.21    0.20
  -5  -1   7    2.97    0.24
  -5  -1   7    3.87    0.51
  -5  -1   7    3.00    0.21
  -5  -1   7    2.94    0.20
  -5  -1   8   13.74    0.58
  -5  -1   8   12.24    0.82
  -5  -1   8   12.73    0.59
  -5  -1   8   13.44    0.59
  -5  -1   8   13.40    0.59
   5   1  -9   16.52    0.77
  -5  -1   9   17.01    0.72
  -5  -1   9   16.77    0.72
  -5  -1   9   16.16    0.71
   5   1 -10    0.02    0.15
  -5  -1  10    0.03    0.09
  -5  -1  10    0.10    0.10
  -5  -1  11    1.50    0.17
  -5  -1  11    1.22    0.16
   6   0   7    0.02    0.12
   6   0   7   -0.20    0.10
  -6   0  -7    0.09    0.15
   6   0   6    1.90    0.54
   6   0   6    1.52    0.18
   6   0   6    1.31    0.19
  -6   0  -6    1.04    0.19
   6   0   5    0.09    0.11
   6   0   5    0.08    0.29
   6   0   5   -0.01    0.10
  -6   0  -5   -0.04    0.11
   6   0   4   13.49    0.59
   6   0   4   13.01    0.80
   6   0   4   13.26    0.62
  -6   0  -4   11.54    0.59
   6   0   3   -0.03    0.10
   6   0   3   -0.10    0.22
   6   0   3    0.08    0.10
  -6   0  -3    0.15    0.10
   6   0   2   14.04    0.75
   6   0   2   13.13    0.60
   6   0   2   13.73    0.58
  -6   0  -2   11.61    0.57
   6   0   1    0.00    0.08
   6   0   1    0.01    0.10
   6   0   1   -0.11    0.19
  -6   0  -1    0.05    0.08
   6   0   0   18.81    0.80
   6   0   0   19.03    0.79
  -6   0   0   18.76    0.78
  -6   0   0   18.41    0.78
   6   0  -1   -0.12    0.14
  -6   0   1    0.05    0.06
  -6   0   1   -0.04    0.07
   6   0  -2   24.06    1.32
  -6   0   2   23.46    0.94
  -6   0   2   22.69    0.94
  -6   0   2   23.04    1.04
   6   0  -3    0.05    0.38
  -6   0   3    0.05    0.08
  -6   0   3   -0.08    0.11
  -6   0   3    0.05    0.06
  -6   0   3    0.01    0.20
  -6   0   3    0.00    0.11
  -6   0   4   32.88    1.34
  -6   0   4   33.41    1.34
  -6   0   4   33.86    1.35
  -6   0   4   34.10    1.35
  -6   0   4   34.92    1.45
   6   0  -5    0.04    0.56
  -6   0   5   -0.01    0.07
  -6   0   5   -0.14    0.25
  -6   0   5    0.03    0.06
  -6   0   5   -0.06    0.08
  -6   0   5    0.03    0.15
   6   0  -6   71.96    4.09
  -6   0   6   84.57    3.20
  -6   0   6   82.49    3.20
  -6   0   6   86.01    3.33
  -6   0   6   84.86    3.21
  -6   0   7    0.00    0.08
  -6   0   7    0.08    0.09
  -6   0   7   -0.02    0.08
  -6   0   8    5.94    0.32
   6   0  -9    0.01    0.12
  -6   0   9   -0.08    0.08
  -6   0   9    0.07    0.08
  -6   0   9   -0.07    0.09
   6   0 -10    0.54    0.20
  -6   0  10    0.43    0.11
  -6   0  10    0.40    0.11
   6   0 -11   -0.14    0.17
  -6   0  11    0.09    0.11
  -6   0  11    0.00    0.09
   7  -1   6    0.33    0.14
   7  -1   6    0.57    0.14
  -7   1  -6    0.88    0.15
   7  -1   5    1.55    0.20
   7  -1   5    1.65    0.19
  -7   1  -5    1.99    0.26
   7  -1   4   20.94    0.91
   7  -1   4   21.01    0.94
   7  -1   4   20.93    1.15
  -7   1  -4   22.49    0.91
   7  -1   3   27.97    1.40
   7  -1   3   29.15    1.19
   7  -1   3   29.62    1.23
  -7   1  -3   28.20    1.18
   7  -1   2   18.91    0.82
   7  -1   2   18.58    0.78
  -7   1  -2   16.99    0.78
   7  -1   1    7.71    0.41
   7  -1   1    7.73    0.38
  -7   1  -1    6.91    0.36
  -7   1  -1    7.35    0.38
   7  -1   0   11.78    0.53
   7  -1   0   11.59    0.49
  -7   1   0    9.35    0.48
  -7   1   0    9.99    0.48
   7  -1  -1    7.97    0.44
  -7   1   1    8.93    0.57
  -7   1   1    8.17    0.40
  -7   1   1    8.17    0.39
  -7   1   2    6.23    0.31
  -7   1   2    5.98    0.32
  -7   1   2    6.14    0.47
   7  -1  -3    8.33    0.44
  -7   1   3    8.52    0.41
  -7   1   3    8.81    0.41
  -7   1   3    8.77    0.40
  -7   1   3    8.63    0.58
  -7   1   4   43.35    1.81
  -7   1   4   41.45    1.69
  -7   1   4   42.12    1.69
  -7   1   4   42.91    1.71
  -7   1   5    0.80    0.14
  -7   1   5    0.50    0.12
  -7   1   5    0.24    0.32
  -7   1   5    0.68    0.17
  -7   1   6   31.16    1.24
  -7   1   6   29.95    1.24
  -7   1   6   30.40    1.23
   7  -1  -7   42.92    1.79
  -7   1   7   44.35    1.74
  -7   1   7   42.86    1.74
  -7   1   7   43.70    1.73
   7  -1  -8   49.24    1.96
  -7   1   8   46.95    1.89
  -7   1   8   46.90    1.91
  -7   1   8   47.52    1.90
   7  -1  -9    5.03    0.34
  -7   1   9    4.59    0.28
  -7   1   9    4.77    0.29
   7  -1 -10    4.24    0.30
  -7   1  10    3.61    0.25
  -7   1  10    3.71    0.24
   7  -1 -11    0.47    0.17
  -7   1  11    0.28    0.11
  -7   1  11    0.40    0.14
   8  -2   5    2.64    0.26
   8  -2   5    2.65    0.25
  -8   2  -5    3.05    0.21
   8  -2   4    5.64    0.35
  -8   2  -4    5.62    0.31
   8  -2   3   44.58    1.89
   8  -2   3   44.40    1.85
  -8   2  -3   44.90    1.86
  -8   2  -3   52.07    1.90
   8  -2   2   15.18    0.74
   8  -2   2   15.10    0.71
  -8   2  -2   17.40    0.72
  -8   2  -2   16.62    0.71
   8  -2   1   29.17    1.22
   8  -2   1   29.29    1.17
  -8   2  -1   26.79    1.17
   8  -2   0    4.31    0.34
  -8   2   0    4.02    0.54
  -8   2   0    3.81    0.29
  -8   2   0    4.37    0.26
  -8   2   1    0.71    0.36
  -8   2   1    0.64    0.15
  -8   2   1    0.53    0.13
  -8   2   2   45.67    1.83
  -8   2   2   45.95    1.99
  -8   2   2   46.53    1.83
  -8   2   2   46.29    1.84
  -8   2   3   19.68    0.85
  -8   2   3   19.23    0.84
  -8   2   3   21.28    0.85
   8  -2  -4   11.53    0.53
  -8   2   4    9.80    0.48
  -8   2   4    9.83    0.48
   8  -2  -5   12.66    0.62
  -8   2   5   12.52    0.57
  -8   2   5   12.65    0.57
  -8   2   6    1.58    0.20
   8  -2  -7    0.20    0.13
  -8   2   7    0.54    0.14
  -8   2   7    0.48    0.15
  -8   2   7    0.53    0.13
   8  -2  -8   14.03    0.67
  -8   2   8   13.75    0.62
  -8   2   8   13.90    0.62
   8  -2  -9    4.66    0.31
  -8   2   9    3.96    0.25
  -8   2   9    3.96    0.27
   8  -2 -10   16.69    0.73
  -8   2  10   15.31    0.69
  -8   2  10   15.61    0.68
  -9   3  -4   11.32    0.51
   9  -3   3    0.37    0.18
  -9   3  -3    0.32    0.10
   9  -3   2    6.66    0.41
  -9   3  -2    6.65    0.35
  -9   3  -2    7.26    1.15
   9  -3   1    0.70    0.20
  -9   3  -1    1.17    0.17
  -9   3  -1    1.63    0.54
  -9   3   0   21.66    0.90
  -9   3   0   20.66    1.20
  -9   3   1   11.58    0.52
  -9   3   1   10.54    0.83
  -9   3   1   11.34    0.53
  -9   3   2   18.37    0.79
  -9   3   2   17.76    0.78
  -9   3   3   15.30    0.67
  -9   3   4   12.13    0.56
   9  -3  -5   20.42    0.88
  -9   3   5   18.76    0.82
  -9   3   5   18.78    0.84
   9  -3  -6    2.50    0.27
  -9   3   6    3.34    0.23
  -9   3   6    3.44    0.29
   9  -3  -7    2.23    0.25
  -9   3   7    2.40    0.26
  -9   3   7    2.63    0.20
   9  -3  -8    3.31    0.27
  -9   3   8    3.10    0.22
   9  -3  -9    1.86    0.23
  -9   3   9    1.52    0.22
   9  -3 -10    2.39    0.24
  -9   3  10    2.34    0.20
 -10   4  -2    1.28    0.17
 -10   4  -1    6.87    0.35
 -10   4   0    0.33    0.10
 -10   4   1   16.66    0.72
 -10   4   2    2.59    0.21
 -10   4   3    1.49    0.17
 -10   4   4    9.68    0.46
 -10   4   5    7.27    0.37
  10  -4  -6    3.47    0.34
 -10   4   6    3.37    0.23
 -10   4   7    5.49    0.30
  10  -4  -8    0.75    0.23
 -10   4   8    0.65    0.15
  10  -4  -9    0.85    0.22
 -10   4   9    1.23    0.17
 -11   5   0    2.16    0.20
 -11   5   1    3.08    0.22
 -11   5   2    0.31    0.11
 -11   5   3    4.00    0.27
 -11   5   4    1.10    0.21
 -11   5   5    1.63    0.18
 -11   5   6    4.72    0.27
 -11   5   7    0.89    0.17
 -11   5   8    0.39    0.12
  -9  17   7    3.45    0.25
   9 -17  -7    3.68    0.39
  -9  17   6    1.17    0.19
   9 -17  -6    1.26    0.27
  -9  17   5   12.20    0.53
   9 -17  -5   11.07    0.60
  -9  17   4    0.13    0.11
  -9  17   4    0.07    0.44
  -9  17   2    5.18    0.68
  -9  17   2    4.70    0.28
  -9  17   1    2.85    0.22
  -9  17   0    3.48    0.23
  -9  17  -1    1.24    0.17
  -8  16   8    6.20    0.32
   8 -16  -8    6.00    0.35
  -8  16   7   11.81    0.86
  -8  16   7   13.08    0.60
   8 -16  -7   14.27    0.75
  -8  16   6    9.26    0.74
  -8  16   6   10.04    0.45
   8 -16  -6    8.95    0.49
  -8  16   5    2.54    0.19
  -8  16   5    2.66    0.51
   8 -16  -5    1.69    0.24
  -8  16   4    0.48    0.28
  -8  16   4    0.35    0.10
   8 -16  -4    0.24    0.15
  -8  16   3   33.28    1.41
  -8  16   3   30.58    1.29
  -8  16   3   31.57    1.89
  -8  16   2   26.43    1.17
  -8  16   2   30.75    1.27
  -8  16   1   12.21    0.56
  -8  16   1   13.31    0.82
   8 -16  -1   11.86    0.60
  -8  16   0    9.96    0.73
  -8  16   0   10.56    0.48
   8 -16   0    9.78    0.52
  -8  16  -1    7.19    0.36
  -8  16  -1    7.24    0.65
   8 -16   1    7.07    0.40
   8 -16   2    4.25    0.30
   8 -16   3    2.06    0.22
  -7  15   9    2.15    0.21
   7 -15  -9    2.59    0.24
  -7  15   8    1.12    0.39
  -7  15   8    1.00    0.16
   7 -15  -8    1.02    0.18
  -7  15   7   11.85    0.54
  -7  15   7   11.56    0.57
   7 -15  -7   12.58    0.60
  -7  15   6    3.02    0.49
  -7  15   6    2.93    0.27
  -7  15   6    2.91    0.22
  -7  15   5   18.10    0.78
  -7  15   5   17.17    0.98
  -7  15   5   18.63    0.79
   7 -15  -5   18.65    0.83
  -7  15   4   18.41    0.79
  -7  15   4   18.80    0.80
  -7  15   4   17.75    1.00
   7 -15  -4   18.40    0.84
  -7  15   3   19.12    0.88
  -7  15   3   20.47    0.86
  -7  15   3   19.81    1.06
   7 -15  -3   21.41    0.91
  -7  15   2   11.09    0.50
  -7  15   2   11.34    0.53
  -7  15   2   10.59    0.70
   7 -15  -2   10.08    0.56
   7 -15  -2   10.09    0.54
  -7  15   1   27.46    1.08
  -7  15   1   26.31    1.08
  -7  15   1   25.80    1.29
   7 -15  -1   24.84    1.12
  -7  15   0    5.49    0.53
  -7  15   0    6.18    0.34
   7 -15   0    5.09    0.34
  -7  15  -1    8.54    0.43
  -7  15  -1    8.67    0.66
   7 -15   1    8.16    0.45
  -7  15  -2    1.23    0.45
  -7  15  -2    0.90    0.24
   7 -15   2    0.89    0.19
  -7  15  -3    7.80    0.68
  -7  15  -3    8.97    0.55
   7 -15   3    8.03    0.43
   7 -15   4    0.72    0.18
  -6  14  10    0.85    0.17
   6 -14 -10    1.06    0.26
  -6  14   9    3.92    0.61
   6 -14  -9    4.56    0.31
  -6  14   8    6.83    0.39
  -6  14   8    6.56    0.61
  -6  14   8    7.05    0.36
   6 -14  -8    7.57    0.38
   6 -14  -8    7.17    0.41
  -6  14   7    0.31    0.13
  -6  14   7    0.18    0.24
  -6  14   7    0.15    0.09
   6 -14  -7    0.09    0.11
  -6  14   6    8.65    0.44
  -6  14   6    8.79    0.65
  -6  14   6    8.93    0.45
   6 -14  -6   10.75    0.51
  -6  14   5    2.62    0.20
  -6  14   5    2.38    0.40
  -6  14   5    2.65    0.24
   6 -14  -5    2.88    0.25
  -6  14   4   29.64    1.24
  -6  14   4   28.33    1.41
  -6  14   4   31.37    1.24
   6 -14  -4   32.03    1.29
  -6  14   3    1.09    0.20
  -6  14   3    1.08    0.35
  -6  14   3    1.21    0.15
   6 -14  -3    0.92    0.19
  -6  14   2   35.09    1.41
  -6  14   2   32.66    1.58
  -6  14   2   36.21    1.42
   6 -14  -2   35.46    1.46
   6 -14  -2   35.70    1.45
  -6  14   1   24.77    1.01
  -6  14   1   23.76    1.18
   6 -14  -1   24.55    1.06
   6 -14  -1   24.36    1.05
  -6  14   0    5.92    0.32
  -6  14   0    5.44    0.51
   6 -14   0    5.00    0.33
  -6  14  -1    3.96    0.27
  -6  14  -1    3.73    0.44
   6 -14   1    3.74    0.28
  -6  14  -2   24.99    1.05
   6 -14   2   25.62    1.10
  -6  14  -3    0.24    0.13
   6 -14   3    0.22    0.13
  -6  14  -4   14.29    0.64
   6 -14   4   14.22    0.67
  -6  14  -5    1.20    0.26
   6 -14   5    1.11    0.19
   6 -14   6    0.27    0.15
  -5  13  10    1.19    0.17
   5 -13 -10    1.17    0.30
   5 -13 -10    0.98    0.17
  -5  13   9    9.26    0.43
  -5  13   9    8.75    0.45
  -5  13   9    8.67    0.70
   5 -13  -9    9.05    0.47
   5 -13  -9    8.60    0.42
  -5  13   8    4.91    0.53
  -5  13   8    4.81    0.31
  -5  13   8    4.96    0.29
   5 -13  -8    5.22    0.29
   5 -13  -8    5.55    0.35
  -5  13   7    9.90    0.70
  -5  13   7   11.33    0.51
  -5  13   7   11.71    0.52
   5 -13  -7   11.12    0.56
   5 -13  -7   11.01    0.50
  -5  13   6    3.25    0.41
   5 -13  -6    2.66    0.22
   5 -13  -6    2.73    0.24
  -5  13   5    1.88    0.21
  -5  13   5    1.96    0.17
  -5  13   5    2.02    0.27
  -5  13   5    1.87    0.33
   5 -13  -5    1.75    0.20
   5 -13  -5    1.83    0.20
  -5  13   4   28.24    1.15
  -5  13   4   27.09    1.32
  -5  13   4   28.08    1.15
   5 -13  -4   29.97    1.20
  -5  13   3   93.58    3.66
  -5  13   3   86.99    3.50
  -5  13   3   90.40    3.51
   5 -13  -3   89.36    3.55
  -5  13   2    3.80    0.37
  -5  13   2    3.78    0.24
  -5  13   2    3.70    0.22
   5 -13  -2    3.67    0.26
   5 -13  -2    4.04    0.27
  -5  13   1   32.44    1.42
  -5  13   1   30.30    1.26
   5 -13  -1   31.31    1.30
   5 -13  -1   31.97    1.31
  -5  13   0    6.75    0.35
  -5  13   0    7.11    0.49
   5 -13   0    6.81    0.41
   5 -13   0    7.43    0.38
  -5  13  -1   10.26    0.47
   5 -13   1   10.13    0.50
  -5  13  -2    2.55    0.21
   5 -13   2    2.55    0.23
   5 -13   2    2.28    0.19
   5 -13   4   10.52    0.49
   5 -13   5    0.15    0.10
   5 -13   5    0.05    0.12
   5 -13   6    7.85    0.44
   5 -13   7    0.35    0.17
  -4  12  10    2.65    0.20
  -4  12  10    3.30    0.94
  -4  12  10    2.15    0.26
   4 -12 -10    2.43    0.19
  -4  12   9    2.70    0.20
  -4  12   9    2.95    0.24
  -4  12   9    3.07    0.48
   4 -12  -9    2.66    0.27
   4 -12  -9    2.86    0.20
  -4  12   8   26.81    1.34
  -4  12   8   27.15    1.13
  -4  12   8   26.98    1.14
   4 -12  -8   28.73    1.19
   4 -12  -8   27.89    1.13
  -4  12   7   14.20    0.61
  -4  12   7   12.73    0.79
   4 -12  -7   13.71    0.65
   4 -12  -7   13.98    0.60
  -4  12   6   24.24    0.96
  -4  12   6   23.28    0.96
  -4  12   6   22.04    1.13
   4 -12  -6   22.85    0.95
   4 -12  -6   23.13    1.01
  -4  12   5    3.89    0.23
  -4  12   5    3.51    1.07
  -4  12   5    4.27    0.26
  -4  12   5    4.19    0.30
  -4  12   5    3.79    0.37
   4 -12  -5    4.60    0.29
   4 -12  -5    4.70    0.25
  -4  12   4    7.42    0.35
  -4  12   4    7.35    0.37
  -4  12   4    7.23    0.48
  -4  12   4    7.39    0.39
  -4  12   4    6.87    0.90
   4 -12  -4    8.04    0.36
   4 -12  -4    8.36    0.40
  -4  12   3    8.79    0.42
  -4  12   3    9.28    0.90
  -4  12   3    9.77    0.54
  -4  12   3    9.45    0.42
   4 -12  -3    9.09    0.45
  -4  12   2   33.06    1.28
  -4  12   2   33.71    1.41
  -4  12   2   31.58    1.28
   4 -12  -2   32.10    1.31
   4 -12  -2   29.93    1.32
  -4  12   1   15.49    0.66
  -4  12   1   17.71    0.79
   4 -12  -1   13.48    0.72
   4 -12  -1   16.41    0.69
  -4  12   0   23.45    1.01
  -4  12   0   20.64    0.88
   4 -12   0   21.99    0.91
   4 -12   0   20.79    0.91
   4 -12   1    1.47    0.14
   4 -12   1    1.38    0.16
   4 -12   1    1.45    0.22
   4 -12   2   16.62    0.70
   4 -12   2   16.08    0.73
   4 -12   3   11.82    0.53
   4 -12   3   11.62    0.56
   4 -12   4    4.75    0.27
   4 -12   4    4.71    0.31
   4 -12   4    4.73    0.47
   4 -12   5    6.43    0.34
   4 -12   5    6.70    0.56
   4 -12   5    6.07    0.37
   4 -12   6    7.80    0.43
   4 -12   6    7.68    0.39
   4 -12   7    0.38    0.16
   4 -12   7    0.39    0.13
  -3  11  10    1.65    0.53
  -3  11  10    1.64    0.21
  -3  11  10    1.78    0.25
   3 -11 -10    1.41    0.21
  -3  11   9    1.76    0.17
  -3  11   9    1.78    0.21
  -3  11   9    1.38    0.44
   3 -11  -9    1.59    0.30
   3 -11  -9    1.62    0.16
  -3  11   8    0.37    0.27
  -3  11   8   -0.01    0.13
  -3  11   8    0.22    0.09
  -3  11   8    0.16    0.11
   3 -11  -8    0.21    0.09
   3 -11  -8    0.13    0.13
  -3  11   7    7.31    0.38
  -3  11   7    7.49    0.37
  -3  11   7    7.66    0.38
  -3  11   7    6.85    0.54
   3 -11  -7    7.15    0.41
   3 -11  -7    7.43    0.36
  -3  11   6    1.71    0.23
  -3  11   6    1.58    0.29
  -3  11   6    1.64    0.15
  -3  11   6    1.33    0.17
  -3  11   6    1.49    0.21
  -3  11   5    6.90    0.38
  -3  11   5    6.98    0.47
  -3  11   5    7.01    0.34
  -3  11   5    7.08    0.35
  -3  11   5    6.91    0.99
   3 -11  -5    7.38    0.34
   3 -11  -5    7.61    0.38
  -3  11   4   36.28    1.39
  -3  11   4   33.55    1.41
  -3  11   4   37.61    1.52
  -3  11   4   35.31    1.39
  -3  11   4   36.61    1.87
   3 -11  -4   32.71    1.39
   3 -11  -4   33.60    1.43
  -3  11   3    2.42    0.15
  -3  11   3    2.13    0.45
  -3  11   3    2.10    0.26
  -3  11   3    1.91    0.19
   3 -11  -3    1.73    0.15
   3 -11  -3    1.84    0.17
  -3  11   2   90.05    3.52
  -3  11   2   90.40    3.38
  -3  11   2   83.99    3.28
  -3  11   2   76.71    3.27
   3 -11  -2   83.54    3.31
   3 -11  -2   83.39    3.30
  -3  11   1   30.07    1.34
  -3  11   1   32.64    1.34
   3 -11  -1   31.80    1.27
   3 -11  -1   32.73    1.27
   3 -11  -1   30.04    1.35
  -3  11   0  116.44    4.62
   3 -11   0  123.32    4.66
   3 -11   0  119.87    4.65
   3 -11   1   26.14    1.06
   3 -11   1   25.16    1.06
   3 -11   1   26.15    1.04
   3 -11   2    4.51    0.35
   3 -11   2    4.52    0.26
   3 -11   2    4.41    0.23
   3 -11   2    4.17    0.35
   3 -11   3    0.09    0.07
   3 -11   3   -0.07    0.16
   3 -11   3    0.13    0.08
   3 -11   3    0.04    0.09
   3 -11   4    0.86    0.29
   3 -11   4    0.57    0.14
   3 -11   4    0.83    0.13
   3 -11   4    0.64    0.15
   3 -11   5    9.44    0.47
   3 -11   5    8.94    0.43
   3 -11   5    8.29    0.61
   3 -11   5    8.76    0.43
   3 -11   6   10.12    0.48
   3 -11   6   10.13    0.48
   3 -11   6   10.59    0.53
   3 -11   6   10.19    0.70
   3 -11   7    2.28    0.26
   3 -11   7    2.80    0.53
   3 -11   7    2.34    0.22
   3 -11   7    2.45    0.20
   3 -11   8    3.38    0.34
   3 -11   8    3.50    0.24
  -2  10  10    9.21    0.73
  -2  10  10    8.66    0.43
  -2  10   9   18.67    0.79
  -2  10   9   18.42    0.79
   2 -10  -9   17.76    0.78
  -2  10   8    6.55    0.34
  -2  10   8    6.34    0.35
  -2  10   8    6.25    0.33
  -2  10   8    6.07    0.54
   2 -10  -8    6.62    0.34
   2 -10  -8    6.26    0.42
  -2  10   7   14.38    0.61
  -2  10   7   14.08    0.61
  -2  10   7   14.40    0.65
  -2  10   7   12.54    0.77
  -2  10   7   13.98    0.61
   2 -10  -7   13.02    0.60
   2 -10  -7   13.63    0.64
  -2  10   6    4.70    0.25
  -2  10   6    3.59    1.08
  -2  10   6    4.92    0.29
  -2  10   6    4.71    0.26
  -2  10   6    4.75    0.40
   2 -10  -6    3.81    0.23
   2 -10  -6    4.01    0.29
  -2  10   5    4.72    0.23
  -2  10   5    4.62    0.27
  -2  10   5    4.49    0.25
  -2  10   5    4.34    0.26
  -2  10   5    4.40    0.35
  -2  10   5    3.96    0.75
   2 -10  -5    3.51    0.26
  -2  10   4   25.94    1.03
  -2  10   4   27.56    1.14
  -2  10   4   24.36    1.03
  -2  10   4   26.37    1.03
  -2  10   4   25.69    1.05
  -2  10   4   26.21    1.47
   2 -10  -4   25.61    1.06
   2 -10  -4   23.98    1.02
  -2  10   3   54.73    2.16
  -2  10   3   56.09    2.43
  -2  10   3   53.54    2.07
   2 -10  -3   51.33    2.10
   2 -10  -3   49.49    2.06
  -2  10   2   85.38    3.57
  -2  10   2   98.60    3.86
  -2  10   2   92.08    3.64
   2 -10  -2   93.40    3.93
   2 -10  -2   89.60    3.60
   2 -10  -2   95.73    3.58
   2 -10  -1   10.66    0.47
   2 -10  -1   10.28    0.46
   2 -10  -1   10.38    0.69
   2 -10   0   16.41    0.70
   2 -10   0   16.82    0.70
  -2  10  -1   18.99    0.88
  -2  10  -1   20.08    0.88
   2 -10   1   18.95    0.78
   2 -10   1   18.17    0.76
   2 -10   1   17.70    0.78
  -2  10  -2  142.25    5.67
  -2  10  -2  154.30    5.66
   2 -10   2  132.95    5.51
   2 -10   2  137.84    5.48
   2 -10   2  139.85    5.51
   2 -10   2  144.43    5.58
   2 -10   2  145.37    5.49
  -2  10  -3   47.36    2.11
   2 -10   3   48.85    1.87
   2 -10   3   49.56    1.96
   2 -10   3   43.78    1.84
   2 -10   3   46.28    1.83
   2 -10   3   44.37    1.89
   2 -10   4    7.68    0.49
   2 -10   4    7.10    0.34
   2 -10   4    7.10    0.37
   2 -10   4    7.00    0.34
   2 -10   5    7.89    0.37
   2 -10   5    7.62    0.37
   2 -10   5    6.71    0.62
   2 -10   5    7.45    0.39
   2 -10   5    7.57    0.40
   2 -10   6    8.68    0.63
   2 -10   6    8.94    0.45
   2 -10   6    9.37    0.49
   2 -10   6    9.90    0.45
   2 -10   6    9.69    0.45
   2 -10   7    1.51    0.18
   2 -10   7    1.31    0.23
   2 -10   7    1.35    0.18
   2 -10   7    1.26    0.44
   2 -10   8   10.11    0.47
   2 -10   8   10.00    0.78
   2 -10   8    9.84    0.47
   2 -10   8    9.42    0.54
   2 -10   9    3.38    0.26
  -1   9  10    0.63    0.18
  -1   9  10    0.76    0.40
  -1   9  10    0.96    0.15
   1  -9 -10    0.75    0.15
  -1   9   9   16.50    0.73
  -1   9   9   16.96    0.73
  -1   9   9   16.24    0.95
   1  -9  -9   17.20    0.72
  -1   9   8    7.70    0.63
  -1   9   8    9.18    0.43
  -1   9   8    8.89    0.48
  -1   9   8    9.02    0.43
  -1   9   8    9.25    0.43
   1  -9  -8    8.95    0.42
  -1   9   7   48.09    1.86
  -1   9   7   43.13    2.02
  -1   9   7   48.41    1.86
  -1   9   7   47.50    1.86
  -1   9   7   47.25    1.89
   1  -9  -7   46.94    1.86
   1  -9  -7   45.06    1.89
  -1   9   6   15.28    0.65
  -1   9   6   16.20    0.81
  -1   9   6   12.75    1.38
  -1   9   6   15.89    0.65
  -1   9   6   15.14    0.65
  -1   9   6   15.58    0.68
   1  -9  -6   14.82    0.68
   1  -9  -6   15.59    0.65
  -1   9   5   49.41    1.94
  -1   9   5   49.43    2.04
  -1   9   5   49.62    1.92
  -1   9   5   48.45    1.92
  -1   9   5   48.82    2.51
   1  -9  -5   46.67    1.94
  -1   9   4   77.03    2.89
  -1   9   4   73.23    2.80
  -1   9   4   68.39    3.22
  -1   9   4   69.82    2.77
  -1   9   4   68.38    2.77
  -1   9   4   70.90    2.77
   1  -9  -4   72.54    2.80
  -1   9   3   73.11    3.03
  -1   9   3   67.08    2.67
  -1   9   3   70.25    2.73
  -1   9   3   66.78    2.65
   1  -9  -3   68.94    2.65
   1  -9  -3   63.87    2.67
  -1   9   2   11.47    0.55
  -1   9   2    9.79    0.47
  -1   9   2   11.56    0.72
   1  -9  -2   12.94    0.49
   1  -9  -2   11.94    0.84
  -1   9   1   31.67    1.43
  -1   9   1   30.73    1.29
   1  -9  -1   31.79    1.47
  -1   9   0   83.94    3.38
  -1   9   0   91.43    3.52
   1  -9   0   83.90    3.52
  -1   9  -1  254.57    9.61
   1  -9   1  236.89    9.44
  -1   9  -2   29.32    1.45
  -1   9  -2   31.83    1.44
   1  -9   2   32.73    1.29
   1  -9   2   31.51    1.24
   1  -9   2   29.55    1.24
   1  -9   2   30.17    1.22
  -1   9  -3  198.48    7.38
  -1   9  -3  182.50    7.43
   1  -9   3  175.06    7.04
   1  -9   3  174.65    7.06
   1  -9   3  180.79    7.06
   1  -9   3  192.84    7.13
   1  -9   3  176.45    7.03
  -1   9  -4   44.85    2.12
   1  -9   4   42.75    1.70
   1  -9   4   41.94    1.67
   1  -9   4   41.58    1.67
   1  -9   4   41.27    1.67
   1  -9   4   41.35    1.70
   1  -9   4   43.04    1.78
   1  -9   4   42.81    1.67
  -1   9  -5   15.21    1.33
   1  -9   5   14.11    0.60
   1  -9   5   13.84    0.63
   1  -9   5   13.45    0.60
   1  -9   5   14.46    0.75
   1  -9   5   13.73    0.60
   1  -9   6    7.69    0.37
   1  -9   6    7.06    0.53
   1  -9   6    7.39    0.36
   1  -9   6    7.23    0.37
   1  -9   6    7.84    0.41
   1  -9   7    3.01    0.46
   1  -9   7    3.14    0.43
   1  -9   8    5.57    0.31
   1  -9   8    5.78    0.31
   1  -9   8    5.03    0.31
   1  -9   8    5.38    0.59
   1  -9   9    4.19    0.28
   1  -9   9    4.30    0.82
   0   8  10    0.16    0.10
   0   8  10    0.11    0.12
   0  -8 -10    0.09    0.12
   0   8   9    0.78    0.34
   0   8   9    0.33    0.11
   0   8   9    0.52    0.14
   0   8   9    0.84    0.26
   0  -8  -9    0.68    0.15
   0   8   8    6.29    0.34
   0   8   8    6.33    0.55
   0   8   8    6.37    0.38
   0   8   8    6.53    0.34
   0  -8  -8    6.59    0.33
   0   8   7   48.83    1.94
   0   8   7   50.92    1.94
   0   8   7   45.39    2.11
   0   8   7   48.88    1.94
   0   8   7   50.43    1.97
   0  -8  -7   47.71    1.94
   0   8   6    0.10    0.19
   0   8   6    0.36    0.09
   0   8   6    0.32    0.11
   0   8   6    0.32    0.09
   0   8   6    0.34    0.10
   0  -8  -6    0.42    0.11
   0   8   5   23.56    0.95
   0   8   5   21.86    1.48
   0   8   5   23.85    1.08
   0   8   5   22.16    1.01
   0   8   5   23.23    0.97
   0   8   5   23.37    0.95
   0  -8  -5   25.04    0.95
   0  -8  -5   23.34    0.98
   0   8   4   24.09    1.05
   0   8   4   23.44    0.95
   0   8   4   23.81    0.98
   0   8   4   23.28    0.95
   0   8   4   22.79    0.95
   0  -8  -4   25.51    0.95
   0  -8  -4   23.00    0.97
   0   8   3   10.10    0.45
   0   8   3   10.32    0.47
   0   8   3   10.89    0.76
   0   8   3   10.28    0.45
   0   8   3   11.53    0.54
   0  -8  -3   11.60    0.48
   0   8   2   39.08    1.77
   0   8   2   37.52    1.52
   0   8   2   39.61    1.55
   0  -8  -2   36.18    1.82
   0  -8  -2   38.52    1.50
   0   8   1   26.25    1.23
   0   8   1   24.58    1.04
   0  -8  -1   25.56    1.26
   0   8   0    6.06    0.42
   0   8   0    5.62    0.31
   0  -8   0    5.76    0.45
   0   8  -1   26.69    1.23
   0   8  -2   38.61    1.80
   0   8  -2   40.87    1.79
   0  -8   2   39.16    1.59
   0   8  -3   12.36    0.89
   0  -8   3   10.26    0.45
   0  -8   3   10.18    0.48
   0  -8   3   10.78    0.52
   0  -8   3   10.09    0.47
   0   8  -4   24.49    1.32
   0  -8   4   22.82    0.99
   0  -8   4   21.79    0.90
   0  -8   4   22.51    0.92
   0  -8   4   22.12    0.90
   0  -8   4   21.83    0.94
   0  -8   4   21.98    0.90
   0  -8   4   22.03    0.90
   0  -8   5   22.32    0.90
   0  -8   5   21.12    0.94
   0  -8   5   22.35    0.93
   0  -8   5   21.97    0.90
   0  -8   5   21.77    0.91
   0  -8   5   23.50    1.03
   0   8  -6    0.42    0.79
   0  -8   6    0.53    0.14
   0  -8   6    0.36    0.09
   0  -8   6    0.28    0.09
   0  -8   6    0.51    0.24
   0  -8   6    0.43    0.15
   0  -8   6    0.39    0.11
   0  -8   7   48.92    1.91
   0  -8   7   44.43    2.07
   0  -8   7   48.31    1.90
   0  -8   7   49.27    1.91
   0  -8   7   47.92    1.94
   0  -8   7   48.97    1.91
   0  -8   8    6.16    0.33
   0  -8   8    6.05    0.34
   0  -8   8    6.09    0.33
   0  -8   8    5.88    0.60
   0  -8   9    0.65    0.47
   0  -8   9    0.41    0.15
   0  -8   9    0.27    0.12
   0  -8   9    0.58    0.12
   0  -8  10   -0.08    0.11
   1   7  10    0.95    0.16
   1   7  10    1.37    0.21
  -1  -7 -10    1.49    0.18
   1   7   9    4.65    0.55
   1   7   9    5.19    0.37
   1   7   9    5.07    0.29
   1   7   9    5.14    0.30
  -1  -7  -9    5.73    0.31
   1   7   8   11.96    0.57
   1   7   8   11.81    0.75
   1   7   8   10.90    0.53
   1   7   8   11.31    0.53
  -1  -7  -8   11.63    0.53
   1   7   7    6.12    0.32
   1   7   7    5.81    0.51
   1   7   7    6.41    0.32
   1   7   7    6.15    0.35
  -1  -7  -7    4.96    0.30
   1   7   6    2.89    0.19
   1   7   6    2.82    0.22
   1   7   6    2.88    0.20
   1   7   6    2.71    0.35
   1   7   6    3.13    0.20
  -1  -7  -6    2.61    0.18
   1   7   5    9.71    0.42
   1   7   5    9.45    0.55
   1   7   5    9.44    1.00
   1   7   5    9.86    0.42
   1   7   5    9.37    0.42
   1   7   5    9.40    0.45
  -1  -7  -5    7.97    0.41
   1   7   4   29.72    1.22
   1   7   4   30.79    1.30
   1   7   4   30.47    1.20
   1   7   4   30.42    1.20
   1   7   4   29.66    1.20
   1   7   4   29.42    1.65
  -1  -7  -4   30.13    1.20
   1   7   3  131.43    5.23
   1   7   3  136.45    5.26
   1   7   3  146.97    5.32
   1   7   3  140.94    5.65
   1   7   3  133.78    5.23
   1   7   3  134.79    5.23
  -1  -7  -3  127.01    5.23
   1   7   2   20.88    1.09
   1   7   2   19.19    0.82
   1   7   2   21.50    0.86
  -1  -7  -2   18.91    0.80
   1   7   1  536.25   20.36
   1   7   1  551.36   21.34
  -1  -7  -1  504.96   20.61
   1   7   0  161.83    6.28
  -1  -7   0  153.29    6.30
   1   7  -1  111.74    4.38
  -1  -7   1  104.09    4.39
   1   7  -2   14.49    0.82
   1   7  -3   22.95    1.25
   1   7  -3   22.39    1.33
  -1  -7   3   24.93    0.99
  -1  -7   3   24.98    0.96
  -1  -7   3   25.70    1.02
  -1  -7   4   42.15    1.79
  -1  -7   4   47.41    1.86
  -1  -7   4   46.71    1.79
  -1  -7   4   45.99    1.82
  -1  -7   4   45.41    1.79
  -1  -7   4   47.28    1.79
  -1  -7   5   15.49    0.64
  -1  -7   5   15.25    0.67
  -1  -7   5   15.02    0.63
  -1  -7   5   15.79    0.63
  -1  -7   5   14.78    0.73
  -1  -7   5   14.82    0.63
  -1  -7   6    1.95    0.16
  -1  -7   6    1.89    0.31
  -1  -7   6    1.78    0.16
  -1  -7   6    1.89    0.23
  -1  -7   6    1.94    0.17
  -1  -7   6    1.93    0.17
  -1  -7   7    5.80    0.40
  -1  -7   7    5.82    0.31
  -1  -7   7    5.56    0.50
  -1  -7   7    6.41    0.32
  -1  -7   7    5.99    0.31
  -1  -7   7    6.13    0.32
  -1  -7   8   14.22    0.62
  -1  -7   8   14.69    0.86
  -1  -7   8   13.87    0.62
  -1  -7   8   13.08    0.65
  -1  -7   9    7.93    0.40
  -1  -7   9    8.11    0.40
  -1  -7   9    7.98    0.41
  -1  -7   9    8.03    0.78
  -1  -7  10    3.00    0.24
  -1  -7  10    3.17    0.23
   2   6   9    3.18    0.24
   2   6   9    2.23    0.57
   2   6   9    3.16    0.23
   2   6   9    3.34    0.28
   2   6   8    9.67    0.46
   2   6   8    9.63    0.49
   2   6   8    9.35    0.68
   2   6   8    9.28    0.45
  -2  -6  -8    9.72    0.46
   2   6   7    6.94    0.56
   2   6   7    7.43    0.38
   2   6   7    7.43    0.38
   2   6   7    8.35    0.42
  -2  -6  -7    6.87    0.40
   2   6   6   12.94    0.79
   2   6   6   14.53    0.63
   2   6   6   14.80    0.67
   2   6   6   14.44    0.63
  -2  -6  -6   14.95    0.62
   2   6   5    0.21    0.18
   2   6   5    0.23    0.08
   2   6   5    0.33    0.54
   2   6   5    0.43    0.13
   2   6   5    0.29    0.08
  -2  -6  -5    0.16    0.07
   2   6   4   14.57    0.59
   2   6   4   14.88    0.71
   2   6   4   11.52    0.64
   2   6   4   14.10    1.07
   2   6   4   14.22    0.61
  -2  -6  -4   13.67    0.58
   2   6   3   18.97    0.79
   2   6   3   19.81    1.17
   2   6   3   20.66    0.88
   2   6   3   19.38    0.79
   2   6   3   19.15    0.81
  -2  -6  -3   18.72    0.78
   2   6   2  129.75    4.83
   2   6   2  127.47    5.11
   2   6   2  121.44    4.78
  -2  -6  -2  116.14    4.76
   2   6   1  137.18    5.45
   2   6   1  137.41    5.22
  -2  -6  -1  129.28    5.50
   2   6   0  132.77    5.33
  -2  -6   0  131.61    5.36
   2   6  -1  138.80    5.31
  -2  -6   1  124.17    5.32
   2   6  -2   78.68    3.32
   2   6  -3   65.72    2.63
  -2  -6   3   55.47    2.28
  -2  -6   3   55.80    2.25
  -2  -6   3   55.40    2.25
  -2  -6   4    4.93    0.25
  -2  -6   4    5.14    0.28
  -2  -6   4    5.18    0.24
  -2  -6   4    4.97    0.24
  -2  -6   4    4.95    0.33
  -2  -6   5   49.31    1.91
  -2  -6   5   45.45    1.91
  -2  -6   5   49.09    1.91
  -2  -6   5   49.34    1.95
  -2  -6   5   50.89    2.00
  -2  -6   5   48.88    1.91
  -2  -6   6   17.57    0.76
  -2  -6   6   18.27    0.75
  -2  -6   6   18.26    0.75
  -2  -6   6   18.28    0.87
  -2  -6   6   18.24    0.80
  -2  -6   6   17.57    0.75
  -2  -6   7   15.16    0.64
  -2  -6   7   15.41    0.65
  -2  -6   7   15.25    0.65
  -2  -6   7   14.66    0.70
  -2  -6   7   15.21    0.82
  -2  -6   7   14.39    0.65
  -2  -6   8    6.37    0.33
  -2  -6   8    6.25    0.32
  -2  -6   8    5.83    0.31
  -2  -6   8    5.60    0.56
  -2  -6   8    5.92    0.33
  -2  -6   9   10.11    0.82
  -2  -6   9    9.02    0.44
  -2  -6   9    9.14    0.46
  -2  -6   9    9.15    0.44
  -2  -6   9    9.11    0.44
  -2  -6  10    7.68    0.38
  -2  -6  10    7.42    0.38
  -2  -6  11    1.28    0.17
  -2  -6  11    1.09    0.19
   3   5   9    5.01    0.30
   3   5   9    5.43    0.36
   3   5   9    5.41    0.29
  -3  -5  -9    5.47    0.29
   3   5   8   10.62    0.49
   3   5   8   10.63    0.52
   3   5   8   10.23    0.76
   3   5   8   10.65    0.49
  -3  -5  -8   10.44    0.49
   3   5   7   11.98    0.54
   3   5   7   11.55    0.77
   3   5   7   11.80    0.57
   3   5   7   11.40    0.54
  -3  -5  -7   11.52    0.55
   3   5   6    4.60    0.26
   3   5   6    4.25    0.29
   3   5   6    4.14    0.26
   3   5   6    4.29    0.44
  -3  -5  -6    4.11    0.27
   3   5   5   17.12    0.75
   3   5   5   17.25    0.72
   3   5   5   17.12    0.72
   3   5   5   14.56    1.68
  -3  -5  -5   17.03    0.71
   3   5   4    5.75    0.30
   3   5   4    6.15    0.43
   3   5   4    6.33    0.30
   3   5   4    5.99    0.32
   3   5   4    5.52    0.86
  -3  -5  -4    6.08    0.30
   3   5   3   76.21    3.10
   3   5   3   78.67    3.07
   3   5   3   79.15    3.07
   3   5   3   81.73    3.18
   3   5   3   78.33    3.53
  -3  -5  -3   80.39    3.07
   3   5   2   51.41    2.03
   3   5   2   50.44    2.05
   3   5   2   51.77    2.03
   3   5   2   56.70    2.29
   3   5   2   52.96    2.39
  -3  -5  -2   49.87    2.03
   3   5   1    9.10    0.64
   3   5   1    8.15    0.41
   3   5   1    9.22    0.47
  -3  -5  -1   10.70    0.80
   3   5   0   30.47    1.49
  -3  -5   0   30.97    1.58
  -3  -5   0   33.94    1.28
   3   5  -1   35.13    1.61
  -3  -5   1   34.02    1.66
   3   5  -2    1.38    0.29
   3   5  -3   66.57    2.75
  -3  -5   3   59.28    2.38
  -3  -5   3   59.61    2.40
  -3  -5   3   59.37    2.37
   3   5  -4   44.81    2.07
  -3  -5   4   41.28    1.63
  -3  -5   4   40.81    1.66
  -3  -5   4   39.86    1.67
  -3  -5   4   40.59    1.62
  -3  -5   4   41.55    1.62
  -3  -5   5    0.69    0.14
  -3  -5   5    0.89    0.11
  -3  -5   5    0.81    0.11
  -3  -5   5    0.92    0.22
  -3  -5   5    0.77    0.10
  -3  -5   6   21.65    0.87
  -3  -5   6   21.38    0.98
  -3  -5   6   21.69    0.87
  -3  -5   6   20.62    0.91
  -3  -5   6   20.22    0.87
  -3  -5   6   21.42    0.87
  -3  -5   7   14.54    0.68
  -3  -5   7   14.30    0.63
  -3  -5   7   14.56    0.80
  -3  -5   7   14.71    0.62
  -3  -5   7   14.25    0.63
  -3  -5   7   14.75    0.63
  -3  -5   8   12.09    0.53
  -3  -5   8   11.57    0.53
  -3  -5   8   11.42    0.54
  -3  -5   8   10.91    0.75
  -3  -5   8   11.93    0.52
  -3  -5   9   45.30    1.82
  -3  -5   9   45.83    1.82
  -3  -5   9   45.65    1.83
  -3  -5  10    2.35    0.19
  -3  -5  10    2.33    0.19
  -3  -5  11    3.58    0.24
  -3  -5  11    3.42    0.22
   4   4   8    3.52    0.27
   4   4   8    3.35    0.23
   4   4   8    3.22    0.63
  -4  -4  -8    3.84    0.26
   4   4   7    0.45    0.16
   4   4   7    1.00    0.35
   4   4   7    0.50    0.14
   4   4   7    0.56    0.14
  -4  -4  -7    0.58    0.15
   4   4   6    9.83    0.71
   4   4   6   10.89    0.53
   4   4   6   10.91    0.50
   4   4   6   10.26    0.49
   4   4   5   22.69    1.17
   4   4   5   24.68    1.00
   4   4   5   23.62    0.99
   4   4   5   24.35    1.03
   4   4   4    0.29    0.22
   4   4   4    0.17    0.08
   4   4   4    0.30    0.73
   4   4   4    0.14    0.09
   4   4   4    0.24    0.10
  -4  -4  -4    0.30    0.12
   4   4   3   16.54    1.22
   4   4   3   17.82    0.76
   4   4   3   18.75    0.87
   4   4   3   17.64    0.73
   4   4   3   17.53    0.73
  -4  -4  -3   16.33    0.72
   4   4   2   25.68    1.11
   4   4   2   24.69    1.00
   4   4   2   24.87    1.40
   4   4   2   24.50    1.03
   4   4   2   25.05    1.01
  -4  -4  -2   26.26    1.01
  -4  -4  -2   23.58    1.00
   4   4   1    0.19    0.22
   4   4   1    0.37    0.09
   4   4   1    0.41    0.10
   4   4   1    0.31    0.17
  -4  -4  -1    0.62    0.10
   4   4   0   86.81    3.50
   4   4   0   82.90    3.24
  -4  -4   0   79.01    3.19
  -4  -4   0   80.55    3.60
   4   4  -1   47.81    2.16
  -4  -4   1   46.76    1.86
  -4  -4   1   48.66    1.86
   4   4  -2   43.63    1.86
  -4  -4   2   36.36    1.51
  -4  -4   2   36.17    1.48
  -4  -4   2   35.54    1.48
  -4  -4   2   38.04    1.49
   4   4  -3   10.27    0.77
  -4  -4   3   10.03    0.43
  -4  -4   3   10.22    0.44
  -4  -4   3   10.26    0.43
  -4  -4   3   10.07    0.46
   4   4  -4   31.25    1.63
  -4  -4   4   29.02    1.21
  -4  -4   4   29.38    1.17
  -4  -4   4   28.66    1.17
  -4  -4   4   28.77    1.16
   4   4  -5   19.32    1.35
  -4  -4   5   20.88    0.83
  -4  -4   5   20.19    0.93
  -4  -4   5   20.88    0.87
  -4  -4   5   20.66    0.83
  -4  -4   5   20.20    0.83
   4   4  -6   12.19    1.24
  -4  -4   6   14.33    0.59
  -4  -4   6   14.16    0.64
  -4  -4   6   13.57    0.59
  -4  -4   6   14.46    0.59
  -4  -4   6   14.07    0.73
  -4  -4   7    6.52    0.33
  -4  -4   7    6.44    0.32
  -4  -4   7    6.59    0.56
  -4  -4   7    6.33    0.32
  -4  -4   7    6.40    0.37
  -4  -4   8    6.10    0.32
  -4  -4   8    6.11    0.32
  -4  -4   8    6.11    0.32
  -4  -4   9   -0.04    0.09
  -4  -4   9    0.09    0.09
  -4  -4   9    0.04    0.08
   4   4 -10   10.16    0.55
  -4  -4  10   10.31    0.48
  -4  -4  10    9.86    0.47
  -4  -4  11    1.50    0.17
  -4  -4  11    1.55    0.17
   5   3   8    3.77    0.26
   5   3   8    3.76    0.28
  -5  -3  -8    4.37    0.26
   5   3   7   27.48    1.13
   5   3   7   28.25    1.39
   5   3   7   27.83    1.16
  -5  -3  -7   26.48    1.13
   5   3   6    9.84    0.47
   5   3   6    9.48    0.50
   5   3   6    9.29    0.71
  -5  -3  -6   10.30    0.47
   5   3   5    8.98    0.46
   5   3   5    8.82    0.64
   5   3   5    8.98    0.43
   5   3   5    8.78    0.43
  -5  -3  -5    7.54    0.42
   5   3   4    8.25    0.43
   5   3   4    8.30    0.40
   5   3   4    7.94    0.39
   5   3   4    7.52    0.57
  -5  -3  -4    7.98    0.40
   5   3   3    7.45    0.37
   5   3   3    7.62    0.40
   5   3   3    7.62    0.38
   5   3   3    7.58    0.54
  -5  -3  -3    8.69    0.38
   5   3   2    4.63    0.81
   5   3   2    4.81    0.28
   5   3   2    4.94    0.26
   5   3   2    5.03    0.41
   5   3   1   77.19    3.11
   5   3   1   79.13    3.09
   5   3   1   81.55    3.48
   5   3   1   83.67    3.20
  -5  -3  -1   76.11    3.10
   5   3   0   13.10    0.59
   5   3   0   13.64    0.89
   5   3   0   12.27    0.57
  -5  -3   0   15.65    0.58
   5   3  -1  149.51    6.09
  -5  -3   1  149.75    5.76
  -5  -3   1  148.83    5.75
  -5  -3   2    4.99    0.24
  -5  -3   2    4.99    0.24
  -5  -3   2    4.81    0.24
  -5  -3   2    4.62    0.36
  -5  -3   2    4.80    0.28
   5   3  -3   73.69    3.25
  -5  -3   3   69.89    2.78
  -5  -3   3   71.54    2.79
  -5  -3   3   70.49    2.78
  -5  -3   3   73.22    2.82
   5   3  -4   29.23    2.03
  -5  -3   4   33.45    1.30
  -5  -3   4   33.62    1.30
  -5  -3   4   34.24    1.35
  -5  -3   4   32.78    1.30
   5   3  -5   36.51    2.10
  -5  -3   5   37.20    1.48
  -5  -3   5   37.28    1.48
  -5  -3   5   37.75    1.48
  -5  -3   5   37.50    1.53
   5   3  -6    8.89    1.24
  -5  -3   6   10.39    0.45
  -5  -3   6    9.93    0.45
  -5  -3   6    9.74    0.44
  -5  -3   6    9.92    0.49
  -5  -3   7    1.36    0.14
  -5  -3   7    1.44    0.15
  -5  -3   7    1.61    0.15
  -5  -3   8   29.05    1.19
  -5  -3   8   28.43    1.19
  -5  -3   8   29.32    1.18
  -5  -3   9    2.77    0.21
  -5  -3   9    2.98    0.22
  -5  -3   9    2.85    0.22
   5   3 -10   11.10    0.59
  -5  -3  10   12.09    0.53
  -5  -3  10   11.56    0.52
  -5  -3  10   11.94    0.53
  -5  -3  11    3.52    0.22
  -5  -3  11    3.49    0.24
   6   2   7    1.28    0.19
   6   2   7    1.75    0.20
  -6  -2  -7    1.56    0.20
   6   2   6    9.22    0.47
   6   2   6    9.33    0.44
   6   2   6    9.63    0.77
  -6  -2  -6    8.76    0.44
   6   2   5    4.55    0.57
   6   2   5    5.30    0.33
   6   2   5    5.48    0.32
  -6  -2  -5    5.73    0.31
   6   2   4   27.97    1.13
   6   2   4   26.60    1.33
   6   2   4   27.17    1.16
  -6  -2  -4   26.26    1.12
   6   2   3    5.42    0.51
   6   2   3    5.68    0.32
   6   2   3    5.40    0.33
  -6  -2  -3    6.04    0.32
   6   2   2   16.21    0.85
   6   2   2   15.76    0.70
   6   2   2   15.93    0.68
  -6  -2  -2   14.95    0.67
   6   2   1   10.03    0.47
   6   2   1   10.43    0.61
   6   2   1   10.01    0.45
  -6  -2  -1    8.88    0.44
   6   2   0    3.37    0.24
   6   2   0    3.36    0.26
  -6  -2   0    4.53    0.23
  -6  -2   0    4.46    0.23
   6   2  -1    5.36    0.31
   6   2  -1    5.92    0.73
  -6  -2   1    4.37    0.25
  -6  -2   1    4.54    0.25
   6   2  -2   20.37    1.32
  -6  -2   2   23.71    0.90
  -6  -2   2   22.18    0.92
  -6  -2   2   21.79    0.99
   6   2  -3    6.77    0.79
  -6  -2   3    5.98    0.29
  -6  -2   3    5.93    0.30
  -6  -2   3    5.70    0.30
   6   2  -4   33.28    2.12
  -6  -2   4   40.76    1.56
  -6  -2   4   41.94    1.56
  -6  -2   4   40.72    1.55
   6   2  -5   16.04    1.52
  -6  -2   5   18.49    0.74
  -6  -2   5   17.88    0.74
  -6  -2   5   18.61    0.75
   6   2  -6    3.47    1.44
  -6  -2   6    2.28    0.18
  -6  -2   6    2.01    0.16
  -6  -2   6    1.98    0.17
  -6  -2   7   21.97    0.93
  -6  -2   7   22.21    0.93
  -6  -2   7   22.39    0.92
  -6  -2   8    4.83    0.28
  -6  -2   8    4.70    0.28
  -6  -2   8    4.63    0.27
  -6  -2   9    0.03    0.09
  -6  -2   9    0.06    0.09
  -6  -2   9    0.03    0.09
  -6  -2  10    1.10    0.16
  -6  -2  10    1.17    0.17
   6   2 -11    0.07    0.17
  -6  -2  11    0.04    0.11
  -6  -2  11    0.08    0.10
   7   1   6    0.66    0.18
   7   1   6    0.72    0.21
  -7  -1  -6    0.94    0.16
  -7  -1  -6    0.81    0.24
   7   1   5    2.00    0.70
   7   1   5    1.57    0.21
   7   1   5    1.67    0.20
  -7  -1  -5    1.73    0.20
   7   1   4   19.78    1.14
   7   1   4   21.01    0.94
   7   1   4   20.56    0.90
  -7  -1  -4   23.79    0.92
   7   1   3   28.13    1.21
   7   1   3   28.16    1.40
   7   1   3   28.98    1.18
  -7  -1  -3   28.79    1.18
   7   1   2   17.93    0.99
   7   1   2   18.92    0.82
   7   1   2   18.75    0.79
  -7  -1  -2   17.43    0.78
   7   1   1    7.46    0.40
   7   1   1    7.17    0.37
  -7  -1  -1    7.77    0.37
  -7  -1  -1    6.90    0.37
   7   1   0   11.23    0.49
   7   1   0   10.91    0.51
  -7  -1   0    9.78    0.47
  -7  -1   0    9.67    0.47
  -7  -1   1    8.19    0.59
  -7  -1   1    8.40    0.39
  -7  -1   1    8.10    0.39
  -7  -1   2    6.41    0.54
  -7  -1   2    6.09    0.30
  -7  -1   2    5.79    0.31
  -7  -1   3    8.94    0.42
  -7  -1   3    8.84    0.41
  -7  -1   4   39.54    1.64
  -7  -1   4   42.90    1.66
  -7  -1   4   42.27    1.66
  -7  -1   5    0.57    0.13
  -7  -1   5    0.57    0.13
  -7  -1   5    0.65    0.16
  -7  -1   6   30.84    1.23
  -7  -1   6   29.76    1.23
  -7  -1   6   30.01    1.22
  -7  -1   7   44.54    1.78
  -7  -1   7   44.81    1.79
  -7  -1   7   45.17    1.79
  -7  -1   8   48.17    1.93
  -7  -1   8   47.72    1.94
  -7  -1   8   49.50    1.93
   7   1  -9    4.98    0.33
  -7  -1   9    4.84    0.28
  -7  -1   9    5.04    0.29
  -7  -1   9    4.96    0.29
   7   1 -10    4.37    0.30
  -7  -1  10    3.42    0.24
  -7  -1  10    3.77    0.24
   7   1 -11    0.17    0.15
  -7  -1  11    0.33    0.13
  -7  -1  11    0.35    0.11
   8   0   5   -0.04    0.15
   8   0   5   -0.10    0.20
  -8   0  -5    0.07    0.10
   8   0   4    5.68    0.37
   8   0   4    5.62    0.38
  -8   0  -4    7.14    0.35
  -8   0  -4    7.44    0.39
   8   0   3   -0.04    0.13
   8   0   3    0.11    0.14
  -8   0  -3    0.11    0.13
  -8   0  -3    0.00    0.08
   8   0   2   31.88    1.29
   8   0   2   32.35    1.26
  -8   0  -2   28.55    1.25
  -8   0  -2   29.42    1.25
  -8   0  -1    0.15    0.09
  -8   0  -1   -0.06    0.19
   8   0   0   19.77    0.92
  -8   0   0   22.48    0.89
  -8   0   0   19.78    1.10
  -8   0   0   21.92    0.89
  -8   0   1   -0.09    0.50
  -8   0   1    0.02    0.08
  -8   0   1    0.06    0.10
  -8   0   2   63.85    2.48
  -8   0   2   62.24    2.49
  -8   0   3    0.05    0.07
  -8   0   3   -0.02    0.11
   8   0  -4   44.66    1.75
  -8   0   4   41.80    1.71
  -8   0   4   41.91    1.71
   8   0  -5    0.12    0.13
  -8   0   5   -0.04    0.10
  -8   0   5   -0.09    0.08
   8   0  -6    5.37    0.47
  -8   0   6    5.98    0.34
  -8   0   6    6.53    0.33
   8   0  -7    0.12    0.12
  -8   0   7    0.03    0.09
  -8   0   7    0.08    0.13
  -8   0   7    0.05    0.11
   8   0  -8   67.89    2.79
  -8   0   8   70.69    2.72
  -8   0   8   69.49    2.73
  -8   0   8   69.78    2.74
   8   0  -9   -0.01    0.12
  -8   0   9   -0.08    0.11
  -8   0   9   -0.02    0.09
   8   0 -10    2.96    0.26
  -8   0  10    3.16    0.22
  -8   0  10    3.13    0.24
  -9   1  -4   -0.09    0.11
   9  -1   3    7.80    0.45
  -9   1  -3    8.34    0.40
   9  -1   2    8.39    0.47
  -9   1  -2    8.28    0.41
   9  -1   1    0.60    0.22
  -9   1  -1    0.89    0.16
  -9   1  -1    0.59    0.17
  -9   1   0   26.07    1.09
  -9   1   0   25.82    1.08
  -9   1   1    4.56    0.31
  -9   1   1    4.19    0.26
  -9   1   2   28.07    1.16
  -9   1   2   28.00    1.16
  -9   1   3    2.68    0.20
  -9   1   4   18.90    0.81
  -9   1   4   18.48    0.80
   9  -1  -5    1.79    0.27
  -9   1   5    1.39    0.17
  -9   1   5    1.52    0.21
   9  -1  -6    3.69    0.32
  -9   1   6    4.97    0.27
  -9   1   6    4.54    0.29
   9  -1  -7    0.73    0.21
  -9   1   7    0.41    0.11
  -9   1   7    0.49    0.15
   9  -1  -8    1.15    0.21
  -9   1   8    1.12    0.16
  -9   1   8    1.25    0.20
  -9   1   9    2.64    0.27
  -9   1   9    3.09    0.26
   9  -1 -10   11.95    0.58
  -9   1  10   12.19    0.53
 -10   2  -2    2.54    0.20
 -10   2  -1    2.92    0.29
 -10   2   0    3.50    0.24
 -10   2   1   11.45    0.53
 -10   2   2    0.92    0.16
 -10   2   3   13.05    0.59
 -10   2   5    2.07    0.19
  10  -2  -6    0.88    0.28
 -10   2   6    0.71    0.15
  10  -2  -7    1.41    0.26
 -10   2   7    1.25    0.16
  10  -2  -8    4.11    0.30
 -10   2   8    3.11    0.22
  10  -2  -9    0.79    0.23
 -10   2   9    0.45    0.11
 -11   3   0    1.64    0.18
 -11   3   1    1.72    0.18
 -11   3   2    1.00    0.16
 -11   3   3    9.39    0.48
 -11   3   4    1.41    0.17
 -11   3   6    3.07    0.22
 -11   3   7    0.87    0.16
 -11   3   8   10.20    0.46
 -12   4   4    4.37    0.27
 -12   4   5   11.90    0.60
  -9  19   6    2.20    0.21
  -9  19   5    4.44    0.26
  -9  19   4    4.06    0.25
  -9  19   3    0.18    0.10
  -9  19   2    1.38    0.17
  -9  19   1    4.07    0.25
  -9  19   0    2.19    0.20
   8 -18  -8    2.17    0.23
  -8  18   7    3.58    0.24
   8 -18  -7    3.23    0.26
  -8  18   6    0.38    0.17
  -8  18   6    0.17    0.42
   8 -18  -6    0.25    0.13
  -8  18   5    2.36    0.52
  -8  18   5    2.31    0.19
   8 -18  -5    2.45    0.27
  -8  18   4    0.15    0.33
  -8  18   4    0.41    0.12
   8 -18  -4    0.60    0.18
  -8  18   3    0.09    0.35
  -8  18   3    0.02    0.10
  -8  18   2    1.38    0.51
  -8  18   2    1.26    0.17
  -8  18   1   20.08    0.85
  -8  18   1   20.34    1.08
  -8  18   0    4.02    0.25
  -8  18   0    4.22    0.59
  -8  18  -1    5.19    0.28
   8 -18   1    4.78    0.33
  -8  18  -2    1.02    0.17
   8 -18   2    0.96    0.22
  -7  17   9    1.07    0.18
   7 -17  -9    1.18    0.20
  -7  17   8    3.82    0.25
   7 -17  -8    3.94    0.28
  -7  17   7    8.47    0.42
  -7  17   7    7.78    0.67
   7 -17  -7    9.61    0.47
  -7  17   6    0.57    0.15
  -7  17   6    0.61    0.32
   7 -17  -6    0.91    0.19
  -7  17   5    2.40    0.20
  -7  17   5    2.44    0.47
   7 -17  -5    2.99    0.26
  -7  17   4    4.39    0.26
  -7  17   4    4.18    0.49
   7 -17  -4    3.63    0.30
  -7  17   3   20.64    0.87
  -7  17   3   20.27    1.09
   7 -17  -3   20.78    0.92
  -7  17   2    9.47    0.68
  -7  17   2    9.92    0.47
   7 -17  -2    9.92    0.54
  -7  17   1    7.15    0.38
  -7  17   1    6.96    0.62
   7 -17  -1    8.82    0.44
  -7  17   0    7.71    0.63
  -7  17   0    7.55    0.38
   7 -17   0    7.59    0.43
  -7  17  -1    1.29    0.44
   7 -17   1    1.30    0.20
  -7  17  -2    9.02    0.71
   7 -17   2    8.31    0.45
  -7  17  -3    7.55    0.74
   7 -17   3    7.96    0.41
   7 -17   4    3.51    0.26
  -6  16   9    0.40    0.12
   6 -16  -9    0.63    0.19
  -6  16   8    1.90    0.50
  -6  16   8    2.65    0.20
   6 -16  -8    2.80    0.25
  -6  16   7    4.06    0.25
  -6  16   7    3.75    0.52
   6 -16  -7    4.18    0.30
  -6  16   6   17.93    0.78
  -6  16   6   17.91    0.99
   6 -16  -6   18.51    0.83
  -6  16   5    2.85    0.43
  -6  16   5    2.86    0.20
   6 -16  -5    2.07    0.23
  -6  16   4   20.51    1.13
  -6  16   4   25.05    1.02
  -6  16   4   22.72    0.99
  -6  16   3    6.75    0.34
  -6  16   3    6.52    0.54
   6 -16  -3    6.05    0.38
  -6  16   2   22.42    0.87
  -6  16   2   19.45    1.05
   6 -16  -2   19.75    0.91
  -6  16   1    3.35    0.44
  -6  16   1    3.65    0.22
   6 -16  -1    3.07    0.32
   6 -16  -1    3.13    0.27
  -6  16   0    5.61    0.52
   6 -16   0    5.63    0.43
  -6  16  -1    0.37    0.29
   6 -16   1    0.70    0.18
  -6  16  -2    5.25    0.56
   6 -16   2    6.22    0.36
  -6  16  -3    3.38    0.50
   6 -16   3    3.27    0.26
  -6  16  -4   10.97    0.79
   6 -16   4   11.68    0.56
   6 -16   5    0.86    0.19
  -5  15  10    0.34    0.11
  -5  15   9    8.07    0.68
  -5  15   9    8.11    0.39
   5 -15  -9    7.45    0.39
   5 -15  -9    7.64    0.45
  -5  15   8    1.12    0.37
  -5  15   8    1.40    0.17
   5 -15  -8    1.97    0.20
   5 -15  -8    1.87    0.22
  -5  15   7   25.04    1.05
  -5  15   7   23.81    1.24
  -5  15   7   25.22    1.03
   5 -15  -7   24.80    1.02
   5 -15  -7   24.17    1.07
  -5  15   6    0.54    0.26
  -5  15   6    0.26    0.10
  -5  15   6    0.23    0.15
   5 -15  -6    0.53    0.22
   5 -15  -6    0.58    0.17
  -5  15   5    3.10    0.30
  -5  15   5    3.39    0.22
  -5  15   5    2.72    0.40
  -5  15   5    2.94    0.27
   5 -15  -5    3.74    0.27
  -5  15   4   16.21    0.73
  -5  15   4   13.55    0.83
  -5  15   4   16.11    0.69
  -5  15   4   17.21    0.77
   5 -15  -4   17.06    0.74
  -5  15   3    2.99    0.37
  -5  15   3    2.85    0.19
   5 -15  -3    2.45    0.23
  -5  15   2   45.20    2.06
  -5  15   2   48.12    1.91
   5 -15  -2   49.76    1.95
   5 -15  -2   49.78    1.96
  -5  15   1   17.25    0.89
   5 -15  -1   17.25    0.77
   5 -15  -1   16.35    0.75
  -5  15   0    3.59    0.42
  -5  15   0    3.89    0.27
   5 -15   0    3.53    0.26
   5 -15   0    3.87    0.31
  -5  15  -1    1.68    0.36
  -5  15  -1    2.30    0.25
   5 -15   1    2.46    0.22
  -5  15  -2    3.00    0.26
   5 -15   2    2.22    0.23
  -5  15  -3   26.94    1.12
   5 -15   3   26.97    1.16
  -5  15  -4    0.85    0.18
   5 -15   4    1.08    0.16
   5 -15   4    0.93    0.19
   5 -15   5    0.06    0.10
   5 -15   5    0.03    0.12
   5 -15   6    8.08    0.42
  -4  14  10    2.41    0.19
   4 -14 -10    2.02    0.20
  -4  14   9    0.08    0.09
  -4  14   9    0.51    0.34
   4 -14  -9    0.28    0.17
   4 -14  -9    0.25    0.10
  -4  14   8   12.84    0.59
  -4  14   8   12.33    0.80
  -4  14   8   12.50    0.61
   4 -14  -8   13.66    0.58
   4 -14  -8   14.02    0.64
  -4  14   7    5.01    0.50
  -4  14   7    5.42    0.33
   4 -14  -7    5.23    0.29
   4 -14  -7    5.59    0.35
  -4  14   6    6.49    0.32
  -4  14   6    5.73    0.48
  -4  14   6    6.26    0.37
  -4  14   6    5.81    0.34
   4 -14  -6    5.22    0.35
   4 -14  -6    5.27    0.30
  -4  14   5    4.29    0.32
  -4  14   5    4.58    0.30
  -4  14   5    4.11    0.42
  -4  14   5    4.48    0.26
   4 -14  -5    4.99    0.27
   4 -14  -5    5.07    0.31
  -4  14   4   17.78    0.79
  -4  14   4   19.06    0.79
  -4  14   4   19.96    0.95
  -4  14   4   18.64    0.82
   4 -14  -4   18.12    0.78
   4 -14  -4   19.25    0.83
  -4  14   3    2.78    0.19
  -4  14   3    2.42    0.34
   4 -14  -3    3.02    0.22
  -4  14   2    2.09    0.31
   4 -14  -2    2.76    0.21
   4 -14  -2    2.66    0.21
  -4  14   1   29.94    1.32
   4 -14  -1   29.39    1.22
   4 -14  -1   28.83    1.22
  -4  14   0   12.60    0.68
   4 -14   0   12.63    0.58
   4 -14   0   12.13    0.57
  -4  14  -1    8.13    0.40
   4 -14   1    8.35    0.42
   4 -14   1    7.99    0.43
   4 -14   2   40.37    1.63
   4 -14   2   40.93    1.66
   4 -14   3    7.45    0.37
   4 -14   3    7.29    0.41
   4 -14   4   20.68    0.86
   4 -14   4   19.83    0.90
   4 -14   5    2.03    0.23
   4 -14   5    2.01    0.19
   4 -14   6    4.96    0.33
   4 -14   6    4.85    0.29
   4 -14   7    3.38    0.29
   4 -14   7    3.57    0.26
  -3  13  10    4.76    0.28
   3 -13 -10    5.55    0.28
  -3  13   9   10.31    0.72
  -3  13   9    9.22    0.47
  -3  13   9    9.63    0.45
   3 -13  -9    9.27    0.45
   3 -13  -9    9.81    0.56
  -3  13   8    4.38    0.49
  -3  13   8    4.61    0.27
  -3  13   8    4.14    0.29
   3 -13  -8    4.03    0.32
   3 -13  -8    3.88    0.25
  -3  13   7    1.18    0.35
  -3  13   7    1.25    0.27
  -3  13   7    1.46    0.21
   3 -13  -7    1.81    0.22
  -3  13   6   20.42    0.79
  -3  13   6   19.78    0.82
  -3  13   6   17.26    0.96
  -3  13   6   19.05    0.79
   3 -13  -6   17.26    0.77
   3 -13  -6   17.22    0.82
  -3  13   5   16.38    1.60
  -3  13   5   18.58    0.76
  -3  13   5   18.27    0.76
  -3  13   5   19.53    0.92
  -3  13   5   18.99    0.79
   3 -13  -5   17.57    0.80
   3 -13  -5   16.85    0.75
  -3  13   4   36.90    2.06
  -3  13   4   40.16    1.64
  -3  13   4   38.19    1.50
  -3  13   4   37.54    1.52
  -3  13   4   37.68    1.50
   3 -13  -4   36.97    1.49
   3 -13  -4   36.58    1.54
  -3  13   3    5.08    0.38
  -3  13   3    5.10    0.70
  -3  13   3    4.96    0.25
   3 -13  -3    4.51    0.25
   3 -13  -3    4.95    0.29
  -3  13   2   11.43    0.53
  -3  13   2   12.20    0.84
  -3  13   2   12.30    0.64
   3 -13  -2   14.45    0.58
  -3  13   1   46.71    1.93
  -3  13   1   46.35    1.98
   3 -13  -1   46.48    1.86
  -3  13   0    6.57    0.40
   3 -13   0    5.08    0.29
   3 -13   0    5.08    0.30
   3 -13   1    1.43    0.16
   3 -13   1    1.39    0.13
   3 -13   1    1.44    0.18
   3 -13   2   12.27    0.55
   3 -13   2   11.31    0.51
   3 -13   2   11.33    0.55
   3 -13   3    7.35    0.36
   3 -13   3    7.51    0.39
   3 -13   4   14.08    0.82
   3 -13   4   15.60    0.70
   3 -13   4   15.59    0.66
   3 -13   5   10.62    0.70
   3 -13   6    6.74    0.60
   3 -13   6    6.77    0.40
   3 -13   6    6.52    0.35
   3 -13   7    1.01    0.23
   3 -13   7    0.99    0.18
   3 -13   8    0.17    0.15
  -2  12  10    7.91    0.38
   2 -12 -10    7.63    0.37
  -2  12   9    5.48    0.32
  -2  12   9    5.40    0.31
  -2  12   9    5.56    0.56
   2 -12  -9    5.55    0.30
  -2  12   8    4.17    0.28
  -2  12   8    3.89    0.24
  -2  12   8    3.71    0.46
  -2  12   8    4.27    0.33
   2 -12  -8    3.51    0.35
   2 -12  -8    3.44    0.23
  -2  12   7    0.65    0.19
  -2  12   7    0.75    0.18
  -2  12   7    0.57    0.21
  -2  12   7    0.21    0.24
  -2  12   7    0.38    0.10
   2 -12  -7    0.41    0.15
   2 -12  -7    0.47    0.13
  -2  12   6    8.30    0.41
  -2  12   6    8.42    0.42
  -2  12   6    8.33    0.44
  -2  12   6    8.37    0.41
  -2  12   6    7.15    0.54
   2 -12  -6    9.84    0.46
   2 -12  -6    9.75    0.41
  -2  12   5    1.94    0.15
  -2  12   5    1.46    0.19
  -2  12   5    1.71    0.20
  -2  12   5    1.96    0.83
  -2  12   5    1.74    0.28
  -2  12   5    1.57    0.19
   2 -12  -5    1.72    0.14
   2 -12  -5    1.50    0.18
  -2  12   4   34.03    1.90
  -2  12   4   33.26    1.39
  -2  12   4   36.14    1.51
  -2  12   4   34.87    1.42
  -2  12   4   34.90    1.39
   2 -12  -4   35.79    1.39
   2 -12  -4   36.06    1.43
  -2  12   3   17.30    0.80
  -2  12   3   16.26    1.07
  -2  12   3   16.48    0.71
  -2  12   3   16.25    0.69
   2 -12  -3   16.99    0.72
   2 -12  -3   17.30    0.69
  -2  12   2    0.11    0.07
  -2  12   2    0.30    0.14
  -2  12   2    0.09    0.23
  -2  12   1   17.31    0.78
  -2  12   1   18.48    0.95
  -2  12   1   15.85    0.69
   2 -12  -1   16.75    0.72
   2 -12  -1   16.68    1.12
   2 -12  -1   16.99    0.72
  -2  12   0   48.09    2.01
  -2  12   0   44.62    1.88
   2 -12   0   45.63    1.84
   2 -12   0   46.44    1.83
  -2  12  -1  103.08    4.03
  -2  12  -1  100.92    4.07
   2 -12   1   99.58    3.89
   2 -12   1   96.11    3.89
   2 -12   1   99.81    3.86
  -2  12  -2   77.10    3.21
   2 -12   2   80.24    3.03
   2 -12   2   78.18    3.05
   2 -12   2   75.83    3.13
   2 -12   3    7.86    0.49
   2 -12   3    7.88    0.39
   2 -12   3    7.99    0.36
   2 -12   3    7.67    0.37
   2 -12   3    7.36    0.41
   2 -12   4   42.60    1.82
   2 -12   4   42.18    1.67
   2 -12   4   40.91    1.67
   2 -12   4   42.72    1.71
   2 -12   5   12.70    0.78
   2 -12   5   14.48    0.62
   2 -12   5   14.31    0.66
   2 -12   5   14.93    0.62
   2 -12   6   24.92    1.03
   2 -12   6   24.30    1.42
   2 -12   6   24.56    1.07
   2 -12   7   18.43    0.79
   2 -12   7   18.55    0.83
   2 -12   7   18.31    0.79
   2 -12   7   18.39    1.02
   2 -12   8    9.06    0.90
   2 -12   8    9.10    0.45
  -1  11  10    1.86    0.30
  -1  11  10    2.12    0.19
   1 -11 -10    2.91    0.20
  -1  11   9    0.42    0.31
  -1  11   9    0.27    0.10
  -1  11   9    0.44    0.14
   1 -11  -9    0.29    0.09
  -1  11   8    6.47    0.35
  -1  11   8    6.41    0.57
  -1  11   8    6.56    0.36
  -1  11   8    6.77    0.40
   1 -11  -8    7.11    0.35
  -1  11   7   12.28    0.55
  -1  11   7   11.05    0.72
  -1  11   7   11.96    0.58
  -1  11   7   11.73    0.54
   1 -11  -7   13.11    0.54
   1 -11  -7   11.96    0.60
  -1  11   6   14.35    0.64
  -1  11   6   14.73    0.61
  -1  11   6   14.40    0.60
  -1  11   6   13.73    0.77
  -1  11   6   14.60    0.61
   1 -11  -6   13.23    0.60
   1 -11  -6   12.82    0.64
  -1  11   5   31.53    1.35
  -1  11   5   30.13    1.20
  -1  11   5   27.74    1.84
  -1  11   5   31.62    1.20
  -1  11   5   29.65    1.23
   1 -11  -5   28.55    1.23
   1 -11  -5   29.54    1.20
  -1  11   4    9.31    0.86
  -1  11   4    8.79    0.53
  -1  11   4   10.55    0.54
  -1  11   4    9.59    0.42
  -1  11   4    9.48    0.43
   1 -11  -4    8.82    0.44
   1 -11  -4    9.27    0.41
  -1  11   3   30.47    1.56
  -1  11   3   29.06    1.23
  -1  11   3   28.65    1.14
  -1  11   3   28.25    1.16
   1 -11  -3   28.24    1.17
   1 -11  -3   27.38    1.14
  -1  11   2   47.79    1.92
  -1  11   2   47.41    2.17
  -1  11   2   43.62    1.83
   1 -11  -2   48.40    1.84
   1 -11  -2   48.16    1.87
  -1  11   1    3.30    0.26
  -1  11   1    3.53    0.40
  -1  11   1    3.09    0.18
   1 -11  -1    3.17    0.58
   1 -11  -1    3.19    0.18
   1 -11  -1    3.26    0.20
  -1  11   0   31.50    1.47
  -1  11   0   29.32    1.29
   1 -11   0   31.10    1.26
   1 -11   0   32.79    1.26
   1 -11   0   31.61    1.53
  -1  11  -1  166.43    6.12
   1 -11   1  146.03    5.86
   1 -11   1  148.42    5.88
   1 -11   1  148.33    5.89
  -1  11  -2   55.80    2.45
  -1  11  -2   52.37    2.52
   1 -11   2   58.30    2.21
   1 -11   2   54.56    2.19
   1 -11   2   56.13    2.22
   1 -11   2   59.71    2.27
  -1  11  -3   15.85    1.03
   1 -11   3   17.06    0.70
   1 -11   3   16.49    0.71
   1 -11   3   16.73    0.68
   1 -11   3   15.28    0.67
   1 -11   3   16.55    0.77
  -1  11  -4   23.19    1.44
   1 -11   4   21.84    0.89
   1 -11   4   20.75    0.93
   1 -11   4   21.81    1.01
   1 -11   4   21.66    0.92
   1 -11   4   21.31    0.89
   1 -11   5    4.19    0.25
   1 -11   5    4.27    0.28
   1 -11   5    4.33    0.42
   1 -11   5    3.90    0.27
   1 -11   5    4.08    0.25
   1 -11   6    9.90    0.67
   1 -11   6   10.84    0.53
   1 -11   6   10.34    0.48
   1 -11   6   10.49    0.48
   1 -11   6   10.52    0.49
   1 -11   7   33.28    1.31
   1 -11   7   31.71    1.51
   1 -11   7   31.76    1.30
   1 -11   7   31.57    1.30
   1 -11   7   31.78    1.34
   1 -11   8    2.02    0.22
   1 -11   8    2.46    0.23
   1 -11   8    2.57    0.63
   1 -11   9    2.26    0.23
   1 -11   9    2.07    0.28
   0  10  10    3.38    0.36
   0  10  10    3.00    0.21
   0 -10 -10    2.61    0.23
   0 -10 -10    2.39    0.21
   0  10   9    3.49    0.25
   0  10   9    3.56    0.23
   0  10   9    3.53    0.50
   0 -10  -9    3.59    0.23
   0  10   8    4.58    0.29
   0  10   8    4.69    0.28
   0  10   8    4.65    0.51
   0  10   8    4.53    0.32
   0 -10  -8    5.08    0.28
   0  10   7   17.35    1.02
   0  10   7   20.12    0.85
   0  10   7   20.68    0.85
   0  10   7   20.51    0.88
   0 -10  -7   21.29    0.85
   0  10   6    7.31    0.38
   0  10   6    7.16    0.35
   0  10   6    6.88    0.50
   0  10   6    7.42    0.34
   0 -10  -6    5.72    0.33
   0  10   5   14.11    0.60
   0  10   5   14.23    0.63
   0  10   5   15.00    0.74
   0  10   5   14.29    0.60
   0  10   5   14.38    0.59
   0  10   5   13.70    1.23
   0 -10  -5   13.21    0.59
   0 -10  -5   12.88    0.63
   0  10   4   54.00    2.14
   0  10   4   54.52    2.14
   0  10   4   58.36    2.26
   0  10   4   54.69    2.14
   0  10   4   55.05    2.68
   0 -10  -4   53.22    2.14
   0 -10  -4   53.20    2.16
   0  10   3   21.91    1.28
   0  10   3   22.00    0.88
   0  10   3   22.43    0.91
   0 -10  -3   21.58    0.88
   0 -10  -3   21.73    0.91
   0  10   2   35.77    1.69
   0  10   2   33.43    1.34
   0  10   2   35.52    1.41
   0  10   2   34.92    1.36
   0 -10  -2   31.85    1.36
   0 -10  -2   33.33    1.34
   0  10   1   55.59    2.17
   0  10   1   56.93    2.42
   0 -10  -1   53.87    2.46
   0 -10  -1   53.47    2.11
   0 -10  -1   52.17    2.14
   0  10   0    0.13    0.13
   0  10   0    0.16    0.16
   0 -10   0    0.19    0.09
   0 -10   0    0.27    0.11
   0  10  -1   59.13    2.44
   0 -10   1   50.35    2.20
   0 -10   1   58.62    2.22
   0  10  -2   35.65    1.65
   0  10  -2   31.95    1.68
   0 -10   2   33.79    1.37
   0 -10   2   36.00    1.41
   0 -10   2   33.95    1.37
   0  10  -3   23.23    1.23
   0 -10   3   21.38    0.88
   0 -10   3   21.73    0.94
   0 -10   3   19.79    0.86
   0 -10   3   21.37    0.89
   0 -10   3   20.51    0.85
   0  10  -4   55.25    2.60
   0 -10   4   53.50    2.11
   0 -10   4   54.95    2.11
   0 -10   4   53.00    2.11
   0 -10   4   52.30    2.13
   0 -10   4   52.87    2.15
   0 -10   4   53.98    2.11
   0 -10   4   56.44    2.21
   0  10  -5   12.94    1.26
   0 -10   5   14.34    0.73
   0 -10   5   14.07    0.59
   0 -10   5   13.99    0.60
   0 -10   5   14.38    0.60
   0 -10   5   13.77    0.63
   0 -10   5   14.11    0.65
   0 -10   5   14.13    0.60
   0  10  -6    5.78    1.67
   0 -10   6    7.28    0.46
   0 -10   6    7.56    0.55
   0 -10   6    7.08    0.35
   0 -10   6    6.96    0.40
   0 -10   6    7.09    0.35
   0 -10   6    7.09    0.35
   0 -10   6    6.79    0.35
   0 -10   7   19.55    0.82
   0 -10   7   19.32    0.81
   0 -10   7   17.63    1.01
   0 -10   7   18.74    0.81
   0 -10   7   20.91    0.83
   0 -10   8    4.67    0.29
   0 -10   8    4.77    0.62
   0 -10   8    4.59    0.28
   0 -10   8    4.40    0.30
   0 -10   9    2.86    0.24
   0 -10   9    3.06    0.25
   1   9  10    2.02    0.20
  -1  -9 -10    1.68    0.20
   1   9   9    4.74    0.56
   1   9   9    4.22    0.32
   1   9   9    4.50    0.26
  -1  -9  -9    4.05    0.27
   1   9   8    5.73    0.33
   1   9   8    5.86    0.36
   1   9   8    5.74    0.32
   1   9   8    6.17    0.55
  -1  -9  -8    6.64    0.33
   1   9   7    2.62    0.41
   1   9   7    3.27    0.26
   1   9   7    2.84    0.32
   1   9   6    8.19    0.39
   1   9   6    7.73    0.41
   1   9   6    7.91    0.56
   1   9   6    7.73    0.38
  -1  -9  -6    8.00    0.38
   1   9   5   14.37    0.63
   1   9   5   13.57    1.29
   1   9   5   14.37    0.66
   1   9   5   14.64    0.63
   1   9   5   15.06    0.77
  -1  -9  -5   16.22    0.63
   1   9   4   45.70    1.84
   1   9   4   42.55    1.72
   1   9   4   41.61    2.25
   1   9   4   43.54    1.75
   1   9   4   43.15    1.72
  -1  -9  -4   44.48    1.80
  -1  -9  -4   44.27    1.72
   1   9   3  197.67    7.62
   1   9   3  180.61    7.12
   1   9   3  184.71    7.12
   1   9   3  178.78    7.14
   1   9   3  199.52    7.21
  -1  -9  -3  179.91    7.14
  -1  -9  -3  175.29    7.12
   1   9   2   35.15    1.36
   1   9   2   32.49    1.31
   1   9   2   32.77    1.63
  -1  -9  -2   30.63    1.29
   1   9   1  225.14    9.28
   1   9   1  254.31    9.61
   1   9   1  256.87    9.32
  -1  -9  -1  230.20    9.27
   1   9   0   88.69    3.66
  -1  -9   0   86.80    3.72
   1   9  -1   33.45    1.52
  -1  -9   1   29.60    1.54
  -1  -9   2   10.02    0.45
  -1  -9   2    9.90    0.42
   1   9  -3   68.16    3.00
  -1  -9   3   64.81    2.62
  -1  -9   3   68.99    2.62
  -1  -9   3   68.59    2.66
  -1  -9   3   67.74    2.67
   1   9  -4   71.30    3.14
  -1  -9   4   70.30    2.65
  -1  -9   4   70.12    2.69
  -1  -9   4   66.57    2.64
  -1  -9   4   63.71    2.64
  -1  -9   4   63.57    2.66
  -1  -9   4   70.72    2.72
  -1  -9   4   68.86    2.65
   1   9  -5   46.71    2.49
  -1  -9   5   48.42    1.99
  -1  -9   5   47.27    1.88
  -1  -9   5   48.35    1.98
  -1  -9   5   49.38    1.88
  -1  -9   5   48.14    1.88
  -1  -9   5   46.89    1.88
   1   9  -6   14.25    1.55
  -1  -9   6   15.07    0.64
  -1  -9   6   14.76    0.64
  -1  -9   6   15.22    0.64
  -1  -9   6   15.38    0.64
  -1  -9   6   15.37    0.80
  -1  -9   6   15.03    0.69
  -1  -9   7   47.61    1.85
  -1  -9   7   46.25    1.85
  -1  -9   7   46.60    1.84
  -1  -9   7   43.94    2.01
  -1  -9   7   47.11    1.90
  -1  -9   7   47.57    1.85
  -1  -9   8    9.20    0.43
  -1  -9   8    8.31    0.42
  -1  -9   8    8.53    0.73
  -1  -9   8    8.87    0.44
  -1  -9   8    8.63    0.42
  -1  -9   9   15.75    0.70
  -1  -9   9   16.46    0.70
  -1  -9  10    1.29    0.20
  -1  -9  10    0.92    0.20
   2   8   9    2.87    0.76
   2   8   9    3.26    0.24
   2   8   9    2.93    0.21
   2   8   9    3.01    0.28
  -2  -8  -9    2.34    0.21
   2   8   8    8.06    0.41
   2   8   8    7.69    0.65
   2   8   8    8.39    0.41
   2   8   8    8.31    0.45
  -2  -8  -8    8.60    0.41
   2   8   7    4.77    0.28
   2   8   7    4.46    0.49
   2   8   7    4.58    0.31
   2   8   7    4.93    0.28
  -2  -8  -7    4.33    0.27
   2   8   6    6.63    0.54
   2   8   6    7.08    0.38
   2   8   6    6.95    0.35
   2   8   6    6.86    0.35
  -2  -8  -6    6.12    0.34
   2   8   5   25.02    1.01
   2   8   5   24.20    1.03
   2   8   5   22.26    1.80
   2   8   5   25.57    1.16
   2   8   5   25.25    1.01
  -2  -8  -5   24.32    1.00
   2   8   4   12.32    0.53
   2   8   4   11.91    0.54
   2   8   4   13.28    0.66
   2   8   4   12.26    0.52
   2   8   4   11.47    1.03
  -2  -8  -4   10.77    0.51
   2   8   3  111.53    4.32
   2   8   3  113.48    4.32
   2   8   3  120.04    4.42
   2   8   3   99.12    5.28
  -2  -8  -3  114.63    4.32
   2   8   2   11.31    0.55
   2   8   2   10.61    0.78
   2   8   2   10.56    0.48
   2   8   2   10.98    0.48
  -2  -8  -2   11.74    0.47
   2   8   1   44.58    1.90
   2   8   1   42.07    1.60
   2   8   1   39.73    1.57
  -2  -8  -1   37.07    1.55
  -2  -8  -1   35.07    1.55
   2   8   0   91.16    3.84
  -2  -8   0   92.45    3.92
   2   8  -1   85.60    3.50
  -2  -8   1   79.50    3.53
   2   8  -2   27.03    1.33
  -2  -8   2   24.75    1.03
  -2  -8   2   24.26    1.00
   2   8  -3   64.59    2.68
  -2  -8   3   56.14    2.25
  -2  -8   3   56.62    2.25
  -2  -8   3   54.26    2.28
   2   8  -4   71.59    3.10
  -2  -8   4   63.96    2.64
  -2  -8   4   62.85    2.59
  -2  -8   4   66.82    2.63
  -2  -8   4   68.07    2.59
  -2  -8   4   67.09    2.59
   2   8  -5    0.88    0.55
  -2  -8   5    0.55    0.23
  -2  -8   5    0.49    0.19
  -2  -8   5    0.42    0.09
  -2  -8   5    0.50    0.13
  -2  -8   5    0.49    0.13
   2   8  -6   12.04    1.33
  -2  -8   6   12.55    0.54
  -2  -8   6   12.77    0.60
  -2  -8   6   12.94    0.55
  -2  -8   6   12.59    0.71
  -2  -8   6   12.64    0.55
  -2  -8   7   19.13    0.80
  -2  -8   7   18.59    0.80
  -2  -8   7   18.55    1.00
  -2  -8   7   19.61    0.80
  -2  -8   7   18.83    0.85
  -2  -8   7   19.31    0.80
  -2  -8   8   25.74    1.09
  -2  -8   8   22.72    1.06
  -2  -8   9    5.99    0.32
  -2  -8   9    5.91    0.33
  -2  -8   9    6.05    0.32
  -2  -8  10    7.93    0.39
   3   7   9    4.53    0.27
   3   7   9    4.44    0.33
  -3  -7  -9    4.80    0.27
   3   7   8    1.20    0.20
   3   7   8    2.00    0.55
   3   7   8    1.41    0.19
   3   7   8    1.32    0.17
  -3  -7  -8    1.69    0.17
   3   7   7    3.95    0.25
   3   7   7    4.13    0.29
   3   7   7    4.10    0.26
   3   7   7    4.65    0.51
  -3  -7  -7    3.23    0.27
   3   7   6    2.13    0.38
   3   7   6    2.12    0.24
   3   7   6    2.51    0.20
   3   7   6    2.27    0.20
  -3  -7  -6    2.25    0.21
   3   7   5    0.93    0.32
   3   7   5    1.13    0.16
   3   7   5    1.15    0.16
   3   7   5    1.00    0.15
  -3  -7  -5    1.17    0.16
   3   7   4    1.28    0.15
   3   7   4    1.43    0.14
   3   7   4    1.16    0.29
   3   7   4    1.45    0.15
   3   7   4    1.05    0.55
   3   7   3   12.89    0.56
   3   7   3   14.02    0.68
   3   7   3   12.89    1.03
   3   7   3   13.29    0.56
   3   7   3   12.81    0.58
  -3  -7  -3   13.62    0.56
   3   7   2   10.43    0.46
   3   7   2    9.93    0.44
   3   7   2   10.71    0.81
   3   7   2   10.77    0.54
   3   7   2    9.71    0.44
  -3  -7  -2    9.82    0.43
  -3  -7  -2    9.90    0.44
   3   7   1   68.37    2.71
   3   7   1   71.26    3.06
   3   7   1   71.26    2.74
  -3  -7  -1   67.03    2.69
  -3  -7  -1   68.75    2.69
   3   7   0   17.91    0.99
  -3  -7   0   16.27    0.69
  -3  -7   0   17.38    0.70
   3   7  -1  193.01    7.67
  -3  -7   1  187.82    7.33
  -3  -7   1  191.45    7.33
   3   7  -2  113.41    4.69
  -3  -7   2  109.10    4.34
  -3  -7   2  111.56    4.32
  -3  -7   2  113.99    4.32
   3   7  -3   66.85    2.93
  -3  -7   3   63.32    2.53
  -3  -7   3   64.13    2.50
  -3  -7   3   62.72    2.49
   3   7  -4   15.98    1.09
  -3  -7   4   16.48    0.68
  -3  -7   4   16.70    0.67
  -3  -7   4   17.04    0.72
  -3  -7   4   16.06    0.67
   3   7  -5   51.21    2.55
  -3  -7   5   47.87    1.92
  -3  -7   5   48.95    1.97
  -3  -7   5   48.32    1.92
  -3  -7   5   48.64    1.92
   3   7  -6    4.60    0.94
  -3  -7   6    4.55    0.25
  -3  -7   6    4.69    0.25
  -3  -7   6    4.56    0.29
  -3  -7   6    4.57    0.25
  -3  -7   7   49.01    2.00
  -3  -7   7   50.49    1.94
  -3  -7   7   47.31    1.94
  -3  -7   7   49.32    1.94
  -3  -7   8   14.78    0.64
  -3  -7   8   14.90    0.64
  -3  -7   8   14.14    0.63
  -3  -7   9   26.40    1.09
  -3  -7   9   26.38    1.08
  -3  -7   9   25.76    1.08
  -3  -7  10    0.87    0.17
  -3  -7  10    0.98    0.15
  -3  -7  11    8.26    0.41
  -3  -7  11    8.76    0.40
   4   6   8    0.23    0.12
   4   6   8    0.16    0.11
  -4  -6  -8    0.29    0.11
   4   6   7   11.41    0.54
   4   6   7   11.57    0.81
   4   6   7   12.05    0.58
   4   6   7   12.23    0.55
  -4  -6  -7   12.16    0.55
   4   6   6   18.16    0.76
   4   6   6   17.30    0.99
   4   6   6   17.15    0.79
   4   6   6   17.46    0.76
  -4  -6  -6   17.34    0.76
   4   6   5   14.69    0.67
   4   6   5   14.30    0.86
   4   6   5   15.42    0.68
   4   6   5   15.30    0.71
  -4  -6  -5   16.80    0.69
  -4  -6  -5   16.12    0.67
   4   6   4   34.35    1.48
   4   6   4   33.66    1.31
   4   6   4   32.73    1.31
   4   6   4   33.18    1.35
   4   6   4   28.14    2.20
  -4  -6  -4   31.77    1.30
  -4  -6  -4   32.95    1.32
   4   6   3   14.79    0.63
   4   6   3   14.83    0.77
   4   6   3   14.51    0.63
   4   6   3   13.86    1.24
   4   6   3   14.43    0.66
  -4  -6  -3   16.88    0.64
   4   6   2    3.64    0.20
   4   6   2    3.75    0.21
   4   6   2    3.42    0.33
  -4  -6  -2    3.32    0.20
  -4  -6  -2    3.15    0.20
   4   6   1   20.11    0.80
   4   6   1   20.41    0.87
   4   6   1   18.17    0.77
   4   6   1   20.30    1.17
  -4  -6  -1   17.11    0.77
  -4  -6  -1   17.93    0.77
   4   6   0   29.35    1.23
   4   6   0   29.99    1.27
   4   6   0   31.97    1.58
  -4  -6   0   31.49    1.22
  -4  -6   0   30.93    1.21
  -4  -6   1    4.22    0.21
  -4  -6   1    4.05    0.21
  -4  -6   1    3.84    0.21
   4   6  -2   39.15    1.91
  -4  -6   2   40.06    1.54
  -4  -6   2   40.26    1.57
  -4  -6   2   40.96    1.54
  -4  -6   2   35.88    1.53
   4   6  -3   95.31    4.20
  -4  -6   3   97.74    3.74
  -4  -6   3   97.63    3.75
  -4  -6   3   97.39    3.75
  -4  -6   3   96.61    3.78
   4   6  -4    8.50    1.05
  -4  -6   4    8.47    0.38
  -4  -6   4    8.59    0.38
  -4  -6   4    8.68    0.42
  -4  -6   4    8.74    0.38
   4   6  -5   46.70    2.62
  -4  -6   5   52.75    2.05
  -4  -6   5   55.13    2.09
  -4  -6   5   53.80    2.05
   4   6  -6    7.71    1.12
  -4  -6   6    9.24    0.46
  -4  -6   6    9.14    0.41
  -4  -6   6    9.44    0.41
  -4  -6   6    9.12    0.41
  -4  -6   7    0.84    0.13
  -4  -6   7    0.80    0.13
  -4  -6   7    0.82    0.14
  -4  -6   7    0.64    0.19
  -4  -6   8   22.07    0.93
  -4  -6   8   22.67    0.94
  -4  -6   8   22.53    0.94
  -4  -6   9    0.03    0.09
  -4  -6   9    0.16    0.09
  -4  -6   9    0.05    0.10
   4   6 -10    0.15    0.18
  -4  -6  10    0.04    0.10
  -4  -6  10    0.15    0.09
  -4  -6  10   -0.07    0.08
  -4  -6  11    4.74    0.28
  -4  -6  11    4.85    0.27
   5   5   8    3.13    0.26
  -5  -5  -8    2.92    0.22
   5   5   7    1.48    0.19
   5   5   7    1.24    0.49
  -5  -5  -7    1.26    0.17
   5   5   6   12.29    1.08
   5   5   6   15.15    0.66
   5   5   6   15.31    0.69
  -5  -5  -6   14.93    0.65
   5   5   5    5.20    0.55
   5   5   5    5.60    0.31
   5   5   5    5.73    0.34
  -5  -5  -5    4.75    0.30
   5   5   4   22.61    0.95
   5   5   4   22.37    0.98
   5   5   4   20.69    1.12
   5   5   4   23.01    0.95
  -5  -5  -4   23.77    0.95
   5   5   3   14.53    0.63
   5   5   3   15.04    0.81
   5   5   3   14.16    0.66
  -5  -5  -3   14.36    0.63
   5   5   2   19.78    1.47
   5   5   2   20.22    0.85
   5   5   2   21.59    0.99
   5   5   2   20.28    0.87
  -5  -5  -2   20.47    0.85
   5   5   1   38.32    1.57
   5   5   1   36.67    1.92
   5   5   1   37.22    1.49
   5   5   1   35.69    1.46
  -5  -5  -1   37.59    1.46
  -5  -5  -1   35.34    1.45
   5   5   0   40.94    1.62
   5   5   0   41.42    2.01
   5   5   0   40.39    1.67
  -5  -5   0   41.08    1.60
  -5  -5   0   38.54    1.59
   5   5  -1   47.10    2.12
  -5  -5   1   43.07    1.69
  -5  -5   1   43.39    1.68
  -5  -5   1   41.97    1.68
  -5  -5   1   38.98    1.71
   5   5  -2   15.43    1.03
  -5  -5   2   15.06    0.61
  -5  -5   2   14.45    0.61
  -5  -5   2   13.97    0.64
  -5  -5   2   14.69    0.61
   5   5  -3    1.29    0.50
  -5  -5   3    0.74    0.11
  -5  -5   3    0.75    0.11
  -5  -5   3    0.74    0.12
  -5  -5   3    0.69    0.15
   5   5  -4   26.82    1.66
  -5  -5   4   27.49    1.11
  -5  -5   4   28.10    1.16
  -5  -5   4   27.64    1.11
  -5  -5   4   28.09    1.11
   5   5  -5   57.80    3.01
  -5  -5   5   58.69    2.36
  -5  -5   5   57.66    2.31
  -5  -5   5   60.74    2.31
  -5  -5   5   59.76    2.31
   5   5  -6   24.21    1.97
  -5  -5   6   28.79    1.14
  -5  -5   6   29.50    1.14
  -5  -5   6   28.88    1.14
  -5  -5   6   28.95    1.20
  -5  -5   7   14.17    0.61
  -5  -5   7   13.59    0.61
  -5  -5   7   14.10    0.67
  -5  -5   7   13.61    0.60
  -5  -5   8   20.32    0.93
  -5  -5   9   12.05    0.56
  -5  -5   9   12.68    0.57
  -5  -5   9   12.48    0.56
   5   5 -10    1.25    0.23
  -5  -5  10    1.03    0.17
  -5  -5  10    0.92    0.15
  -5  -5  10    1.11    0.15
  -5  -5  11    2.98    0.21
  -5  -5  11    3.20    0.23
   6   4   7    2.27    0.24
   6   4   7    2.29    0.23
  -6  -4  -7    2.97    0.22
   6   4   6    2.27    0.69
   6   4   6    2.33    0.22
   6   4   6    2.36    0.22
  -6  -4  -6    3.00    0.22
   6   4   5    5.38    0.34
   6   4   5    5.57    0.63
   6   4   5    4.95    0.32
  -6  -4  -5    5.97    0.31
   6   4   4    0.15    0.12
   6   4   4    0.12    0.11
   6   4   4    0.01    0.30
  -6  -4  -4    0.31    0.11
   6   4   3   22.10    0.92
   6   4   3   21.97    0.95
   6   4   3   20.90    1.10
  -6  -4  -3   22.23    0.92
   6   4   2   26.29    1.09
   6   4   2   26.74    1.12
   6   4   2   28.68    1.27
  -6  -4  -2   25.02    1.09
   6   4   1   13.56    0.73
   6   4   1   13.48    0.58
   6   4   1   13.91    0.61
  -6  -4  -1   11.97    0.57
   6   4   0    5.48    0.31
   6   4   0    5.09    0.85
  -6  -4   0    5.53    0.28
  -6  -4   0    4.97    0.27
   6   4  -1   13.67    1.10
  -6  -4   1   15.39    0.62
  -6  -4   1   15.23    0.63
   6   4  -2    4.10    0.76
  -6  -4   2    4.19    0.30
  -6  -4   2    4.35    0.24
  -6  -4   2    4.75    0.24
  -6  -4   2    4.57    0.23
   6   4  -3    2.90    0.74
  -6  -4   3    2.55    0.17
  -6  -4   3    2.65    0.19
  -6  -4   3    2.98    0.25
  -6  -4   3    2.54    0.18
   6   4  -4   61.61    3.16
  -6  -4   4   61.20    2.48
  -6  -4   4   64.99    2.52
  -6  -4   4   63.64    2.47
  -6  -4   4   65.06    2.48
   6   4  -5   49.53    2.94
  -6  -4   5   56.21    2.19
  -6  -4   5   53.86    2.14
  -6  -4   5   55.31    2.13
  -6  -4   5   56.33    2.14
  -6  -4   6    9.30    0.45
  -6  -4   6   10.15    0.50
  -6  -4   6    9.86    0.45
  -6  -4   6    9.71    0.44
  -6  -4   7   10.17    0.47
  -6  -4   7   10.09    0.46
  -6  -4   7   10.08    0.47
  -6  -4   8   17.26    0.72
  -6  -4   8   16.89    0.72
  -6  -4   8   15.41    0.71
  -6  -4   9   16.91    0.73
  -6  -4   9   17.01    0.73
  -6  -4   9   16.89    0.73
   6   4 -10    1.01    0.21
  -6  -4  10    0.85    0.14
  -6  -4  10    0.70    0.14
  -6  -4  10    0.86    0.14
   6   4 -11    5.39    0.39
  -6  -4  11    6.22    0.31
  -6  -4  11    6.67    0.33
   7   3   6    2.84    0.24
   7   3   6    3.17    0.30
  -7  -3  -6    3.25    0.25
  -7  -3  -6    2.90    0.23
   7   3   5    5.64    0.38
   7   3   5    4.61    0.87
   7   3   5    5.29    0.33
  -7  -3  -5    5.64    0.31
   7   3   4    6.49    0.35
   7   3   4    6.77    0.37
  -7  -3  -4    5.54    0.33
   7   3   3   18.89    0.85
   7   3   3   19.22    0.82
   7   3   3   18.01    1.05
  -7  -3  -3   19.35    0.82
   7   3   2   27.53    1.13
   7   3   2   25.34    1.31
   7   3   2   26.93    1.16
  -7  -3  -2   29.00    1.13
   7   3   1    3.80    0.26
   7   3   1    3.83    0.27
  -7  -3  -1    2.93    0.22
  -7  -3  -1    2.93    0.22
   7   3   0    2.58    0.24
  -7  -3   0    2.85    0.19
  -7  -3   0    2.55    0.19
  -7  -3   1   10.40    0.48
  -7  -3   1   10.74    0.48
  -7  -3   2    1.65    0.14
  -7  -3   2    1.42    0.15
  -7  -3   3    2.55    0.19
  -7  -3   3    2.68    0.18
   7   3  -4    1.91    0.93
  -7  -3   4    1.91    0.17
  -7  -3   4    2.05    0.19
  -7  -3   4    2.16    0.18
  -7  -3   5   22.39    0.93
  -7  -3   5   23.27    0.94
  -7  -3   5   22.46    0.94
  -7  -3   6   19.90    0.84
  -7  -3   6   19.90    0.83
  -7  -3   6   19.60    0.83
  -7  -3   7   41.14    1.67
  -7  -3   7   40.94    1.67
  -7  -3   7   42.98    1.68
  -7  -3   8    5.37    0.30
  -7  -3   8    5.56    0.31
  -7  -3   8    5.35    0.29
   7   3  -9   20.98    0.91
  -7  -3   9   20.32    0.86
  -7  -3   9   19.87    0.86
  -7  -3   9   19.52    0.85
   7   3 -10    4.44    0.31
  -7  -3  10    3.97    0.26
  -7  -3  10    4.04    0.25
  -7  -3  10    4.17    0.25
  -7  -3  11    0.12    0.11
  -7  -3  11    0.35    0.12
   8   2   5    2.44    0.26
  -8  -2  -5    3.24    0.23
  -8  -2  -5    4.22    0.43
   8   2   4    5.36    0.34
   8   2   4    5.95    0.37
  -8  -2  -4    4.72    0.34
  -8  -2  -4    5.77    0.31
   8   2   3   45.16    1.85
   8   2   3   45.48    1.82
  -8  -2  -3   45.10    1.81
  -8  -2  -3   45.11    1.81
   8   2   2   15.92    0.73
   8   2   2   15.61    0.75
  -8  -2  -2   17.07    0.72
  -8  -2  -2   17.22    0.73
   8   2   1   28.34    1.24
  -8  -2  -1   27.69    1.16
  -8  -2  -1   28.48    1.17
   8   2   0    3.57    0.33
  -8  -2   0    3.98    0.26
  -8  -2   0    4.04    0.25
  -8  -2   1    0.68    0.15
  -8  -2   1    0.93    0.16
  -8  -2   2   49.25    1.96
  -8  -2   2   49.54    1.97
  -8  -2   3   20.73    0.87
  -8  -2   3   20.88    0.88
  -8  -2   4    9.68    0.47
  -8  -2   4   10.20    0.46
  -8  -2   5   13.42    0.62
  -8  -2   5   12.73    0.58
  -8  -2   5   12.98    0.58
  -8  -2   6    1.29    0.17
  -8  -2   6    1.29    0.19
  -8  -2   7    0.32    0.10
  -8  -2   7    0.41    0.12
  -8  -2   7    0.45    0.12
   8   2  -8   14.35    0.68
  -8  -2   8   14.16    0.63
  -8  -2   8   14.01    0.62
  -8  -2   8   13.90    0.63
   8   2  -9    4.65    0.31
  -8  -2   9    4.05    0.26
  -8  -2   9    3.92    0.26
  -8  -2   9    4.11    0.26
   8   2 -10   16.34    0.74
  -8  -2  10   15.84    0.70
  -8  -2  10   16.50    0.70
  -9  -1  -4   -0.10    0.12
   9   1   3    7.83    0.48
  -9  -1  -3   10.41    0.61
  -9  -1  -3    8.86    0.42
   9   1   2    8.54    0.48
  -9  -1  -2    8.66    0.45
  -9  -1  -2    8.59    0.42
   9   1   1    0.62    0.24
  -9  -1  -1    0.99    0.22
  -9  -1  -1    0.77    0.16
  -9  -1   0   25.67    1.06
  -9  -1   0   25.08    1.06
  -9  -1   1    4.27    0.26
  -9  -1   1    4.48    0.29
  -9  -1   2   28.67    1.20
  -9  -1   2   29.79    1.20
  -9  -1   3    2.58    0.26
  -9  -1   3    2.54    0.20
  -9  -1   4   18.81    0.79
  -9  -1   4   18.10    0.79
   9   1  -5    1.42    0.26
  -9  -1   5    1.41    0.19
  -9  -1   5    1.66    0.17
   9   1  -6    3.62    0.32
  -9  -1   6    5.01    0.27
  -9  -1   6    4.60    0.28
   9   1  -7    0.37    0.15
  -9  -1   7    0.27    0.12
  -9  -1   7    0.45    0.11
   9   1  -8    0.98    0.21
  -9  -1   8    1.33    0.16
  -9  -1   8    0.98    0.17
  -9  -1   9    3.39    0.25
  -9  -1   9    3.48    0.26
   9   1 -10   11.37    0.55
  -9  -1  10   12.10    0.52
  -9  -1  10   11.21    0.54
 -10   0  -2    1.07    0.17
 -10   0  -1   -0.06    0.10
 -10   0   0    8.77    0.43
 -10   0   1   -0.10    0.09
 -10   0   2    9.46    0.45
 -10   0   2    8.94    0.48
 -10   0   3    0.17    0.15
 -10   0   3   -0.04    0.09
 -10   0   4   20.74    0.88
 -10   0   4   20.36    0.87
 -10   0   5   -0.01    0.10
 -10   0   5   -0.11    0.16
  10   0  -6   14.62    0.70
 -10   0   6   13.93    0.64
 -10   0   6   14.50    0.64
  10   0  -7    0.11    0.16
 -10   0   7    0.05    0.22
 -10   0   7   -0.10    0.09
  10   0  -8    1.63    0.24
 -10   0   8    1.76    0.27
 -10   0   8    1.74    0.18
  10   0  -9   -0.10    0.15
 -10   0   9    0.01    0.10
 -11   1   0    5.02    0.28
 -11   1   1    0.55    0.16
 -11   1   2    0.78    0.16
 -11   1   3    1.09    0.17
 -11   1   4    3.92    0.25
 -11   1   5    2.88    0.25
 -11   1   6    6.89    0.35
 -11   1   7    2.45    0.20
 -11   1   8    5.32    0.29
 -12   2   3    2.04    0.23
 -12   2   4    0.46    0.12
 -12   2   5    1.77    0.20
  -9  21   4    1.44    0.22
  -9  21   3    7.85    0.38
  -8  20   7    3.03    0.22
   8 -20  -7    2.88    0.28
  -8  20   6    1.33    0.18
   8 -20  -6    1.46    0.24
  -8  20   5    5.74    0.30
   8 -20  -5    5.48    0.36
  -8  20   4    1.81    0.54
  -8  20   4    1.12    0.22
   8 -20  -4    1.04    0.27
  -8  20   3    3.98    0.25
  -8  20   3    3.55    0.56
  -8  20   2    2.16    0.21
  -8  20   2    2.53    0.58
  -8  20   1    2.34    0.63
  -8  20   1    2.13    0.19
  -8  20   0    2.83    0.22
  -8  20  -1   13.97    0.60
  -7  19   8    4.76    0.28
   7 -19  -8    4.99    0.31
   7 -19  -7   18.88    0.84
  -7  19   6    2.80    0.21
  -7  19   6    2.89    0.57
   7 -19  -6    2.57    0.24
  -7  19   5   17.44    1.01
  -7  19   5   18.16    0.78
   7 -19  -5   19.38    0.84
  -7  19   4   10.89    0.74
  -7  19   4   10.61    0.50
   7 -19  -4   10.92    0.56
  -7  19   3    6.91    0.35
   7 -19  -3    6.26    0.40
  -7  19   2    2.25    0.20
   7 -19  -2    1.94    0.29
  -7  19   1    0.34    0.11
  -7  19   1    0.17    0.31
  -7  19   0    1.98    0.18
  -7  19   0    1.19    0.37
   7 -19   0    2.27    0.23
  -7  19  -1   14.02    0.62
  -7  19  -1   14.55    0.89
   7 -19   1   14.27    0.67
  -7  19  -2    1.57    0.47
  -7  19  -2    1.81    0.18
   7 -19   2    1.61    0.21
  -7  19  -3    6.34    0.33
   7 -19   3    6.59    0.36
  -6  18   9   -0.09    0.11
   6 -18  -9   -0.11    0.14
  -6  18   8    0.62    0.15
  -6  18   8    0.73    0.41
   6 -18  -8    0.74    0.18
  -6  18   7    2.65    0.21
  -6  18   7    2.40    0.49
   6 -18  -7    2.78    0.25
  -6  18   6    6.00    0.33
   6 -18  -6    6.08    0.37
  -6  18   5    1.89    0.18
  -6  18   5    2.02    0.42
   6 -18  -5    1.61    0.21
  -6  18   4   17.51    0.99
  -6  18   4   18.54    0.79
  -6  18   4   18.80    0.83
   6 -18  -4   18.20    0.84
  -6  18   3   40.53    1.62
  -6  18   3   41.14    1.83
   6 -18  -3   39.29    1.67
  -6  18   2   11.60    0.75
  -6  18   2   11.91    0.55
   6 -18  -2   12.52    0.61
  -6  18   1    9.68    0.66
  -6  18   1   10.19    0.44
   6 -18  -1    8.90    0.48
   6 -18  -1    7.96    0.49
  -6  18   0    0.32    0.28
  -6  18   0    0.41    0.11
   6 -18   0    0.34    0.13
  -6  18  -1    4.92    0.52
   6 -18   1    4.29    0.31
  -6  18  -2    3.69    0.54
   6 -18   2    3.57    0.27
  -6  18  -3    1.73    0.53
   6 -18   3    2.46    0.22
   6 -18   4    3.21    0.25
   6 -18   5    3.08    0.26
  -5  17   9    2.74    0.20
   5 -17  -9    1.91    0.26
   5 -17  -9    2.53    0.26
  -5  17   8    2.23    0.19
  -5  17   8    2.71    0.52
   5 -17  -8    1.66    0.32
   5 -17  -8    1.91    0.22
  -5  17   7   15.41    0.95
   5 -17  -7   16.88    0.77
   5 -17  -7   17.41    0.73
  -5  17   6    2.40    0.44
  -5  17   6    2.13    0.19
   5 -17  -6    2.30    0.24
  -5  17   5   15.61    0.89
  -5  17   5   16.18    0.70
  -5  17   5   16.93    0.76
   5 -17  -5   15.56    0.75
  -5  17   4    0.99    0.15
  -5  17   4    0.54    0.24
  -5  17   4    0.74    0.22
   5 -17  -4    0.56    0.17
  -5  17   3   24.07    0.99
  -5  17   3   22.84    1.17
   5 -17  -3   24.36    1.04
  -5  17   2   10.97    0.69
  -5  17   2   11.64    0.51
   5 -17  -2   10.97    0.56
  -5  17   1   24.83    1.02
  -5  17   1   21.90    1.18
   5 -17  -1   25.92    1.08
   5 -17  -1   26.25    1.07
  -5  17   0    3.81    0.43
   5 -17   0    3.38    0.30
   5 -17   0    3.31    0.26
  -5  17  -1    9.16    0.67
   5 -17   1   10.82    0.55
  -5  17  -2   -0.06    0.27
   5 -17   2    0.29    0.12
  -5  17  -3    1.70    0.48
   5 -17   3    2.17    0.22
  -5  17  -4    3.19    0.58
   5 -17   4    3.17    0.26
  -5  17  -5    1.99    0.72
   5 -17   5    2.08    0.25
   5 -17   6    5.07    0.33
  -4  16  10    3.64    0.24
  -4  16   9    7.67    0.69
   4 -16  -9    8.02    0.45
   4 -16  -9    7.93    0.38
  -4  16   8    6.99    0.36
  -4  16   8    6.80    0.62
   4 -16  -8    6.87    0.41
   4 -16  -8    6.77    0.35
  -4  16   7    2.16    0.40
  -4  16   7    2.11    0.19
   4 -16  -7    2.06    0.23
   4 -16  -7    1.90    0.19
  -4  16   6   12.92    0.58
  -4  16   6   11.54    0.76
   4 -16  -6   12.72    0.65
   4 -16  -6   13.80    0.63
  -4  16   5    1.88    0.37
  -4  16   5    1.78    0.17
  -4  16   5    2.12    0.25
   4 -16  -5    2.22    0.21
   4 -16  -5    2.21    0.21
  -4  16   4    0.10    0.08
  -4  16   4    0.01    0.12
  -4  16   4   -0.20    0.19
   4 -16  -4    0.18    0.12
   4 -16  -4    0.03    0.09
  -4  16   3    8.26    0.37
  -4  16   3    7.58    0.59
   4 -16  -3    6.79    0.40
  -4  16   2   12.75    0.53
  -4  16   2   12.78    0.69
   4 -16  -2   10.88    0.57
  -4  16   1   11.02    0.52
  -4  16   1   12.84    0.70
   4 -16  -1   12.50    0.58
   4 -16  -1   11.86    0.57
  -4  16   0   14.00    0.84
   4 -16   0   13.93    0.65
   4 -16   0   14.44    0.65
  -4  16  -1   20.68    1.04
   4 -16   1   21.13    0.91
   4 -16   1   21.08    0.92
   4 -16   2    4.05    0.28
   4 -16   4    2.32    0.20
   4 -16   4    2.33    0.23
   4 -16   5    2.69    0.25
   4 -16   5    2.63    0.22
   4 -16   6    5.00    0.33
   4 -16   7    3.20    0.44
  -3  15  10    0.90    0.17
   3 -15 -10    1.47    0.16
  -3  15   9    3.55    0.52
  -3  15   9    3.51    0.23
   3 -15  -9    3.86    0.23
  -3  15   8    4.99    0.54
  -3  15   8    4.75    0.27
   3 -15  -8    4.51    0.34
   3 -15  -8    4.36    0.26
  -3  15   7   20.20    0.92
  -3  15   7   20.13    1.09
  -3  15   7   20.68    0.89
   3 -15  -7   21.56    0.94
   3 -15  -7   22.21    0.89
  -3  15   6   11.65    0.55
  -3  15   6   12.36    0.51
  -3  15   6   10.37    0.69
   3 -15  -6   10.47    0.50
   3 -15  -6   10.14    0.54
  -3  15   5    5.46    0.48
  -3  15   5    5.93    0.31
  -3  15   5    5.67    0.35
   3 -15  -5    6.12    0.35
   3 -15  -5    5.85    0.30
  -3  15   4    7.41    0.50
  -3  15   4    7.51    0.34
  -3  15   4    7.84    0.38
  -3  15   4    6.85    1.23
   3 -15  -4    6.05    0.37
   3 -15  -4    6.06    0.33
  -3  15   3    6.65    0.45
  -3  15   3    5.37    1.07
  -3  15   3    6.02    0.29
   3 -15  -3    5.13    0.29
   3 -15  -3    5.04    0.31
  -3  15   2    0.64    0.20
  -3  15   2    0.69    0.12
  -3  15   1   85.12    3.45
  -3  15   1   84.14    3.32
   3 -15  -1   88.24    3.36
   3 -15  -1   84.67    3.36
  -3  15   0   20.35    0.99
   3 -15   0   21.64    0.91
   3 -15   0   22.09    0.92
  -3  15  -1    6.96    0.49
   3 -15   1    7.04    0.36
   3 -15   1    6.82    0.37
   3 -15   2   17.72    0.80
   3 -15   2   18.28    0.76
   3 -15   2   18.56    0.80
   3 -15   3    0.09    0.10
   3 -15   3   -0.02    0.09
   3 -15   4   12.73    0.57
   3 -15   4   12.94    0.61
   3 -15   5    3.45    0.28
   3 -15   5    3.61    0.24
   3 -15   6    0.55    0.14
   3 -15   6    0.54    0.16
   3 -15   7    2.17    0.24
   3 -15   7    1.96    0.27
  -2  14  10   14.05    0.59
   2 -14 -10   12.76    0.58
  -2  14   9    1.62    0.17
  -2  14   9    1.92    0.50
   2 -14  -9    1.33    0.16
  -2  14   8   14.71    0.67
  -2  14   8   14.86    0.89
  -2  14   8   15.46    0.71
   2 -14  -8   15.09    0.66
   2 -14  -8   15.74    0.74
  -2  14   7    5.64    0.35
  -2  14   7    5.63    0.52
  -2  14   7    5.64    0.31
   2 -14  -7    5.62    0.30
   2 -14  -7    5.24    0.45
  -2  14   6   21.53    1.18
  -2  14   6   25.20    1.06
  -2  14   6   25.62    1.03
   2 -14  -6   26.34    1.02
   2 -14  -6   24.98    1.06
  -2  14   5   19.97    0.81
  -2  14   5   18.26    1.03
  -2  14   5   19.64    0.84
   2 -14  -5   19.45    0.81
   2 -14  -5   19.56    0.85
  -2  14   4   38.19    1.58
  -2  14   4   36.23    1.44
  -2  14   4   35.26    2.08
  -2  14   4   36.02    1.46
   2 -14  -4   35.83    1.43
   2 -14  -4   34.63    1.47
  -2  14   3    7.61    0.37
  -2  14   3    7.49    0.87
  -2  14   3    7.39    0.46
  -2  14   3    7.49    0.34
   2 -14  -3    7.07    0.37
   2 -14  -3    7.01    0.34
  -2  14   2   20.46    0.85
  -2  14   2   21.37    0.96
  -2  14   2   20.31    1.25
   2 -14  -2   21.80    0.89
   2 -14  -2   20.67    0.85
  -2  14   1   28.39    1.20
  -2  14   1   28.20    1.44
  -2  14   1   26.55    1.09
   2 -14  -1   26.66    1.09
  -2  14   0   53.81    2.29
  -2  14   0   52.97    2.11
   2 -14   0   51.51    2.05
   2 -14   0   47.72    2.07
  -2  14  -1   39.07    1.64
  -2  14  -1   38.21    1.79
   2 -14   1   41.07    1.58
   2 -14   1   37.67    1.60
   2 -14   2   36.08    1.50
   2 -14   2   36.98    1.50
   2 -14   2   37.76    1.47
   2 -14   3    3.06    0.26
   2 -14   3    3.06    0.23
   2 -14   3    3.07    0.20
   2 -14   4   28.91    1.17
   2 -14   4   28.52    1.20
   2 -14   5   20.41    0.86
   2 -14   5   21.32    0.90
   2 -14   5   19.45    1.04
   2 -14   6    0.38    0.15
   2 -14   6    0.11    0.12
   2 -14   7    2.59    0.29
   2 -14   7    2.49    0.24
   2 -14   8    0.19    0.26
  -1  13  10    2.16    0.20
   1 -13 -10    2.67    0.19
  -1  13   9    2.85    0.22
  -1  13   9    2.95    0.52
   1 -13  -9    2.96    0.21
  -1  13   8    6.91    0.39
  -1  13   8    6.83    0.36
  -1  13   8    6.35    0.59
  -1  13   8    6.80    0.41
   1 -13  -8    7.57    0.36
  -1  13   7   10.60    0.50
  -1  13   7   10.66    0.55
  -1  13   7   11.66    0.52
  -1  13   7   10.60    0.70
   1 -13  -7   11.27    0.58
   1 -13  -7   10.51    0.50
  -1  13   6   23.22    0.95
  -1  13   6   22.72    0.95
  -1  13   6   20.90    1.11
  -1  13   6   22.44    0.98
   1 -13  -6   24.03    0.95
   1 -13  -6   23.61    0.99
  -1  13   5   27.04    1.11
  -1  13   5   25.65    1.11
  -1  13   5   24.53    1.86
  -1  13   5   27.36    1.09
  -1  13   5   27.36    1.24
   1 -13  -5   27.52    1.08
   1 -13  -5   26.32    1.11
  -1  13   4   10.00    1.03
  -1  13   4   10.79    0.51
  -1  13   4   10.67    0.48
  -1  13   4   10.43    0.60
   1 -13  -4   12.16    0.48
   1 -13  -4   11.81    0.52
  -1  13   3    1.37    0.13
  -1  13   3    1.55    0.16
  -1  13   3    1.56    0.25
  -1  13   3    1.50    0.51
   1 -13  -3    1.35    0.14
   1 -13  -3    1.20    0.19
  -1  13   2   62.25    2.90
  -1  13   2   60.61    2.50
  -1  13   2   62.87    2.59
   1 -13  -2   68.55    2.50
   1 -13  -2   67.26    2.54
  -1  13   1    3.25    0.20
  -1  13   1    3.69    0.30
  -1  13   1    3.55    0.47
   1 -13  -1    3.28    0.21
   1 -13  -1    3.13    0.19
  -1  13   0    1.24    0.37
  -1  13   0    1.53    0.24
   1 -13   0    0.83    0.13
   1 -13   0    1.05    0.14
   1 -13   0    1.32    0.14
   1 -13   0    0.82    0.52
  -1  13  -1   34.23    1.62
  -1  13  -1   34.30    1.39
   1 -13   1   30.18    1.30
   1 -13   1   33.40    1.34
   1 -13   1   33.10    1.33
   1 -13   2   26.67    1.10
   1 -13   2   27.87    1.11
   1 -13   2   27.97    1.14
   1 -13   2   28.18    1.13
  -1  13  -3   63.54    2.91
   1 -13   3   65.00    2.53
   1 -13   3   63.44    2.50
   1 -13   4   29.08    1.25
   1 -13   4   30.15    1.21
   1 -13   4   30.15    1.24
   1 -13   4   31.30    1.35
   1 -13   5   10.98    0.52
   1 -13   5   10.20    0.93
   1 -13   5   10.85    0.49
   1 -13   5   10.23    0.49
   1 -13   6   30.28    1.21
   1 -13   6   29.76    1.20
   1 -13   6   30.01    1.24
   1 -13   6   27.35    1.37
   1 -13   7    4.27    0.29
   1 -13   7    4.52    0.62
   1 -13   7    4.41    0.35
   1 -13   7    4.49    0.30
   1 -13   8    3.57    0.29
   0  12  10    2.10    0.19
   0 -12 -10    2.47    0.21
   0  12   9    9.26    0.72
   0  12   9    9.08    0.50
   0  12   9    9.54    0.44
   0 -12  -9    9.33    0.44
   0 -12  -9    9.27    0.47
   0  12   8    6.27    0.56
   0  12   8    6.01    0.34
   0  12   8    5.99    0.32
   0  12   8    5.42    0.35
   0 -12  -8    5.15    0.30
   0  12   7   12.69    0.57
   0  12   7   12.36    0.59
   0  12   7   11.92    0.76
   0 -12  -7   12.56    0.56
   0  12   6   37.85    1.54
   0  12   6   37.47    1.50
   0  12   6   37.72    1.50
   0  12   6   35.29    1.66
   0 -12  -6   37.88    1.50
   0  12   5   11.47    0.50
   0  12   5   11.93    0.66
   0  12   5    9.73    1.25
   0  12   5   10.58    0.50
   0  12   5   11.48    0.53
   0 -12  -5   11.49    0.49
   0 -12  -5   11.23    0.54
   0  12   4   59.43    2.99
   0  12   4   61.81    2.39
   0  12   4   65.07    2.49
   0  12   4   62.56    2.36
   0 -12  -4   55.88    2.38
   0 -12  -4   56.43    2.35
   0  12   3   28.61    1.21
   0  12   3   26.69    1.10
   0  12   3   27.69    1.59
   0  12   3   27.10    1.13
   0 -12  -3   27.63    1.10
   0 -12  -3   27.48    1.13
   0  12   2   15.09    0.70
   0  12   2   15.04    0.99
   0  12   2   15.56    0.65
   0  12   2   14.48    0.62
   0 -12  -2   15.48    0.62
   0 -12  -2   14.89    0.65
   0  12   1   13.84    0.63
   0  12   1   13.54    0.87
   0 -12  -1   13.19    0.55
   0 -12  -1   12.98    0.58
   0  12   0    0.71    0.23
   0  12   0    0.93    0.32
   0 -12   0    0.79    0.11
   0 -12   0    0.82    0.12
   0  12  -1   13.53    0.62
   0  12  -1   13.88    0.86
   0 -12   1   13.36    0.57
   0 -12   1   12.93    0.58
   0 -12   1   12.63    0.55
   0  12  -2   15.01    0.94
   0 -12   2   14.85    0.64
   0 -12   2   14.56    0.63
   0 -12   2   14.41    0.60
   0  12  -3   27.87    1.51
   0 -12   3   25.80    1.05
   0 -12   3   26.56    1.09
   0 -12   3   24.42    1.05
   0 -12   3   25.85    1.07
   0 -12   3   27.23    1.14
   0 -12   4   62.46    2.45
   0 -12   4   56.61    2.34
   0 -12   4   60.02    2.34
   0 -12   4   62.56    2.39
   0 -12   4   58.37    2.34
   0  12  -5   10.12    1.38
   0 -12   5   10.86    0.49
   0 -12   5   10.74    0.49
   0 -12   5   11.84    0.66
   0 -12   5   10.69    0.48
   0 -12   5   10.91    0.49
   0 -12   5   10.51    0.52
   0 -12   5   11.23    0.54
   0 -12   6   36.63    1.44
   0 -12   6   35.81    1.61
   0 -12   6   34.97    1.49
   0 -12   6   36.10    1.44
   0 -12   6   35.16    1.47
   0 -12   6   35.96    1.43
   0 -12   6   35.86    1.43
   0 -12   7   11.99    0.54
   0 -12   7   12.19    0.80
   0 -12   7   11.16    0.56
   0 -12   7   11.57    0.54
   0 -12   8    5.78    0.33
   0 -12   8    5.28    0.33
   1  11   9    2.23    0.58
   1  11   9    2.41    0.27
   1  11   9    2.24    0.20
   1  11   9    1.82    0.28
  -1 -11  -9    2.33    0.21
  -1 -11  -9    2.36    0.20
   1  11   8    2.67    0.49
   1  11   8    2.60    0.25
   1  11   8    2.41    0.21
   1  11   8    2.55    0.24
   1  11   7   31.39    1.53
   1  11   7   32.79    1.34
   1  11   7   33.12    1.37
   1  11   7   33.34    1.33
  -1 -11  -7   32.90    1.33
   1  11   6   11.01    0.52
   1  11   6   11.62    0.55
   1  11   6   11.30    0.52
   1  11   6   10.02    0.68
  -1 -11  -6   12.84    0.52
   1  11   5    4.33    0.41
   1  11   5    4.41    0.25
   1  11   5    4.24    0.28
   1  11   5    4.31    0.26
  -1 -11  -5    4.88    0.25
   1  11   4   20.92    0.93
   1  11   4   22.89    0.94
   1  11   4   22.75    0.97
   1  11   4   22.12    1.53
   1  11   4   24.27    1.07
  -1 -11  -4   25.26    0.94
  -1 -11  -4   22.88    0.97
   1  11   3   17.33    0.70
   1  11   3   18.09    1.20
   1  11   3   17.15    0.74
   1  11   3   18.43    0.81
  -1 -11  -3   15.52    0.71
  -1 -11  -3   15.44    0.72
   1  11   2   59.79    2.23
   1  11   2   59.46    2.66
   1  11   2   63.35    2.29
   1  11   2   57.08    2.20
  -1 -11  -2   51.03    2.22
  -1 -11  -2   54.31    2.20
  -1 -11  -2   50.83    2.20
   1  11   1  161.52    5.89
   1  11   1  146.86    5.85
   1  11   1  160.53    6.25
  -1 -11  -1  146.01    5.85
  -1 -11  -1  142.69    5.83
   1  11   0   33.40    1.55
   1  11   0   30.04    1.24
  -1 -11   0   27.89    1.19
  -1 -11   0   29.86    1.22
   1  11  -1    3.76    0.44
  -1 -11   1    3.20    0.18
  -1 -11   1    3.07    0.20
   1  11  -2   48.59    2.15
  -1 -11   2   45.20    1.78
  -1 -11   2   43.97    1.80
  -1 -11   2   44.84    1.81
   1  11  -3   27.99    1.52
  -1 -11   3   28.36    1.14
  -1 -11   3   26.55    1.12
  -1 -11   3   28.78    1.10
  -1 -11   3   26.55    1.10
   1  11  -4    8.59    0.94
  -1 -11   4    9.12    0.45
  -1 -11   4    8.40    0.58
  -1 -11   4    9.99    0.46
  -1 -11   4    9.71    0.41
  -1 -11   4    9.75    0.42
   1  11  -5   29.50    1.93
  -1 -11   5   30.49    1.21
  -1 -11   5   29.54    1.26
  -1 -11   5   29.71    1.21
  -1 -11   5   30.83    1.34
  -1 -11   5   31.11    1.26
   1  11  -6   12.42    1.81
  -1 -11   6   14.98    0.83
  -1 -11   6   14.72    0.61
  -1 -11   6   13.99    0.62
  -1 -11   6   14.51    0.62
  -1 -11   6   14.18    0.67
  -1 -11   7   11.69    0.60
  -1 -11   7   12.10    0.54
  -1 -11   7   11.95    0.53
  -1 -11   7   11.74    0.54
  -1 -11   8    6.20    0.34
  -1 -11   8    6.14    0.34
  -1 -11   8    6.44    0.35
  -1 -11   9    0.37    0.13
  -1 -11   9    0.23    0.14
   2  10   9    3.59    0.29
   2  10   9    3.36    0.24
   2  10   9    3.52    0.36
  -2 -10  -9    3.60    0.24
  -2 -10  -9    3.53    0.30
   2  10   8   10.41    0.74
   2  10   8    9.90    0.50
   2  10   8   10.06    0.48
   2  10   8   10.23    0.47
  -2 -10  -8    9.02    0.46
  -2 -10  -8    9.34    0.46
   2  10   7    1.14    0.34
   2  10   7    1.61    0.17
   2  10   7    1.54    0.20
   2  10   7    1.25    0.19
   2  10   6    9.51    0.48
   2  10   6    8.83    0.65
   2  10   6   10.03    0.46
   2  10   6    9.71    0.45
  -2 -10  -6    9.06    0.44
   2  10   5    8.02    0.41
   2  10   5    8.14    0.39
   2  10   5    8.69    0.68
   2  10   5    7.99    0.38
  -2 -10  -5    7.15    0.37
   2  10   4    8.09    0.51
   2  10   4    7.55    0.99
   2  10   4    7.41    0.39
   2  10   4    7.54    0.37
  -2 -10  -4    8.51    0.37
   2  10   3   47.94    2.47
   2  10   3   51.79    2.03
   2  10   3   48.66    1.92
   2  10   3   47.44    1.92
   2  10   3   50.68    1.96
  -2 -10  -3   47.66    1.92
   2  10   2  138.26    5.61
   2  10   2  149.79    6.11
   2  10   2  142.72    5.64
   2  10   2  157.70    5.70
  -2 -10  -2  143.41    5.62
  -2 -10  -2  139.50    5.64
  -2 -10  -2  149.10    5.62
   2  10   1   19.89    0.85
   2  10   1   19.08    0.80
   2  10   1   19.53    1.14
  -2 -10  -1   19.63    0.78
  -2 -10  -1   19.21    0.81
  -2 -10  -1   19.11    0.78
   2  10   0   16.73    0.99
   2  10   0   16.65    0.68
  -2 -10   0   15.73    0.68
  -2 -10   0   16.59    0.66
  -2 -10   0   15.25    0.66
   2  10  -1   10.61    0.76
  -2 -10   1   11.42    0.49
  -2 -10   1   10.81    0.46
   2  10  -2   95.83    3.85
  -2 -10   2   87.30    3.43
  -2 -10   2   85.99    3.43
  -2 -10   2   86.16    3.46
   2  10  -3   52.55    2.51
  -2 -10   3   53.37    2.10
  -2 -10   3   52.43    2.06
  -2 -10   3   52.91    2.06
   2  10  -4   24.28    1.52
  -2 -10   4   24.26    1.01
  -2 -10   4   25.78    1.01
  -2 -10   4   25.85    1.01
  -2 -10   4   26.12    1.06
   2  10  -5    3.44    0.82
  -2 -10   5    4.22    0.25
  -2 -10   5    4.94    0.29
  -2 -10   5    4.65    0.24
  -2 -10   5    4.75    0.24
   2  10  -6    4.28    1.28
  -2 -10   6    4.97    0.26
  -2 -10   6    4.70    0.27
  -2 -10   6    4.85    0.31
  -2 -10   6    4.63    0.26
  -2 -10   7   13.97    0.68
  -2 -10   7   14.47    0.62
  -2 -10   7   14.18    0.62
  -2 -10   7   14.35    0.62
  -2 -10   8    6.16    0.34
  -2 -10   8    6.48    0.43
  -2 -10   8    6.68    0.35
  -2 -10   8    6.52    0.34
  -2 -10   9   17.93    0.78
  -2 -10   9   18.09    0.78
  -2 -10   9   19.01    0.78
  -2 -10  10    8.82    0.44
  -2 -10  10    8.61    0.42
   3   9   9    0.89    0.21
  -3  -9  -9    0.44    0.12
   3   9   8    3.38    0.26
   3   9   8    3.40    0.25
   3   9   8    3.45    0.26
   3   9   8    3.90    0.67
  -3  -9  -8    3.33    0.23
   3   9   7    3.91    0.29
   3   9   7    3.94    0.26
   3   9   7    4.07    0.53
   3   9   7    4.23    0.27
  -3  -9  -7    4.26    0.27
  -3  -9  -7    4.31    0.27
   3   9   6    0.34    0.11
   3   9   6    0.46    0.15
   3   9   6    0.45    0.28
   3   9   6    0.47    0.12
  -3  -9  -6    0.55    0.13
   3   9   5   36.40    1.43
   3   9   5   35.91    1.43
   3   9   5   36.23    1.47
   3   9   5   33.48    1.59
  -3  -9  -5   34.62    1.42
   3   9   4   15.21    0.64
   3   9   4   14.86    0.67
   3   9   4   15.94    0.81
   3   9   4   13.45    1.39
   3   9   4   15.08    0.65
  -3  -9  -4   15.62    0.64
   3   9   3   10.76    0.60
   3   9   3   10.01    0.46
   3   9   3   10.15    0.49
   3   9   3   10.31    1.02
   3   9   3   10.10    0.46
  -3  -9  -3   10.81    0.47
  -3  -9  -3   11.37    0.46
   3   9   2   25.36    1.48
   3   9   2   26.04    1.11
   3   9   2   23.24    1.01
   3   9   2   23.49    1.01
   3   9   2   24.12    1.04
  -3  -9  -2   27.86    1.02
  -3  -9  -2   26.73    1.02
   3   9   1   85.61    3.78
   3   9   1   83.73    3.39
   3   9   1   84.08    3.36
  -3  -9  -1   90.47    3.34
  -3  -9  -1   86.86    3.33
   3   9   0   39.65    1.93
   3   9   0   39.47    1.56
  -3  -9   0   37.25    1.56
  -3  -9   0   39.34    1.54
  -3  -9   0   40.94    1.55
   3   9  -1   27.58    1.56
  -3  -9   1   31.64    1.22
  -3  -9   1   32.53    1.22
  -3  -9   1   31.18    1.25
   3   9  -2   14.92    0.96
  -3  -9   2   14.82    0.61
  -3  -9   2   14.73    0.65
  -3  -9   2   15.39    0.62
  -3  -9   3    4.32    0.23
  -3  -9   3    4.68    0.26
   3   9  -4    9.01    0.86
  -3  -9   4    8.85    0.43
  -3  -9   4    9.18    0.39
  -3  -9   4    9.24    0.40
  -3  -9   4    8.28    0.40
   3   9  -5   98.10    4.53
  -3  -9   5   98.71    3.87
  -3  -9   5   98.52    3.82
  -3  -9   5  100.65    3.82
  -3  -9   5   96.74    3.82
   3   9  -6    8.88    1.33
  -3  -9   6   10.58    0.47
  -3  -9   6   10.74    0.47
  -3  -9   6   10.18    0.52
  -3  -9   6   11.09    0.47
  -3  -9   7   22.63    0.93
  -3  -9   7   22.35    0.93
  -3  -9   7   23.13    0.99
  -3  -9   7   21.27    0.92
  -3  -9   8    1.34    0.17
  -3  -9   8    1.29    0.16
  -3  -9   8    1.55    0.18
  -3  -9   8    1.23    0.24
  -3  -9   9    3.84    0.26
  -3  -9   9    3.69    0.24
  -3  -9   9    3.96    0.24
  -3  -9  10    0.78    0.16
  -3  -9  10    1.01    0.20
  -3  -9  11    9.68    0.46
   4   8   8    0.48    0.14
   4   8   8    0.44    0.14
  -4  -8  -8    0.40    0.11
   4   8   7    0.68    0.43
   4   8   7    0.38    0.13
   4   8   7    0.35    0.12
  -4  -8  -7    0.50    0.15
   4   8   6    2.76    0.22
   4   8   6    2.58    0.49
   4   8   6    3.04    0.25
   4   8   6    3.01    0.23
  -4  -8  -6    2.42    0.26
  -4  -8  -6    2.76    0.21
   4   8   5   15.56    0.68
   4   8   5   15.59    0.71
   4   8   5   13.21    0.86
   4   8   5   14.58    0.67
  -4  -8  -5   16.06    0.67
  -4  -8  -5   17.11    0.69
   4   8   4    0.84    0.31
   4   8   4    0.63    0.16
   4   8   4    0.68    0.15
   4   8   4    0.57    0.14
  -4  -8  -4    0.39    0.09
  -4  -8  -4    0.50    0.11
   4   8   3   23.31    0.97
   4   8   3   21.43    1.67
   4   8   3   23.97    0.97
   4   8   3   24.57    1.12
   4   8   3   23.49    1.00
  -4  -8  -3   25.16    0.98
  -4  -8  -3   24.29    0.97
   4   8   2   13.59    1.11
   4   8   2   14.16    0.70
   4   8   2   13.32    0.58
   4   8   2   13.40    0.60
  -4  -8  -2   13.61    0.57
  -4  -8  -2   13.21    0.58
   4   8   1    5.80    0.28
   4   8   1    5.23    0.40
  -4  -8  -1    4.84    0.25
  -4  -8  -1    4.82    0.25
   4   8   0   73.65    2.90
   4   8   0   78.73    3.36
  -4  -8   0   69.98    2.88
  -4  -8   0   75.67    2.88
  -4  -8   0   73.60    2.89
   4   8  -1    1.32    0.41
  -4  -8   1    1.28    0.12
  -4  -8   1    1.27    0.17
  -4  -8   1    1.17    0.12
   4   8  -2    1.35    0.41
  -4  -8   2    1.12    0.16
  -4  -8   2    0.94    0.15
  -4  -8   2    1.06    0.11
  -4  -8   2    1.15    0.11
   4   8  -3   58.75    2.86
  -4  -8   3   56.95    2.32
  -4  -8   3   60.48    2.36
  -4  -8   3   60.72    2.33
  -4  -8   3   61.48    2.33
   4   8  -4    7.56    0.83
  -4  -8   4    7.91    0.36
  -4  -8   4    7.11    0.42
  -4  -8   4    8.14    0.36
  -4  -8   4    8.46    0.41
   4   8  -5   61.15    3.03
  -4  -8   5   55.41    2.34
  -4  -8   5   57.60    2.28
  -4  -8   5   59.44    2.28
  -4  -8   5   57.41    2.33
   4   8  -6   10.39    1.36
  -4  -8   6   11.31    0.49
  -4  -8   6   11.20    0.49
  -4  -8   6   11.11    0.55
  -4  -8   6   11.15    0.49
  -4  -8   7    0.33    0.12
  -4  -8   7    0.25    0.08
  -4  -8   7    0.50    0.11
  -4  -8   7    0.31    0.09
  -4  -8   8    6.65    0.45
  -4  -8   8    6.14    0.33
  -4  -8   8    5.96    0.33
  -4  -8   9    3.95    0.24
  -4  -8   9    3.76    0.24
  -4  -8   9    3.59    0.25
  -4  -8  10    6.26    0.34
  -4  -8  10    6.65    0.33
  -4  -8  10    6.48    0.33
  -4  -8  11    2.58    0.21
   5   7   7    0.52    0.14
   5   7   6    4.29    0.29
   5   7   6    4.32    0.66
   5   7   6    4.59    0.30
  -5  -7  -6    4.89    0.28
   5   7   5   17.00    0.75
   5   7   5   16.89    0.71
   5   7   5   16.73    0.96
  -5  -7  -5   14.12    0.70
   5   7   4    3.36    0.50
   5   7   4    3.82    0.26
   5   7   4    3.92    0.27
  -5  -7  -4    3.70    0.24
   5   7   3   34.78    1.49
   5   7   3   33.34    1.34
   5   7   3   33.61    1.31
  -5  -7  -3   30.80    1.31
  -5  -7  -3   28.86    1.29
   5   7   2   12.74    0.72
   5   7   2   13.45    0.58
   5   7   2   12.82    0.56
   5   7   2   11.82    1.28
  -5  -7  -2   12.29    0.55
  -5  -7  -2   12.00    0.54
   5   7   1   47.98    2.49
   5   7   1   49.57    2.04
   5   7   1   51.10    1.96
  -5  -7  -1   48.36    1.94
  -5  -7  -1   48.89    1.93
   5   7   0    7.16    0.37
   5   7   0    7.38    0.82
  -5  -7   0    7.32    0.34
  -5  -7   0    7.30    0.34
  -5  -7   0    7.19    0.34
   5   7  -1   44.10    2.22
   5   7  -1   43.99    1.76
  -5  -7   1   44.47    1.73
  -5  -7   1   42.84    1.77
  -5  -7   1   45.57    1.74
  -5  -7   2   24.80    0.98
  -5  -7   2   24.61    0.94
  -5  -7   2   20.38    0.95
  -5  -7   2   23.41    0.94
  -5  -7   3   10.57    0.50
  -5  -7   3   11.12    0.46
  -5  -7   3   10.31    0.45
  -5  -7   3   10.27    0.46
   5   7  -4   27.30    1.74
  -5  -7   4   28.03    1.12
  -5  -7   4   27.98    1.12
  -5  -7   4   28.83    1.17
   5   7  -5   19.32    1.62
  -5  -7   5   22.74    0.97
  -5  -7   5   23.26    0.92
  -5  -7   5   22.87    0.91
  -5  -7   5   23.33    0.92
  -5  -7   6    7.78    0.37
  -5  -7   6    7.40    0.37
  -5  -7   6    8.00    0.38
  -5  -7   6    7.87    0.43
  -5  -7   7   35.06    1.47
  -5  -7   7   34.52    1.41
  -5  -7   7   34.34    1.40
  -5  -7   7   35.19    1.40
  -5  -7   8    7.71    0.38
  -5  -7   8    7.11    0.37
  -5  -7   8    7.32    0.37
  -5  -7   9   28.67    1.18
  -5  -7   9   28.69    1.19
  -5  -7   9   29.49    1.19
  -5  -7  10   12.48    0.56
  -5  -7  10   13.22    0.58
  -5  -7  10   12.77    0.57
  -5  -7  11    0.90    0.22
  -5  -7  11    0.63    0.15
   6   6   7   10.16    0.50
  -6  -6  -7   10.19    0.47
   6   6   6    5.47    0.33
   6   6   6    5.49    0.34
   6   6   6    4.64    0.91
  -6  -6  -6    6.00    0.31
   6   6   5   25.30    1.35
   6   6   5   25.79    1.09
   6   6   5   26.36    1.13
  -6  -6  -5   27.00    1.09
   6   6   4   14.67    0.91
   6   6   4   14.45    0.68
   6   6   4   14.70    0.65
  -6  -6  -4   14.22    0.65
   6   6   3    7.18    0.39
   6   6   3    6.60    0.60
   6   6   3    6.90    0.38
   6   6   2   23.31    1.15
   6   6   2   21.73    0.97
   6   6   2   23.90    1.01
  -6  -6  -2   24.62    0.98
   6   6   1    4.60    0.51
   6   6   1    4.43    0.28
  -6  -6  -1    4.43    0.25
   6   6   0   16.21    1.36
   6   6   0   18.35    0.77
  -6  -6   0   17.79    0.74
  -6  -6   0   18.33    0.75
  -6  -6   0   17.37    0.74
   6   6  -1   13.14    1.14
  -6  -6   1   13.11    0.55
  -6  -6   1   12.18    0.55
  -6  -6   1   12.41    0.54
   6   6  -2    2.17    0.78
  -6  -6   2    2.79    0.19
  -6  -6   2    2.28    0.17
  -6  -6   2    2.80    0.18
  -6  -6   2    2.82    0.26
   6   6  -3   34.86    2.11
  -6  -6   3   37.87    1.53
  -6  -6   3   37.04    1.49
  -6  -6   3   38.10    1.48
  -6  -6   3   39.00    1.49
   6   6  -4    1.15    0.67
  -6  -6   4    0.78    0.13
  -6  -6   4    0.54    0.12
  -6  -6   4    0.76    0.17
  -6  -6   4    0.66    0.12
   6   6  -5   15.27    1.64
  -6  -6   5   15.13    0.70
  -6  -6   5   14.91    0.64
  -6  -6   5   14.91    0.64
  -6  -6   6    9.70    0.45
  -6  -6   6    9.26    0.44
  -6  -6   6    9.84    0.50
  -6  -6   6    9.56    0.44
  -6  -6   7    0.69    0.14
  -6  -6   7    0.37    0.13
  -6  -6   7    0.51    0.15
  -6  -6   7    0.53    0.13
  -6  -6   8    6.89    0.35
  -6  -6   8    6.53    0.35
  -6  -6   8    6.37    0.34
  -6  -6   9   13.83    0.61
  -6  -6   9   13.73    0.62
  -6  -6   9   13.85    0.62
   6   6 -10    6.81    0.41
  -6  -6  10    7.27    0.36
  -6  -6  10    7.37    0.37
  -6  -6  10    7.26    0.35
  -6  -6  11    1.11    0.21
  -6  -6  11    0.83    0.15
   7   5   6    5.14    0.32
  -7  -5  -6    5.18    0.30
  -7  -5  -6    5.06    0.31
   7   5   5   13.04    0.60
   7   5   5   12.92    0.60
  -7  -5  -5   12.06    0.57
  -7  -5  -5   12.14    0.65
   7   5   4    2.13    0.23
   7   5   4    2.61    0.27
  -7  -5  -4    2.63    0.21
   7   5   3    1.24    0.24
   7   5   3    1.53    0.20
   7   5   3    1.75    0.53
   7   5   2   32.84    1.36
  -7  -5  -2   33.33    1.34
  -7  -5  -2   31.45    1.32
  -7  -5  -1    3.76    0.24
  -7  -5  -1    3.80    0.24
   7   5   0   25.44    1.05
  -7  -5   0   24.66    1.02
  -7  -5   0   24.04    1.02
  -7  -5   1   29.99    1.24
  -7  -5   1   31.13    1.24
  -7  -5   2    3.47    0.22
  -7  -5   2    3.64    0.22
   7   5  -3   15.17    1.70
  -7  -5   3   16.34    0.68
  -7  -5   3   15.98    0.68
  -7  -5   3   16.96    0.69
   7   5  -4    0.77    0.93
  -7  -5   4    1.07    0.19
  -7  -5   4    1.13    0.15
  -7  -5   4    0.75    0.15
  -7  -5   4    0.99    0.14
  -7  -5   5   16.85    0.72
  -7  -5   5   16.91    0.72
  -7  -5   5   17.40    0.73
  -7  -5   6    3.57    0.23
  -7  -5   6    3.66    0.23
  -7  -5   6    3.26    0.22
  -7  -5   8    5.62    0.31
  -7  -5   8    5.73    0.31
  -7  -5   8    5.64    0.32
  -7  -5   9   33.01    1.32
  -7  -5   9   32.30    1.32
  -7  -5   9   32.13    1.32
   7   5 -10    2.87    0.29
  -7  -5  10    2.85    0.21
  -7  -5  10    3.02    0.23
  -7  -5  10    2.98    0.22
   7   5 -11   14.98    0.69
  -7  -5  11   14.54    0.63
   8   4   5    1.54    0.22
  -8  -4  -5    1.96    0.24
  -8  -4  -5    1.79    0.22
  -8  -4  -4    5.10    0.30
  -8  -4  -4    3.99    0.29
   8   4   3    5.33    0.35
  -8  -4  -3    5.11    0.30
  -8  -4  -3    5.12    0.30
   8   4   2    8.14    0.46
  -8  -4  -2    8.37    0.42
  -8  -4  -2    8.84    0.42
   8   4   1   36.69    1.51
  -8  -4  -1   36.57    1.47
  -8  -4  -1   35.78    1.48
  -8  -4   0   42.14    1.68
  -8  -4   0   41.39    1.68
  -8  -4   1   24.20    1.01
  -8  -4   1   23.94    1.00
  -8  -4   2   20.08    0.84
  -8  -4   2   19.81    0.85
  -8  -4   3   22.71    0.96
  -8  -4   3   23.24    0.95
  -8  -4   4   16.24    0.72
  -8  -4   4   16.86    0.71
  -8  -4   5    6.55    0.35
  -8  -4   5    6.77    0.36
  -8  -4   5    6.80    0.35
  -8  -4   6   39.83    1.62
  -8  -4   6   39.34    1.67
  -8  -4   6   41.25    1.62
  -8  -4   7    7.99    0.40
  -8  -4   7    8.20    0.40
  -8  -4   7    8.05    0.40
  -8  -4   8    1.24    0.18
  -8  -4   8    1.54    0.17
  -8  -4   8    1.32    0.18
   8   4  -9    0.13    0.13
  -8  -4   9    0.26    0.11
  -8  -4   9    0.17    0.11
  -8  -4   9    0.28    0.10
   8   4 -10    1.13    0.20
  -8  -4  10    1.10    0.19
  -8  -4  10    1.33    0.17
   9   3   3    0.41    0.20
  -9  -3  -3    0.26    0.16
  -9  -3  -3    0.24    0.12
   9   3   2    6.93    0.45
  -9  -3  -2    6.49    0.37
  -9  -3  -2    7.04    0.36
  -9  -3  -1    1.55    0.20
  -9  -3  -1    1.04    0.17
  -9  -3   0   21.37    0.91
  -9  -3   0   21.45    0.91
  -9  -3   1   12.20    0.56
  -9  -3   1   12.48    0.57
  -9  -3   2   17.78    0.77
  -9  -3   2   17.76    0.76
  -9  -3   3   16.43    0.70
  -9  -3   3   15.77    0.71
  -9  -3   4   12.58    0.57
  -9  -3   4   12.62    0.58
   9   3  -5   20.25    0.88
  -9  -3   5   18.89    0.82
  -9  -3   5   18.92    0.82
   9   3  -6    2.53    0.28
  -9  -3   6    3.37    0.23
  -9  -3   6    3.41    0.24
   9   3  -7    2.15    0.25
  -9  -3   7    2.51    0.21
  -9  -3   7    2.80    0.21
   9   3  -8    3.26    0.27
  -9  -3   8    2.95    0.23
  -9  -3   8    3.12    0.27
  -9  -3   8    2.87    0.22
   9   3  -9    1.69    0.25
  -9  -3   9    1.88    0.19
  -9  -3   9    2.04    0.20
   9   3 -10    2.46    0.23
  -9  -3  10    1.86    0.22
  -9  -3  10    1.92    0.22
 -10  -2  -2    2.65    0.23
 -10  -2  -1    3.54    0.33
 -10  -2  -1    3.57    0.24
 -10  -2   0    3.29    0.29
 -10  -2   0    2.97    0.22
 -10  -2   1   11.64    0.53
 -10  -2   1   11.72    0.55
 -10  -2   2    0.93    0.22
 -10  -2   2    1.01    0.16
 -10  -2   3   13.20    0.58
 -10  -2   3   12.77    0.59
 -10  -2   4    6.00    0.34
 -10  -2   4    6.10    0.33
 -10  -2   5    2.15    0.19
 -10  -2   5    2.15    0.22
  10   2  -6    0.97    0.30
 -10  -2   6    0.64    0.18
 -10  -2   6    0.52    0.12
  10   2  -7    1.35    0.27
 -10  -2   7    1.25    0.18
 -10  -2   7    1.20    0.20
  10   2  -8    4.20    0.30
 -10  -2   8    3.22    0.26
 -10  -2   8    3.24    0.23
  10   2  -9    0.58    0.21
 -10  -2   9    0.35    0.12
 -10  -2   9    0.61    0.24
 -11  -1   0    5.32    0.30
 -11  -1   1    0.01    0.11
 -11  -1   2    0.42    0.12
 -11  -1   4    3.81    0.25
 -11  -1   5    2.39    0.28
 -11  -1   6    7.15    0.36
 -11  -1   7    2.33    0.21
 -11  -1   8    5.14    0.30
 -12   0   4    7.09    0.36
 -12   0   5    0.05    0.17
  -8  22   5    4.96    0.28
  -8  22   4    1.00    0.16
  -8  22   3    7.33    0.36
  -8  22   2    2.24    0.19
  -8  22   1    0.64    0.17
  -8  22   0    2.55    0.21
  -7  21   7   15.70    0.68
   7 -21  -7   16.58    0.73
  -7  21   6    0.97    0.16
   7 -21  -6    0.91    0.19
  -7  21   5    8.45    0.70
  -7  21   5    8.44    0.40
  -7  21   4    4.71    0.27
  -7  21   4    5.09    0.59
   7 -21  -4    4.33    0.33
  -7  21   3    6.97    0.46
  -7  21   3    6.45    0.62
  -7  21   3    7.03    0.36
   7 -21  -3    7.30    0.41
  -7  21   2    4.89    0.59
  -7  21   2    4.69    0.28
  -7  21   1    3.34    0.56
  -7  21   1    3.34    0.23
  -7  21   0    4.51    0.64
  -7  21   0    4.46    0.27
  -7  21  -1    5.08    0.29
  -7  21  -2    0.17    0.12
  -6  20   8    0.25    0.11
   6 -20  -8    0.15    0.13
  -6  20   7    1.08    0.40
  -6  20   6    3.28    0.47
  -6  20   6    3.05    0.22
   6 -20  -6    3.02    0.25
  -6  20   5    2.61    0.21
  -6  20   5    3.24    0.49
   6 -20  -5    2.79    0.26
  -6  20   4    4.30    0.27
  -6  20   4    4.61    0.35
  -6  20   4    4.49    0.52
   6 -20  -4    4.71    0.33
  -6  20   3    6.81    0.33
   6 -20  -3    5.56    0.38
  -6  20   2    2.40    0.20
  -6  20   2    2.70    0.47
   6 -20  -2    2.18    0.26
  -6  20   1    8.45    0.63
  -6  20   1    7.66    0.39
   6 -20  -1    7.64    0.46
  -6  20   0    0.44    0.33
  -6  20   0    0.35    0.11
   6 -20   0    0.43    0.14
  -6  20  -1    5.32    0.30
  -6  20  -1    5.39    0.59
   6 -20   1    5.24    0.33
  -6  20  -2    0.66    0.14
  -6  20  -2    0.55    0.41
   6 -20   2    0.80    0.18
  -6  20  -3    0.77    0.17
   6 -20   3    0.55    0.17
  -6  20  -4    2.25    0.23
   6 -20   4    2.43    0.23
  -5  19   9    4.12    0.25
  -5  19   8    2.38    0.20
  -5  19   8    2.58    0.60
   5 -19  -8    2.49    0.24
  -5  19   7    1.80    0.45
  -5  19   7    2.05    0.19
   5 -19  -7    2.40    0.23
  -5  19   6    2.93    0.22
  -5  19   6    2.61    0.44
  -5  19   5   17.15    0.74
  -5  19   5   16.11    0.77
  -5  19   5   17.30    0.95
   5 -19  -5   17.52    0.80
  -5  19   4    6.65    0.58
  -5  19   4    8.30    0.44
  -5  19   4    7.78    0.38
   5 -19  -4    7.73    0.44
  -5  19   3    9.22    0.45
  -5  19   3    8.78    0.66
   5 -19  -3   10.29    0.51
  -5  19   2   13.06    0.79
  -5  19   1    3.91    0.47
  -5  19   0    3.87    0.48
  -5  19   0    4.35    0.26
   5 -19   0    4.06    0.33
   5 -19   0    4.47    0.30
  -5  19  -1   21.67    1.12
   5 -19   1   21.23    0.95
  -5  19  -2    8.78    0.69
   5 -19   2    8.81    0.47
  -5  19  -3    6.25    0.67
   5 -19   3    6.71    0.38
  -5  19  -4    0.28    0.49
   5 -19   4    0.51    0.17
   5 -19   5    6.78    0.38
  -4  18   9   10.34    0.46
   4 -18  -9   10.25    0.47
   4 -18  -9    9.86    0.55
  -4  18   8    0.25    0.37
  -4  18   8    0.36    0.11
   4 -18  -8    0.31    0.14
   4 -18  -8    0.71    0.19
  -4  18   7    4.95    0.72
   4 -18  -7    3.90    0.26
   4 -18  -7    3.92    0.30
  -4  18   6    1.93    0.25
  -4  18   6    2.10    0.19
  -4  18   6    1.89    0.39
   4 -18  -6    2.10    0.21
   4 -18  -6    2.06    0.23
  -4  18   5    1.10    0.15
  -4  18   5    1.08    0.24
  -4  18   5    0.53    0.28
   4 -18  -5    0.77    0.18
  -4  18   4    1.19    0.15
  -4  18   4    1.06    0.29
  -4  18   4    1.29    0.21
   4 -18  -4    1.12    0.18
  -4  18   3    8.26    0.59
  -4  18   3    9.28    0.44
   4 -18  -3   10.81    0.51
  -4  18   2    3.82    0.43
  -4  18   2    4.10    0.24
   4 -18  -2    4.18    0.29
  -4  18   1   29.43    1.44
  -4  18   1   32.43    1.29
   4 -18  -1   33.44    1.34
  -4  18   0    5.88    0.50
  -4  18   0    6.59    0.33
   4 -18   0    5.91    0.36
   4 -18   0    6.41    0.38
  -4  18  -1   55.91    2.42
   4 -18   1   58.49    2.31
   4 -18   1   56.88    2.30
  -4  18  -2   19.43    1.01
  -4  18  -3   10.82    0.71
   4 -18   3    9.20    0.50
  -4  18  -4    9.07    0.72
   4 -18   4    9.08    0.48
  -4  18  -5    5.40    0.79
   4 -18   5    6.69    0.38
   4 -18   6    3.41    0.29
  -3  17   9    5.22    0.30
   3 -17  -9    6.31    0.31
  -3  17   8    2.08    0.19
  -3  17   8    1.95    0.48
   3 -17  -8    2.16    0.27
   3 -17  -8    2.10    0.19
  -3  17   7    4.25    0.25
  -3  17   7    4.14    0.50
  -3  17   7    3.98    0.32
   3 -17  -7    3.55    0.30
   3 -17  -7    3.67    0.24
  -3  17   6    5.70    0.32
  -3  17   6    6.06    0.37
  -3  17   6    5.43    0.52
   3 -17  -6    6.07    0.32
   3 -17  -6    6.20    0.37
  -3  17   5    9.18    0.48
  -3  17   5    9.39    0.44
  -3  17   5    8.14    0.63
   3 -17  -5    9.46    0.49
   3 -17  -5    9.44    0.44
  -3  17   4    5.69    0.48
  -3  17   4    5.99    0.30
  -3  17   4    6.30    0.35
   3 -17  -4    5.63    0.31
   3 -17  -4    5.39    0.34
  -3  17   3   26.31    1.03
  -3  17   3   24.94    1.21
   3 -17  -3   23.53    1.02
   3 -17  -3   25.49    1.08
  -3  17   2    7.74    0.37
  -3  17   2    7.65    0.53
   3 -17  -2    7.58    0.41
  -3  17   1   14.47    0.77
  -3  17   1   13.99    0.61
   3 -17  -1   14.67    0.66
  -3  17   0   13.94    0.76
   3 -17   0   14.70    0.66
   3 -17   0   14.26    0.66
  -3  17  -1   41.52    1.78
   3 -17   1   40.69    1.67
   3 -17   1   40.46    1.67
  -3  17  -2    5.65    0.52
   3 -17   2    7.48    0.39
   3 -17   2    6.93    0.40
   3 -17   3    9.46    0.48
   3 -17   4    1.40    0.20
   3 -17   5    0.03    0.13
   3 -17   5   -0.06    0.12
   3 -17   6    3.56    0.29
   3 -17   7    0.61    0.21
  -2  16   9    0.54    0.15
   2 -16  -9    0.30    0.10
  -2  16   8    0.31    0.10
  -2  16   8   -0.06    0.32
  -2  16   8    0.10    0.18
   2 -16  -8    0.54    0.11
  -2  16   7    8.64    0.45
  -2  16   7    8.74    0.66
  -2  16   7    8.42    0.40
   2 -16  -7    7.50    0.39
   2 -16  -7    7.21    0.45
  -2  16   6   19.01    0.81
  -2  16   6   19.40    0.85
  -2  16   6   16.82    0.98
   2 -16  -6   18.81    0.85
   2 -16  -6   20.05    0.81
  -2  16   5    8.30    0.39
  -2  16   5    7.82    0.56
  -2  16   5    8.39    0.42
   2 -16  -5    7.52    0.43
   2 -16  -5    7.79    0.38
  -2  16   4   16.68    1.69
  -2  16   4   18.72    0.83
  -2  16   4   18.84    0.79
  -2  16   4   20.10    0.96
   2 -16  -4   18.65    0.79
   2 -16  -4   20.32    0.85
  -2  16   3    5.80    0.32
  -2  16   3    5.83    1.00
  -2  16   3    6.37    0.45
  -2  16   3    5.65    0.29
   2 -16  -3    5.43    0.33
   2 -16  -3    5.47    0.29
  -2  16   2   16.90    0.68
  -2  16   2   16.01    1.29
  -2  16   2   17.48    0.82
   2 -16  -2   15.35    0.72
   2 -16  -2   15.42    0.68
  -2  16   1   14.05    1.11
  -2  16   1   13.89    0.61
  -2  16   1   14.21    0.73
   2 -16  -1   15.40    0.66
   2 -16  -1   14.24    0.61
  -2  16   0    5.93    0.42
  -2  16   0    5.20    0.26
   2 -16   0    4.55    0.29
   2 -16   0    4.82    0.29
  -2  16  -1   10.50    0.60
   2 -16   1   10.23    0.49
   2 -16   1   10.20    0.49
   2 -16   2   15.91    0.72
   2 -16   2   16.11    0.71
   2 -16   3    2.59    0.21
   2 -16   3    2.42    0.20
   2 -16   3    2.30    0.26
   2 -16   4    0.00    0.11
   2 -16   4    0.24    0.12
   2 -16   5   29.91    1.27
   2 -16   5   30.27    1.23
   2 -16   6   16.16    0.72
   2 -16   6   16.59    0.75
   2 -16   7    9.76    0.68
  -1  15   9    6.47    0.71
  -1  15   9    7.42    0.36
   1 -15  -9    6.42    0.36
  -1  15   8    6.51    0.61
  -1  15   8    6.58    0.34
  -1  15   8    6.74    0.39
   1 -15  -8    5.84    0.33
  -1  15   7    6.96    0.40
  -1  15   7    7.03    0.59
  -1  15   7    7.12    0.36
   1 -15  -7    7.04    0.46
   1 -15  -7    7.36    0.36
  -1  15   6    7.03    0.41
  -1  15   6    6.39    0.57
  -1  15   6    7.15    0.37
   1 -15  -6    8.27    0.38
   1 -15  -6    8.45    0.44
  -1  15   5    6.56    0.33
  -1  15   5    5.86    0.49
  -1  15   5    6.24    0.36
   1 -15  -5    6.76    0.32
   1 -15  -5    6.74    0.38
  -1  15   4   24.15    1.83
  -1  15   4   27.00    1.12
  -1  15   4   27.30    1.09
   1 -15  -4   27.56    1.13
   1 -15  -4   27.39    1.09
  -1  15   3    3.20    0.19
  -1  15   3    3.11    0.34
  -1  15   3    2.70    0.21
  -1  15   3    3.00    0.76
   1 -15  -3    3.06    0.22
   1 -15  -3    2.96    0.18
  -1  15   2   31.78    1.28
  -1  15   2   33.75    1.40
  -1  15   2   30.20    1.99
   1 -15  -2   33.06    1.32
  -1  15   1    1.45    0.15
  -1  15   1    1.37    0.28
  -1  15   1    1.48    0.52
   1 -15  -1    1.05    0.14
   1 -15  -1    1.17    0.15
  -1  15   0   65.34    2.52
  -1  15   0   65.54    2.93
  -1  15   0   69.31    2.62
   1 -15   0   64.26    2.56
   1 -15   0   62.32    2.52
   1 -15   0   62.50    2.56
  -1  15  -1    9.38    0.54
  -1  15  -1    9.09    0.84
   1 -15   1    9.93    0.44
   1 -15   1   10.47    0.47
   1 -15   1   10.43    0.47
  -1  15  -2   29.22    1.59
   1 -15   2   27.84    1.15
   1 -15   2   27.46    1.16
   1 -15   2   27.05    1.12
   1 -15   3    6.81    0.37
   1 -15   3    6.63    0.34
   1 -15   3    6.86    0.36
   1 -15   4    1.37    0.18
   1 -15   4    1.80    0.23
   1 -15   4    1.10    0.19
   1 -15   5   81.81    3.27
   1 -15   5   84.69    3.27
   1 -15   5   81.47    3.23
   1 -15   6   31.28    1.29
   1 -15   6   30.17    1.25
   0  14   9    0.84    0.16
   0  14   9    1.12    0.29
   0 -14  -9    0.65    0.18
   0 -14  -9    0.80    0.15
   0  14   8    3.07    0.51
   0  14   8    2.90    0.26
   0  14   8    2.80    0.22
   0 -14  -8    3.36    0.22
   0 -14  -8    2.94    0.25
   0  14   7    1.75    0.19
   0  14   7    1.70    0.21
   0  14   7    1.53    0.42
   0 -14  -7    1.94    0.17
   0  14   6   23.38    0.98
   0  14   6   21.02    1.15
   0  14   6   24.18    1.02
   0 -14  -6   25.48    0.99
   0  14   5   29.21    1.19
   0  14   5   30.24    1.23
   0 -14  -5   29.41    1.19
   0 -14  -5   28.34    1.23
   0  14   4   19.04    1.53
   0  14   4   19.61    0.78
   0  14   4   20.85    0.94
   0  14   4   20.07    0.82
   0 -14  -4   17.02    0.78
   0 -14  -4   16.53    0.81
   0  14   3   34.88    1.47
   0  14   3   31.33    1.35
   0  14   3   33.82    1.37
   0  14   3   32.37    1.93
   0 -14  -3   34.80    1.38
   0 -14  -3   34.71    1.34
   0  14   2   48.45    2.40
   0  14   2   49.98    1.98
   0  14   2   47.37    1.88
   0  14   2   50.12    1.92
   0 -14  -2   45.53    1.92
   0 -14  -2   47.06    1.89
   0  14   1   14.23    0.69
   0  14   1   14.14    1.00
   0  14   1   12.79    0.60
   0 -14  -1   15.41    0.60
   0 -14  -1   15.15    0.63
   0  14   0   27.12    1.46
   0  14   0   26.72    1.12
   0  14   0   23.56    1.04
   0 -14   0   26.67    1.04
   0 -14   0   26.68    1.08
   0  14  -1   14.43    0.69
   0  14  -1   14.79    0.98
   0 -14   1   13.92    0.62
   0 -14   1   13.55    0.62
   0 -14   1   14.12    0.59
   0  14  -2   39.04    1.91
   0  14  -2   45.53    2.21
   0 -14   2   43.75    1.86
   0 -14   2   48.87    1.80
   0 -14   2   47.14    1.76
   0  14  -3   31.93    1.79
   0 -14   3   32.05    1.30
   0 -14   3   31.73    1.31
   0 -14   3   31.54    1.26
   0  14  -4   15.07    1.45
   0 -14   4   18.80    0.75
   0 -14   4   18.84    0.80
   0 -14   4   18.60    0.78
   0 -14   5   27.75    1.16
   0 -14   5   28.25    1.13
   0 -14   5   28.44    1.18
   0 -14   5   26.61    1.30
   0 -14   6   21.58    0.96
   0 -14   6   22.41    0.98
   1  13   9    2.07    0.20
   1  13   9    1.99    0.28
  -1 -13  -9    1.92    0.19
  -1 -13  -9    1.71    0.22
   1  13   8    3.06    0.25
   1  13   8    3.29    0.23
   1  13   8    3.13    0.54
  -1 -13  -8    2.70    0.21
  -1 -13  -8    2.20    0.22
   1  13   7    4.38    0.30
   1  13   7    4.82    0.28
   1  13   7    4.40    0.52
  -1 -13  -7    4.47    0.27
   1  13   6   31.70    1.33
   1  13   6   32.81    1.40
   1  13   6   28.56    1.47
   1  13   6   30.73    1.29
  -1 -13  -6   34.83    1.30
   1  13   5   11.23    0.54
   1  13   5   10.68    0.71
   1  13   5   11.40    0.51
  -1 -13  -5   11.62    0.51
   1  13   4   30.34    1.97
   1  13   4   31.85    1.24
   1  13   4   32.77    1.36
   1  13   4   30.60    1.20
  -1 -13  -4   27.01    1.19
  -1 -13  -4   26.06    1.23
   1  13   3   66.24    2.65
   1  13   3   63.64    3.22
   1  13   3   71.40    2.73
   1  13   3   67.35    2.62
  -1 -13  -3   67.79    2.65
  -1 -13  -3   67.32    2.62
  -1 -13  -3   65.96    2.61
   1  13   2   28.08    1.24
   1  13   2   29.47    1.72
   1  13   2   30.86    1.33
   1  13   2   30.67    1.29
  -1 -13  -2   32.98    1.28
  -1 -13  -2   34.36    1.27
  -1 -13  -2   32.71    1.25
   1  13   1   33.95    1.77
   1  13   1   33.47    1.37
   1  13   1   32.74    1.33
  -1 -13  -1   33.23    1.33
  -1 -13  -1   30.34    1.30
  -1 -13  -1   33.68    1.30
   1  13   0    1.27    0.40
  -1 -13   0    1.56    0.12
  -1 -13   0    1.80    0.15
   1  13  -1    3.30    0.51
  -1 -13   1    3.54    0.22
  -1 -13   1    3.49    0.19
   1  13  -2   65.39    2.89
  -1 -13   2   60.07    2.45
  -1 -13   2   62.06    2.46
  -1 -13   2   61.98    2.43
   1  13  -3    1.54    0.64
  -1 -13   3    1.51    0.19
  -1 -13   3    1.31    0.18
  -1 -13   3    1.53    0.18
  -1 -13   3    1.42    0.13
   1  13  -4   11.79    1.15
  -1 -13   4   10.29    0.46
  -1 -13   4    9.88    0.49
  -1 -13   4   10.70    0.51
  -1 -13   4   10.38    0.47
   1  13  -5   24.47    1.98
  -1 -13   5   26.48    1.11
  -1 -13   5   26.18    1.05
  -1 -13   5   26.40    1.05
  -1 -13   6   23.13    0.95
  -1 -13   6   23.30    1.01
  -1 -13   6   22.82    0.95
  -1 -13   7   10.11    0.54
  -1 -13   8    6.23    0.35
  -1 -13   8    6.44    0.35
   2  12   9    0.30    0.22
   2  12   9    0.19    0.14
  -2 -12  -9    0.25    0.13
   2  12   8    9.29    0.48
   2  12   8    9.45    0.45
   2  12   8    9.30    0.79
  -2 -12  -8    9.75    0.45
  -2 -12  -8    9.57    0.45
   2  12   7   19.54    0.87
   2  12   7   20.15    0.84
   2  12   7   19.26    1.06
   2  12   7   19.54    0.83
  -2 -12  -7   19.19    0.83
  -2 -12  -7   18.72    0.82
   2  12   6   23.83    1.08
   2  12   6   24.81    1.25
   2  12   6   26.35    1.05
  -2 -12  -6   26.31    1.05
  -2 -12  -6   24.10    1.06
   2  12   5   14.63    0.83
   2  12   5   14.29    0.65
   2  12   5   15.52    0.65
   2  12   5   15.07    0.68
  -2 -12  -5   14.81    0.64
   2  12   4   44.21    1.73
   2  12   4   43.78    1.77
   2  12   4   38.87    2.51
   2  12   4   46.69    1.89
  -2 -12  -4   43.32    1.73
  -2 -12  -4   44.34    1.73
   2  12   3    8.17    0.40
   2  12   3    7.82    0.37
   2  12   3    7.81    0.93
   2  12   3    8.83    0.51
  -2 -12  -3    8.07    0.37
  -2 -12  -3    7.86    0.43
  -2 -12  -3    8.05    0.37
   2  12   2   77.84    3.10
   2  12   2   84.94    3.20
   2  12   2   85.27    3.70
  -2 -12  -2   76.23    3.10
  -2 -12  -2   79.73    3.14
  -2 -12  -2   76.32    3.11
   2  12   1   84.97    4.67
   2  12   1  100.67    3.80
   2  12   1   98.07    3.83
  -2 -12  -1   99.71    3.81
  -2 -12  -1  101.10    3.78
  -2 -12  -1  100.41    3.78
   2  12   0   44.95    1.76
   2  12   0   47.91    2.22
  -2 -12   0   43.94    1.74
  -2 -12   0   43.32    1.77
  -2 -12   0   42.44    1.74
   2  12  -1   16.25    0.71
   2  12  -1   17.76    1.11
  -2 -12   1   16.26    0.71
  -2 -12   1   16.23    0.68
  -2 -12   1   17.13    0.68
   2  12  -2    0.60    0.40
  -2 -12   2    0.17    0.06
  -2 -12   2    0.16    0.09
  -2 -12   2    0.04    0.08
   2  12  -3   17.07    1.21
  -2 -12   3   16.26    0.68
  -2 -12   3   16.74    0.68
  -2 -12   3   16.39    0.72
   2  12  -4   36.10    2.03
  -2 -12   4   34.58    1.40
  -2 -12   4   35.64    1.45
  -2 -12   4   35.14    1.40
   2  12  -5    1.92    0.94
  -2 -12   5    1.52    0.16
  -2 -12   5    1.60    0.19
  -2 -12   5    1.54    0.14
  -2 -12   6    8.51    0.40
  -2 -12   6    8.40    0.45
  -2 -12   6    8.44    0.39
  -2 -12   6    8.05    0.42
  -2 -12   7    0.53    0.16
  -2 -12   7    0.71    0.15
  -2 -12   7    0.52    0.16
  -2 -12   7    0.59    0.14
  -2 -12   8    3.76    0.25
  -2 -12   8    3.76    0.28
  -2 -12   8    3.74    0.26
  -2 -12   8    4.12    0.35
  -2 -12   9    4.87    0.30
  -2 -12   9    5.18    0.30
  -2 -12  10    7.18    0.39
   3  11   8    3.63    0.27
   3  11   8    3.40    0.26
  -3 -11  -8    3.40    0.31
  -3 -11  -8    3.48    0.24
   3  11   7    2.64    0.24
   3  11   7    2.67    0.26
   3  11   7    2.57    0.56
   3  11   7    2.75    0.22
  -3 -11  -7    2.70    0.22
  -3 -11  -7    2.89    0.21
   3  11   6   10.83    0.55
   3  11   6   10.68    0.75
   3  11   6   10.77    0.52
   3  11   6   10.90    0.52
  -3 -11  -6   11.18    0.52
  -3 -11  -6   11.94    0.51
   3  11   5    8.83    0.63
   3  11   5    9.31    0.44
   3  11   5    9.42    0.47
   3  11   5    9.35    0.44
  -3 -11  -5    8.52    0.43
  -3 -11  -5    8.99    0.43
   3  11   4    0.75    0.15
   3  11   4    0.90    0.18
   3  11   4    1.01    0.37
   3  11   4    0.80    0.16
   3  11   3    0.00    0.11
   3  11   3    0.45    0.25
   3  11   3    0.16    0.09
   3  11   3   -0.15    0.49
   3  11   3    0.17    0.12
  -3 -11  -3   -0.03    0.06
  -3 -11  -3   -0.01    0.07
   3  11   2    4.56    0.40
   3  11   2    4.71    0.27
   3  11   2    4.44    0.29
   3  11   2    4.83    0.73
  -3 -11  -2    4.53    0.24
  -3 -11  -2    4.33    0.23
   3  11   1   26.35    1.12
   3  11   1   27.42    1.59
  -3 -11  -1   27.24    1.13
  -3 -11  -1   28.66    1.10
  -3 -11  -1   28.05    1.10
   3  11   0  122.50    4.86
   3  11   0  124.77    5.35
  -3 -11   0  126.99    4.84
  -3 -11   0  125.12    4.87
  -3 -11   0  127.77    4.84
   3  11  -1   30.38    1.28
   3  11  -1   32.47    1.73
  -3 -11   1   31.99    1.30
  -3 -11   1   32.29    1.27
  -3 -11   1   32.69    1.27
   3  11  -2   80.74    3.76
  -3 -11   2   85.04    3.27
  -3 -11   2   86.50    3.31
  -3 -11   2   85.63    3.27
   3  11  -3    1.64    0.52
  -3 -11   3    2.17    0.14
  -3 -11   3    2.32    0.16
  -3 -11   3    2.23    0.18
   3  11  -4   31.94    1.98
  -3 -11   4   36.85    1.41
  -3 -11   4   36.29    1.41
  -3 -11   4   36.27    1.46
   3  11  -5    7.69    1.08
  -3 -11   5    7.09    0.34
  -3 -11   5    7.08    0.39
  -3 -11   5    6.50    0.36
  -3 -11   5    7.66    0.34
  -3 -11   6    1.05    0.20
  -3 -11   6    1.70    0.21
  -3 -11   6    1.65    0.16
  -3 -11   6    1.29    0.14
  -3 -11   7    7.04    0.36
  -3 -11   7    7.07    0.42
  -3 -11   7    7.51    0.36
  -3 -11   7    6.91    0.38
  -3 -11   8    0.07    0.14
  -3 -11   8   -0.05    0.10
  -3 -11   8    0.12    0.09
  -3 -11   8    0.25    0.12
  -3 -11   9    1.64    0.23
  -3 -11   9    1.92    0.19
  -3 -11   9    1.92    0.18
  -3 -11  10    1.57    0.19
  -3 -11  10    1.53    0.19
   4  10   8    4.16    0.28
   4  10   8    4.28    0.31
  -4 -10  -8    4.57    0.26
   4  10   7    1.15    0.56
   4  10   7    1.41    0.20
   4  10   7    1.22    0.18
  -4 -10  -7    1.59    0.17
   4  10   6    1.73    0.20
   4  10   6    1.81    0.21
   4  10   6    1.65    0.55
  -4 -10  -6    1.22    0.22
  -4 -10  -6    1.57    0.18
   4  10   5    3.77    0.52
   4  10   5    5.22    0.36
   4  10   5    4.22    0.29
  -4 -10  -5    4.40    0.27
   4  10   4    9.39    0.46
   4  10   4    9.71    0.44
   4  10   4    9.15    0.65
   4  10   4    9.87    0.44
  -4 -10  -4    8.07    0.42
  -4 -10  -4    7.96    0.42
   4  10   3   25.68    1.09
   4  10   3   26.31    1.06
   4  10   3   27.26    1.22
   4  10   3   22.50    1.90
  -4 -10  -3   26.27    1.05
  -4 -10  -3   26.91    1.06
   4  10   2    2.86    0.39
   4  10   2    2.32    0.78
  -4 -10  -2    1.77    0.15
  -4 -10  -2    1.90    0.15
   4  10   1    2.75    0.30
   4  10   1    2.73    0.65
  -4 -10  -1    2.80    0.18
  -4 -10  -1    2.75    0.19
   4  10   0   68.27    3.20
   4  10   0   68.21    2.68
  -4 -10   0   69.67    2.66
  -4 -10   0   66.30    2.68
  -4 -10   0   68.66    2.66
   4  10  -1   14.06    0.61
   4  10  -1   15.17    1.06
  -4 -10   1   12.91    0.57
  -4 -10   1   13.01    0.61
  -4 -10   1   13.46    0.57
   4  10  -2   68.70    3.16
  -4 -10   2   65.73    2.62
  -4 -10   2   66.48    2.62
  -4 -10   2   67.95    2.66
   4  10  -3   27.55    1.65
  -4 -10   3   29.75    1.13
  -4 -10   3   27.16    1.15
   4  10  -4    7.32    0.91
  -4 -10   4    7.67    0.35
  -4 -10   4    6.79    0.36
  -4 -10   4    7.78    0.34
  -4 -10   4    7.39    0.39
   4  10  -5    2.56    0.96
  -4 -10   5    3.07    0.24
  -4 -10   5    2.99    0.19
  -4 -10   5    3.38    0.20
  -4 -10   5    3.02    0.23
  -4 -10   6   10.33    0.49
  -4 -10   6   11.05    0.49
  -4 -10   6   11.46    0.49
  -4 -10   6   10.83    0.55
  -4 -10   7    3.35    0.25
  -4 -10   7    3.22    0.21
  -4 -10   7    3.52    0.28
  -4 -10   7    3.41    0.22
  -4 -10   8    3.37    0.22
  -4 -10   8    3.46    0.25
  -4 -10   8    3.13    0.29
  -4 -10   8    3.02    0.23
  -4 -10   9    6.46    0.34
  -4 -10   9    6.77    0.34
  -4 -10   9    6.53    0.37
  -4 -10  10    1.53    0.20
  -4 -10  10    1.42    0.25
   5   9   7    3.85    0.31
   5   9   7    4.11    0.27
  -5  -9  -7    3.21    0.24
   5   9   6    3.60    0.26
   5   9   6    3.30    0.78
   5   9   6    2.98    0.27
  -5  -9  -6    3.71    0.24
   5   9   5    7.72    0.42
   5   9   5    7.80    0.72
   5   9   5    7.73    0.41
  -5  -9  -5    7.63    0.39
   5   9   4   12.60    0.57
   5   9   4   12.92    0.63
   5   9   4   11.25    0.80
  -5  -9  -4   12.39    0.57
   5   9   3   44.29    1.90
   5   9   3   42.32    1.72
   5   9   3   43.70    1.76
  -5  -9  -3   42.52    1.71
  -5  -9  -3   42.70    1.73
   5   9   2   14.52    0.92
   5   9   2   11.92    1.44
   5   9   2   13.65    0.63
  -5  -9  -2   14.97    0.61
  -5  -9  -2   14.52    0.60
   5   9   1   13.77    1.26
   5   9   1   13.77    0.59
  -5  -9  -1   12.32    0.56
  -5  -9  -1   12.49    0.56
   5   9   0   12.23    0.52
   5   9   0   12.63    1.10
  -5  -9   0   10.35    0.49
  -5  -9   0   10.69    0.49
  -5  -9   0   10.18    0.49
   5   9  -1    6.92    0.36
   5   9  -1    7.14    0.87
  -5  -9   1    6.16    0.30
  -5  -9   1    5.66    0.31
  -5  -9   1    6.19    0.36
  -5  -9   1    5.90    0.31
   5   9  -2   26.30    1.59
  -5  -9   2   24.90    0.96
  -5  -9   2   23.54    0.99
  -5  -9   2   23.03    0.95
  -5  -9   2   19.85    0.96
   5   9  -3    2.27    0.70
  -5  -9   3    1.78    0.19
  -5  -9   3    1.58    0.14
  -5  -9   3    1.56    0.14
  -5  -9   3    1.53    0.18
   5   9  -4   11.74    1.27
  -5  -9   4   14.27    0.64
  -5  -9   4   13.47    0.58
  -5  -9   4   14.28    0.58
  -5  -9   4   13.90    0.59
   5   9  -5    1.38    0.77
  -5  -9   5    0.98    0.17
  -5  -9   5    0.89    0.12
  -5  -9   5    1.09    0.13
  -5  -9   5    1.20    0.17
  -5  -9   6   15.28    0.72
  -5  -9   6   15.37    0.66
  -5  -9   6   15.71    0.66
  -5  -9   6   15.15    0.66
  -5  -9   7   18.29    0.84
  -5  -9   7   17.72    0.77
  -5  -9   7   18.55    0.77
  -5  -9   7   17.90    0.77
  -5  -9   8    4.07    0.25
  -5  -9   8    3.79    0.25
  -5  -9   8    3.94    0.27
  -5  -9   8    3.78    0.31
  -5  -9   9    1.86    0.22
  -5  -9   9    2.09    0.19
  -5  -9   9    2.02    0.19
  -5  -9  10   10.98    0.51
  -5  -9  10   10.50    0.48
  -5  -9  10   10.65    0.49
  -5  -9  11   11.09    0.49
   6   8   7   13.18    0.61
  -6  -8  -7   13.49    0.58
   6   8   5    3.20    0.30
   6   8   5    3.51    0.26
  -6  -8  -5    3.33    0.23
   6   8   4   16.52    0.74
   6   8   4   16.21    0.72
  -6  -8  -4   15.19    0.70
   6   8   3    3.64    0.27
   6   8   2   18.11    0.80
  -6  -8  -2   17.91    0.77
   6   8   1   54.18    3.30
   6   8   1   62.64    2.49
  -6  -8  -1   63.58    2.45
  -6  -8  -1   64.29    2.47
  -6  -8  -1   67.68    2.46
   6   8   0    1.31    0.68
   6   8   0    1.64    0.21
  -6  -8   0    1.50    0.18
  -6  -8   0    1.60    0.15
  -6  -8   0    1.53    0.16
   6   8  -1   39.35    2.24
  -6  -8   1   35.98    1.48
  -6  -8   1   36.95    1.49
  -6  -8   1   37.02    1.48
   6   8  -2    1.44    0.87
  -6  -8   2    1.92    0.16
  -6  -8   2    1.90    0.15
  -6  -8   2    1.81    0.16
  -6  -8   2    1.53    0.29
   6   8  -3   26.09    1.82
  -6  -8   3   26.65    1.08
  -6  -8   3   25.71    1.07
  -6  -8   3   26.80    1.12
  -6  -8   3   26.68    1.07
   6   8  -4   18.86    1.71
  -6  -8   4   22.09    0.90
  -6  -8   4   22.74    0.95
  -6  -8   4   22.00    0.89
  -6  -8   4   22.03    0.89
  -6  -8   5    3.53    0.21
  -6  -8   5    3.47    0.27
  -6  -8   5    3.33    0.23
  -6  -8   5    3.60    0.22
  -6  -8   6    6.00    0.38
  -6  -8   6    6.24    0.32
  -6  -8   6    6.37    0.33
  -6  -8   6    6.21    0.32
  -6  -8   7   19.91    0.83
  -6  -8   7   19.65    0.90
  -6  -8   7   19.74    0.83
  -6  -8   7   18.83    0.83
  -6  -8   8    8.62    0.43
  -6  -8   8    8.69    0.42
  -6  -8   8    8.82    0.42
  -6  -8   9   12.51    0.56
  -6  -8   9   12.29    0.56
  -6  -8   9   11.99    0.55
  -6  -8  10   10.81    0.49
  -6  -8  10   10.79    0.49
  -6  -8  10   10.86    0.51
  -6  -8  11    8.10    0.38
   7   7   6    1.69    0.23
  -7  -7  -6    1.98    0.20
   7   7   5   12.09    0.65
  -7  -7  -5   11.43    0.57
  -7  -7  -5    9.31    0.50
   7   7   4    3.81    0.28
  -7  -7  -4    3.60    0.24
  -7  -7  -4    3.48    0.26
   7   7   3   10.11    0.49
  -7  -7  -3    8.83    0.45
  -7  -7  -3    8.59    0.45
  -7  -7  -2    0.44    0.11
  -7  -7  -2    0.29    0.11
   7   7   1   36.23    1.57
  -7  -7  -1   39.95    1.55
  -7  -7  -1   38.45    1.54
   7   7   0    4.47    0.33
  -7  -7   0    4.68    0.27
  -7  -7   1   12.26    0.54
  -7  -7   1   12.00    0.54
   7   7  -2   11.62    1.78
  -7  -7   2   13.18    0.58
  -7  -7   2   13.61    0.58
  -7  -7   2   14.17    0.59
   7   7  -3   46.67    3.13
  -7  -7   3   55.91    2.13
  -7  -7   3   55.28    2.17
  -7  -7   3   54.11    2.12
  -7  -7   3   56.67    2.12
  -7  -7   4   11.57    0.58
  -7  -7   4   11.84    0.52
  -7  -7   4   12.19    0.53
  -7  -7   4   11.73    0.53
  -7  -7   5   61.03    2.44
  -7  -7   5   60.71    2.37
  -7  -7   5   59.57    2.38
  -7  -7   5   59.99    2.37
  -7  -7   6   10.76    0.50
  -7  -7   6   11.05    0.50
  -7  -7   6   11.18    0.51
  -7  -7   6   11.02    0.56
  -7  -7   7    6.91    0.36
  -7  -7   7    7.04    0.36
  -7  -7   7    7.18    0.36
  -7  -7   8    8.74    0.41
  -7  -7   8    8.28    0.41
  -7  -7   8    8.14    0.41
  -7  -7   9   19.00    0.80
  -7  -7   9   18.66    0.79
  -7  -7   9   18.51    0.80
   7   7 -10    0.31    0.14
  -7  -7  10    0.35    0.14
  -7  -7  10    0.23    0.10
  -7  -7  10    0.54    0.14
  -7  -7  11    7.66    0.37
   8   6   5    3.98    0.30
  -8  -6  -5    3.84    0.27
   8   6   4    0.67    0.22
  -8  -6  -4    0.65    0.19
  -8  -6  -4    0.47    0.12
   8   6   3    0.41    0.16
  -8  -6  -3    0.69    0.13
  -8  -6  -3    0.83    0.16
   8   6   2    0.85    0.22
  -8  -6  -2    0.59    0.15
  -8  -6  -2    1.03    0.17
   8   6   1   14.48    0.71
  -8  -6  -1   14.90    0.66
  -8  -6  -1   15.96    0.68
  -8  -6   1   24.31    1.00
  -8  -6   1   23.27    0.98
  -8  -6   2   15.18    0.67
  -8  -6   2   15.37    0.66
  -8  -6   3   19.81    0.84
  -8  -6   3   19.69    0.83
  -8  -6   4   13.92    0.63
  -8  -6   4   14.28    0.63
  -8  -6   4   14.66    0.63
  -8  -6   5   29.23    1.21
  -8  -6   5   30.19    1.22
  -8  -6   5   29.70    1.21
  -8  -6   6    7.85    0.39
  -8  -6   6    7.61    0.39
  -8  -6   6    7.60    0.38
  -8  -6   7    2.12    0.21
  -8  -6   7    2.06    0.20
  -8  -6   7    2.01    0.19
  -8  -6   8    0.39    0.11
  -8  -6   8    0.36    0.11
  -8  -6   8    0.66    0.17
  -8  -6   9    1.15    0.16
  -8  -6   9    1.29    0.16
  -8  -6   9    1.11    0.19
   8   6 -10    1.68    0.22
  -8  -6  10    1.90    0.23
  -8  -6  10    1.38    0.17
  -8  -6  10    1.28    0.18
   9   5   3    2.60    0.35
  -9  -5  -3    3.33    0.25
  -9  -5  -3    3.22    0.25
   9   5   2    6.63    0.50
  -9  -5  -2    5.60    0.32
  -9  -5  -2    5.74    0.33
  -9  -5  -1    3.19    0.24
  -9  -5  -1    2.67    0.22
  -9  -5   0    1.09    0.17
  -9  -5   0    1.20    0.17
  -9  -5   1   19.79    0.83
  -9  -5   1   18.39    0.81
  -9  -5   2   22.42    0.94
  -9  -5   2   22.55    0.95
  -9  -5   3    5.74    0.31
  -9  -5   3    5.63    0.32
  -9  -5   4    6.76    0.36
  -9  -5   4    6.68    0.35
  -9  -5   5    0.44    0.11
  -9  -5   5    0.64    0.15
  -9  -5   6    0.72    0.16
  -9  -5   6    0.65    0.17
  -9  -5   7   14.80    0.64
  -9  -5   7   14.50    0.64
  -9  -5   7   14.04    0.64
   9   5  -8    0.31    0.13
  -9  -5   8    0.34    0.11
  -9  -5   8    0.48    0.12
  -9  -5   8    0.40    0.13
   9   5  -9   10.66    0.53
  -9  -5   9   10.90    0.49
  -9  -5   9   10.25    0.49
  -9  -5   9   10.56    0.48
   9   5 -10    2.38    0.24
  -9  -5  10    2.66    0.22
 -10  -4  -2    1.54    0.22
 -10  -4  -1    6.93    0.40
 -10  -4  -1    7.36    0.37
 -10  -4   0    0.17    0.11
 -10  -4   0    0.33    0.15
 -10  -4   1   17.41    0.76
 -10  -4   1   17.40    0.75
 -10  -4   2    2.77    0.22
 -10  -4   2    2.49    0.23
 -10  -4   3    1.37    0.20
 -10  -4   3    1.38    0.19
 -10  -4   4    9.78    0.47
 -10  -4   4   10.18    0.48
 -10  -4   5    7.34    0.38
 -10  -4   5    7.55    0.38
  10   4  -6    2.79    0.34
 -10  -4   6    3.35    0.24
 -10  -4   6    3.30    0.24
 -10  -4   7    5.67    0.32
 -10  -4   7    5.85    0.32
  10   4  -8    0.60    0.17
 -10  -4   8    0.64    0.14
 -10  -4   8    0.82    0.19
  10   4  -9    0.82    0.24
 -10  -4   9    1.37    0.22
 -10  -4   9    1.23    0.22
 -11  -3   0    1.38    0.23
 -11  -3   1    1.52    0.20
 -11  -3   2    0.86    0.18
 -11  -3   2    1.11    0.28
 -11  -3   3    8.09    0.39
 -11  -3   3    7.75    0.43
 -11  -3   4    1.25    0.23
 -11  -3   4    1.48    0.19
 -11  -3   5    4.45    0.27
 -11  -3   5    4.03    0.30
 -11  -3   6    3.43    0.29
 -11  -3   6    3.49    0.24
 -11  -3   7    0.77    0.18
 -11  -3   7    0.38    0.20
  -7  23   6    6.14    0.31
   7 -23  -6    5.97    0.35
  -7  23   5    3.90    0.26
   7 -23  -5    4.57    0.31
  -7  23   4    3.83    0.23
   7 -23  -4    2.96    0.28
  -7  23   3    2.59    0.33
  -7  23   3    3.14    0.73
  -7  23   3    2.60    0.20
   7 -23  -3    2.96    0.30
  -7  23   2    1.90    0.68
  -7  23   2    1.79    0.27
  -7  23   2    2.00    0.19
  -7  23   1    4.48    0.27
  -7  23   0    1.07    0.18
  -7  23  -1    0.11    0.13
  -6  22   7    8.41    0.39
   6 -22  -7    8.12    0.43
  -6  22   6    5.42    0.63
  -6  22   6    5.62    0.32
   6 -22  -6    6.63    0.37
  -6  22   5    5.59    0.62
  -6  22   5    5.44    0.29
   6 -22  -5    4.74    0.33
  -6  22   4    5.00    0.28
  -6  22   4    4.76    0.56
  -6  22   4    4.84    0.36
   6 -22  -4    4.37    0.32
  -6  22   3   -0.02    0.15
  -6  22   3   -0.04    0.09
  -6  22   3    0.33    0.32
   6 -22  -3   -0.05    0.13
  -6  22   2    2.23    0.53
  -6  22   2    2.43    0.21
   6 -22  -2    3.21    0.27
  -6  22   1    6.78    0.64
  -6  22   1    6.40    0.33
   6 -22  -1    5.63    0.42
  -6  22   0    3.73    0.26
  -6  22   0    4.19    0.63
  -6  22  -1    3.66    0.25
  -6  22  -1    3.64    0.66
  -6  22  -2    1.38    0.20
  -6  22  -3    1.55    0.23
  -5  21   8    0.64    0.16
   5 -21  -8    0.96    0.21
  -5  21   7    3.12    0.59
  -5  21   6    3.46    0.51
  -5  21   6    3.19    0.23
   5 -21  -6    3.59    0.28
  -5  21   5   11.82    0.56
  -5  21   5   12.73    0.62
  -5  21   5   12.44    0.87
   5 -21  -5   13.12    0.62
  -5  21   4    1.66    0.24
  -5  21   4    1.43    0.41
  -5  21   4    1.42    0.17
   5 -21  -4    1.83    0.22
  -5  21   3   15.37    0.89
  -5  21   3   15.61    0.67
  -5  21   3   15.87    0.71
   5 -21  -3   14.07    0.72
  -5  21   2    2.23    0.46
  -5  21   2    2.10    0.19
   5 -21  -2    1.49    0.22
  -5  21   1    9.76    0.69
  -5  21   1    9.90    0.46
   5 -21  -1    9.02    0.50
  -5  21   0    2.76    0.22
  -5  21   0    2.68    0.50
   5 -21   0    2.78    0.30
  -5  21  -1    8.23    0.69
  -5  21  -1    8.09    0.41
   5 -21   1    8.27    0.45
  -5  21  -2    6.13    0.68
  -5  21  -2    5.70    0.32
   5 -21   2    5.29    0.34
  -5  21  -3    2.23    0.22
  -5  21  -3    1.38    0.53
   5 -21   3    2.60    0.23
  -5  21  -4   -0.17    0.14
   5 -21   4    0.20    0.13
  -4  20   9    3.53    0.24
  -4  20   8    0.31    0.11
   4 -20  -8    0.29    0.15
   4 -20  -8    0.31    0.15
  -4  20   7    3.84    0.55
  -4  20   7    3.86    0.26
   4 -20  -7    4.27    0.29
   4 -20  -7    4.14    0.30
  -4  20   6    0.47    0.31
  -4  20   6    0.48    0.16
  -4  20   6    0.45    0.12
   4 -20  -6    0.63    0.18
   4 -20  -6    0.53    0.15
  -4  20   5    0.87    0.16
  -4  20   5    1.21    0.23
  -4  20   5    0.72    0.32
   4 -20  -5    1.19    0.20
  -4  20   4   44.78    1.82
  -4  20   4   42.88    1.96
  -4  20   4   44.45    1.78
   4 -20  -4   45.61    1.84
  -4  20   3    2.00    0.40
  -4  20   2    4.46    0.27
  -4  20   2    4.21    0.48
   4 -20  -2    4.33    0.31
  -4  20   1   13.18    0.81
  -4  20   1   15.11    0.63
   4 -20  -1   13.97    0.68
  -4  20   0   13.79    0.61
  -4  20   0   12.61    0.80
   4 -20   0   14.47    0.70
  -4  20  -1    3.33    0.50
  -4  20  -1    3.57    0.24
   4 -20   1    3.17    0.26
   4 -20   1    3.19    0.30
  -4  20  -2    4.72    0.54
   4 -20   2    4.29    0.31
  -4  20  -3    0.45    0.41
   4 -20   3    0.61    0.17
  -4  20  -4    0.81    0.51
   4 -20   4    0.62    0.18
   4 -20   5   12.22    0.59
  -3  19   9    9.66    0.45
   3 -19  -9    9.79    0.45
  -3  19   8    8.58    0.71
  -3  19   8    7.89    0.39
   3 -19  -8    8.98    0.47
   3 -19  -8    7.28    0.41
  -3  19   7    4.10    0.33
  -3  19   7    3.38    0.54
  -3  19   7    3.66    0.25
   3 -19  -7    4.19    0.31
   3 -19  -7    4.43    0.26
  -3  19   6    5.84    0.37
  -3  19   6    5.89    0.32
  -3  19   6    5.20    0.53
   3 -19  -6    5.87    0.37
   3 -19  -6    5.80    0.32
  -3  19   5    8.56    0.42
  -3  19   5    8.60    0.46
  -3  19   5    7.47    0.60
   3 -19  -5    8.84    0.47
   3 -19  -5    9.07    0.42
  -3  19   4    0.06    0.12
  -3  19   4    0.15    0.10
  -3  19   4    0.22    0.25
   3 -19  -4    0.11    0.12
   3 -19  -4   -0.02    0.10
  -3  19   3   14.26    0.66
  -3  19   3   14.65    0.62
  -3  19   3   13.47    0.79
   3 -19  -3   14.07    0.62
   3 -19  -3   14.43    0.68
  -3  19   2    6.11    0.30
  -3  19   2    5.36    0.49
   3 -19  -2    5.40    0.35
  -3  19   1    2.43    0.20
  -3  19   1    2.12    0.40
   3 -19  -1    2.59    0.23
  -3  19   0    5.15    0.28
  -3  19   0    4.60    0.48
   3 -19   0    5.04    0.31
   3 -19   0    4.89    0.32
  -3  19  -1   13.21    0.83
   3 -19   1   16.90    0.73
   3 -19   1   16.08    0.72
  -3  19  -2   14.29    0.84
   3 -19   2   14.80    0.70
   3 -19   2   14.69    0.68
  -3  19  -3   11.94    0.78
   3 -19   3   12.52    0.60
  -3  19  -4    0.50    0.42
   3 -19   4    0.78    0.18
  -3  19  -5    8.22    0.94
   3 -19   5   10.46    0.51
   3 -19   6    0.82    0.24
  -2  18   9    2.46    0.22
   2 -18  -9    2.97    0.20
  -2  18   8    1.96    0.57
  -2  18   8    2.11    0.29
  -2  18   8    2.63    0.20
   2 -18  -8    2.49    0.19
  -2  18   7    2.00    0.49
  -2  18   7    2.33    0.25
  -2  18   7    2.00    0.19
   2 -18  -7    1.31    0.25
   2 -18  -7    1.69    0.17
  -2  18   6    7.14    0.62
  -2  18   6    7.73    0.39
  -2  18   6    7.58    0.43
   2 -18  -6    7.94    0.44
   2 -18  -6    8.44    0.39
  -2  18   5   11.75    0.57
  -2  18   5   10.47    0.72
  -2  18   5   11.70    0.53
   2 -18  -5   11.66    0.52
   2 -18  -5   11.70    0.58
  -2  18   4   15.00    0.84
  -2  18   4   15.53    0.67
  -2  18   4   15.23    0.70
   2 -18  -4   15.72    0.72
   2 -18  -4   15.36    0.66
  -2  18   3   12.49    0.73
  -2  18   3   12.38    0.61
  -2  18   3   12.45    0.57
   2 -18  -3   13.31    0.57
   2 -18  -3   14.17    0.63
  -2  18   2   38.57    1.52
  -2  18   2   38.29    1.66
   2 -18  -2   38.63    1.57
   2 -18  -2   36.52    1.51
  -2  18   1   19.26    0.91
  -2  18   1   18.11    0.75
   2 -18  -1   17.20    0.75
   2 -18  -1   17.51    0.80
  -2  18   0   10.65    0.49
  -2  18   0   11.37    0.66
   2 -18   0   10.91    0.53
  -2  18  -1    1.35    0.38
   2 -18   1    1.66    0.18
   2 -18   1    1.66    0.19
  -2  18  -2   17.05    0.91
   2 -18   2   17.23    0.78
   2 -18   2   17.70    0.78
  -2  18  -3    3.76    0.49
   2 -18   3    3.71    0.31
   2 -18   3    3.92    0.27
   2 -18   4   18.86    0.87
   2 -18   5    6.60    0.39
   2 -18   6    0.98    0.24
  -1  17   9    4.46    0.27
   1 -17  -9    3.86    0.24
  -1  17   8    2.00    0.56
  -1  17   8    1.64    0.25
  -1  17   8    1.65    0.19
   1 -17  -8    1.86    0.17
  -1  17   7   10.98    0.54
  -1  17   7   10.97    0.51
  -1  17   7   10.89    0.75
   1 -17  -7   10.38    0.50
  -1  17   6    4.80    0.54
  -1  17   6    5.23    0.30
  -1  17   6    4.63    0.33
   1 -17  -6    5.52    0.29
   1 -17  -6    5.53    0.36
  -1  17   5   22.70    0.94
  -1  17   5   22.21    0.98
  -1  17   5   21.54    1.12
   1 -17  -5   23.27    0.94
   1 -17  -5   22.84    0.99
  -1  17   4   17.84    0.76
  -1  17   4   17.52    0.80
   1 -17  -4   18.45    0.81
   1 -17  -4   18.64    0.77
  -1  17   3   27.23    1.08
  -1  17   3   24.16    1.88
  -1  17   3   27.13    1.12
  -1  17   3   28.70    1.24
   1 -17  -3   26.28    1.13
   1 -17  -3   26.08    1.08
  -1  17   2    3.00    0.90
  -1  17   2    3.29    0.24
  -1  17   2    3.28    0.22
  -1  17   2    3.78    0.37
   1 -17  -2    4.19    0.22
   1 -17  -2    4.10    0.26
  -1  17   1   36.04    1.44
  -1  17   1   32.29    1.89
   1 -17  -1   31.74    1.36
   1 -17  -1   31.83    1.31
  -1  17   0    0.65    0.52
  -1  17   0    0.85    0.17
  -1  17   0    0.56    0.24
   1 -17   0    0.74    0.16
  -1  17  -1   31.56    1.26
  -1  17  -1   30.18    1.80
  -1  17  -1   34.28    1.39
   1 -17   1   30.87    1.29
   1 -17   1   30.49    1.30
  -1  17  -2    2.77    0.43
   1 -17   2    2.12    0.20
   1 -17   2    2.08    0.19
  -1  17  -3   39.41    1.73
   1 -17   3   39.98    1.63
   1 -17   3   39.64    1.62
   1 -17   4    4.63    0.30
   1 -17   4    4.38    0.32
   1 -17   5   33.68    1.42
   1 -17   6   19.83    0.88
   0  16   9    1.24    0.19
   0 -16  -9    0.85    0.15
   0  16   8    3.57    0.28
   0  16   8    3.40    0.25
   0  16   8    4.41    0.63
   0 -16  -8    3.59    0.23
   0  16   7    4.92    0.28
   0  16   7    4.67    0.31
   0  16   7    4.70    0.56
   0 -16  -7    4.13    0.26
   0 -16  -7    4.24    0.31
   0  16   6    9.22    0.46
   0  16   6    8.72    0.64
   0  16   6    8.59    0.41
   0 -16  -6    7.54    0.39
   0 -16  -6    7.20    0.42
   0  16   5   40.37    1.84
   0  16   5   41.39    1.67
   0  16   5   42.58    1.71
   0 -16  -5   42.53    1.67
   0 -16  -5   41.32    1.71
   0  16   4   16.58    0.72
   0  16   4   16.32    0.75
   0  16   4   16.84    0.88
   0 -16  -4   17.82    0.72
   0 -16  -4   17.39    0.77
   0  16   3    0.34    0.57
   0  16   3    0.51    0.23
   0  16   3    0.51    0.15
   0  16   3    0.43    0.12
   0  16   2    6.46    0.32
   0  16   2    6.45    0.46
   0  16   2    6.54    0.91
   0  16   2    6.55    0.34
   0 -16  -2    6.14    0.34
   0 -16  -2    6.53    0.31
   0  16   1    7.09    0.47
   0  16   1    7.09    0.36
   0  16   1    7.12    0.86
   0 -16  -1    8.18    0.35
   0 -16  -1    7.64    0.38
   0  16   0   19.89    0.93
   0  16   0   19.43    1.35
   0  16   0   19.71    0.85
   0 -16   0   21.23    0.87
   0  16  -1    7.66    0.51
   0  16  -1    6.30    1.16
   0 -16   1    7.15    0.37
   0 -16   1    6.92    0.33
   0  16  -2    6.05    0.49
   0  16  -2    6.24    0.91
   0 -16   2    6.62    0.35
   0 -16   2    6.24    0.31
   0 -16   2    6.49    0.34
   0  16  -3    1.05    0.66
   0 -16   3    0.49    0.15
   0 -16   3    0.57    0.16
   0 -16   3    0.58    0.10
   0 -16   4   15.49    0.72
   0 -16   4   16.00    0.71
   0 -16   4   15.73    0.67
   0 -16   5   41.45    1.66
   0 -16   5   39.54    1.63
   0 -16   5   39.02    1.61
   0 -16   6    8.25    0.48
   1  15   9    1.24    0.21
  -1 -15  -9    1.26    0.18
   1  15   8    3.24    0.67
   1  15   8    3.25    0.27
   1  15   8    3.28    0.24
  -1 -15  -8    3.13    0.21
  -1 -15  -8    2.93    0.26
   1  15   7    1.40    0.20
   1  15   7    1.61    0.20
   1  15   7    1.84    0.51
  -1 -15  -7    1.35    0.16
  -1 -15  -7    1.36    0.20
   1  15   6   32.68    1.32
   1  15   6   32.27    1.28
   1  15   6   31.83    1.49
  -1 -15  -6   28.64    1.26
  -1 -15  -6   30.46    1.27
   1  15   5   86.80    3.44
   1  15   5   87.78    3.39
   1  15   5   81.82    3.55
  -1 -15  -5   86.54    3.39
  -1 -15  -5   91.17    3.40
   1  15   4    1.43    0.18
   1  15   4    1.23    0.18
   1  15   4    1.80    0.39
  -1 -15  -4    2.04    0.19
  -1 -15  -4    1.63    0.15
  -1 -15  -4    1.52    0.23
   1  15   3    7.04    0.38
   1  15   3    7.03    0.52
   1  15   3    6.95    0.36
   1  15   3    5.79    1.04
  -1 -15  -3    7.93    0.37
  -1 -15  -3    8.46    0.36
  -1 -15  -3    8.24    0.40
   1  15   2   29.60    1.22
   1  15   2   26.80    1.76
   1  15   2   28.93    1.29
   1  15   2   27.10    1.18
  -1 -15  -2   30.84    1.19
  -1 -15  -2   32.30    1.19
  -1 -15  -2   32.06    1.23
   1  15   1   10.89    0.47
   1  15   1   10.30    0.95
  -1 -15  -1    9.26    0.43
  -1 -15  -1    9.53    0.48
   1  15   0   64.13    3.08
  -1 -15   0   66.27    2.70
   1  15  -1    1.19    0.56
  -1 -15   1    1.48    0.13
  -1 -15   1    1.53    0.16
   1  15  -2   31.77    1.81
  -1 -15   2   31.29    1.26
  -1 -15   2   31.81    1.30
   1  15  -3    2.83    0.79
  -1 -15   3    2.68    0.29
  -1 -15   3    3.09    0.18
  -1 -15   3    2.84    0.22
   1  15  -4   24.61    1.85
  -1 -15   4   25.84    1.08
  -1 -15   4   26.12    1.04
  -1 -15   4   26.58    1.10
  -1 -15   5    6.69    0.39
  -1 -15   5    6.44    0.33
  -1 -15   6    6.76    0.36
  -1 -15   6    7.24    0.43
  -1 -15   7    6.90    0.37
  -1 -15   7    7.24    0.45
   2  14   8    0.34    0.13
   2  14   8    0.43    0.14
  -2 -14  -8    0.45    0.12
  -2 -14  -8    0.46    0.13
   2  14   7    2.49    0.23
   2  14   7    1.84    0.59
   2  14   7    2.60    0.23
  -2 -14  -7    2.35    0.20
  -2 -14  -7    2.20    0.21
   2  14   6    0.40    0.35
   2  14   6    0.14    0.11
   2  14   6    0.28    0.12
  -2 -14  -6    0.22    0.11
  -2 -14  -6    0.15    0.09
   2  14   5   19.96    1.09
   2  14   5   21.82    0.95
   2  14   5   21.14    0.91
  -2 -14  -5   23.08    0.91
  -2 -14  -5   22.59    0.91
   2  14   4   31.31    1.35
   2  14   4   29.94    1.17
   2  14   4   28.97    1.21
  -2 -14  -4   26.80    1.17
  -2 -14  -4   27.21    1.17
   2  14   3    3.55    0.24
   2  14   3    3.32    0.23
   2  14   3    3.44    0.95
   2  14   3    3.40    0.42
  -2 -14  -3    3.07    0.21
  -2 -14  -3    3.06    0.27
  -2 -14  -3    2.95    0.19
   2  14   2   38.21    1.56
   2  14   2   37.34    1.48
   2  14   2   35.23    2.08
  -2 -14  -2   38.21    1.45
  -2 -14  -2   31.69    1.47
  -2 -14  -2   37.76    1.49
   2  14   1   40.64    1.59
   2  14   1   40.68    2.16
  -2 -14  -1   38.14    1.55
  -2 -14  -1   38.85    1.55
  -2 -14  -1   38.45    1.59
   2  14   0   51.97    2.57
   2  14   0   52.24    2.03
  -2 -14   0   47.35    2.02
  -2 -14   0   51.33    2.00
  -2 -14   0   52.37    2.04
   2  14  -1   27.69    1.60
   2  14  -1   27.71    1.11
  -2 -14   1   26.86    1.12
  -2 -14   1   25.77    1.08
   2  14  -2   20.31    1.35
  -2 -14   2   19.67    0.82
  -2 -14   2   19.99    0.85
  -2 -14   2   20.01    0.81
   2  14  -3    6.48    0.87
  -2 -14   3    7.01    0.34
  -2 -14   3    7.43    0.38
  -2 -14   3    7.36    0.33
   2  14  -4   32.91    2.13
  -2 -14   4   35.52    1.41
  -2 -14   4   36.86    1.41
  -2 -14   4   36.43    1.47
   2  14  -5   16.48    1.90
  -2 -14   5   19.63    0.86
  -2 -14   5   20.09    0.80
  -2 -14   5   19.54    0.80
  -2 -14   6   25.41    1.04
  -2 -14   6   25.44    1.10
  -2 -14   6   25.18    1.04
  -2 -14   7    5.94    0.32
  -2 -14   7    5.81    0.39
  -2 -14   7    5.98    0.33
  -2 -14   8   15.24    0.74
  -2 -14   8   15.12    0.66
  -2 -14   8   15.10    0.67
  -2 -14   9    1.12    0.25
  -2 -14   9    1.42    0.23
   3  13   8    0.24    0.13
   3  13   8    0.24    0.16
  -3 -13  -8    0.33    0.18
  -3 -13  -8    0.34    0.12
   3  13   7    1.01    0.18
   3  13   7    1.03    0.20
   3  13   7    1.42    0.55
  -3 -13  -7    0.88    0.17
  -3 -13  -7    0.80    0.18
   3  13   6    6.92    0.66
   3  13   6    6.92    0.39
   3  13   6    7.22    0.41
  -3 -13  -6    7.38    0.38
  -3 -13  -6    7.75    0.37
   3  13   5   10.92    0.75
   3  13   5   11.99    0.53
   3  13   5   11.00    0.64
   3  13   4   15.93    0.73
   3  13   4   15.90    0.76
  -3 -13  -4   17.89    0.73
  -3 -13  -4   18.30    0.73
   3  13   3    7.67    0.58
   3  13   3    7.63    0.39
   3  13   3    7.11    0.38
  -3 -13  -3    7.26    0.35
  -3 -13  -3    7.29    0.36
   3  13   2   11.71    0.55
   3  13   2   11.42    1.16
  -3 -13  -2   12.49    0.51
  -3 -13  -2   11.24    0.62
  -3 -13  -2   11.84    0.51
   3  13   1    1.56    0.16
   3  13   1    1.25    0.54
  -3 -13  -1    1.43    0.13
  -3 -13  -1    1.18    0.21
  -3 -13  -1    1.35    0.13
   3  13   0    5.39    0.75
  -3 -13   0    6.68    0.30
  -3 -13   0    6.70    0.35
  -3 -13   0    6.73    0.31
   3  13  -1   44.07    2.33
   3  13  -1   45.64    1.82
  -3 -13   1   46.26    1.81
  -3 -13   1   46.51    1.81
  -3 -13   1   47.09    1.84
   3  13  -2   14.69    1.10
   3  13  -2   13.95    0.59
  -3 -13   2   11.93    0.55
  -3 -13   2   11.79    0.59
   3  13  -3    4.15    0.75
  -3 -13   3    4.31    0.25
  -3 -13   3    4.84    0.28
   3  13  -4   35.17    2.21
  -3 -13   4   37.90    1.49
  -3 -13   4   38.03    1.54
  -3 -13   4   38.51    1.49
   3  13  -5   16.39    1.72
  -3 -13   5   18.73    0.82
  -3 -13   5   18.55    0.76
  -3 -13   5   18.83    0.76
  -3 -13   6   20.05    0.90
  -3 -13   6   20.22    0.84
  -3 -13   6   20.01    0.84
  -3 -13   7    1.28    0.19
  -3 -13   8    4.64    0.35
  -3 -13   8    4.23    0.27
  -3 -13   8    4.80    0.28
  -3 -13   9    9.81    0.46
  -3 -13   9    9.46    0.45
  -3 -13  10    4.80    0.31
   4  12   8    0.42    0.14
  -4 -12  -8    0.43    0.12
   4  12   7    0.55    0.18
   4  12   7    0.73    0.18
  -4 -12  -7    0.41    0.18
   4  12   6    7.67    0.43
   4  12   6    8.13    0.44
   4  12   6    7.74    0.87
  -4 -12  -6    8.66    0.42
  -4 -12  -6    8.51    0.41
   4  12   5    5.95    0.71
   4  12   5    6.47    0.37
   4  12   5    6.30    0.38
  -4 -12  -5    7.17    0.36
  -4 -12  -5    6.97    0.35
   4  12   4    4.36    0.30
   4  12   4    5.02    0.31
   4  12   4    3.89    0.58
  -4 -12  -4    5.02    0.28
  -4 -12  -4    4.67    0.28
   4  12   3   12.28    0.59
   4  12   3   12.91    0.82
  -4 -12  -3   12.59    0.56
  -4 -12  -3   12.90    0.56
   4  12   2   15.58    1.48
   4  12   2   17.28    0.70
  -4 -12  -2   14.41    0.65
  -4 -12  -2   14.58    0.66
   4  12   1    1.35    0.75
   4  12   1    1.51    0.16
  -4 -12  -1    1.33    0.13
  -4 -12  -1    1.52    0.13
   4  12   0   21.85    0.94
   4  12   0   20.55    1.50
  -4 -12   0   23.58    0.92
  -4 -12   0   22.44    0.96
  -4 -12   0   23.77    0.92
   4  12  -1   16.61    1.26
   4  12  -1   16.67    0.73
  -4 -12   1   17.22    0.71
  -4 -12   1   18.05    0.71
  -4 -12   1   16.60    0.74
   4  12  -2   31.02    1.88
  -4 -12   2   32.38    1.33
  -4 -12   2   32.40    1.29
  -4 -12   2   33.79    1.29
   4  12  -3    8.34    0.98
  -4 -12   3    9.58    0.42
  -4 -12   3    9.71    0.42
  -4 -12   3    9.49    0.47
   4  12  -4    7.96    1.06
  -4 -12   4    7.53    0.35
  -4 -12   4    7.55    0.36
  -4 -12   4    7.36    0.40
  -4 -12   5    4.25    0.30
  -4 -12   5    4.29    0.24
  -4 -12   5    4.45    0.25
  -4 -12   6   23.40    0.99
  -4 -12   6   24.45    0.99
  -4 -12   7   14.39    0.71
  -4 -12   7   14.28    0.63
  -4 -12   7   14.32    0.63
  -4 -12   8   27.55    1.14
  -4 -12   8   28.07    1.21
  -4 -12   8   27.37    1.13
  -4 -12   9    2.67    0.21
  -4 -12   9    2.93    0.20
  -4 -12  10    2.44    0.20
  -4 -12  10    2.24    0.21
   5  11   7    1.45    0.19
  -5 -11  -7    1.12    0.16
   5  11   6    1.14    0.18
  -5 -11  -6    0.79    0.15
   5  11   5    0.51    0.20
   5  11   5    0.56    0.14
  -5 -11  -5    0.39    0.16
  -5 -11  -5    0.32    0.11
   5  11   4    1.24    0.18
  -5 -11  -4    1.51    0.17
  -5 -11  -4    1.79    0.20
   5  11   3   22.24    0.97
  -5 -11  -3   23.02    0.94
  -5 -11  -3   21.73    0.93
   5  11   2    2.01    0.19
  -5 -11  -2    1.90    0.17
  -5 -11  -2    1.96    0.18
   5  11   1    1.74    1.06
   5  11   1    2.17    0.19
  -5 -11  -1    1.67    0.15
  -5 -11  -1    1.72    0.16
   5  11   0   31.95    1.29
   5  11   0   29.02    1.96
  -5 -11   0   33.39    1.27
   5  11  -1   21.97    1.62
   5  11  -1   22.94    0.95
  -5 -11   1   22.98    0.96
  -5 -11   1   22.22    0.91
  -5 -11   1   21.98    0.92
   5  11  -2   17.39    1.48
  -5 -11   2   21.86    0.85
  -5 -11   2   21.19    0.85
  -5 -11   2   21.85    0.90
   5  11  -3   13.99    1.31
  -5 -11   3   15.16    0.69
  -5 -11   3   15.23    0.63
  -5 -11   3   15.42    0.64
   5  11  -4    1.30    0.92
  -5 -11   4    0.47    0.12
  -5 -11   4    0.46    0.11
  -5 -11   4    0.57    0.16
  -5 -11   5    3.00    0.19
  -5 -11   5    2.83    0.19
  -5 -11   6    0.74    0.14
  -5 -11   6    0.92    0.18
  -5 -11   6    0.72    0.13
  -5 -11   6    0.74    0.22
  -5 -11   7    8.34    0.43
  -5 -11   8    1.30    0.22
  -5 -11   8    1.04    0.16
  -5 -11   8    0.92    0.14
  -5 -11   8    1.06    0.23
  -5 -11   9    5.56    0.30
  -5 -11   9    5.81    0.31
  -5 -11  10   15.42    0.67
  -5 -11  10   16.23    0.68
  -6 -10  -6    0.78    0.15
   6  10   5    0.20    0.12
  -6 -10  -5    0.22    0.10
   6  10   4    5.08    0.32
  -6 -10  -4    4.59    0.28
   6  10   3   20.27    0.92
  -6 -10  -3   21.76    0.90
   6  10   2   11.47    0.58
  -6 -10  -2   12.11    0.55
  -6 -10  -2   12.49    0.55
  -6 -10  -2   12.34    0.56
   6  10   1   35.03    1.51
  -6 -10  -1   37.54    1.49
  -6 -10  -1   37.81    1.48
  -6 -10  -1   36.92    1.48
   6  10   0   87.65    3.31
   6  10   0   74.95    4.14
  -6 -10   0   81.63    3.27
  -6 -10   0   86.64    3.29
  -6 -10   0   89.09    3.28
   6  10  -1   52.93    3.02
  -6 -10   1   55.87    2.15
  -6 -10   1   51.94    2.13
  -6 -10   1   56.07    2.13
   6  10  -2   10.51    1.40
  -6 -10   2   11.20    0.48
  -6 -10   2   10.63    0.49
  -6 -10   2   11.01    0.49
  -6 -10   2   10.99    0.54
   6  10  -3   14.71    1.63
  -6 -10   3   15.59    0.68
  -6 -10   3   16.34    0.74
  -6 -10   3   16.61    0.68
  -6 -10   3   16.57    0.69
  -6 -10   4   16.99    0.71
  -6 -10   4   16.75    0.71
  -6 -10   4   16.11    0.71
  -6 -10   4   16.94    0.77
  -6 -10   5   14.20    0.66
  -6 -10   5   13.57    0.60
  -6 -10   5   13.09    0.60
  -6 -10   5   13.78    0.60
  -6 -10   6   10.34    0.49
  -6 -10   6   10.47    0.54
  -6 -10   6   10.37    0.48
  -6 -10   6    9.91    0.47
  -6 -10   7    6.10    0.38
  -6 -10   7    6.50    0.33
  -6 -10   7    6.88    0.41
  -6 -10   7    6.15    0.33
  -6 -10   8    5.78    0.32
  -6 -10   8    5.71    0.38
  -6 -10   8    5.85    0.35
  -6 -10   8    5.91    0.31
  -6 -10   9   10.85    0.49
  -6 -10   9   10.84    0.52
  -6 -10   9   10.59    0.50
  -6 -10  10   13.62    0.59
  -6 -10  10   13.86    0.60
  -7  -9  -6    0.87    0.21
   7   9   5    4.18    0.30
  -7  -9  -5    5.43    0.28
   7   9   4    2.28    0.24
  -7  -9  -4    2.03    0.25
  -7  -9  -4    2.62    0.21
   7   9   3    0.39    0.14
  -7  -9  -3    0.38    0.11
  -7  -9  -3    0.23    0.13
  -7  -9  -2    2.58    0.24
  -7  -9  -2    2.67    0.21
   7   9   1    0.92    0.23
  -7  -9  -1    0.67    0.13
  -7  -9  -1    0.90    0.19
   7   9   0   24.79    1.12
  -7  -9   0   27.99    1.13
  -7  -9   0   26.95    1.09
  -7  -9   0   25.93    1.08
  -7  -9   1   18.97    0.80
  -7  -9   1   18.13    0.79
  -7  -9   1   19.59    0.81
  -7  -9   2    8.40    0.41
  -7  -9   2    8.13    0.40
  -7  -9   2    8.66    0.41
  -7  -9   3   33.46    1.34
  -7  -9   3   33.16    1.35
  -7  -9   3   33.51    1.34
  -7  -9   3   32.85    1.39
  -7  -9   4   63.23    2.51
  -7  -9   4   64.21    2.52
  -7  -9   4   63.79    2.57
  -7  -9   4   64.23    2.51
  -7  -9   5    2.02    0.18
  -7  -9   5    1.95    0.18
  -7  -9   5    2.08    0.24
  -7  -9   5    2.20    0.22
  -7  -9   6    0.58    0.14
  -7  -9   6    0.60    0.14
  -7  -9   6    0.57    0.21
  -7  -9   7    8.25    0.41
  -7  -9   7    8.57    0.49
  -7  -9   7    8.36    0.41
  -7  -9   7    9.04    0.43
  -7  -9   8    3.05    0.22
  -7  -9   8    2.98    0.21
  -7  -9   8    3.24    0.26
  -7  -9   9    2.13    0.38
  -7  -9   9    1.78    0.17
  -7  -9   9    1.78    0.17
  -7  -9  10   10.20    0.45
  -7  -9  10    9.81    0.45
   8   8   4    0.89    0.23
  -8  -8  -4    0.72    0.16
   8   8   3    5.82    0.36
  -8  -8  -3    5.75    0.32
  -8  -8  -3    5.69    0.34
   8   8   2    8.15    0.47
  -8  -8  -2    8.69    0.43
  -8  -8  -2    8.70    0.43
   8   8   1    6.23    0.43
  -8  -8  -1    6.45    0.35
  -8  -8  -1    6.66    0.35
  -8  -8   0   27.54    1.12
  -8  -8   0   26.82    1.13
  -8  -8   1   52.85    2.09
  -8  -8   2   12.22    0.56
  -8  -8   2   13.08    0.58
  -8  -8   3   40.99    1.62
  -8  -8   3   42.03    1.64
  -8  -8   3   38.55    1.62
  -8  -8   4   14.28    0.62
  -8  -8   4   13.56    0.62
  -8  -8   4   14.55    0.63
  -8  -8   5   12.14    0.55
  -8  -8   5   12.12    0.60
  -8  -8   6    0.70    0.19
  -8  -8   6    0.88    0.16
  -8  -8   6    0.92    0.14
  -8  -8   7    2.20    0.20
  -8  -8   7    2.45    0.23
  -8  -8   7    2.18    0.19
  -8  -8   8    3.61    0.24
  -8  -8   8    3.73    0.24
  -8  -8   8    3.96    0.27
  -8  -8   9    0.86    0.17
  -8  -8   9    1.09    0.15
  -8  -8   9    0.74    0.15
   8   8 -10    7.72    0.41
  -8  -8  10    7.21    0.36
  -8  -8  10    7.63    0.37
  -9  -7  -3    1.83    0.21
  -9  -7  -3    2.20    0.33
  -9  -7  -2    0.20    0.14
  -9  -7  -2   -0.05    0.11
  -9  -7  -1   11.23    0.52
  -9  -7  -1   10.60    0.50
  -9  -7   0    2.34    0.22
  -9  -7   0    2.28    0.20
  -9  -7   1    0.98    0.18
  -9  -7   1    0.83    0.16
  -9  -7   2   16.73    0.72
  -9  -7   2   16.73    0.73
  -9  -7   3    5.38    0.31
  -9  -7   3    5.21    0.31
  -9  -7   4    2.56    0.22
  -9  -7   4    2.46    0.21
  -9  -7   5   47.02    1.85
  -9  -7   5   45.71    1.86
  -9  -7   6   10.42    0.50
  -9  -7   6   10.46    0.49
  -9  -7   6   10.50    0.49
  -9  -7   7   23.86    0.99
  -9  -7   7   24.21    0.99
  -9  -7   7   23.27    0.98
  -9  -7   8    4.33    0.30
  -9  -7   8    4.31    0.26
  -9  -7   8    4.21    0.31
   9   7  -9    4.57    0.30
  -9  -7   9    3.89    0.28
  -9  -7   9    4.53    0.32
  -9  -7   9    3.95    0.25
   9   7 -10    0.14    0.14
  -9  -7  10    0.01    0.16
 -10  -6  -1    9.92    0.49
 -10  -6  -1   10.40    0.48
 -10  -6   0    0.26    0.13
 -10  -6   0    0.30    0.14
 -10  -6   1   10.08    0.48
 -10  -6   1   10.20    0.48
 -10  -6   2    8.41    0.42
 -10  -6   2    8.59    0.43
 -10  -6   3   11.53    0.54
 -10  -6   3   11.39    0.53
 -10  -6   4   23.84    1.00
 -10  -6   4   23.88    0.99
 -10  -6   5   12.75    0.57
 -10  -6   5   12.67    0.57
 -10  -6   6    3.36    0.26
 -10  -6   6    3.75    0.25
  10   6  -7    4.31    0.37
 -10  -6   7    5.24    0.30
 -10  -6   7    5.19    0.29
  10   6  -8    1.20    0.25
 -10  -6   8    1.09    0.22
 -10  -6   8    0.89    0.17
  10   6  -9    8.94    0.49
 -10  -6   9    8.91    0.43
 -11  -5   1    3.11    0.28
 -11  -5   1    3.32    0.30
 -11  -5   2    0.41    0.16
 -11  -5   2    0.47    0.14
 -11  -5   3    4.09    0.29
 -11  -5   3    4.29    0.28
 -11  -5   4    1.10    0.20
 -11  -5   4    1.73    0.21
 -11  -5   5    1.87    0.22
 -11  -5   5    1.91    0.23
 -11  -5   6    4.84    0.30
 -11  -5   6    4.97    0.31
 -11  -5   7    0.56    0.16
 -11  -5   7    0.95    0.22
  -7  25   4    8.31    0.41
  -7  25   3    5.39    0.30
  -7  25   2    7.39    0.37
  -6  24   6   18.73    0.81
   6 -24  -6   20.43    0.86
  -6  24   5    9.44    0.45
   6 -24  -5    9.99    0.50
  -6  24   4    2.26    0.30
  -6  24   4    2.60    0.20
  -6  24   4    2.27    0.66
   6 -24  -4    1.77    0.22
  -6  24   3    1.05    0.24
  -6  24   3    1.43    0.46
  -6  24   3    0.90    0.24
   6 -24  -3    0.94    0.21
  -6  24   2    1.96    0.22
  -6  24   2    2.16    0.61
   6 -24  -2    2.75    0.29
  -6  24   1    3.77    0.34
  -6  24   1    3.81    0.65
  -6  24   0    9.04    0.43
  -6  24  -1    0.32    0.14
  -5  23   7    1.27    0.18
   5 -23  -7    1.29    0.20
  -5  23   6    0.66    0.44
  -5  23   6    0.80    0.16
   5 -23  -6    0.39    0.20
  -5  23   5    8.87    0.58
  -5  23   5    8.52    0.41
  -5  23   5    7.69    0.66
   5 -23  -5    8.52    0.46
  -5  23   4    6.90    0.65
  -5  23   4    6.37    0.39
  -5  23   4    6.68    0.34
   5 -23  -4    6.00    0.38
  -5  23   3    1.82    0.51
  -5  23   3    2.25    0.23
  -5  23   3    2.37    0.26
   5 -23  -3    2.39    0.25
  -5  23   2    2.60    0.21
  -5  23   2    2.40    0.51
   5 -23  -2    2.72    0.26
  -5  23   1    3.32    0.24
  -5  23   1    3.37    0.58
   5 -23  -1    2.98    0.29
  -5  23   0    7.67    0.72
  -5  23   0    7.80    0.38
   5 -23   0    6.88    0.44
  -5  23  -1    0.83    0.19
  -5  23  -1    1.81    0.67
  -5  23  -2    4.72    0.41
  -5  23  -2    6.42    0.92
  -5  23  -3    3.30    0.30
  -4  22   8    0.61    0.12
   4 -22  -8    0.51    0.27
  -4  22   7    1.92    0.70
  -4  22   7    2.34    0.21
   4 -22  -7    2.61    0.24
  -4  22   6    5.93    0.32
  -4  22   6    5.68    0.39
  -4  22   6    5.99    0.62
   4 -22  -6    6.28    0.37
  -4  22   5   18.26    1.07
  -4  22   5   21.30    0.85
  -4  22   5   20.74    0.89
   4 -22  -5   19.40    0.90
  -4  22   4    9.08    0.48
  -4  22   4    8.70    0.43
  -4  22   4    9.30    0.69
   4 -22  -4    8.83    0.49
  -4  22   3   36.06    1.47
  -4  22   3   34.64    1.62
  -4  22   3   35.43    1.42
   4 -22  -3   34.75    1.49
  -4  22   2    8.90    0.66
  -4  22   2    9.27    0.43
   4 -22  -2    8.69    0.49
  -4  22   1   13.74    0.85
  -4  22   1   13.61    0.61
   4 -22  -1   13.67    0.66
  -4  22   0    1.64    0.21
  -4  22   0    1.45    0.52
   4 -22   0    2.32    0.26
  -4  22  -1    0.68    0.40
  -4  22  -1    1.18    0.19
   4 -22   1    0.60    0.18
  -4  22  -2    7.10    0.86
  -4  22  -2    7.12    0.38
   4 -22   2    7.59    0.42
  -4  22  -3    6.77    0.39
  -4  22  -3    6.57    0.90
   4 -22   3    7.53    0.41
  -4  22  -4    3.23    0.33
  -3  21   8    4.17    0.25
   3 -21  -8    3.91    0.26
   3 -21  -8    3.60    0.35
  -3  21   7    5.25    0.38
  -3  21   7    4.52    0.70
  -3  21   7    4.97    0.31
   3 -21  -7    6.25    0.36
  -3  21   6    0.54    0.35
  -3  21   6    0.18    0.15
  -3  21   6    0.20    0.11
   3 -21  -6    0.23    0.12
   3 -21  -6    0.46    0.18
  -3  21   5    5.56    0.55
  -3  21   5    5.16    0.34
  -3  21   5    5.20    0.30
   3 -21  -5    4.97    0.30
   3 -21  -5    4.82    0.34
  -3  21   4    3.19    0.23
  -3  21   4    2.43    0.47
  -3  21   4    2.95    0.26
   3 -21  -4    3.20    0.27
   3 -21  -4    3.52    0.26
  -3  21   3   13.82    0.67
  -3  21   3   12.74    0.79
  -3  21   3   15.54    0.68
   3 -21  -3   12.86    0.70
  -3  21   2    0.43    0.28
  -3  21   2    0.27    0.11
   3 -21  -2    0.19    0.12
  -3  21   1   24.52    1.24
  -3  21   1   26.64    1.06
   3 -21  -1   25.54    1.12
  -3  21   0    4.92    0.54
  -3  21   0    6.12    0.32
   3 -21   0    5.18    0.34
  -3  21  -1   22.44    1.15
  -3  21  -1   23.48    0.95
   3 -21   1   22.02    1.16
  -3  21  -2    6.83    0.37
  -3  21  -2    6.74    0.68
   3 -21   2    6.90    0.42
   3 -21   2    6.73    0.39
  -3  21  -3   28.46    1.51
   3 -21   3   32.79    1.31
   3 -21   4    2.54    0.25
   3 -21   5    1.44    0.24
  -2  20   8    2.43    0.36
  -2  20   8    2.43    0.22
   2 -20  -8    2.74    0.20
  -2  20   7    1.63    0.19
  -2  20   7    1.70    0.24
  -2  20   7    1.99    0.56
   2 -20  -7    1.12    0.25
   2 -20  -7    1.16    0.16
  -2  20   6    1.18    0.18
  -2  20   6    1.75    0.48
  -2  20   6    1.05    0.21
   2 -20  -6    1.29    0.21
   2 -20  -6    1.38    0.17
  -2  20   5    9.70    0.71
  -2  20   5   10.23    0.49
  -2  20   5   11.27    0.54
   2 -20  -5   10.22    0.48
   2 -20  -5   10.51    0.54
  -2  20   4    3.48    0.29
  -2  20   4    3.06    0.43
  -2  20   4    3.82    0.25
   2 -20  -4    3.15    0.23
   2 -20  -4    3.41    0.28
  -2  20   3   15.83    0.67
  -2  20   3   16.00    0.72
  -2  20   3   15.16    0.86
   2 -20  -3   15.58    0.67
   2 -20  -3   15.29    0.73
  -2  20   2   21.02    0.90
  -2  20   2   18.43    1.01
  -2  20   2   20.35    0.85
   2 -20  -2   20.90    0.85
   2 -20  -2   20.93    0.91
  -2  20   1    5.17    0.29
   2 -20  -1    4.90    0.32
  -2  20   0    1.03    0.20
   2 -20   0    1.70    0.20
  -2  20  -1    1.92    0.47
   2 -20   1    1.31    0.20
  -2  20  -2    6.11    0.34
  -2  20  -2    5.65    0.61
   2 -20   2    6.08    0.36
   2 -20   2    6.03    0.37
  -2  20  -3    4.31    0.66
   2 -20   3    3.46    0.27
   2 -20   4    0.86    0.20
   2 -20   4    0.81    0.29
   2 -20   5    9.02    0.48
   2 -20   6   11.68    0.59
  -1  19   8    0.40    0.13
  -1  19   8    0.48    0.18
   1 -19  -8    0.57    0.14
  -1  19   7   15.74    0.71
  -1  19   7   15.09    0.96
  -1  19   7   15.53    0.68
   1 -19  -7   15.37    0.67
  -1  19   6    8.92    0.48
  -1  19   6    9.40    0.45
  -1  19   6    8.74    0.71
   1 -19  -6    8.98    0.44
   1 -19  -6    9.39    0.50
  -1  19   5   22.33    1.15
  -1  19   5   21.24    0.98
  -1  19   5   20.76    1.02
   1 -19  -5   22.64    1.08
   1 -19  -5   24.91    0.94
  -1  19   4   14.29    0.83
  -1  19   4   15.12    0.69
  -1  19   4   15.35    0.65
   1 -19  -4   14.13    0.63
   1 -19  -4   14.36    0.69
  -1  19   3   18.46    0.76
  -1  19   3   17.57    0.79
   1 -19  -3   17.72    0.75
   1 -19  -3   17.31    0.80
  -1  19   2    3.35    0.25
  -1  19   2    3.76    0.46
  -1  19   2    2.96    1.36
  -1  19   2    3.34    0.23
   1 -19  -2    3.39    0.21
   1 -19  -2    3.39    0.26
  -1  19   1   32.17    1.29
  -1  19   1   34.64    1.45
   1 -19  -1   31.41    1.34
   1 -19  -1   30.42    1.29
  -1  19   0    1.81    0.21
  -1  19   0    1.71    0.44
   1 -19   0    1.64    0.18
   1 -19   0    1.61    0.19
  -1  19  -1    1.29    0.34
  -1  19  -1    0.98    0.22
   1 -19   1    1.04    0.18
   1 -19   1    1.20    0.19
  -1  19  -2   14.57    0.89
   1 -19   2   15.19    0.69
   1 -19   2   15.34    0.70
   1 -19   3   12.23    0.58
   1 -19   3   11.75    0.59
   1 -19   4   27.79    1.24
   1 -19   4   30.09    1.24
   1 -19   5    9.82    0.55
   1 -19   5    9.89    0.51
   1 -19   6    0.80    0.29
   0 -18  -9    4.03    0.25
   0  18   8    1.99    0.22
   0  18   8    2.08    0.24
   0 -18  -8    1.79    0.18
   0  18   7    2.69    0.23
   0  18   7    2.70    0.61
   0  18   7    2.55    0.24
   0 -18  -7    2.54    0.19
   0  18   6    3.23    0.27
   0  18   6    3.16    0.23
   0  18   6    2.53    0.52
   0 -18  -6    3.01    0.21
   0  18   5   13.68    0.61
   0  18   5   11.95    0.82
   0 -18  -5   12.70    0.67
   0 -18  -5   15.77    0.68
   0  18   4   39.11    1.60
   0  18   4   39.14    1.55
   0  18   4   36.29    1.71
   0 -18  -4   38.95    1.60
   0 -18  -4   39.25    1.55
   0  18   3   17.29    0.93
   0  18   3   17.48    0.79
   0  18   3   17.38    0.76
   0 -18  -3   18.08    0.80
   0 -18  -3   18.91    0.76
   0  18   2    8.82    0.44
   0  18   2    7.37    1.18
   0  18   2    9.36    0.59
   0  18   2    9.33    0.46
   0 -18  -2    9.98    0.42
   0 -18  -2    9.54    0.47
   0  18   1   21.28    1.03
   0  18   1   21.98    0.92
   0  18   1   19.69    1.60
   0 -18  -1   21.88    0.93
   0 -18  -1   22.17    0.88
   0  18   0   41.82    2.39
   0  18   0   42.56    1.94
   0 -18   0   43.69    1.76
   0 -18   0   44.52    1.71
   0  18  -1   20.20    1.60
   0 -18   1   21.45    0.86
   0 -18   1   21.41    0.92
   0  18  -2    8.50    1.37
   0 -18   2    9.29    0.46
   0 -18   2    8.97    0.41
   0 -18   3   16.54    0.74
   0 -18   3   16.80    0.76
   0 -18   3   16.30    0.70
   0 -18   4   37.26    1.51
   0 -18   4   36.89    1.53
   0 -18   4   35.93    1.47
   0 -18   5   12.96    0.63
   0 -18   6    2.80    0.33
   1  17   8    7.53    0.40
   1  17   8    7.55    0.41
  -1 -17  -8    7.85    0.37
   1  17   7   19.26    1.16
   1  17   7   19.13    0.86
   1  17   7   19.00    0.83
  -1 -17  -7   19.34    0.83
  -1 -17  -7   20.48    0.82
   1  17   6   21.04    0.89
   1  17   6   20.48    0.85
   1  17   6   20.19    1.11
  -1 -17  -6   18.85    0.85
  -1 -17  -6   19.04    0.84
   1  17   5   32.58    1.49
   1  17   5   34.21    1.29
   1  17   5   30.20    1.38
  -1 -17  -5   29.62    1.28
   1  17   4    4.26    0.51
   1  17   4    4.82    0.31
   1  17   4    4.82    0.30
  -1 -17  -4    5.37    0.28
  -1 -17  -4    4.91    0.31
  -1 -17  -4    4.98    0.35
   1  17   3   39.28    1.61
   1  17   3   42.54    1.78
   1  17   3   41.69    1.66
  -1 -17  -3   40.45    1.62
  -1 -17  -3   39.21    1.66
   1  17   2    2.50    0.21
   1  17   2    2.17    0.42
   1  17   2    1.56    0.97
  -1 -17  -2    2.51    0.22
  -1 -17  -2    2.40    0.17
   1  17   1   30.46    1.30
   1  17   1   28.04    1.92
  -1 -17  -1   34.59    1.27
  -1 -17  -1   33.05    1.32
   1  17   0    0.54    0.15
   1  17   0    0.66    0.50
  -1 -17   0    0.78    0.14
  -1 -17   0    0.63    0.12
   1  17  -1   32.02    1.98
  -1 -17   1   33.98    1.32
  -1 -17   1   33.32    1.37
   1  17  -2    3.81    0.98
  -1 -17   2    3.38    0.24
  -1 -17   2    3.37    0.20
   1  17  -3   22.72    1.89
  -1 -17   3   28.06    1.13
  -1 -17   3   27.55    1.07
   1  17  -4   15.65    2.00
  -1 -17   4   16.47    0.76
  -1 -17   4   17.40    0.70
  -1 -17   5   22.50    0.99
  -1 -17   5   22.16    0.92
  -1 -17   6    4.71    0.35
  -1 -17   6    4.95    0.30
  -1 -17   7   11.14    0.59
   2  16   8    2.83    0.30
   2  16   8    3.01    0.24
  -2 -16  -8    2.08    0.26
  -2 -16  -8    2.65    0.22
   2  16   7    9.76    0.50
   2  16   7    9.39    0.49
   2  16   7   10.08    0.94
  -2 -16  -7   10.14    0.47
  -2 -16  -7   10.87    0.47
   2  16   6   16.92    0.78
   2  16   6   17.45    0.75
   2  16   6   16.65    1.04
  -2 -16  -6   17.79    0.74
  -2 -16  -6   16.91    0.74
   2  16   5   30.77    1.48
   2  16   5   30.33    1.32
  -2 -16  -5   32.49    1.28
  -2 -16  -5   31.16    1.27
   2  16   4    0.29    0.11
   2  16   4    0.30    0.14
   2  16   4    0.28    0.35
  -2 -16  -4    0.28    0.11
  -2 -16  -4    0.20    0.08
   2  16   3    2.63    0.47
   2  16   3    2.82    0.22
  -2 -16  -3    2.26    0.17
  -2 -16  -3    1.93    0.25
  -2 -16  -3    2.25    0.20
   2  16   2   15.28    1.46
   2  16   2   17.02    0.71
  -2 -16  -2   15.13    0.70
  -2 -16  -2   15.44    0.66
  -2 -16  -2   15.25    0.66
   2  16   1   11.07    0.49
   2  16   1    9.64    1.14
  -2 -16  -1    9.80    0.49
  -2 -16  -1   10.23    0.45
  -2 -16  -1    9.81    0.46
   2  16   0    4.80    0.29
   2  16   0    4.22    0.86
  -2 -16   0    5.57    0.26
  -2 -16   0    5.78    0.31
  -2 -16   0    5.10    0.29
   2  16  -1   15.36    0.65
   2  16  -1   14.92    1.28
  -2 -16   1   14.02    0.66
  -2 -16   1   14.74    0.62
   2  16  -2   15.06    1.33
  -2 -16   2   16.49    0.67
  -2 -16   2   16.60    0.72
   2  16  -3    5.21    1.06
  -2 -16   3    5.96    0.34
  -2 -16   3    6.01    0.29
   2  16  -4   16.10    1.74
  -2 -16   4   17.97    0.77
  -2 -16   4   18.90    0.76
  -2 -16   4   19.32    0.82
  -2 -16   5    8.56    0.40
  -2 -16   5    8.23    0.46
  -2 -16   5    8.51    0.42
  -2 -16   6   19.13    0.80
  -2 -16   6   18.28    0.81
  -2 -16   6   19.48    0.87
  -2 -16   7    8.26    0.47
  -2 -16   7    8.20    0.40
  -2 -16   8    0.11    0.13
  -2 -16   8    0.29    0.19
   3  15   8    4.03    0.28
   3  15   7    2.21    0.30
   3  15   7    2.31    0.22
  -3 -15  -7    1.78    0.27
   3  15   6    0.80    0.23
   3  15   6    0.54    0.16
  -3 -15  -6    0.54    0.12
  -3 -15  -6    0.35    0.11
   3  15   5    3.58    0.28
   3  15   5    3.14    0.62
   3  15   5    3.26    0.25
  -3 -15  -5    2.67    0.21
  -3 -15  -5    2.86    0.22
   3  15   4   14.24    0.69
  -3 -15  -4   15.62    0.66
  -3 -15  -4   15.13    0.66
   3  15   3    0.03    0.09
  -3 -15  -3    0.24    0.09
  -3 -15  -3    0.25    0.10
   3  15   2   20.00    0.88
  -3 -15  -2   19.91    0.89
  -3 -15  -2   21.23    0.85
  -3 -15  -2   20.38    0.85
   3  15   1    6.94    1.04
   3  15   1    7.20    0.37
  -3 -15  -1    7.11    0.34
  -3 -15  -1    7.09    0.34
  -3 -15  -1    7.14    0.39
   3  15   0   21.75    1.57
   3  15   0   22.95    0.90
  -3 -15   0   20.18    0.86
  -3 -15   0   19.66    0.85
  -3 -15   0   20.09    0.90
   3  15  -1   85.21    3.24
   3  15  -1   80.75    3.89
  -3 -15   1   85.31    3.21
  -3 -15   1   83.16    3.25
  -3 -15   1   77.64    3.22
   3  15  -2    0.42    0.15
   3  15  -2    0.53    0.53
  -3 -15   2    0.47    0.10
  -3 -15   2    0.78    0.15
  -3 -15   2    0.63    0.15
   3  15  -3    4.60    0.96
  -3 -15   3    5.93    0.34
  -3 -15   3    5.88    0.30
  -3 -15   3    5.96    0.29
  -3 -15   4    7.77    0.43
  -3 -15   4    8.06    0.38
  -3 -15   4    8.14    0.37
  -3 -15   5    5.96    0.32
  -3 -15   5    5.91    0.30
  -3 -15   5    5.87    0.36
  -3 -15   6   12.47    0.62
  -3 -15   6   12.18    0.56
  -3 -15   6   12.67    0.55
  -3 -15   7   20.64    0.87
  -3 -15   7   20.75    0.94
  -3 -15   7   21.10    0.88
  -3 -15   8    4.83    0.28
  -3 -15   8    4.91    0.30
  -3 -15   8    4.77    0.35
  -3 -15   9    3.23    0.27
  -3 -15   9    3.34    0.24
   4  14   7    3.41    0.26
  -4 -14  -7    3.57    0.23
   4  14   6    5.50    0.31
  -4 -14  -6    4.29    0.27
  -4 -14  -6    4.04    0.29
   4  14   5    1.81    0.21
  -4 -14  -5    2.13    0.19
  -4 -14  -5    2.18    0.20
   4  14   4   20.60    0.89
  -4 -14  -4   19.72    0.87
  -4 -14  -4   19.13    0.84
   4  14   3    7.87    0.42
  -4 -14  -3    7.59    0.38
  -4 -14  -3    7.60    0.38
   4  14   2   41.50    1.67
  -4 -14  -2   39.83    1.63
  -4 -14  -2   41.44    1.63
   4  14   1    8.45    0.42
   4  14   1    6.62    1.19
  -4 -14  -1    8.57    0.47
  -4 -14  -1    8.73    0.39
  -4 -14  -1    9.02    0.40
   4  14   0   12.09    1.27
   4  14   0   13.33    0.61
  -4 -14   0   13.65    0.62
  -4 -14   0   13.58    0.57
  -4 -14   0   13.35    0.57
   4  14  -1   29.22    1.23
   4  14  -1   27.26    1.91
  -4 -14   1   30.93    1.21
  -4 -14   1   31.35    1.25
  -4 -14   1   30.89    1.21
   4  14  -2    2.02    0.83
  -4 -14   2    1.85    0.14
  -4 -14   2    1.77    0.20
  -4 -14   2    1.68    0.16
   4  14  -3    2.30    0.94
  -4 -14   3    2.63    0.18
  -4 -14   3    2.60    0.17
  -4 -14   3    2.30    0.22
  -4 -14   4   19.49    0.80
  -4 -14   4   19.00    0.86
  -4 -14   4   19.15    0.80
  -4 -14   5    4.81    0.32
  -4 -14   5    4.79    0.26
  -4 -14   5    4.82    0.27
  -4 -14   6    6.41    0.34
  -4 -14   6    6.41    0.33
  -4 -14   6    6.65    0.40
  -4 -14   7    5.60    0.31
  -4 -14   7    5.53    0.37
  -4 -14   7    5.20    0.30
  -4 -14   8   13.43    0.59
  -4 -14   8   13.19    0.59
  -4 -14   8   13.16    0.66
  -4 -14   9    0.08    0.09
  -4 -14   9    0.28    0.13
  -4 -14  10    2.22    0.25
  -4 -14  10    2.52    0.22
   5  13   7    0.47    0.14
  -5 -13  -7    0.39    0.12
   5  13   6    8.51    0.43
  -5 -13  -6    7.83    0.42
   5  13   5    0.28    0.12
  -5 -13  -5    0.03    0.15
  -5 -13  -5    0.04    0.09
   5  13   4   11.87    0.62
  -5 -13  -4   13.46    0.58
  -5 -13  -4   13.62    0.59
   5  13   3    2.89    0.24
  -5 -13  -3    2.50    0.21
   5  13   2    2.45    0.22
  -5 -13  -2    2.29    0.18
  -5 -13  -2    2.57    0.20
   5  13   1   10.75    0.52
  -5 -13  -1   11.00    0.48
  -5 -13  -1   10.22    0.49
   5  13   0    7.48    1.33
   5  13   0    7.47    0.40
  -5 -13   0    7.18    0.36
  -5 -13   0    7.67    0.36
   5  13  -1   28.89    1.32
   5  13  -1   29.96    2.10
  -5 -13   1   31.71    1.31
  -5 -13   1   32.87    1.26
  -5 -13   1   32.56    1.26
   5  13  -2    3.41    1.05
  -5 -13   2    3.60    0.21
  -5 -13   2    3.47    0.27
  -5 -13   2    3.61    0.22
   5  13  -3   78.24    4.26
  -5 -13   3   90.47    3.41
  -5 -13   3   90.12    3.41
  -5 -13   3   90.69    3.47
  -5 -13   4   30.77    1.23
  -5 -13   4   29.60    1.22
  -5 -13   4   30.20    1.28
  -5 -13   5    2.02    0.23
  -5 -13   5    1.89    0.17
  -5 -13   5    1.96    0.17
  -5 -13   6    4.03    0.25
  -5 -13   6    4.05    0.30
  -5 -13   6    3.95    0.24
  -5 -13   7   11.79    0.53
  -5 -13   7   11.23    0.59
  -5 -13   7   11.53    0.53
  -5 -13   8    4.78    0.35
  -5 -13   8    5.07    0.28
  -5 -13   8    4.90    0.28
  -5 -13   9    8.80    0.41
  -5 -13   9    8.67    0.42
  -5 -13  10    0.83    0.15
  -5 -13  10    1.35    0.19
   6  12   6    4.48    0.29
  -6 -12  -6    4.16    0.26
   6  12   5    1.57    0.20
  -6 -12  -5    1.38    0.16
   6  12   4    6.00    0.36
  -6 -12  -4    6.00    0.33
   6  12   3   -0.07    0.12
  -6 -12  -3    0.00    0.13
  -6 -12  -3    0.31    0.10
   6  12   2   26.76    1.14
  -6 -12  -2   26.61    1.10
   6  12   1    5.39    0.34
  -6 -12  -1    5.51    0.30
  -6 -12  -1    5.25    0.30
   6  12   0   45.13    1.85
  -6 -12   0   45.98    1.81
  -6 -12   0   45.72    1.82
  -6 -12   1   15.97    0.71
  -6 -12   1   17.26    0.71
  -6 -12   2   21.17    0.93
  -6 -12   2   20.80    0.87
  -6 -12   3    3.79    0.29
  -6 -12   3    3.60    0.23
  -6 -12   3    3.91    0.23
  -6 -12   4    4.65    0.26
  -6 -12   4    4.64    0.32
  -6 -12   4    4.49    0.26
  -6 -12   5    5.86    0.37
  -6 -12   5    5.62    0.30
  -6 -12   5    5.43    0.30
  -6 -12   6    9.01    0.51
  -6 -12   6    8.20    0.43
  -6 -12   6    8.69    0.42
  -6 -12   7    8.87    0.50
  -6 -12   7    8.77    0.43
  -6 -12   7    8.69    0.42
  -6 -12   8   11.59    0.53
  -6 -12   8   11.65    0.60
  -6 -12   8   11.90    0.53
  -6 -12   9    0.32    0.11
  -6 -12   9    0.16    0.09
  -6 -12  10    8.22    0.39
  -6 -12  10    8.41    0.40
   7  11   5    1.34    0.22
  -7 -11  -5    1.58    0.17
   7  11   4    4.30    0.30
  -7 -11  -4    4.45    0.27
   7  11   3    2.97    0.27
  -7 -11  -3    3.01    0.22
   7  11   2    4.78    0.33
  -7 -11  -2    4.53    0.28
  -7 -11  -1    6.43    0.34
  -7 -11   0   20.57    0.88
  -7 -11   0   20.86    0.87
  -7 -11   1   10.66    0.49
  -7 -11   1   10.53    0.49
  -7 -11   2    0.64    0.13
  -7 -11   2    0.76    0.16
  -7 -11   3   70.37    2.82
  -7 -11   3   71.52    2.77
  -7 -11   3   69.96    2.78
  -7 -11   4    6.36    0.33
  -7 -11   4    6.40    0.34
  -7 -11   4    6.37    0.40
  -7 -11   5   33.52    1.38
  -7 -11   5   34.54    1.45
  -7 -11   5   34.20    1.39
  -7 -11   6   23.65    1.00
  -7 -11   6   24.17    1.08
  -7 -11   6   24.47    1.00
  -7 -11   7    0.67    0.14
  -7 -11   7    0.67    0.21
  -7 -11   7    0.67    0.14
  -7 -11   8    1.03    0.15
  -7 -11   8    1.04    0.16
  -7 -11   9    0.61    0.14
  -7 -11   9    0.58    0.13
  -7 -11  10    2.24    0.18
  -7 -11  10    2.11    0.19
   8  10   4    2.53    0.29
  -8 -10  -4    2.81    0.21
   8  10   3    2.45    0.36
  -8 -10  -3    2.97    0.21
   8  10   2    0.70    0.20
  -8 -10  -2    0.34    0.11
  -8 -10  -1    3.32    0.24
  -8 -10   0    0.68    0.15
  -8 -10   0    0.79    0.15
  -8 -10   1   15.19    0.68
  -8 -10   1   15.23    0.67
  -8 -10   2    2.76    0.26
  -8 -10   2    2.29    0.20
  -8 -10   3   29.31    1.19
  -8 -10   3   27.56    1.21
  -8 -10   3   30.92    1.23
  -8 -10   4   43.33    1.65
  -8 -10   4   37.97    1.68
  -8 -10   5    2.60    0.20
  -8 -10   5    2.17    0.27
  -8 -10   5    2.57    0.26
  -8 -10   5    2.75    0.21
  -8 -10   6   37.63    1.50
  -8 -10   6   37.95    1.50
  -8 -10   6   36.11    1.51
  -8 -10   7    2.43    0.30
  -8 -10   7    2.43    0.20
  -8 -10   7    2.24    0.19
  -8 -10   8    4.29    0.26
  -8 -10   8    4.22    0.26
  -8 -10   9    2.84    0.20
  -8 -10   9    2.69    0.20
   8  10 -10    2.48    0.25
  -8 -10  10    3.06    0.21
  -8 -10  10    2.94    0.20
  -9  -9  -3    1.08    0.18
  -9  -9  -2    7.08    0.39
  -9  -9  -1    5.71    0.32
  -9  -9   0    0.51    0.15
  -9  -9   0    0.71    0.15
  -9  -9   1    1.71    0.24
  -9  -9   1    2.05    0.19
  -9  -9   2    1.67    0.23
  -9  -9   2    1.64    0.18
  -9  -9   3    0.16    0.13
  -9  -9   3    0.37    0.11
  -9  -9   4   14.41    0.64
  -9  -9   4   14.22    0.64
  -9  -9   5    7.59    0.41
  -9  -9   5    7.76    0.38
  -9  -9   5    7.18    0.40
  -9  -9   6    0.07    0.15
  -9  -9   6    0.06    0.13
  -9  -9   6    0.11    0.10
  -9  -9   7   10.60    0.49
  -9  -9   7   10.36    0.48
  -9  -9   7   10.49    0.52
  -9  -9   8    1.23    0.16
  -9  -9   8    1.20    0.19
   9   9  -9   12.25    0.58
  -9  -9   9   12.27    0.53
  -9  -9   9   11.79    0.54
 -10  -8  -1   10.36    0.49
 -10  -8   0    2.86    0.23
 -10  -8   1    9.01    0.44
 -10  -8   1    9.33    0.47
 -10  -8   2    1.70    0.25
 -10  -8   2    1.45    0.19
 -10  -8   3    4.19    0.27
 -10  -8   3    4.00    0.30
 -10  -8   4    7.48    0.38
 -10  -8   4    7.32    0.40
 -10  -8   5    3.50    0.23
 -10  -8   5    3.41    0.29
 -10  -8   6    3.81    0.31
 -10  -8   6    4.31    0.26
  10   8  -7    2.60    0.31
 -10  -8   7    2.40    0.20
  10   8  -8    3.86    0.34
 -10  -8   8    4.29    0.25
 -11  -7   1    7.43    0.40
 -11  -7   2    0.08    0.13
 -11  -7   3    2.45    0.23
 -11  -7   3    2.80    0.41
 -11  -7   4    3.36    0.33
 -11  -7   4    3.64    0.24
 -11  -7   5    3.48    0.25
 -11  -7   6   10.94    0.50
 -11  -7   7    7.47    0.38
   6 -26  -5    1.04    0.23
  -6  26   4    2.71    0.26
   6 -26  -4    3.54    0.28
  -6  26   3    0.11    0.13
  -6  26   3    0.15    0.20
   6 -26  -3    0.14    0.17
  -6  26   2    1.05    0.21
  -6  26   2    0.78    0.23
   6 -26  -2    0.78    0.22
  -6  26   1    0.16    0.16
  -6  26   1   -0.07    0.15
  -6  26   0    0.06    0.16
  -5  25   6    4.63    0.31
   5 -25  -6    5.49    0.32
  -5  25   5    5.41    0.30
  -5  25   5    4.90    0.37
   5 -25  -5    5.49    0.33
  -5  25   4    6.81    0.35
  -5  25   4    6.80    0.81
  -5  25   4    6.71    0.39
   5 -25  -4    5.57    0.46
  -5  25   3    0.77    0.50
  -5  25   3    0.74    0.21
  -5  25   3    0.52    0.15
   5 -25  -3    0.56    0.18
  -5  25   2    3.37    0.27
  -5  25   2    3.34    0.72
  -5  25   2    3.44    0.24
   5 -25  -2    2.81    0.27
  -5  25   1    0.52    0.15
  -5  25   1    0.34    0.52
  -5  25   0    3.14    0.81
  -5  25   0    3.17    0.26
   5 -25   0    3.17    0.36
  -5  25  -1    2.23    0.29
  -4  24   7    3.76    0.26
   4 -24  -7    3.42    0.28
  -4  24   6    7.79    0.45
  -4  24   6    7.47    0.39
   4 -24  -6    7.71    0.42
  -4  24   5    4.64    0.33
  -4  24   5    4.75    0.29
  -4  24   5    4.36    0.68
   4 -24  -5    4.97    0.32
  -4  24   4   13.52    0.59
  -4  24   4   12.81    0.89
  -4  24   4   13.04    0.63
   4 -24  -4   12.96    0.64
  -4  24   3    1.78    0.57
  -4  24   3    1.56    0.19
  -4  24   3    1.63    0.22
   4 -24  -3    1.29    0.20
  -4  24   2    9.69    0.49
  -4  24   2    9.13    0.45
  -4  24   2    9.31    0.80
   4 -24  -2    9.44    0.50
  -4  24   1    1.38    0.55
  -4  24   1    1.48    0.20
   4 -24  -1    1.27    0.22
  -4  24   0    4.08    0.73
  -4  24   0    3.39    0.28
   4 -24   0    4.19    0.31
  -4  24  -1    2.79    0.87
  -4  24  -1    3.22    0.28
   4 -24   1    3.77    0.33
  -3  23   7    1.90    0.21
  -3  23   7    1.87    0.30
   3 -23  -7    1.75    0.24
   3 -23  -7    1.55    0.24
  -3  23   6    4.60    0.28
  -3  23   6    5.00    0.73
  -3  23   6    4.65    0.33
   3 -23  -6    4.40    0.31
   3 -23  -6    4.49    0.30
  -3  23   5    0.05    0.38
  -3  23   5    0.24    0.12
  -3  23   5    0.31    0.14
   3 -23  -5    0.27    0.15
   3 -23  -5    0.21    0.12
  -3  23   4    2.37    0.22
  -3  23   4    2.76    0.49
  -3  23   4    2.42    0.24
   3 -23  -4    1.71    0.23
  -3  23   3    5.92    0.34
  -3  23   3    5.87    0.37
  -3  23   3    5.95    0.64
   3 -23  -3    6.85    0.39
  -3  23   2    6.02    0.37
  -3  23   2    6.19    0.61
  -3  23   2    6.20    0.34
   3 -23  -2    6.67    0.39
  -3  23   1    1.78    0.22
  -3  23   1    1.49    0.50
   3 -23  -1    2.50    0.24
  -3  23   0    4.48    0.68
  -3  23   0    4.54    0.30
   3 -23   0    4.78    0.33
  -3  23  -1    3.83    0.72
  -3  23  -1    4.22    0.31
   3 -23   1    3.81    0.31
  -3  23  -2    2.66    0.29
   3 -23   2    2.90    0.30
   2 -22  -8    2.24    0.21
  -2  22   7    1.87    0.22
  -2  22   7    1.92    0.26
   2 -22  -7    2.44    0.31
   2 -22  -7    2.59    0.20
  -2  22   6    2.48    0.25
  -2  22   6    2.56    0.70
  -2  22   6    2.50    0.24
   2 -22  -6    2.65    0.27
   2 -22  -6    2.69    0.21
  -2  22   5    0.23    0.12
  -2  22   5    0.12    0.37
  -2  22   5    0.18    0.12
   2 -22  -5    0.21    0.11
   2 -22  -5    0.19    0.12
  -2  22   4    4.81    0.58
  -2  22   4    4.82    0.34
  -2  22   4    4.94    0.31
   2 -22  -4    5.56    0.35
   2 -22  -4    5.72    0.31
  -2  22   3   18.77    0.84
  -2  22   3   18.51    0.86
  -2  22   3   19.60    1.05
   2 -22  -3   19.62    0.88
   2 -22  -3   19.54    0.81
  -2  22   2   11.87    0.77
  -2  22   2   12.47    0.55
   2 -22  -2   11.45    0.55
  -2  22   1   15.64    0.93
  -2  22   1   16.23    0.72
   2 -22  -1   18.17    0.79
  -2  22   0    9.94    0.77
  -2  22   0    9.96    0.48
   2 -22   0    9.53    0.52
  -2  22  -1    0.59    0.17
   2 -22   1    0.73    0.21
   2 -22   2   14.92    0.71
   2 -22   3    2.31    0.27
  -1  21   8    1.31    0.25
  -1  21   8    1.21    0.34
   1 -21  -8    0.79    0.16
  -1  21   7    2.90    0.25
  -1  21   7    3.27    0.37
  -1  21   7    2.81    0.82
   1 -21  -7    3.10    0.21
  -1  21   6    7.02    0.36
  -1  21   6    6.72    0.38
  -1  21   6    6.28    0.72
   1 -21  -6    6.52    0.41
   1 -21  -6    6.34    0.34
  -1  21   5   16.06    0.97
  -1  21   5   17.01    0.70
  -1  21   5   16.33    0.74
   1 -21  -5   14.95    0.69
   1 -21  -5   15.26    0.74
  -1  21   4    7.30    0.39
  -1  21   4    7.33    0.63
  -1  21   4    7.30    0.42
   1 -21  -4    7.47    0.42
   1 -21  -4    7.60    0.37
  -1  21   3   39.89    1.63
  -1  21   3   36.12    1.75
  -1  21   3   39.04    1.57
   1 -21  -3   40.93    1.58
   1 -21  -3   40.10    1.64
  -1  21   2    9.88    0.51
  -1  21   2    9.71    0.49
  -1  21   2    9.67    0.74
   1 -21  -2   10.86    0.53
   1 -21  -2   11.21    0.48
  -1  21   1    8.45    0.43
  -1  21   1    7.78    0.40
  -1  21   1    6.99    0.80
   1 -21  -1    7.92    0.38
   1 -21  -1    7.43    0.43
   1 -21   0    3.42    0.25
   1 -21   0    3.39    0.26
   1 -21   1   18.88    0.85
   1 -21   2   17.58    0.81
   1 -21   3   14.93    0.71
   1 -21   4    2.13    0.26
   1 -21   5    2.18    0.32
   0  20   8    5.42    0.34
   0 -20  -8    5.09    0.28
   0  20   7   11.92    1.14
   0  20   7   12.10    0.58
   0  20   7   12.31    0.58
   0 -20  -7   11.21    0.53
   0  20   6    3.66    0.67
   0  20   6    3.17    0.25
   0  20   6    3.08    0.26
   0 -20  -6    2.92    0.21
   0  20   5    7.74    0.71
   0  20   5    7.14    0.37
   0  20   5    7.01    0.40
   0 -20  -5    6.48    0.35
   0 -20  -5    6.54    0.42
   0  20   4   12.57    0.56
   0  20   4   12.28    0.64
   0  20   4   12.80    0.84
   0 -20  -4   13.19    0.65
   0 -20  -4   10.22    0.58
   0  20   3   55.03    2.19
   0  20   3   51.45    2.12
   0  20   3   50.61    2.30
   0 -20  -3   56.98    2.13
   0 -20  -3   54.91    2.19
   0  20   2    3.30    0.24
   0 -20  -2    2.62    0.23
   0 -20  -2    2.66    0.20
   0  20   1   14.60    0.71
   0 -20  -1   16.18    0.73
   0 -20  -1   16.25    0.67
   0  20   0    4.92    1.74
   0 -20   0    6.14    0.35
   0 -20   0    5.87    0.30
   0 -20   1   14.98    0.65
   0 -20   1   15.38    0.71
   0 -20   2    3.15    0.23
   0 -20   2    3.13    0.25
   0 -20   3   51.21    2.07
   0 -20   3   50.03    2.00
   0 -20   5    6.84    0.42
   0 -20   6    3.16    0.35
   1  19   8    1.98    0.25
  -1 -19  -8    2.56    0.20
   1  19   7   20.28    0.86
   1  19   7   20.24    0.87
  -1 -19  -7   19.34    0.83
   1  19   6    1.43    0.90
   1  19   6    0.82    0.18
   1  19   6    0.93    0.24
  -1 -19  -6    0.91    0.15
   1  19   5   10.94    0.53
   1  19   5   10.61    0.85
   1  19   5   10.31    0.54
  -1 -19  -5   11.68    0.51
   1  19   4   28.57    1.43
   1  19   4   28.86    1.18
  -1 -19  -4   29.08    1.23
   1  19   3   12.15    0.63
  -1 -19  -3   14.43    0.65
  -1 -19  -3   14.20    0.60
   1  19   2   16.76    0.73
  -1 -19  -2   15.37    0.68
  -1 -19  -2   15.95    0.73
   1  19   1    0.97    0.17
  -1 -19  -1    1.03    0.13
  -1 -19  -1    1.10    0.17
   1  19   0    1.95    0.20
   1  19   0    1.66    1.05
  -1 -19   0    2.03    0.20
  -1 -19   0    1.64    0.16
   1  19  -1   26.51    2.15
  -1 -19   1   34.18    1.27
  -1 -19   1   33.25    1.33
   1  19  -2    2.94    1.49
  -1 -19   2    3.41    0.25
  -1 -19   2    3.26    0.21
  -1 -19   3   17.31    0.80
  -1 -19   3   17.61    0.74
  -1 -19   4   14.41    0.63
  -1 -19   4   14.50    0.69
  -1 -19   5   20.97    0.90
  -1 -19   5   22.09    0.97
  -1 -19   6    8.24    0.46
  -1 -19   6    8.55    0.48
  -1 -19   7   15.12    0.73
   2  18   8    4.05    0.29
  -2 -18  -8    4.01    0.26
   2  18   6    0.83    0.17
  -2 -18  -6    0.75    0.16
  -2 -18  -6    0.92    0.15
   2  18   5    6.34    0.36
  -2 -18  -5    5.04    0.33
  -2 -18  -5    5.19    0.30
   2  18   4   20.09    0.99
  -2 -18  -4   19.54    0.81
  -2 -18  -4   16.49    0.81
   2  18   3    4.05    0.28
  -2 -18  -3    3.73    0.27
  -2 -18  -3    3.88    0.32
  -2 -18  -3    3.75    0.23
   2  18   2   18.58    0.81
  -2 -18  -2   17.77    0.76
  -2 -18  -2   17.68    0.81
  -2 -18  -1    0.80    0.12
  -2 -18  -1    0.90    0.17
   2  18   0   10.39    1.36
   2  18   0   11.45    0.53
  -2 -18   0   10.88    0.54
  -2 -18   0   11.40    0.49
   2  18  -1   18.19    0.78
   2  18  -1   16.79    1.63
  -2 -18   1   18.00    0.75
  -2 -18   1   18.24    0.80
   2  18  -2   36.86    1.48
   2  18  -2   31.96    2.33
  -2 -18   2   37.73    1.50
  -2 -18   2   37.51    1.45
  -2 -18   3   12.44    0.55
  -2 -18   3   12.63    0.61
  -2 -18   4   15.28    0.72
  -2 -18   4   15.38    0.66
  -2 -18   5   11.68    0.59
  -2 -18   5   11.87    0.53
  -2 -18   6    7.55    0.38
  -2 -18   6    7.80    0.45
  -2 -18   7    2.10    0.26
  -2 -18   7    2.07    0.21
  -2 -18   8    2.67    0.35
   3  17   7    0.49    0.17
  -3 -17  -7    0.24    0.14
  -3 -17  -7    0.45    0.12
   3  17   6    3.63    0.28
  -3 -17  -6    3.99    0.25
  -3 -17  -6    4.04    0.26
   3  17   5   -0.03    0.11
  -3 -17  -5   -0.10    0.10
  -3 -17  -5   -0.04    0.08
   3  17   4    1.59    0.20
  -3 -17  -4    1.82    0.19
  -3 -17  -4    1.39    0.16
   3  17   3    9.92    0.49
  -3 -17  -3    9.05    0.44
  -3 -17  -3    8.88    0.44
   3  17   2    7.59    0.40
  -3 -17  -2    6.55    0.42
  -3 -17  -2    7.25    0.35
  -3 -17  -2    6.79    0.36
   3  17   1   40.61    1.64
  -3 -17  -1   40.42    1.65
  -3 -17  -1   39.56    1.60
  -3 -17  -1   40.35    1.60
   3  17   0   12.92    1.62
   3  17   0   15.08    0.64
  -3 -17   0   13.39    0.60
  -3 -17   0   13.22    0.59
  -3 -17   0   13.85    0.64
   3  17  -1   12.51    1.44
   3  17  -1   14.17    0.63
  -3 -17   1   13.87    0.64
  -3 -17   1   13.64    0.59
  -3 -17   1   13.45    0.58
   3  17  -2    7.02    0.40
   3  17  -2    6.65    1.28
  -3 -17   2    7.55    0.35
  -3 -17   2    7.56    0.40
  -3 -17   2    7.60    0.37
  -3 -17   3   24.25    1.02
  -3 -17   3   24.62    1.02
  -3 -17   3   25.76    1.08
  -3 -17   4    6.22    0.38
  -3 -17   4    6.42    0.32
  -3 -17   4    6.46    0.34
  -3 -17   5    9.08    0.44
  -3 -17   5    8.61    0.48
  -3 -17   5    9.13    0.42
  -3 -17   6    5.47    0.30
  -3 -17   6    5.85    0.33
  -3 -17   6    5.82    0.38
  -3 -17   7    3.77    0.29
  -3 -17   7    4.24    0.32
  -3 -17   7    3.87    0.25
  -3 -17   8    1.58    0.26
  -3 -17   8    1.82    0.19
  -3 -17   9    4.80    0.31
   4  16   7    3.24    0.26
  -4 -16  -7    3.53    0.26
   4  16   6    5.33    0.31
  -4 -16  -6    4.02    0.35
   4  16   5    2.90    0.26
  -4 -16  -5    3.61    0.23
  -4 -16  -5    3.55    0.24
   4  16   4    2.44    0.23
  -4 -16  -4    3.16    0.22
  -4 -16  -4    2.83    0.21
   4  16   3   37.63    1.70
  -4 -16  -3   41.54    1.66
  -4 -16  -3   44.75    1.70
   4  16   2    4.49    0.29
  -4 -16  -2    4.07    0.26
  -4 -16  -2    4.07    0.24
   4  16   1   22.01    0.97
  -4 -16  -1   22.79    0.94
  -4 -16  -1   23.01    0.93
  -4 -16  -1   22.31    0.99
   4  16   0   14.69    0.65
  -4 -16   0   13.72    0.61
  -4 -16   0   14.07    0.67
  -4 -16   0   14.17    0.61
   4  16  -1   11.84    0.56
  -4 -16   1   12.17    0.53
  -4 -16   1   11.42    0.52
  -4 -16   1   11.81    0.57
  -4 -16   2   12.69    0.60
  -4 -16   2   12.60    0.55
  -4 -16   2   12.49    0.56
  -4 -16   3    8.51    0.40
  -4 -16   3    8.54    0.46
  -4 -16   3    8.37    0.39
  -4 -16   4    0.02    0.07
  -4 -16   4   -0.04    0.09
  -4 -16   4    0.11    0.11
  -4 -16   5    2.14    0.24
  -4 -16   5    2.15    0.18
  -4 -16   5    2.35    0.20
  -4 -16   6   12.63    0.60
  -4 -16   6   12.92    0.57
  -4 -16   6   12.80    0.64
  -4 -16   7    2.05    0.24
  -4 -16   7    1.93    0.19
  -4 -16   7    2.04    0.20
  -4 -16   8    6.97    0.42
  -4 -16   8    6.92    0.37
  -4 -16   8    7.20    0.36
  -4 -16   9    7.05    0.39
  -4 -16   9    7.16    0.35
   5  15   6    8.29    0.44
  -5 -15  -6    8.81    0.42
   5  15   5    0.08    0.12
  -5 -15  -5    0.07    0.13
  -5 -15  -5    0.04    0.10
   5  15   4    1.14    0.18
  -5 -15  -4    0.67    0.15
  -5 -15  -4    0.68    0.14
   5  15   3   28.28    1.21
  -5 -15  -3   28.51    1.17
  -5 -15  -3   28.36    1.16
  -5 -15  -2    2.99    0.22
  -5 -15  -2    3.27    0.22
   5  15   1    2.41    0.24
  -5 -15  -1    2.59    0.19
  -5 -15  -1    2.74    0.20
   5  15   0    4.07    0.30
  -5 -15   0    4.32    0.25
  -5 -15   0    3.97    0.36
  -5 -15   0    4.62    0.26
   5  15  -1   17.44    0.85
  -5 -15   1   19.77    0.86
  -5 -15   1   18.86    0.80
  -5 -15   1   19.52    0.80
  -5 -15   2   50.90    2.00
  -5 -15   2   50.44    2.00
  -5 -15   2   49.85    2.05
  -5 -15   3    2.91    0.26
  -5 -15   3    3.05    0.20
  -5 -15   3    2.91    0.21
  -5 -15   4   16.56    0.72
  -5 -15   4   17.00    0.72
  -5 -15   4   16.69    0.78
  -5 -15   5    3.39    0.22
  -5 -15   5    3.43    0.23
  -5 -15   5    3.57    0.29
  -5 -15   6    0.27    0.12
  -5 -15   6    0.15    0.09
  -5 -15   6    0.32    0.11
  -5 -15   7   25.81    1.05
  -5 -15   7   25.43    1.05
  -5 -15   7   25.05    1.12
  -5 -15   8    1.45    0.16
  -5 -15   8    1.24    0.22
  -5 -15   8    1.38    0.19
  -5 -15   9    8.09    0.40
  -5 -15  10    0.32    0.12
   6  14   6    0.47    0.15
  -6 -14  -6    0.23    0.11
   6  14   5    1.53    0.20
  -6 -14  -5    1.28    0.17
   6  14   4   14.76    0.69
  -6 -14  -4   14.77    0.65
   6  14   3    0.14    0.13
  -6 -14  -3    0.21    0.10
  -6 -14  -3    0.30    0.13
   6  14   2   27.41    1.14
  -6 -14  -2   26.16    1.09
  -6 -14  -2   25.74    1.10
   6  14   1    4.00    0.31
  -6 -14  -1    4.48    0.31
  -6 -14  -1    4.02    0.26
   6  14   0    5.23    0.39
  -6 -14   0    7.09    0.34
  -6 -14   0    6.79    0.34
  -6 -14   1   25.63    1.14
  -6 -14   1   25.93    1.07
  -6 -14   1   26.58    1.08
  -6 -14   2   39.22    1.53
  -6 -14   2   37.20    1.57
  -6 -14   2   37.02    1.52
  -6 -14   3    1.27    0.23
  -6 -14   3    1.34    0.15
  -6 -14   3    1.31    0.17
  -6 -14   4   31.39    1.27
  -6 -14   4   30.09    1.26
  -6 -14   4   31.85    1.34
  -6 -14   5    2.57    0.19
  -6 -14   5    2.69    0.20
  -6 -14   6    9.17    0.44
  -6 -14   6    9.30    0.51
  -6 -14   6    8.69    0.43
  -6 -14   7    0.13    0.10
  -6 -14   7    0.08    0.09
  -6 -14   7    0.01    0.12
  -6 -14   8    6.92    0.42
  -6 -14   8    6.94    0.35
  -6 -14   8    6.84    0.35
  -6 -14   9    5.15    0.29
  -6 -14   9    5.58    0.34
  -6 -14  10    1.23    0.16
  -6 -14  10    1.26    0.21
   7  13   5    1.32    0.23
  -7 -13  -5    1.03    0.17
   7  13   4    8.63    0.45
   7  13   3   -0.17    0.14
  -7 -13  -3   -0.10    0.09
   7  13   2    8.87    0.48
  -7 -13  -2    8.79    0.43
   7  13   1    2.41    0.29
  -7 -13  -1    2.43    0.20
  -7 -13  -1    2.55    0.24
  -7 -13   0    6.82    0.36
  -7 -13   1    3.35    0.31
  -7 -13   1    2.98    0.22
  -7 -13   2   56.48    2.29
  -7 -13   2   59.50    2.31
  -7 -13   2   58.30    2.47
  -7 -13   3    5.07    0.30
  -7 -13   3    5.60    0.30
  -7 -13   3    5.17    0.38
  -7 -13   4   13.45    0.59
  -7 -13   4   13.18    0.66
  -7 -13   5    3.41    0.23
  -7 -13   5    3.62    0.23
  -7 -13   5    3.85    0.31
  -7 -13   6   20.00    0.84
  -7 -13   6   19.85    0.85
  -7 -13   6   19.92    0.92
  -7 -13   7    1.68    0.18
  -7 -13   7    1.98    0.18
  -7 -13   7    2.04    0.25
  -7 -13   8    7.75    0.38
  -7 -13   8    7.88    0.39
  -7 -13   9    1.03    0.17
  -7 -13   9    1.14    0.15
  -7 -13  10    1.75    0.17
  -7 -13  10    1.80    0.19
  -8 -12  -4    6.62    0.34
   8  12   3    0.93    0.28
  -8 -12  -3    0.99    0.16
   8  12   2    3.53    0.35
  -8 -12  -2    3.51    0.23
  -8 -12  -1    2.11    0.19
  -8 -12   0    3.07    0.23
  -8 -12   1    0.86    0.23
  -8 -12   1    1.06    0.15
  -8 -12   2   21.84    0.92
  -8 -12   2   21.26    0.90
  -8 -12   3    1.01    0.19
  -8 -12   3    1.42    0.17
  -8 -12   4   27.50    1.14
  -8 -12   4   26.85    1.19
  -8 -12   4   27.85    1.13
  -8 -12   5   10.55    0.56
  -8 -12   5   10.25    0.49
  -8 -12   5   10.86    0.49
  -8 -12   6   26.72    1.10
  -8 -12   6   25.94    1.09
  -8 -12   6   26.68    1.16
  -8 -12   7    3.07    0.21
  -8 -12   7    2.90    0.22
  -8 -12   8    0.28    0.10
  -8 -12   8    0.13    0.10
  -8 -12   9    2.41    0.19
  -8 -12   9    2.33    0.19
  -9 -11  -3    0.82    0.17
  -9 -11  -2    3.34    0.23
  -9 -11  -1    1.48    0.17
  -9 -11   0    1.02    0.15
  -9 -11   1    1.81    0.18
  -9 -11   2    9.89    0.47
  -9 -11   3    0.28    0.11
  -9 -11   4   24.55    1.02
  -9 -11   4   23.94    1.01
  -9 -11   5    2.28    0.24
  -9 -11   5    2.42    0.20
  -9 -11   6   24.20    0.99
  -9 -11   6   23.19    0.98
  -9 -11   7    5.94    0.33
  -9 -11   7    6.53    0.33
  -9 -11   8    1.37    0.16
  -9 -11   8    1.60    0.19
   9  11  -9    3.60    0.28
  -9 -11   9    3.23    0.24
  -9 -11   9    3.51    0.22
 -10 -10  -1    3.66    0.25
 -10 -10   0    3.63    0.25
 -10 -10   1   10.08    0.48
 -10 -10   2   19.84    0.84
 -10 -10   3    3.02    0.23
 -10 -10   4   15.15    0.66
 -10 -10   5    0.41    0.11
 -10 -10   6    9.39    0.45
  10  10  -7    5.02    0.40
 -10 -10   7    5.57    0.29
 -10 -10   8    3.19    0.22
 -11  -9   1    7.41    0.38
 -11  -9   2    4.16    0.27
 -11  -9   3    6.22    0.33
 -11  -9   4    0.66    0.16
 -11  -9   5    3.45    0.24
 -11  -9   6    0.10    0.12
   5 -27  -5    5.06    0.32
  -5  27   4    2.11    0.29
   5 -27  -4    1.63    0.21
  -5  27   3    2.70    0.31
  -5  27   3    3.27    0.27
   5 -27  -3    2.96    0.26
  -5  27   2    0.86    0.20
  -5  27   2    0.77    0.19
   5 -27  -2    0.81    0.22
  -5  27   1    0.41    0.15
   5 -27  -1    0.68    0.20
  -5  27   0    3.49    0.27
   4 -26  -6    3.21    0.26
  -4  26   5    1.03    0.24
  -4  26   5    1.29    0.24
   4 -26  -5    1.03    0.18
  -4  26   4    4.53    0.31
  -4  26   4    4.72    0.32
   4 -26  -4    3.98    0.34
  -4  26   3   15.82    0.71
  -4  26   3   14.75    0.68
   4 -26  -3   15.63    0.72
  -4  26   2    8.43    0.45
   4 -26  -2    8.92    0.47
  -4  26   1    3.38    0.43
  -4  26   1    4.12    0.28
   4 -26  -1    3.70    0.30
   4 -26   0    3.49    0.41
   4 -26   1    6.51    0.43
  -3  25   6    0.95    0.25
  -3  25   6    1.00    0.23
  -3  25   5    3.02    0.28
  -3  25   5    3.48    0.33
   3 -25  -5    3.24    0.26
  -3  25   4    2.52    0.77
  -3  25   4    2.48    0.26
  -3  25   4    2.72    0.25
   3 -25  -4    3.39    0.26
  -3  25   3    0.58    0.19
  -3  25   3    0.53    0.17
  -3  25   3    0.39    0.53
   3 -25  -3    0.65    0.17
  -3  25   2   11.68    0.58
  -3  25   2   11.83    0.56
   3 -25  -2   11.83    0.59
  -3  25   1    2.14    0.27
  -3  25   1    1.68    0.22
   3 -25  -1    2.01    0.23
   3 -25   0   13.14    0.64
   3 -25   1    5.66    0.37
   3 -25   2    4.86    0.36
  -2  24   7    0.44    0.20
   2 -24  -7    0.41    0.13
  -2  24   6    3.54    0.29
  -2  24   6    3.50    0.27
   2 -24  -6    3.50    0.24
   2 -24  -6    3.73    0.30
  -2  24   5    1.39    0.24
  -2  24   5    0.98    0.20
   2 -24  -5    1.19    0.19
   2 -24  -5    1.02    0.20
  -2  24   4    4.08    0.30
  -2  24   4    3.78    0.84
  -2  24   4    4.16    0.30
   2 -24  -4    4.28    0.28
   2 -24  -4    4.10    0.30
  -2  24   3   19.75    0.86
  -2  24   3   20.37    0.90
   2 -24  -3   19.71    0.91
   2 -24  -3   20.59    0.86
  -2  24   2   27.31    1.11
  -2  24   2   26.34    1.15
   2 -24  -2   26.17    1.16
  -2  24   1    0.30    0.13
   2 -24  -1    0.41    0.14
   2 -24   0    2.95    0.27
   2 -24   1    9.02    0.49
   2 -24   2    0.64    0.22
   2 -24   3    6.31    0.40
  -1  23   7    8.30    0.44
   1 -23  -7    8.27    0.40
  -1  23   6   11.43    0.56
  -1  23   6   11.65    0.55
   1 -23  -6   11.93    0.52
   1 -23  -6   10.47    0.62
  -1  23   5    3.56    0.28
  -1  23   5    3.73    0.30
   1 -23  -5    3.60    0.24
   1 -23  -5    3.59    0.29
  -1  23   4    1.76    0.26
   1 -23  -4    2.53    0.20
   1 -23  -4    2.33    0.24
  -1  23   3    0.30    0.13
   1 -23  -3    0.65    0.17
   1 -23  -3    0.37    0.11
  -1  23   2   10.89    0.53
   1 -23  -2   10.09    0.48
   1 -23  -2    9.42    0.52
  -1  23   1    3.41    0.27
   1 -23  -1    3.29    0.27
   1 -23   0   18.22    0.77
   1 -23   0   16.67    0.80
   1 -23   1    1.04    0.20
   1 -23   2    1.67    0.23
   1 -23   3    0.56    0.20
   1 -23   4    9.96    0.53
   0  22   7    2.72    0.24
   0 -22  -7    2.67    0.20
   0  22   6    1.99    0.22
   0 -22  -6    2.00    0.18
   0  22   5    1.43    0.20
   0 -22  -5    1.37    0.26
   0 -22  -5    1.29    0.16
   0  22   4   -0.01    0.11
   0 -22  -4    0.21    0.10
   0 -22  -4    0.11    0.13
   0  22   3    1.07    0.20
   0 -22  -3    1.64    0.22
   0 -22  -3    1.64    0.17
   0  22   2   25.27    1.08
   0 -22  -2   24.31    1.01
   0 -22  -2   23.95    1.07
   0  22   1    6.10    0.37
   0 -22  -1    6.43    0.34
   0 -22  -1    6.73    0.39
   0  22   0    6.21    0.37
   0 -22   0    6.45    0.39
   0 -22   0    6.54    0.33
   0 -22   1    6.27    0.38
   0 -22   1    6.14    0.33
   0 -22   2   24.93    1.12
   0 -22   2   23.88    1.01
   0 -22   3    0.94    0.20
   0 -22   4    0.07    0.13
   0 -22   5    1.53    0.26
   1  21   7    0.92    0.19
  -1 -21  -7    0.81    0.15
   1  21   6    7.95    0.42
  -1 -21  -6    6.88    0.36
   1  21   5    2.14    0.23
  -1 -21  -5    2.35    0.19
   1  21   4    2.00    0.23
  -1 -21  -4    1.93    0.27
  -1 -21  -4    2.07    0.18
   1  21   3   15.52    0.71
  -1 -21  -3   14.80    0.66
   1  21   2   18.69    0.85
  -1 -21  -2   19.19    0.86
  -1 -21  -2   18.95    0.80
   1  21   1   18.56    0.85
  -1 -21  -1   19.12    0.80
  -1 -21  -1   19.56    0.86
   1  21   0    3.71    0.27
  -1 -21   0    3.52    0.23
  -1 -21   0    3.59    0.27
   1  21  -1    7.29    0.42
  -1 -21   1    8.44    0.44
  -1 -21   1    8.15    0.38
  -1 -21   2   10.21    0.46
  -1 -21   2    9.98    0.52
  -1 -21   3   39.07    1.65
  -1 -21   3   39.80    1.58
  -1 -21   4    7.53    0.43
  -1 -21   4    7.22    0.37
  -1 -21   5   16.28    0.71
  -1 -21   5   16.26    0.77
  -1 -21   6    6.91    0.43
   2  20   7   25.92    1.06
  -2 -20  -7   24.23    1.02
   2  20   6   12.11    0.60
  -2 -20  -6   13.17    0.56
   2  20   5    9.32    0.51
  -2 -20  -5   10.73    0.47
   2  20   4    0.84    0.18
  -2 -20  -4    1.09    0.15
  -2 -20  -3    5.07    0.36
  -2 -20  -3    4.82    0.28
   2  20   2    6.24    0.37
  -2 -20  -2    5.97    0.32
  -2 -20  -2    6.55    0.39
  -2 -20  -1    2.12    0.17
  -2 -20  -1    2.06    0.23
   2  20   0    1.81    0.22
  -2 -20   0    1.25    0.15
  -2 -20   0    1.33    0.20
   2  20  -1    5.00    0.33
  -2 -20   1    5.33    0.34
  -2 -20   1    5.51    0.28
   2  20  -2   21.72    0.93
  -2 -20   2   21.52    0.89
  -2 -20   2   20.94    0.95
   2  20  -3   14.48    0.71
  -2 -20   3   15.78    0.66
  -2 -20   3   15.76    0.73
  -2 -20   4    3.48    0.32
  -2 -20   4    3.54    0.23
  -2 -20   5   10.30    0.48
  -2 -20   5   10.67    0.55
  -2 -20   6    1.13    0.22
  -2 -20   6    1.19    0.20
  -2 -20   7    1.79    0.26
  -2 -20   7    1.77    0.24
   3  19   7    3.54    0.26
  -3 -19  -7    2.72    0.24
   3  19   6    0.86    0.18
  -3 -19  -6    1.13    0.23
   3  19   5   10.32    0.51
  -3 -19  -5    9.54    0.46
  -3 -19  -5    9.48    0.48
   3  19   4    0.45    0.16
  -3 -19  -4    0.81    0.21
  -3 -19  -4    0.86    0.14
   3  19   3   13.15    0.61
  -3 -19  -3   12.45    0.58
  -3 -19  -3   12.18    0.56
   3  19   2   15.25    0.71
  -3 -19  -2   14.86    0.67
  -3 -19  -2   15.86    0.66
  -3 -19  -2   15.09    0.72
   3  19   1   16.65    0.69
  -3 -19  -1   13.87    0.68
  -3 -19  -1   14.30    0.63
  -3 -19  -1   13.15    0.64
   3  19   0    4.95    0.33
  -3 -19   0    5.25    0.28
  -3 -19   0    4.91    0.33
  -3 -19   0    5.52    0.41
   3  19  -1    3.10    0.27
  -3 -19   1    2.41    0.18
  -3 -19   1    2.33    0.24
   3  19  -2    5.12    0.38
  -3 -19   2    5.98    0.36
  -3 -19   2    6.07    0.30
  -3 -19   3   14.84    0.71
  -3 -19   3   15.26    0.65
  -3 -19   4    0.07    0.11
  -3 -19   4    0.11    0.08
  -3 -19   5    8.50    0.41
  -3 -19   5    8.48    0.47
  -3 -19   6    5.80    0.39
  -3 -19   6    6.25    0.32
  -3 -19   7    3.98    0.31
  -3 -19   7    4.18    0.26
  -3 -19   8    7.98    0.39
  -3 -19   8    7.91    0.45
   4  18   6    3.36    0.26
  -4 -18  -6    3.43    0.27
  -4 -18  -6    3.60    0.25
   4  18   5    7.10    0.38
  -4 -18  -5    5.67    0.34
  -4 -18  -5    5.72    0.32
   4  18   4    9.39    0.48
  -4 -18  -4    9.08    0.44
  -4 -18  -4    9.13    0.45
   4  18   3    9.40    0.52
  -4 -18  -3   10.64    0.48
  -4 -18  -3   10.95    0.49
   4  18   2   23.31    1.11
  -4 -18  -2   27.31    1.11
   4  18   1   61.27    2.46
  -4 -18  -1   60.66    2.47
  -4 -18  -1   62.68    2.42
  -4 -18  -1   60.76    2.42
   4  18   0    6.12    0.39
  -4 -18   0    6.90    0.35
  -4 -18   0    6.98    0.41
   4  18  -1   33.49    1.38
  -4 -18   1   33.67    1.35
  -4 -18   1   32.43    1.35
  -4 -18   1   33.93    1.41
  -4 -18   2    4.20    0.31
  -4 -18   2    4.44    0.28
  -4 -18   2    4.36    0.25
  -4 -18   3    9.54    0.52
  -4 -18   3   10.03    0.46
  -4 -18   3   10.21    0.47
  -4 -18   4    1.39    0.15
  -4 -18   4    1.07    0.20
  -4 -18   4    1.39    0.20
  -4 -18   5    0.98    0.15
  -4 -18   5    0.87    0.19
  -4 -18   6    2.28    0.24
  -4 -18   6    2.04    0.18
  -4 -18   6    2.00    0.24
  -4 -18   7    4.87    0.28
  -4 -18   7    5.04    0.33
  -4 -18   7    5.02    0.35
  -4 -18   8    0.37    0.10
  -4 -18   8    0.25    0.14
  -4 -18   9    9.46    0.44
   5  17   6    5.41    0.33
  -5 -17  -6    5.46    0.32
   5  17   5    2.12    0.22
  -5 -17  -5    2.22    0.23
  -5 -17  -5    2.21    0.20
   5  17   4    3.22    0.26
  -5 -17  -4    2.96    0.22
  -5 -17  -4    2.90    0.23
   5  17   3    2.29    0.23
  -5 -17  -3    1.99    0.20
  -5 -17  -3    2.37    0.19
   5  17   2    0.14    0.13
  -5 -17  -2    0.24    0.10
  -5 -17  -2   -0.05    0.10
   5  17   1   12.15    0.57
  -5 -17  -1   10.61    0.52
  -5 -17  -1   11.41    0.52
   5  17   0    3.58    0.30
  -5 -17   0    3.81    0.23
  -5 -17   0    3.48    0.24
  -5 -17   0    3.24    0.35
  -5 -17   1   25.08    1.04
  -5 -17   1   25.79    1.11
  -5 -17   1   25.17    1.05
  -5 -17   2   12.95    0.57
  -5 -17   2   12.45    0.62
  -5 -17   2   12.09    0.55
  -5 -17   3   25.95    1.14
  -5 -17   3   26.33    1.08
  -5 -17   3   26.07    1.07
  -5 -17   4    0.83    0.20
  -5 -17   4    0.80    0.17
  -5 -17   4    0.92    0.14
  -5 -17   5   17.49    0.83
  -5 -17   5   17.57    0.76
  -5 -17   5   18.03    0.76
  -5 -17   6    2.34    0.25
  -5 -17   6    2.34    0.21
  -5 -17   6    2.13    0.18
  -5 -17   7   17.19    0.74
  -5 -17   7   17.39    0.73
  -5 -17   7   16.71    0.80
  -5 -17   8    2.06    0.29
  -5 -17   8    2.16    0.24
  -5 -17   8    2.19    0.18
  -5 -17   9    2.73    0.29
  -5 -17   9    2.96    0.20
   6  16   5    0.58    0.15
  -6 -16  -5    0.67    0.16
   6  16   4   12.79    0.61
  -6 -16  -4   11.88    0.57
  -6 -16  -4   14.31    0.67
   6  16   3    3.21    0.27
  -6 -16  -3    3.13    0.23
  -6 -16  -3    3.15    0.24
   6  16   2    6.65    0.38
  -6 -16  -2    5.83    0.32
  -6 -16  -2    5.63    0.33
   6  16   1    0.82    0.23
  -6 -16  -1    0.38    0.11
  -6 -16  -1    0.41    0.11
   6  16   0    7.63    0.44
  -6 -16   0    6.70    0.38
  -6 -16   1    3.90    0.25
  -6 -16   1    3.82    0.37
  -6 -16   1    4.22    0.25
  -6 -16   2   22.09    0.94
  -6 -16   2   22.58    1.01
  -6 -16   2   23.21    0.95
  -6 -16   3    7.15    0.44
  -6 -16   3    7.75    0.37
  -6 -16   3    7.02    0.37
  -6 -16   5    2.94    0.27
  -6 -16   5    3.07    0.22
  -6 -16   5    3.15    0.21
  -6 -16   6   19.02    0.81
  -6 -16   6   19.23    0.81
  -6 -16   6   18.60    0.88
  -6 -16   7    3.78    0.25
  -6 -16   7    4.01    0.30
  -6 -16   7    3.92    0.24
  -6 -16   8    2.64    0.19
  -6 -16   8    2.57    0.25
  -6 -16   8    2.64    0.21
  -6 -16   9    0.48    0.14
  -6 -16   9    0.24    0.09
   7  15   4    0.55    0.17
  -7 -15  -4    0.56    0.15
   7  15   3    8.33    0.47
  -7 -15  -3    8.69    0.42
   7  15   2    1.17    0.25
  -7 -15  -2    0.94    0.19
  -7 -15  -2    0.85    0.16
   7  15   1    8.55    0.50
  -7 -15  -1    9.39    0.44
  -7 -15  -1    8.55    0.43
  -7 -15   0    6.81    0.36
  -7 -15   0    6.97    0.36
  -7 -15   1   29.30    1.19
  -7 -15   1   28.93    1.20
  -7 -15   2   11.78    0.53
  -7 -15   2   11.61    0.54
  -7 -15   3   21.82    0.97
  -7 -15   3   21.04    0.90
  -7 -15   3   21.69    0.91
  -7 -15   4   18.17    0.79
  -7 -15   4   18.81    0.81
  -7 -15   4   19.18    0.87
  -7 -15   5   18.54    0.79
  -7 -15   5   18.10    0.85
  -7 -15   5   18.20    0.78
  -7 -15   6    2.98    0.21
  -7 -15   6    3.03    0.22
  -7 -15   6    2.78    0.28
  -7 -15   7   12.23    0.55
  -7 -15   7   12.07    0.62
  -7 -15   7   12.44    0.55
  -7 -15   8    0.93    0.16
  -7 -15   8    0.90    0.14
  -7 -15   9    2.06    0.20
  -7 -15   9    2.35    0.18
  -8 -14  -3    1.48    0.18
  -8 -14  -2    1.01    0.16
  -8 -14  -1    0.21    0.10
  -8 -14   0    1.25    0.17
  -8 -14   1   11.07    0.52
  -8 -14   1   11.53    0.54
  -8 -14   2    8.35    0.42
  -8 -14   2    8.47    0.42
  -8 -14   3   32.95    1.34
  -8 -14   3   33.18    1.35
  -8 -14   4    2.13    0.31
  -8 -14   4    2.16    0.20
  -8 -14   4    2.49    0.20
  -8 -14   5    2.28    0.28
  -8 -14   5    1.89    0.19
  -8 -14   5    2.06    0.19
  -8 -14   6   15.94    0.85
  -8 -14   6   15.31    0.67
  -8 -14   6   15.30    0.68
  -8 -14   7    3.13    0.22
  -8 -14   7    3.39    0.23
  -8 -14   8   17.56    0.75
  -8 -14   8   18.20    0.75
  -8 -14   9    1.98    0.20
  -8 -14   9    2.21    0.18
  -9 -13  -2    2.38    0.19
  -9 -13  -1    0.17    0.10
  -9 -13   0    6.85    0.35
  -9 -13   1    0.15    0.10
  -9 -13   2   25.15    1.05
  -9 -13   3    3.91    0.25
  -9 -13   4    1.69    0.23
  -9 -13   4    1.45    0.18
  -9 -13   5    2.99    0.26
  -9 -13   5    3.44    0.22
  -9 -13   6    1.59    0.20
  -9 -13   6    1.80    0.18
  -9 -13   7    1.99    0.20
  -9 -13   8    1.81    0.20
  -9 -13   8    2.04    0.18
 -10 -12  -1    0.67    0.18
 -10 -12   0    2.05    0.20
 -10 -12   1    3.40    0.24
 -10 -12   2    4.44    0.34
 -10 -12   3    4.75    0.27
 -10 -12   4    0.38    0.10
 -10 -12   5    1.19    0.27
 -10 -12   6   10.40    0.47
 -10 -12   7    1.82    0.18
 -10 -12   8    6.63    0.34
 -11 -11   2   10.39    0.48
 -11 -11   3    1.70    0.19
 -11 -11   4    6.64    0.34
 -11 -11   5    3.07    0.22
 -11 -11   6    3.83    0.24
  -4  28   4    1.54    0.25
   4 -28  -4    1.89    0.22
   4 -28  -3    0.39    0.13
  -4  28   2    1.80    0.22
   4 -28  -2    1.44    0.21
  -4  28   1    0.90    0.19
   4 -28  -1    0.56    0.22
  -4  28   0    7.28    0.40
   4 -28   0    7.23    0.44
  -4  28  -1    0.70    0.19
  -4  28  -2    5.27    0.33
  -3  27   5    5.86    0.36
   3 -27  -5    5.77    0.35
  -3  27   4    7.45    0.42
   3 -27  -4    8.36    0.43
  -3  27   3    0.68    0.19
   3 -27  -3    0.45    0.17
  -3  27   2    8.81    0.46
   3 -27  -2    9.02    0.47
  -3  27   1   -0.19    0.12
   3 -27  -1    0.02    0.12
  -3  27   0    0.14    0.13
   3 -27   0   -0.10    0.12
  -3  27  -1    0.88    0.19
   3 -27   1    1.05    0.22
   3 -27   2    1.53    0.32
  -2  26   6    3.24    0.29
   2 -26  -6    3.25    0.32
  -2  26   5    1.92    0.23
   2 -26  -5    2.24    0.24
   2 -26  -5    1.72    0.36
  -2  26   4    0.27    0.13
   2 -26  -4    0.41    0.13
  -2  26   3    0.33    0.14
   2 -26  -3    0.34    0.12
  -2  26   2   19.76    0.88
   2 -26  -2   20.01    0.90
  -2  26   1    9.55    0.50
   2 -26  -1    9.45    0.50
  -2  26   0   19.41    0.88
   2 -26   0   19.71    0.89
   2 -26   1    5.43    0.35
   2 -26   2    3.80    0.31
   2 -26   3    2.80    0.31
  -1  25   6    4.30    0.29
   1 -25  -6    3.20    0.25
  -1  25   5    7.04    0.40
  -1  25   4    8.65    0.46
   1 -25  -4    8.71    0.47
   1 -25  -4    8.45    0.42
  -1  25   3    8.24    0.45
   1 -25  -3    7.83    0.45
   1 -25  -3    7.92    0.40
  -1  25   2   10.73    0.57
   1 -25  -2   11.54    0.53
   1 -25  -2   12.00    0.58
  -1  25   1    2.24    0.23
   1 -25  -1    2.67    0.24
   1 -25  -1    2.16    0.24
  -1  25   0    2.15    0.24
   1 -25   0    2.12    0.23
  -1  25  -1    0.97    0.21
   1 -25   1    1.08    0.20
   1 -25   2    4.40    0.31
   1 -25   3    1.27    0.22
   1 -25   4    7.83    0.57
   0 -24  -7    3.50    0.23
   0  24   6    9.20    0.47
   0 -24  -6    9.28    0.43
   0  24   5   16.56    0.78
   0 -24  -5   19.16    0.94
   0 -24  -5   16.41    0.73
   0  24   4    8.60    0.47
   0 -24  -4    9.07    0.43
   0 -24  -4    9.16    0.49
   0  24   3   22.92    1.01
   0 -24  -3   23.51    0.97
   0 -24  -3   22.98    1.02
   0  24   2    6.57    0.40
   0 -24  -2    7.11    0.42
   0 -24  -2    7.45    0.37
   0  24   1    1.20    0.20
   0 -24  -1    1.13    0.20
   0 -24  -1    1.03    0.17
   0  24   0    8.18    0.45
   0 -24   0    8.76    0.41
   0 -24   0    8.17    0.46
   0  24  -1    1.08    0.20
   0 -24   1    1.00    0.19
   0 -24   1    0.82    0.19
   0 -24   2    6.64    0.41
   0 -24   3   23.06    1.02
   0 -24   4    8.85    0.49
   0 -24   5   16.64    0.78
   1  23   7    2.68    0.25
  -1 -23  -7    2.91    0.20
   1  23   6    1.29    0.20
  -1 -23  -6    1.18    0.15
   1  23   5    4.06    0.30
  -1 -23  -5    4.54    0.25
   1  23   4   10.52    0.56
  -1 -23  -4   11.22    0.51
  -1 -23  -4   12.19    0.86
   1  23   3    0.55    0.17
  -1 -23  -3    0.94    0.22
  -1 -23  -3    0.84    0.14
  -1 -23  -2    1.19    0.15
  -1 -23  -2    1.10    0.21
   1  23   1    1.16    0.20
  -1 -23  -1    1.34    0.21
  -1 -23  -1    1.61    0.16
  -1 -23   0   16.85    0.80
  -1 -23   0   14.57    0.73
  -1 -23   1    3.24    0.27
  -1 -23   1    3.06    0.23
   1  23  -2   10.66    0.55
  -1 -23   2   11.10    0.57
  -1 -23   2   11.22    0.50
   1  23  -3    0.32    0.17
  -1 -23   3    0.30    0.12
  -1 -23   3    0.35    0.12
   1  23  -4    2.24    0.35
  -1 -23   4    1.98    0.24
  -1 -23   4    1.67    0.23
  -1 -23   5    3.69    0.30
   2  22   6    1.58    0.20
  -2 -22  -6    1.52    0.16
   2  22   5    2.51    0.24
  -2 -22  -5    3.00    0.20
   2  22   4    5.42    0.35
  -2 -22  -4    5.52    0.30
   2  22   3    2.32    0.25
  -2 -22  -3    3.09    0.21
  -2 -22  -3    2.99    0.36
   2  22   2   14.85    0.70
  -2 -22  -2   14.71    0.65
  -2 -22  -2   14.86    0.70
  -2 -22  -1    0.63    0.15
   2  22   0   10.41    0.54
  -2 -22   0   11.14    0.50
  -2 -22   0   10.82    0.55
   2  22  -1   18.67    0.80
  -2 -22   1   17.30    0.82
  -2 -22   1   17.30    0.76
   2  22  -2   11.72    0.58
  -2 -22   3   18.61    0.87
  -2 -22   3   19.32    0.80
  -2 -22   4    4.50    0.33
  -2 -22   4    4.99    0.28
  -2 -22   5    0.14    0.11
  -2 -22   5    0.21    0.13
  -2 -22   6    2.11    0.24
  -2 -22   6    2.78    0.27
  -2 -22   7    2.23    0.28
   3  21   6    4.12    0.28
  -3 -21  -6    4.50    0.25
   3  21   5    1.38    0.19
  -3 -21  -5    1.77    0.17
   3  21   4    2.79    0.25
  -3 -21  -4    2.91    0.20
   3  21   3   33.27    1.36
  -3 -21  -3   30.73    1.30
   3  21   2    6.89    0.41
  -3 -21  -2    7.35    0.46
  -3 -21  -2    6.95    0.36
  -3 -21  -1   23.81    1.00
  -3 -21  -1   24.14    1.13
   3  21   0    5.42    0.37
  -3 -21   0    6.45    0.32
  -3 -21   0    6.41    0.39
   3  21  -1   27.11    1.16
  -3 -21   1   27.17    1.12
  -3 -21   1   27.39    1.18
   3  21  -2    0.13    0.19
  -3 -21   2    0.56    0.12
  -3 -21   2    0.33    0.12
  -3 -21   3   14.29    0.80
  -3 -21   3   13.74    0.62
  -3 -21   4    3.02    0.21
  -3 -21   4    2.85    0.27
  -3 -21   5    5.28    0.30
  -3 -21   5    5.49    0.36
  -3 -21   6    0.24    0.11
  -3 -21   6    0.22    0.14
  -3 -21   7    3.53    0.39
  -3 -21   7    5.34    0.34
  -3 -21   8    3.93    0.35
   4  20   6    0.71    0.16
  -4 -20  -6    0.69    0.18
  -4 -20  -5   14.16    0.64
  -4 -20  -5   15.97    0.79
   4  20   4    0.67    0.17
  -4 -20  -4    0.50    0.11
  -4 -20  -4    0.91    0.22
   4  20   3    0.49    0.15
  -4 -20  -3    0.83    0.14
  -4 -20  -3    0.76    0.21
   4  20   2    4.83    0.33
  -4 -20  -2    4.75    0.28
  -4 -20  -2    4.60    0.30
   4  20   1    3.56    0.28
  -4 -20  -1    3.85    0.24
  -4 -20  -1    3.36    0.26
   4  20   0   15.63    0.71
  -4 -20   0   14.64    0.66
  -4 -20   0   14.48    0.71
   4  20  -1   14.31    0.71
  -4 -20   1   15.21    0.66
  -4 -20   1   15.53    0.72
  -4 -20   1   15.31    0.67
  -4 -20   2    4.70    0.27
  -4 -20   2    4.83    0.32
  -4 -20   2    4.68    0.33
  -4 -20   3    1.62    0.28
  -4 -20   3    1.54    0.19
  -4 -20   4   44.73    1.89
  -4 -20   4   46.16    1.82
  -4 -20   5    0.95    0.15
  -4 -20   5    1.04    0.21
  -4 -20   6    0.55    0.19
  -4 -20   6    0.39    0.10
  -4 -20   7    4.21    0.25
  -4 -20   7    3.92    0.30
  -4 -20   8    0.68    0.18
  -4 -20   8    0.27    0.15
   5  19   5    7.21    0.39
  -5 -19  -5    6.65    0.36
  -5 -19  -5    6.73    0.37
   5  19   4    0.46    0.14
  -5 -19  -4    0.37    0.11
   5  19   3    7.10    0.40
  -5 -19  -3    7.10    0.37
  -5 -19  -3    6.71    0.36
   5  19   2    9.36    0.50
  -5 -19  -2    9.79    0.45
  -5 -19  -2    9.36    0.46
   5  19   1   23.53    1.04
  -5 -19  -1   24.54    1.00
  -5 -19  -1   23.72    1.00
  -5 -19   0    4.76    0.28
  -5 -19   0    4.45    0.27
  -5 -19   1    4.13    0.34
  -5 -19   1    4.04    0.27
  -5 -19   2   11.39    0.64
  -5 -19   2   14.58    0.74
  -5 -19   3    9.39    0.45
  -5 -19   3    9.50    0.52
  -5 -19   3    9.45    0.47
  -5 -19   4    8.04    0.46
  -5 -19   4    7.97    0.40
  -5 -19   4    8.06    0.39
  -5 -19   5   17.19    0.74
  -5 -19   5   17.04    0.75
  -5 -19   5   17.58    0.82
  -5 -19   6    3.26    0.22
  -5 -19   6    3.04    0.26
  -5 -19   6    3.07    0.27
  -5 -19   7    2.26    0.25
  -5 -19   7    2.26    0.19
  -5 -19   7    1.88    0.23
  -5 -19   8    2.46    0.24
  -5 -19   8    2.14    0.19
  -5 -19   9    4.36    0.34
   6  18   4    3.38    0.28
  -6 -18  -4    3.18    0.24
  -6 -18  -4    3.26    0.29
   6  18   3    2.38    0.25
  -6 -18  -3    2.04    0.21
  -6 -18  -3    1.92    0.20
   6  18   2    3.79    0.31
  -6 -18  -2    3.99    0.25
  -6 -18  -2    3.80    0.25
   6  18   1    3.82    0.35
  -6 -18  -1    5.08    0.29
  -6 -18  -1    5.17    0.28
  -6 -18   0    0.71    0.14
  -6 -18   0    0.33    0.11
  -6 -18   1   11.58    0.63
  -6 -18   1   11.43    0.53
  -6 -18   1   10.83    0.52
  -6 -18   2   12.43    0.57
  -6 -18   2   12.88    0.58
  -6 -18   2   12.80    0.64
  -6 -18   3   44.36    1.76
  -6 -18   3   43.38    1.76
  -6 -18   3   43.89    1.83
  -6 -18   4   19.13    0.82
  -6 -18   4   19.32    0.82
  -6 -18   4   19.34    0.89
  -6 -18   5    2.44    0.21
  -6 -18   5    2.14    0.25
  -6 -18   5    2.15    0.18
  -6 -18   6    6.01    0.39
  -6 -18   6    6.13    0.33
  -6 -18   6    6.00    0.32
  -6 -18   7    2.80    0.23
  -6 -18   7    2.68    0.25
  -6 -18   7    2.39    0.19
  -6 -18   8    0.55    0.13
  -6 -18   8    0.49    0.19
  -6 -18   8    0.86    0.17
  -6 -18   9   -0.03    0.09
  -7 -17  -4    3.69    0.26
   7  17   3    8.08    0.47
  -7 -17  -3    8.77    0.41
  -7 -17  -2    9.69    0.46
  -7 -17  -1    1.23    0.19
  -7 -17  -1    1.55    0.18
  -7 -17   0    7.68    0.40
  -7 -17   0    8.44    0.40
  -7 -17   1    7.76    0.40
  -7 -17   1    7.73    0.39
  -7 -17   2   10.65    0.50
  -7 -17   2   10.86    0.50
  -7 -17   3   21.39    0.91
  -7 -17   3   21.04    0.98
  -7 -17   3   22.21    0.91
  -7 -17   4    4.62    0.28
  -7 -17   4    4.83    0.36
  -7 -17   4    4.91    0.29
  -7 -17   5    2.34    0.20
  -7 -17   5    2.54    0.27
  -7 -17   5    2.33    0.19
  -7 -17   6    0.82    0.21
  -7 -17   6    0.57    0.16
  -7 -17   6    0.62    0.14
  -7 -17   7    8.47    0.41
  -7 -17   7    8.64    0.47
  -7 -17   7    8.61    0.41
  -7 -17   8    4.19    0.24
  -7 -17   8    4.14    0.26
  -7 -17   9    1.28    0.15
  -8 -16  -3    1.88    0.18
  -8 -16  -2    4.73    0.27
  -8 -16  -1    8.41    0.41
  -8 -16   0   10.92    0.60
  -8 -16   0   10.90    0.51
  -8 -16   1   13.13    0.58
  -8 -16   1   12.64    0.58
  -8 -16   2   28.18    1.15
  -8 -16   2   28.18    1.16
  -8 -16   3   30.82    1.26
  -8 -16   3   30.67    1.25
  -8 -16   4    0.36    0.11
  -8 -16   4    0.37    0.19
  -8 -16   4    0.39    0.12
  -8 -16   5    2.52    0.30
  -8 -16   5    2.49    0.20
  -8 -16   5    2.68    0.21
  -8 -16   6    9.78    0.46
  -8 -16   6    9.98    0.53
  -8 -16   6    9.67    0.46
  -8 -16   7   12.84    0.57
  -8 -16   8    6.86    0.34
  -8 -16   8    6.77    0.34
  -9 -15  -2    1.97    0.19
  -9 -15  -1    2.04    0.19
  -9 -15   0    7.61    0.38
  -9 -15   1    0.19    0.11
  -9 -15   2   14.72    0.65
  -9 -15   3    2.65    0.21
  -9 -15   3    3.00    0.31
  -9 -15   4    0.64    0.15
  -9 -15   4    1.04    0.21
  -9 -15   5    4.01    0.25
  -9 -15   6    4.07    0.26
  -9 -15   6    3.84    0.26
  -9 -15   7    7.71    0.37
  -9 -15   7    7.25    0.37
  -9 -15   8    1.11    0.17
 -10 -14   0    2.47    0.21
 -10 -14   1    3.52    0.24
 -10 -14   2    3.05    0.22
 -10 -14   3    0.93    0.16
 -10 -14   4    4.92    0.28
 -10 -14   5    3.64    0.23
 -10 -14   6   11.57    0.51
 -10 -14   7    0.11    0.11
 -11 -13   3    3.59    0.27
 -11 -13   4    6.04    0.31
  -3  29   4    4.22    0.30
   3 -29  -4    4.37    0.30
  -3  29   3    4.16    0.29
   3 -29  -3    4.48    0.29
  -3  29   2    0.46    0.15
   3 -29  -2    0.23    0.13
  -3  29   1    1.91    0.22
   3 -29  -1    1.66    0.22
  -3  29   0    0.62    0.15
   3 -29   0    1.07    0.23
  -3  29  -1    4.65    0.31
   3 -29   1    4.86    0.36
  -3  29  -2   -0.01    0.19
  -2  28   5    2.71    0.24
   2 -28  -5    2.46    0.27
  -2  28   4    3.17    0.25
   2 -28  -4    2.57    0.25
  -2  28   3    2.11    0.22
   2 -28  -3    2.11    0.23
  -2  28   2    0.25    0.13
   2 -28  -2    0.19    0.12
  -2  28   1   14.00    0.66
   2 -28  -1   14.51    0.68
  -2  28   0   18.58    0.84
   2 -28   0   19.13    0.85
  -2  28  -1    4.37    0.35
   2 -28   1    4.33    0.35
  -2  28  -2    7.58    0.42
   2 -28   2    7.72    0.44
  -2  28  -3    0.72    0.26
  -1  27   5    2.23    0.23
   1 -27  -5    2.58    0.30
   1 -27  -5    2.34    0.24
   1 -27  -4    4.36    0.29
   1 -27  -4    4.36    0.31
  -1  27   3    0.27    0.13
   1 -27  -3    0.33    0.15
   1 -27  -3    0.37    0.14
  -1  27   2    1.84    0.22
   1 -27  -2    2.05    0.22
  -1  27   1    7.26    0.41
   1 -27  -1    7.30    0.42
  -1  27   0    8.31    0.47
   1 -27   0    9.83    0.50
  -1  27  -1    1.10    0.23
   1 -27   1    0.76    0.19
  -1  27  -2    1.29    0.23
   1 -27   2    1.93    0.23
  -1  27  -3    5.97    0.39
   1 -27   3    6.35    0.39
  -1  27  -4    2.88    0.39
   1 -27   4    2.04    0.33
   0  26   6    4.73    0.31
   0 -26  -6    4.92    0.29
   0  26   5    4.27    0.29
   0 -26  -5    4.22    0.26
   0  26   4   21.47    0.94
   0 -26  -4   21.63    0.90
   0  26   3    0.80    0.17
   0 -26  -3    0.64    0.16
   0 -26  -3    0.87    0.20
   0  26   2    0.82    0.20
   0 -26  -2    0.50    0.12
   0 -26  -2    0.47    0.18
   0  26   1    2.11    0.23
   0 -26  -1    2.13    0.20
   0 -26  -1    1.84    0.22
   0  26   0    0.77    0.20
   0 -26   0    0.80    0.19
   0 -26   0    1.10    0.20
   0  26  -1    1.78    0.23
   0 -26   1    1.58    0.22
   0 -26   2    0.90    0.19
   0  26  -3    0.74    0.26
   0 -26   3    0.69    0.19
   0 -26   4   22.65    1.03
   0 -26   5    4.07    0.36
   1  25   6    2.40    0.22
  -1 -25  -6    2.25    0.19
   1  25   5    1.03    0.18
  -1 -25  -5    1.06    0.15
   1  25   4    7.41    0.41
  -1 -25  -4    6.39    0.58
  -1 -25  -4    8.11    0.37
   1  25   3    1.22    0.20
  -1 -25  -3    1.33    0.16
  -1 -25  -3    1.02    0.24
   1  25   2    4.67    0.32
  -1 -25  -2    4.69    0.27
  -1 -25  -2    4.63    0.33
   1  25   1    1.14    0.21
  -1 -25  -1    1.34    0.21
  -1 -25  -1    1.21    0.16
   1  25   0    2.38    0.26
  -1 -25   0    2.17    0.20
  -1 -25   0    2.55    0.25
   1  25  -1    2.32    0.25
  -1 -25   1    2.18    0.24
  -1 -25   1    2.48    0.21
   1  25  -2   11.77    0.56
  -1 -25   2   10.89    0.51
  -1 -25   2   10.40    0.56
   1  25  -3    7.62    0.46
  -1 -25   3    7.78    0.40
  -1 -25   3    7.61    0.44
  -1 -25   4    9.64    0.51
  -1 -25   5    7.19    0.45
  -1 -25   6    4.19    0.36
   2  24   6    3.41    0.26
  -2 -24  -6    3.42    0.23
   2  24   5    2.31    0.22
  -2 -24  -5    2.74    0.19
   2  24   4   10.57    0.53
  -2 -24  -4   10.26    0.48
   2  24   3    6.73    0.40
  -2 -24  -3    7.35    0.36
  -2 -24  -3    7.20    0.46
   2  24   2    0.67    0.19
  -2 -24  -2    0.44    0.16
  -2 -24  -2    0.46    0.13
   2  24   1    9.29    0.50
  -2 -24  -1    9.40    0.45
  -2 -24  -1    9.60    0.50
   2  24   0    3.07    0.29
  -2 -24   0    3.24    0.27
  -2 -24   0    2.95    0.22
   2  24  -1    0.30    0.16
  -2 -24   1    0.29    0.13
  -2 -24   1    0.54    0.15
   2  24  -2   27.05    1.17
  -2 -24   2   27.78    1.12
  -2 -24   2   26.71    1.18
  -2 -24   3   19.97    0.91
  -2 -24   3   20.09    0.84
  -2 -24   4    4.35    0.32
  -2 -24   4    4.15    0.27
  -2 -24   5    1.44    0.22
  -2 -24   5    1.22    0.21
  -2 -24   6    3.39    0.29
   3  23   6   10.66    0.53
   3  23   5    1.35    0.19
  -3 -23  -5    1.03    0.16
   3  23   4    3.74    0.28
  -3 -23  -4    3.51    0.23
   3  23   3    2.69    0.25
  -3 -23  -3    2.50    0.20
   3  23   2    3.58    0.28
  -3 -23  -2    3.46    0.35
  -3 -23  -2    3.19    0.22
   3  23   1    3.91    0.31
  -3 -23  -1    4.06    0.32
  -3 -23  -1    3.99    0.24
   3  23   0    4.79    0.33
  -3 -23   0    4.93    0.34
  -3 -23   0    4.63    0.28
   3  23  -1    2.66    0.29
  -3 -23   1    2.20    0.25
  -3 -23   1    2.31    0.19
   3  23  -2    7.27    0.45
  -3 -23   2    6.26    0.34
  -3 -23   2    6.53    0.40
  -3 -23   3    6.24    0.39
  -3 -23   3    6.36    0.33
  -3 -23   4    2.68    0.26
  -3 -23   4    2.48    0.20
  -3 -23   5    0.30    0.14
  -3 -23   5    0.49    0.12
  -3 -23   6    4.47    0.32
  -3 -23   7    1.60    0.24
   4  22   5    3.77    0.27
  -4 -22  -5    3.48    0.23
   4  22   4    2.59    0.26
  -4 -22  -4    2.52    0.19
   4  22   3    7.92    0.43
  -4 -22  -3    7.42    0.38
   4  22   2    8.48    0.45
  -4 -22  -2    7.38    0.39
   4  22   1    0.66    0.21
  -4 -22  -1    0.84    0.14
  -4 -22  -1    1.16    0.29
  -4 -22   0    1.56    0.16
  -4 -22   0    1.66    0.25
   4  22  -1   14.59    0.70
  -4 -22   1   14.21    0.69
  -4 -22   1   13.90    0.63
  -4 -22   2    9.31    0.46
  -4 -22   2   10.30    0.53
  -4 -22   3   37.20    1.56
  -4 -22   3   36.62    1.49
  -4 -22   4    9.34    0.44
  -4 -22   4    9.05    0.50
  -4 -22   5   21.92    0.90
  -4 -22   5   20.86    0.96
  -4 -22   6    5.97    0.32
  -4 -22   6    6.19    0.38
  -4 -22   7    2.54    0.21
  -4 -22   7    2.33    0.25
  -4 -22   8    0.86    0.25
   5  21   5    0.75    0.25
   5  21   4    0.17    0.14
  -5 -21  -4    0.02    0.10
   5  21   3    2.71    0.26
  -5 -21  -3    2.39    0.19
  -5 -21  -3    2.36    0.26
   5  21   2    5.47    0.36
  -5 -21  -2    5.78    0.34
  -5 -21  -2    5.96    0.31
   5  21   1    9.26    0.49
  -5 -21  -1    8.58    0.42
  -5 -21  -1    8.80    0.45
   5  21   0    3.13    0.32
  -5 -21   0    3.18    0.21
  -5 -21   0    3.00    0.35
  -5 -21   0    3.36    0.27
  -5 -21   1   10.89    0.57
  -5 -21   1   10.69    0.52
  -5 -21   1   10.56    0.50
  -5 -21   2    1.93    0.24
  -5 -21   2    1.95    0.25
  -5 -21   2    1.73    0.17
  -5 -21   3   15.82    0.71
  -5 -21   3   16.35    0.71
  -5 -21   3   16.91    0.78
  -5 -21   4    1.69    0.24
  -5 -21   4    1.73    0.17
  -5 -21   4    1.40    0.36
  -5 -21   5   12.81    0.63
  -5 -21   5   12.18    0.56
  -5 -21   6    3.48    0.27
  -5 -21   6    2.90    0.21
  -5 -21   7    4.25    0.25
  -5 -21   8    0.64    0.16
  -5 -21   8    0.54    0.21
   6  20   4    2.63    0.28
   6  20   3    0.65    0.18
  -6 -20  -3    0.51    0.15
  -6 -20  -3    0.74    0.18
   6  20   2    0.80    0.24
  -6 -20  -2    1.06    0.16
  -6 -20  -2    0.60    0.18
   6  20   1    5.50    0.40
  -6 -20  -1    5.80    0.32
  -6 -20  -1    5.72    0.31
  -6 -20   0    0.46    0.14
  -6 -20   0    0.19    0.09
  -6 -20   1    8.21    0.41
  -6 -20   1    7.99    0.40
  -6 -20   2    2.45    0.31
  -6 -20   2    2.42    0.20
  -6 -20   2    2.87    0.24
  -6 -20   3    7.20    0.36
  -6 -20   3    7.07    0.38
  -6 -20   3    7.31    0.44
  -6 -20   4    4.92    0.30
  -6 -20   4    4.76    0.27
  -6 -20   4    4.52    0.34
  -6 -20   5    3.14    0.27
  -6 -20   5    2.82    0.25
  -6 -20   5    3.17    0.21
  -6 -20   6    3.28    0.22
  -6 -20   6    3.33    0.28
  -6 -20   6    3.36    0.28
  -6 -20   7    1.62    0.24
  -6 -20   7    1.68    0.36
  -6 -20   8    0.10    0.10
  -6 -20   8    0.15    0.14
  -7 -19  -3    7.07    0.37
  -7 -19  -2    2.17    0.21
  -7 -19  -2    1.81    0.24
  -7 -19  -1   15.09    0.66
  -7 -19  -1   15.32    0.66
  -7 -19   0    2.28    0.21
  -7 -19   0    2.07    0.20
  -7 -19   1    0.28    0.10
  -7 -19   1    0.46    0.13
  -7 -19   2    2.56    0.22
  -7 -19   2    2.42    0.20
  -7 -19   3    7.30    0.37
  -7 -19   3    7.13    0.46
  -7 -19   3    7.51    0.38
  -7 -19   4   11.19    0.52
  -7 -19   4   11.61    0.60
  -7 -19   4   11.58    0.52
  -7 -19   5   18.82    0.80
  -7 -19   5   18.58    0.80
  -7 -19   5   19.05    0.86
  -7 -19   6    2.25    0.29
  -7 -19   6    2.75    0.20
  -7 -19   6    2.69    0.27
  -7 -19   7   18.49    0.79
  -7 -19   7   18.52    0.78
  -7 -19   7   18.78    0.84
  -7 -19   8    4.93    0.27
  -8 -18  -2    1.10    0.18
  -8 -18  -1    5.85    0.32
  -8 -18   0    4.56    0.28
  -8 -18   0    4.17    0.31
  -8 -18   1   21.88    0.91
  -8 -18   1   21.37    0.91
  -8 -18   2    1.35    0.18
  -8 -18   2    1.46    0.19
  -8 -18   3    0.01    0.11
  -8 -18   3    0.00    0.11
  -8 -18   4    0.44    0.12
  -8 -18   4    0.59    0.15
  -8 -18   4    0.67    0.22
  -8 -18   5    2.62    0.20
  -8 -18   5    2.85    0.22
  -8 -18   5    2.38    0.30
  -8 -18   6    0.19    0.10
  -8 -18   6    0.32    0.12
  -8 -18   6    0.21    0.16
  -8 -18   7    3.65    0.23
  -8 -18   7    3.51    0.25
  -8 -18   8    3.07    0.21
  -9 -17  -1    1.34    0.18
  -9 -17   0    4.39    0.26
  -9 -17   1    3.17    0.23
  -9 -17   2    4.57    0.27
  -9 -17   3   14.25    0.64
  -9 -17   4    0.01    0.14
  -9 -17   4    0.16    0.11
  -9 -17   5   13.72    0.60
  -9 -17   5   13.49    0.59
  -9 -17   6    0.99    0.19
  -9 -17   6    0.86    0.16
  -9 -17   7    3.41    0.23
  -9 -17   7    3.16    0.24
 -10 -16   1    3.05    0.22
 -10 -16   2    0.06    0.11
 -10 -16   3    6.29    0.32
 -10 -16   4    3.55    0.23
 -10 -16   5    4.34    0.25
 -10 -16   6    4.37    0.26
  -2  30   3    0.56    0.18
   2 -30  -3    0.63    0.19
  -2  30   2    0.33    0.14
   2 -30  -2    0.39    0.13
  -2  30   1    2.74    0.25
   2 -30  -1    3.24    0.26
  -2  30   0    2.45    0.26
   2 -30   0    2.43    0.24
  -2  30  -1    4.30    0.30
   2 -30   1    3.59    0.30
  -1  29   4    3.19    0.25
   1 -29  -4    3.21    0.29
  -1  29   3    2.77    0.24
   1 -29  -3    2.85    0.25
  -1  29   2    0.72    0.18
   1 -29  -2    0.72    0.18
  -1  29   1    5.43    0.34
   1 -29  -1    5.36    0.37
  -1  29   0    3.35    0.28
   1 -29   0    3.98    0.33
  -1  29  -1    5.44    0.34
   1 -29   1    4.62    0.32
  -1  29  -2    5.03    0.35
   1 -29   2    5.25    0.34
   1 -29   3    1.95    0.29
   0  28   5    0.14    0.13
   0  28   4    2.07    0.21
   0 -28  -4    2.03    0.30
   0 -28  -4    2.02    0.21
   0  28   3    4.03    0.28
   0 -28  -3    3.98    0.30
   0 -28  -3    3.69    0.27
   0  28   2    6.81    0.37
   0 -28  -2    5.83    0.36
   0 -28  -2    6.08    0.34
   0  28   1    1.29    0.22
   0 -28  -1    2.01    0.23
   0 -28  -1    1.79    0.21
   0  28   0    0.12    0.14
   0 -28   0    0.16    0.12
   0  28  -1    1.88    0.25
   0 -28   1    1.51    0.21
   0  28  -2    5.86    0.42
   0 -28   2    6.72    0.38
   0  28  -3    3.25    0.38
   0 -28   3    4.29    0.30
   0 -28   4    1.94    0.27
   1  27   5    4.31    0.29
  -1 -27  -5    4.27    0.25
   1  27   4    2.47    0.24
  -1 -27  -4    2.75    0.20
   1  27   3    6.63    0.36
  -1 -27  -3    5.27    0.34
  -1 -27  -3    5.92    0.39
  -1 -27  -2    1.57    0.22
  -1 -27  -2    1.34    0.18
   1  27   1    0.80    0.20
  -1 -27  -1    0.96    0.17
  -1 -27  -1    1.01    0.20
   1  27   0    9.97    0.49
  -1 -27   0    8.75    0.49
  -1 -27   0    8.86    0.44
   1  27  -1    7.03    0.42
  -1 -27   1    7.62    0.39
  -1 -27   1    7.48    0.43
   1  27  -2    2.17    0.30
  -1 -27   2    1.77    0.24
  -1 -27   2    1.96    0.22
  -1 -27   3    0.18    0.13
  -1 -27   4    4.86    0.33
  -1 -27   5    2.06    0.27
   2  26   5    0.80    0.18
  -2 -26  -5    0.82    0.15
   2  26   4    5.77    0.33
  -2 -26  -4    5.06    0.29
   2  26   3    2.59    0.24
  -2 -26  -3    2.74    0.20
   2  26   2    4.24    0.31
  -2 -26  -2    4.41    0.33
  -2 -26  -2    4.42    0.26
   2  26   1    4.85    0.33
  -2 -26  -1    5.16    0.29
  -2 -26  -1    5.53    0.35
   2  26   0   19.80    0.90
  -2 -26   0   20.57    0.85
  -2 -26   0   20.10    0.91
   2  26  -1    9.89    0.53
  -2 -26   1   10.07    0.53
  -2 -26   1   10.41    0.47
   2  26  -2   20.98    0.93
  -2 -26   2   20.83    0.86
  -2 -26   2   19.41    0.92
  -2 -26   3    0.32    0.14
  -2 -26   3    0.49    0.13
  -2 -26   4    0.31    0.14
  -2 -26   4    0.42    0.15
  -2 -26   5    1.97    0.23
  -2 -26   6    3.51    0.31
   3  25   5    0.43    0.15
  -3 -25  -5    0.46    0.11
   3  25   4    0.61    0.19
  -3 -25  -4    0.50    0.13
   3  25   3    0.07    0.12
  -3 -25  -3    0.11    0.09
   3  25   2    5.30    0.35
  -3 -25  -2    6.08    0.31
   3  25   1    5.87    0.36
  -3 -25  -1    5.41    0.30
  -3 -25  -1    5.23    0.37
   3  25   0   14.08    0.69
  -3 -25   0   14.64    0.69
  -3 -25   0   14.75    0.64
   3  25  -1    2.06    0.29
  -3 -25   1    2.06    0.18
  -3 -25   1    1.77    0.23
  -3 -25   2   12.52    0.62
  -3 -25   2   12.32    0.56
  -3 -25   3    0.55    0.15
  -3 -25   3    0.61    0.19
  -3 -25   4    2.64    0.25
  -3 -25   4    2.56    0.21
  -3 -25   5    3.24    0.27
  -3 -25   5    3.47    0.25
  -3 -25   6    1.05    0.20
  -3 -25   6    1.10    0.20
   4  24   4    5.29    0.33
  -4 -24  -4    4.88    0.27
   4  24   3    0.26    0.15
   4  24   2   16.75    0.72
  -4 -24  -2   14.36    0.67
   4  24   1    3.82    0.31
  -4 -24  -1    3.05    0.22
   4  24   0    4.50    0.34
  -4 -24   0    3.69    0.32
  -4 -24   0    3.53    0.24
  -4 -24   1    1.47    0.23
  -4 -24   1    1.59    0.16
  -4 -24   2    9.94    0.46
  -4 -24   2    9.78    0.53
  -4 -24   3    1.46    0.22
  -4 -24   3    1.51    0.16
  -4 -24   4   14.19    0.61
  -4 -24   4   13.40    0.67
  -4 -24   5    5.32    0.28
  -4 -24   5    4.81    0.33
  -4 -24   6    7.91    0.43
  -4 -24   6    8.03    0.39
  -4 -24   7    3.54    0.29
   5  23   4    5.82    0.42
  -5 -23  -4    5.53    0.31
   5  23   3    3.81    0.30
  -5 -23  -3    3.77    0.24
   5  23   2    4.92    0.36
  -5 -23  -2    5.62    0.29
   5  23   1    0.71    0.21
  -5 -23  -1    0.98    0.14
  -5 -23   0    8.09    0.39
  -5 -23   1    3.43    0.22
  -5 -23   1    3.62    0.32
  -5 -23   2    2.87    0.20
  -5 -23   2    2.75    0.28
  -5 -23   3    2.16    0.18
  -5 -23   3    2.20    0.25
  -5 -23   4    6.46    0.33
  -5 -23   4    6.62    0.40
  -5 -23   5    8.85    0.48
  -5 -23   5    8.69    0.41
  -5 -23   6    0.73    0.27
  -5 -23   6    0.56    0.15
  -5 -23   7    1.16    0.21
  -5 -23   7    1.27    0.17
  -6 -22  -3    1.53    0.21
  -6 -22  -2    1.32    0.17
  -6 -22  -1    3.34    0.30
  -6 -22  -1    3.33    0.22
  -6 -22   0    3.94    0.31
  -6 -22   0    4.29    0.25
  -6 -22   1    6.87    0.39
  -6 -22   1    6.86    0.35
  -6 -22   2    2.23    0.31
  -6 -22   2    2.28    0.19
  -6 -22   2    2.57    0.26
  -6 -22   3    0.10    0.15
  -6 -22   3    0.00    0.15
  -6 -22   3    0.02    0.08
  -6 -22   4    5.14    0.35
  -6 -22   4    5.00    0.28
  -6 -22   5    5.72    0.36
  -6 -22   5    5.37    0.29
  -6 -22   6    5.56    0.35
  -6 -22   6    5.89    0.30
  -6 -22   7    8.45    0.45
  -6 -22   7    8.90    0.40
  -7 -21  -2    0.15    0.19
  -7 -21  -1    5.22    0.30
  -7 -21  -1    5.40    0.32
  -7 -21   0    4.67    0.30
  -7 -21   1    3.27    0.26
  -7 -21   1    2.95    0.22
  -7 -21   2    5.34    0.29
  -7 -21   2    4.89    0.31
  -7 -21   3    7.11    0.48
  -7 -21   3    7.86    0.39
  -7 -21   3    7.38    0.37
  -7 -21   4    5.04    0.27
  -7 -21   4    4.21    0.40
  -7 -21   4    5.28    0.37
  -7 -21   5    8.66    0.43
  -7 -21   5    8.56    0.40
  -7 -21   6    0.97    0.21
  -7 -21   6    0.98    0.20
  -7 -21   6    0.76    0.14
  -7 -21   7   16.75    0.76
  -7 -21   7   17.05    0.71
  -8 -20  -1   15.52    0.67
  -8 -20   0    2.91    0.29
  -8 -20   0    2.91    0.24
  -8 -20   1    2.20    0.22
  -8 -20   1    2.02    0.21
  -8 -20   2    2.42    0.22
  -8 -20   2    2.58    0.21
  -8 -20   3    4.40    0.27
  -8 -20   3    4.42    0.26
  -8 -20   4    1.43    0.19
  -8 -20   4    1.28    0.17
  -8 -20   5    5.96    0.33
  -8 -20   5    5.34    0.40
  -8 -20   5    5.87    0.30
  -8 -20   6    1.02    0.26
  -8 -20   6    1.43    0.23
  -8 -20   6    1.50    0.17
  -8 -20   7    3.37    0.23
  -9 -19   1    4.56    0.28
  -9 -19   2    1.39    0.19
  -9 -19   3    0.47    0.12
  -9 -19   3    0.41    0.17
  -9 -19   4    4.12    0.28
  -9 -19   4    4.08    0.25
  -9 -19   5    4.54    0.27
  -9 -19   5    4.21    0.29
  -1  31   2    2.72    0.25
   1 -31  -2    2.53    0.25
  -1  31   1    0.11    0.15
   1 -31  -1    0.09    0.13
  -1  31   0    1.31    0.25
   1 -31   0    1.21    0.20
   1 -31   1    9.95    0.50
   0  30   3   -0.08    0.14
   0  30   2    9.46    0.48
   0 -30  -2    9.65    0.48
   0  30   1    0.64    0.21
   0 -30  -1    0.26    0.13
   0  30   0    2.17    0.25
   0 -30   0    2.22    0.23
   0  30  -1    0.51    0.19
   0 -30   1    0.70    0.18
   0 -30   2    9.45    0.48
   0 -30   3    0.11    0.17
   1  29   3    1.89    0.22
  -1 -29  -3    1.52    0.20
   1  29   2    5.39    0.35
  -1 -29  -2    5.80    0.36
  -1 -29  -2    5.74    0.32
   1  29   1    4.87    0.33
  -1 -29  -1    5.56    0.34
  -1 -29  -1    5.58    0.31
   1  29   0    3.70    0.30
  -1 -29   0    3.41    0.30
  -1 -29   0    3.28    0.28
   1  29  -1    5.60    0.38
  -1 -29   1    5.36    0.40
  -1 -29   2    0.73    0.18
  -1 -29   3    2.80    0.25
  -1 -29   4    3.19    0.29
   2  28   4    1.37    0.24
   2  28   3    0.58    0.20
  -2 -28  -3    0.87    0.15
   2  28   2    7.83    0.42
  -2 -28  -2    7.54    0.37
  -2 -28  -2    7.54    0.45
   2  28   1    4.19    0.31
  -2 -28  -1    4.45    0.26
  -2 -28  -1    4.23    0.31
   2  28   0   18.29    0.87
  -2 -28   0   18.90    0.84
   2  28  -1   14.03    0.67
  -2 -28   1   14.64    0.67
  -2 -28   1   13.73    0.64
  -2 -28   2    0.27    0.12
  -2 -28   2    0.24    0.13
  -2 -28   3    2.20    0.23
  -2 -28   3    1.79    0.27
  -2 -28   4    3.31    0.27
  -2 -28   5    2.93    0.27
  -3 -27  -4    2.55    0.22
   3  27   3    1.98    0.24
  -3 -27  -3    2.09    0.17
   3  27   2    1.64    0.24
  -3 -27  -2    2.10    0.17
   3  27   1    1.13    0.23
  -3 -27  -1    0.70    0.14
  -3 -27  -1    0.78    0.26
   3  27   0   -0.06    0.23
  -3 -27   0    0.19    0.09
  -3 -27   0    0.09    0.14
  -3 -27   1    0.10    0.13
  -3 -27   1    0.11    0.10
  -3 -27   2    8.83    0.42
  -3 -27   2    9.06    0.48
  -3 -27   3    0.71    0.17
  -3 -27   3    0.66    0.18
  -3 -27   4    7.57    0.42
  -3 -27   4    7.55    0.38
  -3 -27   5    6.20    0.37
   4  26   3    0.55    0.18
  -4 -26  -3    0.66    0.14
   4  26   2    4.92    0.35
  -4 -26  -2    5.36    0.28
   4  26   1    7.18    0.43
  -4 -26  -1    7.43    0.36
  -4 -26   0    3.02    0.20
  -4 -26   1    4.12    0.24
  -4 -26   1    3.85    0.31
  -4 -26   2    9.56    0.51
  -4 -26   2   10.00    0.46
  -4 -26   3   15.88    0.75
  -4 -26   3   16.14    0.69
  -4 -26   4    3.63    0.36
  -4 -26   4    4.57    0.25
  -4 -26   5    0.83    0.19
  -4 -26   5    0.98    0.18
  -4 -26   6    2.80    0.25
  -5 -25  -3    1.24    0.16
   5  25   2    7.98    0.49
  -5 -25  -2    8.09    0.38
  -5 -25  -1    2.70    0.19
  -5 -25   0    3.03    0.20
  -5 -25   1    0.61    0.32
  -5 -25   1    0.53    0.14
  -5 -25   2    3.66    0.23
  -5 -25   2    3.75    0.31
  -5 -25   3    0.67    0.20
  -5 -25   3    0.69    0.14
  -5 -25   5    5.74    0.30
  -5 -25   5    5.48    0.35
  -5 -25   6    4.91    0.32
  -5 -25   6    4.90    0.28
  -6 -24  -2    7.18    0.35
  -6 -24  -1    0.50    0.14
  -6 -24   0    9.50    0.44
  -6 -24   1    4.16    0.24
  -6 -24   2    1.98    0.32
  -6 -24   2    2.15    0.17
  -6 -24   3    1.10    0.15
  -6 -24   3    1.05    0.24
  -6 -24   4    2.66    0.27
  -6 -24   4    2.73    0.21
  -6 -24   5    9.66    0.50
  -6 -24   5   10.05    0.45
  -6 -24   6   19.52    0.81
  -6 -24   6   19.86    0.86
  -7 -23  -1    0.15    0.15
  -7 -23   0    1.20    0.17
  -7 -23   1    4.45    0.26
  -7 -23   2    2.11    0.18
  -7 -23   3    2.76    0.20
  -7 -23   4    3.86    0.34
  -7 -23   4    3.81    0.23
  -7 -23   5    4.38    0.24
  -7 -23   5    3.92    0.33
  -7 -23   6    7.05    0.34
  -7 -23   6    6.48    0.40
  -8 -22   1    0.58    0.16
  -8 -22   2    2.47    0.22
  -8 -22   2    2.68    0.27
  -8 -22   3    7.36    0.41
  -8 -22   3    7.72    0.37
  -8 -22   4    1.41    0.17
  -8 -22   5    4.91    0.27
  -1 -31   0    1.49    0.22
  -1 -31   1    0.23    0.13
  -1 -31   2    2.76    0.25
   2  30   1    4.97    0.46
  -2 -30  -1    4.11    0.28
  -2 -30  -1    3.84    0.34
  -2 -30   0    2.23    0.24
  -2 -30   0    2.38    0.25
  -2 -30   1    2.86    0.25
  -2 -30   2    0.38    0.13
  -2 -30   3    0.49    0.19
  -3 -29  -2    0.02    0.09
  -3 -29  -1    5.28    0.29
  -3 -29   0    0.93    0.25
  -3 -29   0    0.98    0.17
  -3 -29   1    1.57    0.23
  -3 -29   1    1.74    0.19
  -3 -29   2    0.50    0.18
  -3 -29   2    0.41    0.13
  -3 -29   3    5.48    0.42
  -3 -29   3    4.79    0.32
  -3 -29   4    4.40    0.31
  -4 -28  -1    1.12    0.15
  -4 -28   0    7.46    0.36
  -4 -28   1    0.76    0.25
  -4 -28   1    1.04    0.15
  -4 -28   2    1.52    0.17
  -4 -28   2    1.58    0.23
  -4 -28   3    0.27    0.11
  -4 -28   3    0.18    0.14
  -4 -28   4    1.72    0.21
  -4 -28   4    1.61    0.23
  -4 -28   5    3.29    0.36
  -5 -27  -1    3.04    0.21
  -5 -27   0    4.51    0.25
  -5 -27   1    0.56    0.14
  -5 -27   2    1.00    0.15
  -5 -27   2    1.04    0.27
  -5 -27   3    3.31    0.21
  -5 -27   3    3.05    0.29
  -5 -27   4    2.01    0.23
  -5 -27   4    2.32    0.19
  -5 -27   5    5.28    0.34
  -6 -26   0    0.10    0.10
  -6 -26   1    0.13    0.09
  -6 -26   2    0.92    0.14
  -6 -26   3    0.21    0.09
  -6 -26   3    0.15    0.19
  -6 -26   4    3.21    0.30
  -6 -26   4    3.27    0.21
  -6 -26   5    1.09    0.18
  -7 -25   1    0.62    0.16
  -7 -25   2    7.59    0.36
  -7 -25   3    5.86    0.30
  -7 -25   4    8.74    0.40
   0   0   0    0.00    0.00
;
_shelx_hkl_checksum              839
_shelx_res_file
;
TITL SKM-193 in Cc
CELL  1.54178  10.2254  26.6695   9.9210   90.000  110.718   90.000
ZERR     4.00   0.0003   0.0009   0.0003    0.000    0.001    0.000
LATT  -7
SYMM    X, - Y, 1/2 + Z
SFAC  C    H    N    O    S
UNIT  112 100 12 12 4
MERG   2
TWIN
EXYZ O3 O3A
EADP O3 O3A
EADP C15 C15A
EADP C16 C16A
DFIX 1.50 0.02 O3 C15 O3 C15A
DFIX 1.50 0.02 C15 C16 C15A C16A
MPLA C17 > C22
MPLA N1 N2 C1 > C4
MPLA C23 > C28
FMAP   2
PLAN    5
SIZE     0.095   0.186   0.190
ACTA
BOND   $H
CONF
LIST   4
L.S.  13
TEMP  -123.00
WGHT    0.042800    0.590800
EXTI    0.001681
BASF   0.03202
FVAR       0.13133   0.76033
S1    5    0.745500    0.460212    0.763728    11.00000    0.02501    0.03417 =
         0.03377   -0.00902    0.01175   -0.00363
O1    4    0.485265    0.523865    0.637407    11.00000    0.03432    0.03797 =
         0.02897    0.00011    0.01416    0.00198
O2    4    0.838820    0.418935    0.469736    11.00000    0.03783    0.06372 =
         0.06440    0.02898    0.02888    0.00723
N1    3    0.511769    0.405987    0.673396    11.00000    0.02603    0.02864 =
         0.03075   -0.00256    0.01234   -0.00142
N2    3    0.425480    0.370531    0.593446    11.00000    0.02574    0.02712 =
         0.02862   -0.00254    0.01128   -0.00120
N3    3    0.418858    0.520414    0.834455    11.00000    0.03030    0.03514 =
         0.02727    0.00148    0.01145    0.00630
AFIX   3
H3    2    0.439984    0.505676    0.917720    11.00000   -1.20000
AFIX   0
C1    1    0.637519    0.412152    0.663868    11.00000    0.02349    0.02539 =
         0.02421   -0.00077    0.00896    0.00050
C2    1    0.685270    0.382410    0.572906    11.00000    0.02659    0.02544 =
         0.02365    0.00314    0.00995    0.00239
C3    1    0.595208    0.347228    0.486602    11.00000    0.02567    0.02540 =
         0.02405    0.00227    0.01048    0.00347
C4    1    0.463765    0.342253    0.501958    11.00000    0.02721    0.02605 =
         0.02457    0.00435    0.01088    0.00281
C5    1    0.639389    0.484894    0.857884    11.00000    0.02870    0.03325 =
         0.02649   -0.00879    0.01105    0.00075
AFIX  23
H5A   2    0.612776    0.457062    0.909021    11.00000   -1.20000
H5B   2    0.696007    0.508913    0.931535    11.00000   -1.20000
AFIX   0
C6    1    0.506818    0.511278    0.762495    11.00000    0.02846    0.02609 =
         0.02715   -0.00632    0.00983   -0.00267
C7    1    0.281305    0.540692    0.779509    11.00000    0.02915    0.02749 =
         0.03138   -0.00628    0.01132    0.00150
C8    1    0.226609    0.566048    0.650001    11.00000    0.03493    0.03752 =
         0.02947   -0.00175    0.01266    0.00279
AFIX  43
H8    2    0.282004    0.571558    0.592109    11.00000   -1.20000
AFIX   0
C9    1    0.088830    0.583485    0.605227    11.00000    0.03504    0.04022 =
         0.02903   -0.00199    0.00758    0.00621
AFIX  43
H9    2    0.051318    0.600586    0.515733    11.00000   -1.20000
AFIX   0
C10   1    0.005294    0.576569    0.687507    11.00000    0.02927    0.03328 =
         0.03760   -0.01069    0.01001    0.00134
C11   1    0.063374    0.550995    0.817642    11.00000    0.03519    0.03761 =
         0.04084   -0.00707    0.01864   -0.00173
AFIX  43
H11   2    0.008049    0.545375    0.875548    11.00000   -1.20000
AFIX   0
C12   1    0.199502    0.533605    0.864541    11.00000    0.03412    0.03413 =
         0.03174   -0.00054    0.01423    0.00251
AFIX  43
H12   2    0.237303    0.516849    0.954564    11.00000   -1.20000
AFIX   0
C13   1   -0.141170    0.597396    0.642090    11.00000    0.03083    0.04931 =
         0.04640   -0.00759    0.00914    0.00565
AFIX 137
H13A  2   -0.204149    0.571779    0.655582    11.00000   -1.50000
H13B  2   -0.172544    0.607093    0.540299    11.00000   -1.50000
H13C  2   -0.141936    0.626844    0.700893    11.00000   -1.50000
AFIX   0
C14   1    0.824868    0.391840    0.560354    11.00000    0.02748    0.02707 =
         0.02929   -0.00199    0.01236    0.00149
PART    1
O3    4    0.925808    0.366041    0.654746    21.00000    0.02583    0.05416 =
         0.04526    0.01372    0.01465    0.00643
C15   1    1.064960    0.369669    0.644953    21.00000    0.02699    0.06105 =
         0.06191    0.00559    0.02035    0.00516
AFIX  23
H15A  2    1.055746    0.369569    0.542202    21.00000   -1.20000
H15B  2    1.120523    0.339898    0.691362    21.00000   -1.20000
AFIX   0
C16   1    1.140289    0.415580    0.714710    21.00000    0.03748    0.08806 =
         0.04319   -0.01532    0.01957   -0.01869
AFIX  33
H16A  2    1.232231    0.416546    0.704708    21.00000   -1.50000
H16B  2    1.152215    0.415377    0.817166    21.00000   -1.50000
H16C  2    1.086254    0.445192    0.668404    21.00000   -1.50000
AFIX   0
PART    2
O3A   4    0.925808    0.366041    0.654746   -21.00000    0.02583    0.05416 =
         0.04526    0.01372    0.01465    0.00643
C15A  1    1.064248    0.367922    0.635034   -21.00000    0.02699    0.06105 =
         0.06191    0.00559    0.02035    0.00516
AFIX  23
H15C  2    1.090407    0.334111    0.611998   -21.00000   -1.20000
H15D  2    1.059406    0.390810    0.554845   -21.00000   -1.20000
AFIX   0
C16A  1    1.169731    0.386404    0.772380   -21.00000    0.03748    0.08806 =
         0.04319   -0.01532    0.01957   -0.01869
AFIX  33
H16D  2    1.261642    0.388138    0.762476   -21.00000   -1.50000
H16E  2    1.174090    0.363366    0.850810   -21.00000   -1.50000
H16F  2    1.142792    0.419856    0.794125   -21.00000   -1.50000
AFIX   0
PART    0
C17   1    0.634948    0.317654    0.379489    11.00000    0.02754    0.03083 =
         0.03122   -0.00716    0.01548   -0.00441
C18   1    0.738193    0.281451    0.423443    11.00000    0.03472    0.03959 =
         0.03822   -0.00709    0.01682    0.00101
AFIX  43
H18   2    0.785496    0.275171    0.523182    11.00000   -1.20000
AFIX   0
C19   1    0.772477    0.254277    0.321015    11.00000    0.03861    0.04379 =
         0.05808   -0.01376    0.02578    0.00128
AFIX  43
H19   2    0.842144    0.228939    0.350825    11.00000   -1.20000
AFIX   0
C20   1    0.705540    0.264007    0.176009    11.00000    0.04876    0.05283 =
         0.05039   -0.02606    0.03260   -0.01601
AFIX  43
H20   2    0.729277    0.245391    0.106296    11.00000   -1.20000
AFIX   0
C21   1    0.605031    0.300462    0.132760    11.00000    0.04834    0.06025 =
         0.03270   -0.01285    0.01885   -0.00955
AFIX  43
H21   2    0.560347    0.307458    0.033041    11.00000   -1.20000
AFIX   0
C22   1    0.567967    0.327304    0.233907    11.00000    0.03966    0.04883 =
         0.03154   -0.00595    0.01609   -0.00347
AFIX  43
H22   2    0.497003    0.352169    0.203378    11.00000   -1.20000
AFIX   0
C23   1    0.357099    0.304716    0.422709    11.00000    0.02817    0.03118 =
         0.02366   -0.00007    0.01266   -0.00373
C24   1    0.391934    0.254384    0.413662    11.00000    0.03449    0.03175 =
         0.03148   -0.00423    0.01580   -0.00214
AFIX  43
H24   2    0.486868    0.244006    0.452167    11.00000   -1.20000
AFIX   0
C25   1    0.287892    0.219756    0.348547    11.00000    0.04895    0.03275 =
         0.03744   -0.01100    0.02171   -0.00932
AFIX  43
H25   2    0.311632    0.185542    0.343559    11.00000   -1.20000
AFIX   0
C26   1    0.149806    0.234624    0.290788    11.00000    0.04417    0.04987 =
         0.03162   -0.01184    0.01510   -0.02023
AFIX  43
H26   2    0.078891    0.210611    0.246798    11.00000   -1.20000
AFIX   0
C27   1    0.114686    0.284313    0.296880    11.00000    0.03074    0.05355 =
         0.03148   -0.00008    0.00870   -0.00667
AFIX  43
H27   2    0.019853    0.294599    0.255468    11.00000   -1.20000
AFIX   0
C28   1    0.218223    0.319367    0.363710    11.00000    0.03114    0.03728 =
         0.02794    0.00244    0.01121   -0.00200
AFIX  43
H28   2    0.193653    0.353476    0.368931    11.00000   -1.20000
AFIX   0
HKLF 4
REM  SKM-193 in Cc
REM R1 =  0.0278 for    3898 Fo > 4sig(Fo)  and  0.0286 for all    3992 data
REM    326 parameters refined using      6 restraints
END
WGHT      0.0428      0.5907
REM Highest difference peak  0.301,  deepest hole -0.147,  1-sigma level  0.039
Q1    1   1.0646  0.4015  0.6499  11.00000  0.05    0.30
Q2    1   1.4461  0.3816  0.9453  11.00000  0.05    0.24
Q3    1   0.9350  0.4007  0.6621  11.00000  0.05    0.21
Q4    1   0.8827  0.4366  0.5409  11.00000  0.05    0.19
Q5    1   0.5332  0.3404  0.5027  11.00000  0.05    0.13
;
_shelx_res_checksum              52140
_shelxl_version_number           201.4
loop_
_symmetry_equiv_pos_as_xyz
'x, y, z'
'x, -y, z+1/2'
'x+1/2, y+1/2, z'
'x+1/2, -y+1/2, z+1/2'
loop_
_atom_site_type_symbol
_atom_site_label
_atom_site_fract_x
_atom_site_fract_y
_atom_site_fract_z
_atom_site_U_iso_or_equiv
_atom_site_adp_type
_atom_site_calc_flag
_atom_site_occupancy
_atom_site_disorder_assembly
_atom_site_disorder_group
S S1 0.74550(6) 0.46021(2) 0.76373(6) 0.03062(16) Uani d 1 . .
O O1 0.48527(18) 0.52387(7) 0.63741(18) 0.0330(4) Uani d 1 . .
O O2 0.8388(2) 0.41894(9) 0.4697(3) 0.0524(6) Uani d 1 . .
N N1 0.5118(2) 0.40599(7) 0.6734(2) 0.0279(4) Uani d 1 . .
N N2 0.4255(2) 0.37053(7) 0.5934(2) 0.0267(4) Uani d 1 . .
N N3 0.4189(2) 0.52041(8) 0.8345(2) 0.0306(5) Uani d 1 . .
H H3 0.4400 0.5057 0.9177 0.037 Uiso d 1 . .
C C1 0.6375(2) 0.41215(8) 0.6639(2) 0.0242(5) Uani d 1 . .
C C2 0.6853(3) 0.38241(9) 0.5729(2) 0.0249(5) Uani d 1 . .
C C3 0.5952(2) 0.34723(9) 0.4866(2) 0.0246(5) Uani d 1 . .
C C4 0.4638(2) 0.34225(9) 0.5020(2) 0.0255(5) Uani d 1 . .
C C5 0.6394(3) 0.48489(9) 0.8579(3) 0.0291(5) Uani d 1 . .
H H5A 0.6128 0.4571 0.9090 0.035 Uiso calc 1 . .
H H5B 0.6960 0.5089 0.9315 0.035 Uiso calc 1 . .
C C6 0.5068(3) 0.51128(8) 0.7625(3) 0.0272(5) Uani d 1 . .
C C7 0.2813(2) 0.54069(9) 0.7795(3) 0.0292(6) Uani d 1 . .
C C8 0.2266(3) 0.56605(9) 0.6500(3) 0.0336(6) Uani d 1 . .
H H8 0.2820 0.5716 0.5921 0.040 Uiso calc 1 . .
C C9 0.0888(3) 0.58348(10) 0.6052(3) 0.0358(6) Uani d 1 . .
H H9 0.0513 0.6006 0.5157 0.043 Uiso calc 1 . .
C C10 0.0053(3) 0.57657(10) 0.6875(3) 0.0339(6) Uani d 1 . .
C C11 0.0634(3) 0.55100(10) 0.8176(3) 0.0365(6) Uani d 1 . .
H H11 0.0080 0.5454 0.8755 0.044 Uiso calc 1 . .
C C12 0.1995(3) 0.53361(9) 0.8645(3) 0.0326(6) Uani d 1 . .
H H12 0.2373 0.5168 0.9546 0.039 Uiso calc 1 . .
C C13 -0.1412(3) 0.59740(11) 0.6421(3) 0.0434(7) Uani d 1 . .
H H13A -0.2041 0.5718 0.6556 0.065 Uiso calc 1 . .
H H13B -0.1725 0.6071 0.5403 0.065 Uiso calc 1 . .
H H13C -0.1419 0.6268 0.7009 0.065 Uiso calc 1 . .
C C14 0.8249(3) 0.39184(9) 0.5604(3) 0.0273(5) Uani d 1 . .
O O3_a 0.92581(19) 0.36604(8) 0.6547(2) 0.0412(5) Uani d 0.760(8) A 1
C C15_a 1.0650(10) 0.3697(8) 0.6450(15) 0.0487(9) Uani d 0.760(8) A 1
H H15A_a 1.0557 0.3696 0.5422 0.058 Uiso calc 0.760(8) A 1
H H15B_a 1.1205 0.3399 0.6914 0.058 Uiso calc 0.760(8) A 1
C C16_a 1.1403(5) 0.4156(2) 0.7147(5) 0.0548(14) Uani d 0.760(8) A 1
H H16A_a 1.2322 0.4165 0.7047 0.082 Uiso calc 0.760(8) A 1
H H16B_a 1.1522 0.4154 0.8172 0.082 Uiso calc 0.760(8) A 1
H H16C_a 1.0863 0.4452 0.6684 0.082 Uiso calc 0.760(8) A 1
O O3A_b 0.92581(19) 0.36604(8) 0.6547(2) 0.0412(5) Uani d 0.240(8) A 2
C C15A_b 1.064(3) 0.368(3) 0.635(4) 0.0487(9) Uani d 0.240(8) A 2
H H15C_b 1.0904 0.3341 0.6120 0.058 Uiso calc 0.240(8) A 2
H H15D_b 1.0594 0.3908 0.5548 0.058 Uiso calc 0.240(8) A 2
C C16A_b 1.1697(16) 0.3864(8) 0.7724(17) 0.0548(14) Uani d 0.240(8) A 2
H H16D_b 1.2616 0.3881 0.7625 0.082 Uiso calc 0.240(8) A 2
H H16E_b 1.1741 0.3634 0.8508 0.082 Uiso calc 0.240(8) A 2
H H16F_b 1.1428 0.4199 0.7941 0.082 Uiso calc 0.240(8) A 2
C C17 0.6349(3) 0.31765(9) 0.3795(3) 0.0285(5) Uani d 1 . .
C C18 0.7382(3) 0.28145(10) 0.4234(3) 0.0365(6) Uani d 1 . .
H H18 0.7855 0.2752 0.5232 0.044 Uiso calc 1 . .
C C19 0.7725(3) 0.25428(12) 0.3210(4) 0.0445(7) Uani d 1 . .
H H19 0.8421 0.2289 0.3508 0.053 Uiso calc 1 . .
C C20 0.7055(3) 0.26401(12) 0.1760(3) 0.0466(8) Uani d 1 . .
H H20 0.7293 0.2454 0.1063 0.056 Uiso calc 1 . .
C C21 0.6050(3) 0.30046(13) 0.1328(3) 0.0459(7) Uani d 1 . .
H H21 0.5603 0.3075 0.0330 0.055 Uiso calc 1 . .
C C22 0.5680(3) 0.32730(11) 0.2339(3) 0.0391(6) Uani d 1 . .
H H22 0.4970 0.3522 0.2034 0.047 Uiso calc 1 . .
C C23 0.3571(3) 0.30472(9) 0.4227(2) 0.0267(5) Uani d 1 . .
C C24 0.3919(3) 0.25438(10) 0.4137(3) 0.0315(5) Uani d 1 . .
H H24 0.4869 0.2440 0.4522 0.038 Uiso calc 1 . .
C C25 0.2879(3) 0.21976(10) 0.3485(3) 0.0380(6) Uani d 1 . .
H H25 0.3116 0.1855 0.3436 0.046 Uiso calc 1 . .
C C26 0.1498(3) 0.23462(11) 0.2908(3) 0.0414(7) Uani d 1 . .
H H26 0.0789 0.2106 0.2468 0.050 Uiso calc 1 . .
C C27 0.1147(3) 0.28431(11) 0.2969(3) 0.0392(6) Uani d 1 . .
H H27 0.0199 0.2946 0.2555 0.047 Uiso calc 1 . .
C C28 0.2182(3) 0.31937(10) 0.3637(3) 0.0319(5) Uani d 1 . .
H H28 0.1937 0.3535 0.3689 0.038 Uiso calc 1 . .
loop_
_atom_site_aniso_label
_atom_site_aniso_U_11
_atom_site_aniso_U_22
_atom_site_aniso_U_33
_atom_site_aniso_U_12
_atom_site_aniso_U_13
_atom_site_aniso_U_23
S1 0.0250(3) 0.0342(3) 0.0338(3) -0.0036(3) 0.0117(2) -0.0090(2)
O1 0.0343(10) 0.0380(9) 0.0290(9) 0.0020(8) 0.0142(7) 0.0001(7)
O2 0.0378(12) 0.0637(13) 0.0644(14) 0.0072(10) 0.0289(10) 0.0290(11)
N1 0.0260(11) 0.0286(10) 0.0308(10) -0.0014(8) 0.0123(8) -0.0026(8)
N2 0.0257(11) 0.0271(10) 0.0286(10) -0.0012(8) 0.0113(8) -0.0025(8)
N3 0.0303(12) 0.0351(11) 0.0273(10) 0.0063(9) 0.0115(9) 0.0015(8)
C1 0.0235(12) 0.0254(12) 0.0242(11) 0.0005(9) 0.0090(9) -0.0008(9)
C2 0.0266(12) 0.0254(11) 0.0237(11) 0.0024(9) 0.0099(9) 0.0031(9)
C3 0.0257(12) 0.0254(11) 0.0240(11) 0.0035(9) 0.0105(9) 0.0023(9)
C4 0.0272(13) 0.0261(11) 0.0246(11) 0.0028(9) 0.0109(9) 0.0043(9)
C5 0.0287(13) 0.0333(13) 0.0265(12) 0.0007(10) 0.0111(10) -0.0088(10)
C6 0.0285(13) 0.0261(12) 0.0271(13) -0.0027(10) 0.0098(9) -0.0063(10)
C7 0.0291(15) 0.0275(11) 0.0314(13) 0.0015(10) 0.0113(11) -0.0063(9)
C8 0.0349(15) 0.0375(13) 0.0295(13) 0.0028(11) 0.0127(10) -0.0018(10)
C9 0.0350(15) 0.0402(15) 0.0290(13) 0.0062(11) 0.0076(11) -0.0020(10)
C10 0.0293(14) 0.0333(13) 0.0376(14) 0.0013(11) 0.0100(10) -0.0107(11)
C11 0.0352(15) 0.0376(14) 0.0408(14) -0.0017(12) 0.0186(12) -0.0071(11)
C12 0.0341(15) 0.0341(13) 0.0317(13) 0.0025(11) 0.0142(11) -0.0005(10)
C13 0.0308(15) 0.0493(16) 0.0464(16) 0.0056(12) 0.0091(12) -0.0076(13)
C14 0.0275(13) 0.0271(12) 0.0293(12) 0.0015(10) 0.0124(10) -0.0020(10)
O3_a 0.0258(10) 0.0542(12) 0.0453(11) 0.0064(8) 0.0147(8) 0.0137(9)
C15_a 0.0270(15) 0.061(2) 0.062(3) 0.0052(14) 0.0203(15) 0.0056(18)
C16_a 0.037(2) 0.088(4) 0.043(3) -0.019(2) 0.0196(19) -0.015(2)
O3A_b 0.0258(10) 0.0542(12) 0.0453(11) 0.0064(8) 0.0147(8) 0.0137(9)
C15A_b 0.0270(15) 0.061(2) 0.062(3) 0.0052(14) 0.0203(15) 0.0056(18)
C16A_b 0.037(2) 0.088(4) 0.043(3) -0.019(2) 0.0196(19) -0.015(2)
C17 0.0275(12) 0.0308(12) 0.0312(12) -0.0044(10) 0.0155(10) -0.0072(10)
C18 0.0347(15) 0.0396(14) 0.0382(14) 0.0010(12) 0.0168(11) -0.0071(11)
C19 0.0386(16) 0.0438(16) 0.0581(18) 0.0013(13) 0.0258(14) -0.0138(13)
C20 0.0488(18) 0.0528(17) 0.0504(18) -0.0160(15) 0.0326(15) -0.0261(14)
C21 0.0483(18) 0.0602(19) 0.0327(14) -0.0096(15) 0.0188(12) -0.0128(13)
C22 0.0397(16) 0.0488(16) 0.0315(14) -0.0035(12) 0.0161(11) -0.0059(12)
C23 0.0282(13) 0.0312(12) 0.0237(11) -0.0037(10) 0.0127(9) -0.0001(9)
C24 0.0345(14) 0.0318(13) 0.0315(13) -0.0021(11) 0.0158(11) -0.0042(10)
C25 0.0489(17) 0.0328(14) 0.0374(14) -0.0093(12) 0.0217(13) -0.0110(11)
C26 0.0442(17) 0.0499(17) 0.0316(13) -0.0202(14) 0.0151(11) -0.0118(12)
C27 0.0307(14) 0.0535(17) 0.0315(13) -0.0067(12) 0.0087(11) -0.0001(12)
C28 0.0311(14) 0.0373(13) 0.0279(12) -0.0020(11) 0.0112(10) 0.0024(10)
loop_
_atom_type_symbol
_atom_type_description
_atom_type_scat_dispersion_real
_atom_type_scat_dispersion_imag
_atom_type_scat_source
C C 0.0181 0.0091 'International Tables Vol C Tables 4.2.6.8 and 6.1.1.4'
H H 0.0000 0.0000 'International Tables Vol C Tables 4.2.6.8 and 6.1.1.4'
N N 0.0311 0.0180 'International Tables Vol C Tables 4.2.6.8 and 6.1.1.4'
O O 0.0492 0.0322 'International Tables Vol C Tables 4.2.6.8 and 6.1.1.4'
S S 0.3331 0.5567 'International Tables Vol C Tables 4.2.6.8 and 6.1.1.4'
loop_
_geom_angle_atom_site_label_1
_geom_angle_atom_site_label_2
_geom_angle_atom_site_label_3
_geom_angle
C1 S1 C5 100.79(11)
C1 N1 N2 119.57(19)
C4 N2 N1 120.5(2)
C6 N3 C7 128.1(2)
C6 N3 H3 115.5
C7 N3 H3 114.5
N1 C1 C2 122.5(2)
N1 C1 S1 118.76(17)
C2 C1 S1 118.76(18)
C3 C2 C1 118.2(2)
C3 C2 C14 120.6(2)
C1 C2 C14 120.9(2)
C2 C3 C4 116.7(2)
C2 C3 C17 120.8(2)
C4 C3 C17 122.5(2)
N2 C4 C3 122.5(2)
N2 C4 C23 113.7(2)
C3 C4 C23 123.8(2)
C6 C5 S1 114.61(17)
C6 C5 H5A 108.6
S1 C5 H5A 108.6
C6 C5 H5B 108.6
S1 C5 H5B 108.6
H5A C5 H5B 107.6
O1 C6 N3 124.7(2)
O1 C6 C5 123.8(2)
N3 C6 C5 111.5(2)
C8 C7 C12 119.7(2)
C8 C7 N3 124.2(2)
C12 C7 N3 116.1(2)
C7 C8 C9 119.2(2)
C7 C8 H8 120.4
C9 C8 H8 120.4
C10 C9 C8 122.0(2)
C10 C9 H9 119.0
C8 C9 H9 119.0
C9 C10 C11 117.5(2)
C9 C10 C13 121.9(3)
C11 C10 C13 120.6(3)
C12 C11 C10 121.6(3)
C12 C11 H11 119.2
C10 C11 H11 119.2
C11 C12 C7 119.9(2)
C11 C12 H12 120.0
C7 C12 H12 120.0
C10 C13 H13A 109.5
C10 C13 H13B 109.5
H13A C13 H13B 109.5
C10 C13 H13C 109.5
H13A C13 H13C 109.5
H13B C13 H13C 109.5
O2 C14 O3_a 125.2(2)
O2 C14 C2 122.2(2)
O3_a C14 C2 112.6(2)
C14 O3_a C15_a 117.0(9)
O3_a C15_a C16_a 112.4(10)
O3_a C15_a H15A_a 109.1
C16_a C15_a H15A_a 109.1
O3_a C15_a H15B_a 109.1
C16_a C15_a H15B_a 109.1
H15A_a C15_a H15B_a 107.9
C15_a C16_a H16A_a 109.5
C15_a C16_a H16B_a 109.5
H16A_a C16_a H16B_a 109.5
C15_a C16_a H16C_a 109.5
H16A_a C16_a H16C_a 109.5
H16B_a C16_a H16C_a 109.5
C16A_b C15A_b H15C_b 110.2
C16A_b C15A_b H15D_b 110.2
H15C_b C15A_b H15D_b 108.5
C15A_b C16A_b H16D_b 109.5
C15A_b C16A_b H16E_b 109.5
H16D_b C16A_b H16E_b 109.5
C15A_b C16A_b H16F_b 109.5
H16D_b C16A_b H16F_b 109.5
H16E_b C16A_b H16F_b 109.5
C18 C17 C22 119.9(2)
C18 C17 C3 121.0(2)
C22 C17 C3 119.1(2)
C17 C18 C19 119.7(3)
C17 C18 H18 120.2
C19 C18 H18 120.2
C20 C19 C18 120.2(3)
C20 C19 H19 119.9
C18 C19 H19 119.9
C21 C20 C19 120.0(3)
C21 C20 H20 120.0
C19 C20 H20 120.0
C20 C21 C22 120.4(3)
C20 C21 H21 119.8
C22 C21 H21 119.8
C17 C22 C21 119.7(3)
C17 C22 H22 120.1
C21 C22 H22 120.1
C28 C23 C24 119.3(2)
C28 C23 C4 119.0(2)
C24 C23 C4 121.7(2)
C25 C24 C23 119.9(2)
C25 C24 H24 120.0
C23 C24 H24 120.0
C26 C25 C24 120.4(3)
C26 C25 H25 119.8
C24 C25 H25 119.8
C27 C26 C25 120.1(3)
C27 C26 H26 120.0
C25 C26 H26 120.0
C26 C27 C28 120.0(3)
C26 C27 H27 120.0
C28 C27 H27 120.0
C23 C28 C27 120.3(3)
C23 C28 H28 119.9
C27 C28 H28 119.9
loop_
_geom_bond_atom_site_label_1
_geom_bond_atom_site_label_2
_geom_bond_distance
S1 C1 1.752(2)
S1 C5 1.789(2)
O1 C6 1.228(3)
O2 C14 1.201(3)
N1 C1 1.332(3)
N1 N2 1.344(3)
N2 C4 1.341(3)
N3 C6 1.354(3)
N3 C7 1.423(3)
N3 H3 0.8702
C1 C2 1.412(3)
C2 C3 1.380(3)
C2 C14 1.497(3)
C3 C4 1.411(3)
C3 C17 1.491(3)
C4 C23 1.484(3)
C5 C6 1.523(3)
C5 H5A 0.9900
C5 H5B 0.9900
C7 C8 1.383(4)
C7 C12 1.395(4)
C8 C9 1.398(4)
C8 H8 0.9500
C9 C10 1.387(4)
C9 H9 0.9500
C10 C11 1.394(4)
C10 C13 1.509(4)
C11 C12 1.382(4)
C11 H11 0.9500
C12 H12 0.9500
C13 H13A 0.9800
C13 H13B 0.9800
C13 H13C 0.9800
C14 O3_a 1.316(3)
O3_a C15_a 1.463(9)
C15_a C16_a 1.481(15)
C15_a H15A_a 0.9900
C15_a H15B_a 0.9900
C16_a H16A_a 0.9800
C16_a H16B_a 0.9800
C16_a H16C_a 0.9800
C15A_b C16A_b 1.49(3)
C15A_b H15C_b 0.9900
C15A_b H15D_b 0.9900
C16A_b H16D_b 0.9800
C16A_b H16E_b 0.9800
C16A_b H16F_b 0.9800
C17 C18 1.382(4)
C17 C22 1.386(4)
C18 C19 1.390(4)
C18 H18 0.9500
C19 C20 1.382(5)
C19 H19 0.9500
C20 C21 1.369(5)
C20 H20 0.9500
C21 C22 1.390(4)
C21 H21 0.9500
C22 H22 0.9500
C23 C28 1.387(4)
C23 C24 1.400(4)
C24 C25 1.384(4)
C24 H24 0.9500
C25 C26 1.381(4)
C25 H25 0.9500
C26 C27 1.380(5)
C26 H26 0.9500
C27 C28 1.392(4)
C27 H27 0.9500
C28 H28 0.9500
loop_
_geom_hbond_atom_site_label_D
_geom_hbond_atom_site_label_H
_geom_hbond_atom_site_label_A
_geom_hbond_site_symmetry_A
_geom_hbond_distance_DH
_geom_hbond_distance_HA
_geom_hbond_distance_DA
_geom_hbond_angle_DHA
_geom_hbond_publ_flag
N3 H3 O1 2_565 0.87 2.21 3.073(3) 174 yes
C5 H5B O2 2_565 0.99 2.36 3.220(4) 144 yes
C11 H11 O2 2_465 0.95 2.43 3.263(4) 146 yes
C20 H20 Cg4 4_554 0.95 2.61 3.495(3) 155 yes
C26 H26 Cg1 4_454 0.95 2.80 3.556(3) 137 yes
C28 H28 Cg2 2_564 0.95 2.66 3.484(3) 146 yes
loop_
_geom_torsion_atom_site_label_1
_geom_torsion_atom_site_label_2
_geom_torsion_atom_site_label_3
_geom_torsion_atom_site_label_4
_geom_torsion
C1 N1 N2 C4 -1.6(3)
N2 N1 C1 C2 -0.5(3)
N2 N1 C1 S1 177.52(16)
C5 S1 C1 N1 2.3(2)
C5 S1 C1 C2 -179.63(18)
N1 C1 C2 C3 2.8(3)
S1 C1 C2 C3 -175.15(17)
N1 C1 C2 C14 177.4(2)
S1 C1 C2 C14 -0.6(3)
C1 C2 C3 C4 -3.0(3)
C14 C2 C3 C4 -177.6(2)
C1 C2 C3 C17 174.9(2)
C14 C2 C3 C17 0.3(3)
N1 N2 C4 C3 1.3(3)
N1 N2 C4 C23 179.63(19)
C2 C3 C4 N2 1.1(3)
C17 C3 C4 N2 -176.7(2)
C2 C3 C4 C23 -177.1(2)
C17 C3 C4 C23 5.1(3)
C1 S1 C5 C6 -67.9(2)
C7 N3 C6 O1 7.3(4)
C7 N3 C6 C5 -174.7(2)
S1 C5 C6 O1 -13.9(3)
S1 C5 C6 N3 168.15(17)
C6 N3 C7 C8 -16.8(4)
C6 N3 C7 C12 162.9(2)
C12 C7 C8 C9 -1.1(4)
N3 C7 C8 C9 178.7(2)
C7 C8 C9 C10 0.6(4)
C8 C9 C10 C11 -0.5(4)
C8 C9 C10 C13 177.3(2)
C9 C10 C11 C12 0.8(4)
C13 C10 C11 C12 -177.0(2)
C10 C11 C12 C7 -1.2(4)
C8 C7 C12 C11 1.4(4)
N3 C7 C12 C11 -178.4(2)
C3 C2 C14 O2 82.4(3)
C1 C2 C14 O2 -92.1(3)
C3 C2 C14 O3_a -95.3(3)
C1 C2 C14 O3_a 90.2(3)
O2 C14 O3_a C15_a -2.0(7)
C2 C14 O3_a C15_a 175.7(6)
C14 O3_a C15_a C16_a 81.2(11)
C2 C3 C17 C18 70.0(3)
C4 C3 C17 C18 -112.2(3)
C2 C3 C17 C22 -109.2(3)
C4 C3 C17 C22 68.6(3)
C22 C17 C18 C19 -1.2(4)
C3 C17 C18 C19 179.7(3)
C17 C18 C19 C20 1.2(4)
C18 C19 C20 C21 -0.1(5)
C19 C20 C21 C22 -1.1(5)
C18 C17 C22 C21 0.0(4)
C3 C17 C22 C21 179.2(2)
C20 C21 C22 C17 1.1(4)
N2 C4 C23 C28 44.8(3)
C3 C4 C23 C28 -136.9(2)
N2 C4 C23 C24 -131.2(2)
C3 C4 C23 C24 47.1(3)
C28 C23 C24 C25 -1.1(4)
C4 C23 C24 C25 174.9(2)
C23 C24 C25 C26 0.8(4)
C24 C25 C26 C27 0.4(4)
C25 C26 C27 C28 -1.2(4)
C24 C23 C28 C27 0.3(4)
C4 C23 C28 C27 -175.9(2)
C26 C27 C28 C23 0.9(4)

_cod_database_fobs_code 1542984
