#------------------------------------------------------------------------------
#$Date: 2016-03-04 10:16:24 +0200 (Fri, 04 Mar 2016) $
#$Revision: 177297 $
#$URL: svn://www.crystallography.net/cod/cif/1/54/26/1542641.cif $
#------------------------------------------------------------------------------
#
# This file is available in the Crystallography Open Database (COD),
# http://www.crystallography.net/
#
# All data on this site have been placed in the public domain by the
# contributors.
#
data_1542641
loop_
_publ_author_name
'Wang, Kai-Kai'
'Jin, Tian'
'Huang, Xin'
'Ouyang, Qin'
'Du, Wei'
'Chen, Ying-Chun'
_publ_section_title
;
 \a-Regioselective Asymmetric [3 + 2] Annulations of Morita-Baylis-Hillman
 Carbonates with Cyclic 1-Azadienes and Mechanism Elucidation.
;
_journal_issue                   4
_journal_name_full               'Organic letters'
_journal_page_first              872
_journal_page_last               875
_journal_paper_doi               10.1021/acs.orglett.6b00189
_journal_volume                  18
_journal_year                    2016
_chemical_formula_moiety         'C26 H21 N O4 S'
_chemical_formula_sum            'C26 H21 N O4 S'
_chemical_formula_weight         443.50
_space_group_crystal_system      monoclinic
_space_group_IT_number           14
_space_group_name_Hall           '-P 2yn'
_space_group_name_H-M_alt        'P 1 21/n 1'
_symmetry_space_group_name_Hall  '-P 2yn'
_symmetry_space_group_name_H-M   'P 1 21/n 1'
_atom_sites_solution_hydrogens   geom
_atom_sites_solution_primary     direct
_audit_creation_date             2015-07-17
_audit_creation_method
;
Olex2 1.2
(compiled 2015.01.26 svn.r3150 for OlexSys, GUI svn.r4998)
;
_cell_angle_alpha                90
_cell_angle_beta                 90.404(2)
_cell_angle_gamma                90
_cell_formula_units_Z            4
_cell_length_a                   15.5173(4)
_cell_length_b                   9.24556(19)
_cell_length_c                   15.6647(5)
_cell_measurement_reflns_used    4785
_cell_measurement_temperature    293
_cell_measurement_theta_max      72.1600
_cell_measurement_theta_min      5.5270
_cell_volume                     2247.30(10)
_computing_cell_refinement
;
CrysAlisPro, Agilent Technologies,
Version 1.171.37.35 (release 13-08-2014 CrysAlis171 .NET)
(compiled Aug 13 2014,18:06:01)
;
_computing_data_collection
;
CrysAlisPro, Agilent Technologies,
Version 1.171.37.35 (release 13-08-2014 CrysAlis171 .NET)
(compiled Aug 13 2014,18:06:01)
;
_computing_data_reduction
;
CrysAlisPro, Agilent Technologies,
Version 1.171.37.35 (release 13-08-2014 CrysAlis171 .NET)
(compiled Aug 13 2014,18:06:01)
;
_computing_molecular_graphics    'Olex2 (Dolomanov et al., 2009)'
_computing_publication_material  'Olex2 (Dolomanov et al., 2009)'
_computing_structure_refinement  'ShelXL (Sheldrick, 2008)'
_computing_structure_solution    'ShelXT (Sheldrick, 2015)'
_diffrn_ambient_temperature      293
_diffrn_detector                 'CCD plate'
_diffrn_detector_area_resol_mean 15.9595
_diffrn_detector_type            EosS2
_diffrn_measured_fraction_theta_full 0.999
_diffrn_measured_fraction_theta_max 0.999
_diffrn_measurement_details
;
  1 omega   23.00   90.00   1.0000    1.4000
omega____ theta____ kappa____ phi______ frames
    -       36.1671 -125.0000   30.0000 67

  2 omega    1.00   75.00   1.0000    1.4000
omega____ theta____ kappa____ phi______ frames
    -       36.1671  -99.0000 -120.0000 74

  3 omega   19.00  103.00   1.0000    1.4000
omega____ theta____ kappa____ phi______ frames
    -       36.1671   57.0000 -120.0000 84

  4 omega   23.00   90.00   1.0000    1.4000
omega____ theta____ kappa____ phi______ frames
    -       36.1671 -125.0000  -30.0000 67

  5 omega   19.00  103.00   1.0000    1.4000
omega____ theta____ kappa____ phi______ frames
    -       36.1671   57.0000 -180.0000 84

  6 omega  -31.00   53.00   1.0000    1.4000
omega____ theta____ kappa____ phi______ frames
    -       36.1671  -57.0000    0.0000 84

  7 omega   38.00   91.00   1.0000   10.0000
omega____ theta____ kappa____ phi______ frames
    -      108.0000  -30.0000 -120.0000 53

  8 omega   38.00   91.00   1.0000   10.0000
omega____ theta____ kappa____ phi______ frames
    -      108.0000  -30.0000  -90.0000 53

  9 omega   40.00   98.00   1.0000   10.0000
omega____ theta____ kappa____ phi______ frames
    -      108.0000  -45.0000   60.0000 58

 10 omega   91.00  176.00   1.0000   10.0000
omega____ theta____ kappa____ phi______ frames
    -      108.0000   45.0000   60.0000 85

 11 omega  100.00  178.00   1.0000   10.0000
omega____ theta____ kappa____ phi______ frames
    -      108.0000  111.0000  -60.0000 78

 12 omega   38.00   91.00   1.0000   10.0000
omega____ theta____ kappa____ phi______ frames
    -      108.0000  -30.0000  -60.0000 53

 13 omega   39.00  109.00   1.0000   10.0000
omega____ theta____ kappa____ phi______ frames
    -      108.0000  -94.0000  120.0000 70

 14 omega   38.00   91.00   1.0000   10.0000
omega____ theta____ kappa____ phi______ frames
    -      108.0000  -30.0000 -150.0000 53

 15 omega   38.00   91.00   1.0000   10.0000
omega____ theta____ kappa____ phi______ frames
    -      108.0000  -30.0000 -180.0000 53

 16 omega   38.00   91.00   1.0000   10.0000
omega____ theta____ kappa____ phi______ frames
    -      108.0000  -30.0000  120.0000 53

 17 omega   87.00  178.00   1.0000   10.0000
omega____ theta____ kappa____ phi______ frames
    -      108.0000   30.0000  120.0000 91

 18 omega  -31.00   10.00   1.0000    1.4000
omega____ theta____ kappa____ phi______ frames
    -       36.1671  -57.0000   90.0000 41

 19 omega   19.00  104.00   1.0000    1.4000
omega____ theta____ kappa____ phi______ frames
    -       36.1671   52.0000   24.0000 85
;
_diffrn_measurement_device       'four-circle diffractometer'
_diffrn_measurement_device_type  'New Gemini, Dual, Cu at zero, EosS2'
_diffrn_measurement_method       '\w scans'
_diffrn_orient_matrix_UB_11      0.0539356000
_diffrn_orient_matrix_UB_12      -0.0707421000
_diffrn_orient_matrix_UB_13      -0.0708859000
_diffrn_orient_matrix_UB_21      -0.0549429000
_diffrn_orient_matrix_UB_22      0.0779200000
_diffrn_orient_matrix_UB_23      -0.0680491000
_diffrn_orient_matrix_UB_31      0.0626509000
_diffrn_orient_matrix_UB_32      0.1293584000
_diffrn_orient_matrix_UB_33      0.0022864000
_diffrn_radiation_monochromator  graphite
_diffrn_radiation_probe          x-ray
_diffrn_radiation_type           CuK\a
_diffrn_radiation_wavelength     1.54184
_diffrn_reflns_av_R_equivalents  0.0284
_diffrn_reflns_av_unetI/netI     0.0221
_diffrn_reflns_laue_measured_fraction_full 0.999
_diffrn_reflns_laue_measured_fraction_max 0.999
_diffrn_reflns_limit_h_max       18
_diffrn_reflns_limit_h_min       -16
_diffrn_reflns_limit_k_max       11
_diffrn_reflns_limit_k_min       -9
_diffrn_reflns_limit_l_max       18
_diffrn_reflns_limit_l_min       -17
_diffrn_reflns_number            12237
_diffrn_reflns_point_group_measured_fraction_full 0.999
_diffrn_reflns_point_group_measured_fraction_max 0.999
_diffrn_reflns_theta_full        67.066
_diffrn_reflns_theta_max         67.066
_diffrn_reflns_theta_min         5.556
_diffrn_source                   'Enhance (Cu) X-ray Source'
_exptl_absorpt_coefficient_mu    1.550
_exptl_absorpt_correction_T_max  1.00000
_exptl_absorpt_correction_T_min  0.58737
_exptl_absorpt_correction_type   multi-scan
_exptl_absorpt_process_details
;
CrysAlisPro, Agilent Technologies,
Version 1.171.37.35 (release 13-08-2014 CrysAlis171 .NET)
(compiled Aug 13 2014,18:06:01)
Empirical absorption correction using spherical harmonics,
 implemented in SCALE3 ABSPACK scaling algorithm.
;
_exptl_crystal_colour            'clear light colourless'
_exptl_crystal_colour_lustre     clear
_exptl_crystal_colour_modifier   light
_exptl_crystal_colour_primary    colourless
_exptl_crystal_density_diffrn    1.311
_exptl_crystal_description
;
;
_exptl_crystal_F_000             928
_exptl_crystal_size_max          0.7
_exptl_crystal_size_mid          0.5
_exptl_crystal_size_min          0.3
_refine_diff_density_max         0.408
_refine_diff_density_min         -0.361
_refine_diff_density_rms         0.049
_refine_ls_extinction_method     none
_refine_ls_goodness_of_fit_ref   1.040
_refine_ls_hydrogen_treatment    constr
_refine_ls_matrix_type           full
_refine_ls_number_parameters     290
_refine_ls_number_reflns         4006
_refine_ls_number_restraints     1
_refine_ls_restrained_S_all      1.041
_refine_ls_R_factor_all          0.0762
_refine_ls_R_factor_gt           0.0696
_refine_ls_shift/su_max          0.001
_refine_ls_shift/su_mean         0.000
_refine_ls_structure_factor_coef Fsqd
_refine_ls_weighting_details
'w=1/[\s^2^(Fo^2^)+(0.1165P)^2^+0.9688P] where P=(Fo^2^+2Fc^2^)/3'
_refine_ls_weighting_scheme      calc
_refine_ls_wR_factor_gt          0.2006
_refine_ls_wR_factor_ref         0.2090
_reflns_Friedel_coverage         0.000
_reflns_number_gt                3439
_reflns_number_total             4006
_reflns_threshold_expression     'I > 2\s(I)'
_cod_data_source_file            ol6b00189_si_003.cif
_cod_data_source_block           7
_cod_database_code               1542641
_shelx_space_group_comment
;
The symmetry employed for this shelxl refinement is uniquely defined
by the following loop, which should always be used as a source of
symmetry information in preference to the above space-group names.
They are only intended as comments.
;
_reflns_odcompleteness_completeness 99.86
_reflns_odcompleteness_iscentric 1
_reflns_odcompleteness_theta     66.97
_olex2_refinement_description
;
1. Fixed Uiso
 At 1.2 times of:
  All C(H) groups
 At 1.5 times of:
  All C(H,H,H) groups
2. Rigid bond restraints
 C00P, C00R
 with sigma for 1-2 distances of 0.01 and sigma for 1-3 distances of 0.01
3.a Ternary CH refined with riding coordinates:
 C005(H005), C007(H007), C008(H008)
3.b Aromatic/amide H refined with riding coordinates:
 C00F(H00F), C00H(H00H), C00I(H00I), C00J(H00J), C00L(H00L), C00M(H00M),
 C00N(H00N), C00O(H00O), C00P(H00P), C00Q(H00Q), C00R(H00R), C00S(H00S),
 C00T(H00T), C00U(H00U), C00V(H00V)
3.c Idealised Me refined as rotating group:
 C00W(H00A,H00B,H00C)
;
_shelx_res_file
;
    cyc-wkk-515-3-2.res created by SHELXL-2014/7

TITL cyc-wkk-515-3-2_a.res in P2(1)/n
REM Old TITL cyc-wkk-515-3-2 in P21/n #14
REM SHELXT solution in P2(1)/n
REM R1 0.221, Rweak 0.211, Alpha 0.049, Orientation as input
REM Formula found by SHELXT: C24 N4 O3 S
CELL 1.54184 15.517332 9.24556 15.664701 90 90.4044 90
ZERR 4 0.000364 0.000191 0.000476 0 0.0023 0
LATT 1
SYMM 0.5-X,0.5+Y,0.5-Z
SFAC C H N O S
UNIT 104 84 4 16 4
DELU C00P C00R

L.S. 10
PLAN  20
TEMP 19.85
BOND $H
LIST 6
MORE -1
CONF
fmap 2
acta
SHEL 999 0.837
REM <olex2.extras>
REM <HklSrc "%.\\cyc-wkk-515-3-2.hkl">
REM </olex2.extras>

WGHT    0.116500    0.968800
FVAR       4.31382
S001  5    0.651362    0.177028    0.486155    11.00000    0.09446    0.05256 =
         0.11054    0.00741    0.00137   -0.01875
N002  3    0.720976    0.314355    0.473955    11.00000    0.06752    0.05419 =
         0.09359    0.00237   -0.00695   -0.00768
O003  4    0.986811    0.791400    0.349504    11.00000    0.06416    0.15025 =
         0.11251    0.04512   -0.00815   -0.04612
O004  4    0.638250    0.153244    0.575243    11.00000    0.14196    0.10031 =
         0.11148    0.04067   -0.00162   -0.02503
C005  1    0.730446    0.559218    0.419038    11.00000    0.04192    0.04662 =
         0.07092   -0.00459   -0.00077   -0.00539
AFIX  13
H005  2    0.695022    0.640183    0.438765    11.00000   -1.20000
AFIX   0
C006  1    0.682611    0.422214    0.439272    11.00000    0.04990    0.05197 =
         0.06436   -0.00398   -0.00069   -0.00853
C007  1    0.820113    0.574394    0.461973    11.00000    0.04255    0.05283 =
         0.07720   -0.00025   -0.00419   -0.00488
AFIX  13
H007  2    0.845861    0.478117    0.468016    11.00000   -1.20000
AFIX   0
C008  1    0.745913    0.581519    0.320496    11.00000    0.05324    0.05404 =
         0.06818   -0.00570    0.00481   -0.00679
AFIX  13
H008  2    0.754785    0.486399    0.294389    11.00000   -1.20000
AFIX   0
O009  4    0.679118    0.058454    0.435815    11.00000    0.13399    0.05427 =
         0.18096   -0.01348    0.01216   -0.01172
O00A  4    0.998228    0.686068    0.473587    11.00000    0.07343    0.21370 =
         0.10822    0.03664   -0.02299   -0.05513
C00B  1    0.868933    0.657815    0.394645    11.00000    0.04281    0.05616 =
         0.07702   -0.00041    0.00530   -0.00474
C00C  1    0.814518    0.643669    0.548969    11.00000    0.04078    0.07274 =
         0.07282    0.00195   -0.00644   -0.01746
C00D  1    0.588946    0.404446    0.419798    11.00000    0.05195    0.06768 =
         0.06542   -0.00261    0.00081   -0.01854
C00E  1    0.676185    0.658514    0.271318    11.00000    0.04994    0.06305 =
         0.07549    0.01127    0.00474   -0.01064
C00F  1    0.830176    0.660835    0.320498    11.00000    0.04791    0.06705 =
         0.07143    0.00097    0.00610   -0.00312
AFIX  43
H00F  2    0.852416    0.707187    0.272790    11.00000   -1.20000
AFIX   0
C00G  1    0.956761    0.714404    0.412249    11.00000    0.04960    0.08895 =
         0.08081    0.00244   -0.00155   -0.01249
C00H  1    0.642549    0.788828    0.299952    11.00000    0.06484    0.06272 =
         0.09910    0.01026    0.00173   -0.00559
AFIX  43
H00H  2    0.663183    0.830948    0.349985    11.00000   -1.20000
AFIX   0
C00I  1    0.797208    0.789189    0.558411    11.00000    0.06041    0.07229 =
         0.08848   -0.01406    0.00228   -0.02160
AFIX  43
H00I  2    0.790723    0.846281    0.509910    11.00000   -1.20000
AFIX   0
C00J  1    0.529918    0.501702    0.386925    11.00000    0.05012    0.09012 =
         0.07933    0.01059   -0.00116   -0.01160
AFIX  43
H00J  2    0.546112    0.595763    0.373426    11.00000   -1.20000
AFIX   0
C00K  1    0.562579    0.266726    0.440095    11.00000    0.07433    0.07127 =
         0.08161   -0.00471    0.00764   -0.03016
C00L  1    0.445956    0.455237    0.374630    11.00000    0.05435    0.13548 =
         0.09400    0.00925   -0.00603   -0.01486
AFIX  43
H00L  2    0.405420    0.520046    0.353152    11.00000   -1.20000
AFIX   0
C00M  1    0.823996    0.563299    0.621841    11.00000    0.07194    0.09994 =
         0.07931    0.00578   -0.00638   -0.01916
AFIX  43
H00M  2    0.835118    0.464748    0.617454    11.00000   -1.20000
AFIX   0
C00N  1    0.645052    0.601765    0.195296    11.00000    0.08188    0.10127 =
         0.07146   -0.00216   -0.00416   -0.00844
AFIX  43
H00N  2    0.666934    0.514525    0.175359    11.00000   -1.20000
AFIX   0
C00O  1    0.789278    0.852169    0.637496    11.00000    0.07199    0.10098 =
         0.10601   -0.03315    0.01252   -0.03403
AFIX  43
H00O  2    0.777064    0.950427    0.641296    11.00000   -1.20000
AFIX   0
C00P  1    0.577730    0.855202    0.252815    11.00000    0.06986    0.07817 =
         0.13993    0.03689    0.01366    0.00634
AFIX  43
H00P  2    0.553905    0.941133    0.272534    11.00000   -1.20000
AFIX   0
C00Q  1    0.817351    0.625838    0.702329    11.00000    0.08493    0.17439 =
         0.07255    0.02198   -0.00311   -0.02748
AFIX  43
H00Q  2    0.825058    0.570037    0.751185    11.00000   -1.20000
AFIX   0
C00R  1    0.548144    0.796942    0.177989    11.00000    0.07174    0.13525 =
         0.11141    0.04797   -0.01422   -0.00541
AFIX  43
H00R  2    0.504632    0.842648    0.147038    11.00000   -1.20000
AFIX   0
C00S  1    0.798808    0.774709    0.709043    11.00000    0.07628    0.15035 =
         0.08755   -0.03508    0.00626   -0.04225
AFIX  43
H00S  2    0.793307    0.818224    0.762253    11.00000   -1.20000
AFIX   0
C00T  1    0.478790    0.220362    0.427056    11.00000    0.08753    0.09990 =
         0.11252   -0.00549    0.00792   -0.05231
AFIX  43
H00T  2    0.462045    0.126675    0.440794    11.00000   -1.20000
AFIX   0
C00U  1    0.420913    0.318292    0.392890    11.00000    0.05999    0.14293 =
         0.11322   -0.00219   -0.00428   -0.04248
AFIX  43
H00U  2    0.364307    0.290089    0.382321    11.00000   -1.20000
AFIX   0
C00V  1    0.583128    0.671303    0.149362    11.00000    0.09554    0.14385 =
         0.09079    0.01154   -0.02170    0.00160
AFIX  43
H00V  2    0.564424    0.632497    0.097687    11.00000   -1.20000
AFIX   0
C00W  1    1.070912    0.856150    0.361961    11.00000    0.07386    0.16050 =
         0.16944    0.04472   -0.00237   -0.05608
AFIX 137
H00A  2    1.109464    0.821639    0.318843    11.00000   -1.50000
H00B  2    1.092918    0.830292    0.417321    11.00000   -1.50000
H00C  2    1.066121    0.959456    0.357981    11.00000   -1.50000
AFIX   0
HKLF 4

REM  cyc-wkk-515-3-2_a.res in P2(1)/n
REM R1 =  0.0696 for    3439 Fo > 4sig(Fo)  and  0.0762 for all    4006 data
REM    290 parameters refined using      1 restraints

END

WGHT      0.1170      0.9686

REM Highest difference peak  0.408,  deepest hole -0.361,  1-sigma level  0.049
Q1    1   0.8910  0.7343  0.2399  11.00000  0.05    0.41
Q2    1   0.9631  0.7997  0.4748  11.00000  0.05    0.33
Q3    1   0.8737  0.6206  0.4521  11.00000  0.05    0.30
Q4    1   0.8153  0.5443  0.5172  11.00000  0.05    0.24
Q5    1   0.6932  0.2449  0.4835  11.00000  0.05    0.23
Q6    1   0.7158  0.6593  0.3044  11.00000  0.05    0.22
Q7    1   0.6997  0.1194  0.4895  11.00000  0.05    0.22
Q8    1   0.9054  0.7059  0.3053  11.00000  0.05    0.22
Q9    1   0.6802  0.8123  0.3415  11.00000  0.05    0.21
Q10   1   0.7613  0.5613  0.4561  11.00000  0.05    0.20
Q11   1   0.9589  0.8380  0.3958  11.00000  0.05    0.20
Q12   1   0.5899  0.3263  0.4072  11.00000  0.05    0.19
Q13   1   0.7745  0.5893  0.3588  11.00000  0.05    0.18
Q14   1   0.5642  0.4237  0.3736  11.00000  0.05    0.18
Q15   1   0.7024  0.4926  0.4339  11.00000  0.05    0.17
Q16   1   0.7035  0.3873  0.4843  11.00000  0.05    0.17
Q17   1   0.6932  0.6213  0.2171  11.00000  0.05    0.17
Q18   1   0.6490  0.0638  0.4724  11.00000  0.05    0.17
Q19   1   0.7211  0.0024  0.4367  11.00000  0.05    0.16
Q20   1   0.7154  0.3559  0.4278  11.00000  0.05    0.16
;
_shelx_res_checksum              51842
_shelx_hkl_file
;
   0   0  -3 482.449 65.1088   6
   0   0  -4 30669.9 605.437   3
   0   0  -4 33363.0 604.555   6
   0   0  -5 172.513 52.4296   3
   0   0  -5 198.921 57.4332   6
   0   0  -6 5874.77 312.781   3
   0   0   6 5731.10 358.914  19
   0   0  -6 6213.61 323.517   6
   0   0  -7 435.968 95.1268   3
   0   0   7 287.797 77.2468  19
   0   0  -7 457.639 99.7707   6
   0   0   8 17429.3 739.882  19
   0   0  -8 18767.7 648.156   3
   0   0   9-10.4468 68.2365  19
   0   0  -9 1.58263 53.1912   6
   0   0  -9 22.8799 47.2155   3
   0   0 -10 579.026 128.211   3
   0   0 -11-3.12156 45.9920   3
   0   0 -12 312.503 121.985   3
   0   0 -13 26.0762 20.4721  12
   0   0  13 109.932 29.5636  16
   0   0  14 175.907 47.2472  10
   0   0 -14 162.936 42.1824  12
   0   0  14 140.764 38.0250  16
   0   0  15 24.8121 19.8692  16
   0   0 -15 10.8688 17.6849  12
   0   0  15-16.9589 26.8274  10
   0   0  16 371.805 53.5022  10
   0   0  17 0.08288 16.0793  10
   0   0  18 61.2543 19.2717  10
   0   0  18 50.7666 19.2709  15
   0   1   0 260.957 28.4492   2
   0   1   1 121922. 653.063  19
   0  -1   1 119691. 662.726  19
   0   1   1 121286. 736.793   4
   0   1   2 31618.2 473.714  19
   0  -1   2 32375.8 488.824  19
   0   1   2 31048.8 364.285   4
   0   1  -2 30440.7 379.651   1
   0   1   3 10790.9 228.834   4
   0   1  -3 10965.7 240.174   1
   0   1   3 12154.5 361.965  19
   0   1  -3 11839.9 337.312   3
   0  -1   3 11950.1 372.250  19
   0  -1   4 72804.9 1072.19  19
   0   1  -4 71815.8 947.943   3
   0   1  -4 73544.4 987.449   6
   0   1  -4 67821.5 630.366   1
   0  -1  -4 71474.5 819.901   6
   0   1   4 70111.2 1039.67  19
   0  -1  -4 68889.6 868.685   5
   0  -1  -5 24353.6 601.202   3
   0   1  -5 21145.9 369.060   1
   0   1  -5 25051.0 649.106   6
   0   1   5 21239.6 391.975   4
   0  -1  -5 24360.7 554.910   6
   0   1  -5 24233.2 619.304   3
   0  -1   5 25049.3 689.476  19
   0   1   5 26301.0 691.817  19
   0  -1  -5 22997.0 571.864   5
   0   1  -6 32433.3 813.975   6
   0   1  -6 32677.0 783.134   3
   0  -1  -6 32277.1 747.430   5
   0   1   6 33055.3 862.265  19
   0  -1  -6 33595.1 765.022   3
   0  -1   6 32650.7 867.137  19
   0  -1  -6 35190.5 733.998   6
   0   1   7 9105.81 497.697  19
   0  -1  -7 8841.80 398.136   6
   0   1  -7 9045.30 445.519   3
   0   1  -7 9022.08 469.045   6
   0  -1   7 9237.93 507.254  19
   0  -1  -7 9085.19 433.111   5
   0  -1  -7 8949.67 430.261   3
   0  -1  -8 8724.90 455.393   5
   0  -1  -8 7884.47 406.501   6
   0   1   8 7451.60 485.571  19
   0  -1   8 7604.05 505.323  19
   0   1  -8 8459.00 464.750   3
   0  -1  -8 7742.47 426.542   3
   0   1  -8 8096.96 478.743   6
   0   1  -9 560.556 140.465   6
   0  -1  -9 611.958 130.690   3
   0   1  -9 683.026 144.336   3
   0  -1   9 397.967 97.7587  19
   0   1   9 340.837 81.1740  19
   0  -1 -10 1661.27 223.071   3
   0   1 -10 1329.39 225.784   6
   0   1 -10 1479.43 224.272   3
   0  -1 -11 92.1017 78.8260   3
   0   1 -11 94.3011 70.5896   3
   0   1 -12 161.481 35.3119  12
   0   1 -12 13.9337 34.2471   3
   0  -1 -12 150.230 82.1026   3
   0   1 -13 2200.52 127.828  12
   0   1  13 2248.48 117.544  16
   0  -1  13 1899.72 105.570  16
   0   1  14 1787.20 106.264  16
   0   1 -14 1696.15 113.194  12
   0  -1  14 1430.88 92.5092  16
   0  -1  14 1516.30 111.885  10
   0   1  15 493.198 56.7946  16
   0  -1  15 443.537 63.8277  10
   0   1 -15 489.725 59.5888  12
   0   1  16 556.134 56.9719  16
   0  -1  16 499.884 64.1543  10
   0  -1  17 239.255 39.0703  10
   0  -1  18 5.52368 15.1592  10
   0   2   0 366342. 1496.45   2
   0   2  -1 159.857 30.5089   2
   0   2   1 88.4676 31.3020   2
   0  -2   2 4473.00 183.212  19
   0   2  -2 4552.72 217.595   1
   0   2   2 4492.24 175.380  19
   0   2   2 4524.01 209.401   4
   0   2  -3 538.320 90.9204  18
   0   2  -3 365.239 63.0926   1
   0  -2   3 480.463 73.0619  19
   0   2   3 529.710 73.2614   4
   0  -2  -3 593.271 82.4928   5
   0   2   3 486.694 75.8242  19
   0   2   4 52762.9 894.858  19
   0  -2  -4 52955.7 815.033   5
   0   2   4 49721.1 674.777   4
   0  -2   4 54407.6 942.717  19
   0   2  -4 49589.8 724.832   1
   0   2  -4 51465.7 954.461   6
   0  -2   5 194.676 63.1635  19
   0  -2  -5 324.571 70.5413   5
   0   2   5 198.558 60.3848  19
   0   2  -5 95.2850 40.3771   6
   0  -2  -5 311.333 77.9937   3
   0   2  -5 147.209 42.4462   1
   0   2   5 203.712 42.0063   4
   0   2  -5 164.708 59.5038   3
   0   2  -6 16770.2 650.108   6
   0   2   6 17576.4 639.594  19
   0  -2   6 17415.8 657.218  19
   0  -2  -6 16491.9 511.564   6
   0  -2  -6 16618.6 562.636   5
   0   2  -6 17090.5 650.484   3
   0  -2  -6 16561.0 592.110   3
   0  -2  -7 17238.1 646.773   3
   0  -2  -7 17378.0 634.808   5
   0   2  -7 16961.6 716.881   6
   0  -2   7 18251.4 741.795  19
   0  -2  -7 16917.6 570.392   6
   0   2   7 16475.0 677.178  19
   0   2  -7 16502.3 692.180   3
   0  -2   8 660.117 162.280  19
   0  -2  -8 553.999 126.275   3
   0  -2  -8 462.942 111.154   5
   0   2  -8 756.409 158.247   3
   0   2   8 950.826 172.922  19
   0   2  -8 500.366 140.889   6
   0   2  -9 541.903 151.767   6
   0  -2  -9 404.040 119.154   5
   0   2  -9 498.500 140.643   3
   0  -2  -9 421.680 119.068   3
   0   2 -10 276.038 119.686   3
   0   2 -10 79.7020 74.2587   6
   0  -2 -10 293.172 116.027   3
   0   2 -11 2069.88 318.531   6
   0   2 -11 2241.84 308.504   3
   0  -2 -11 2120.08 283.276   3
   0   2  12 1050.73 78.8442  16
   0   2 -12 1106.73 89.0491  12
   0  -2  13 3302.17 161.125  10
   0   2 -13 3028.93 149.352  12
   0   2  13 3213.26 141.024  16
   0   2  14 556.774 63.1758  16
   0  -2  14 534.683 70.2311  10
   0   2 -14 538.524 63.8549  12
   0  -2  15 111.477 39.2770  10
   0   2  15 121.857 33.9748  16
   0  -2  16 373.947 54.7943  10
   0   2  16 415.318 49.2781  16
   0  -2  17 14.9157 16.9420  10
   0   2  17-32.2346 21.1013  16
   0  -2  18 9.26068 13.5847  10
   0   3   0 50.6376 29.7752   2
   0  -3  -1 38292.2 755.561   5
   0   3   1 39462.8 686.190   2
   0   3  -1 37945.1 535.156   2
   0  -3  -2 5061.21 273.209   5
   0   3   2 5139.57 275.874   2
   0   3  -2 5482.96 316.635  18
   0  -3  -3 2792.81 202.928   5
   0   3  -3 2752.79 232.475   6
   0   3  -3 3058.75 248.378  18
   0   3  -4 2630.37 243.805   6
   0   3  -4 3097.43 265.792  18
   0  -3  -4 2690.65 207.282   5
   0   3   4 3157.41 271.219   2
   0   3  -5 2019.73 235.298  18
   0   3  -5 2053.40 233.941   6
   0  -3  -5 2107.82 198.441   5
   0   3  -6 7437.59 489.422  18
   0   3  -6 7406.35 482.571   6
   0  -3  -6 8464.27 426.334   5
   0  -3  -6 8004.01 448.831   3
   0  -3  -7 31443.3 911.439   5
   0   3  -7 29690.1 1038.02   6
   0  -3  -7 30618.8 948.659   3
   0   3  -8 1523.73 256.738   6
   0  -3  -8 1747.34 240.585   3
   0  -3  -8 1763.12 237.975   5
   0   3  -8 1909.30 298.697  18
   0   3  -9 1173.28 237.424   6
   0   3  -9 942.617 223.589  18
   0  -3  -9 1225.60 212.875   3
   0  -3  -9 1115.95 200.291   5
   0   3  10 215.347 121.430   2
   0   3 -10 230.907 129.526  18
   0  -3 -10 110.214 74.3631   3
   0  -3 -10 215.582 94.2149   5
   0   3 -10 233.188 129.950   6
   0  -3 -11 103.676 88.3692   5
   0  -3 -11 49.8570 42.2685   3
   0   3  11-114.720 106.555   2
   0   3  11-14.2311 21.8589  16
   0   3 -11-82.7230 58.8251   6
   0   3 -11-5.13802 22.1162  18
   0   3 -11 11.7925 15.7256  12
   0   3 -12-20.8464 23.1252  12
   0   3  12 18.7666 21.4952  16
   0   3 -13 1325.77 96.8451  12
   0   3  13 1378.69 92.9861  16
   0  -3  13 1355.78 106.570  10
   0   3  14 320.774 49.6320  16
   0  -3  14 235.207 52.7609  10
   0  -3  15 1826.61 118.384  10
   0   3  15 1939.57 106.396  16
   0   3  16 486.527 50.4608  16
   0  -3  16 395.639 53.1749  10
   0   3  17 25.9195 15.6942  16
   0  -3  17 40.1167 17.6932  10
   0  -3  18 8.69059 15.2799  10
   0   4   0 46411.4 768.631   2
   0   4   1 725.876 111.176   2
   0   4  -1 821.080 95.3574   2
   0  -4  -1 838.085 135.954   5
   0  -4  -2 30.5310 26.7592   5
   0   4   2 82.9585 40.2772   2
   0  -4  -3 83.8224 50.6644   5
   0   4   3 160.849 62.3819   2
   0   4  -3 45.1168 44.1227  18
   0  -4  -4 3718.21 275.658   5
   0   4   4 3551.98 308.910   2
   0   4  -4 3680.02 335.762  18
   0   4   5 405.503 120.710   2
   0   4  -5 199.960 82.6355  18
   0  -4  -5 333.529 90.0203   5
   0  -4  -6 44.3342 40.1745   3
   0   4  -6-15.7524 61.3542  18
   0  -4  -6 28.9827 35.5974   5
   0  -4  -7 2029.51 250.977   5
   0  -4  -7 2173.19 280.861   3
   0   4   7 1520.07 284.624   2
   0   4  -7 1722.44 285.687  18
   0   4  -7 2160.45 306.379   6
   0  -4  -8 6.34332 44.6251   3
   0   4  -8 32.2066 56.8698   6
   0  -4  -8 42.6863 30.9568   5
   0   4  -8-11.7241 86.5485  18
   0   4   8-11.6194 103.077   2
   0   4   9 2301.42 399.554   2
   0  -4  -9 2525.70 328.684   5
   0   4  -9 2228.49 368.025  18
   0  -4  -9 2571.23 331.842   3
   0   4 -10 23.3899 26.6603  12
   0  -4  10 60.6556 35.9336  10
   0   4  10 36.7342 18.8363  16
   0   4 -10 250.966 124.350  18
   0  -4 -10-4.36681 67.9084   3
   0  -4 -10 163.190 96.3128   5
   0   4  10 125.825 104.651   2
   0   4 -11 538.544 63.2610  12
   0   4  11 691.793 67.0596  16
   0  -4  11 564.008 74.4905  10
   0   4  12 29.8519 20.6803  16
   0  -4  12 32.9394 25.0974  10
   0   4  13 4.57471 20.6526  16
   0  -4  13 54.1609 25.5497  10
   0  -4  14 41.1295 24.0149  10
   0   4  14 88.3518 29.3295  16
   0   4  15 171.280 34.1316  16
   0  -4  15 143.173 37.8024  10
   0   4  16 83.8919 22.5163  16
   0  -4  16 44.0525 22.4472  10
   0  -4  17 101.692 25.9669  10
   0   4  17 65.9463 19.4842  16
   0  -4  18 141.586 23.9768  10
   0  -5   0 46.6551 48.7085   5
   0  -5  -1 14101.5 641.882   5
   0  -5  -2 9716.81 527.303   5
   0  -5  -3 1678.87 210.080   5
   0   5   3 1491.70 197.988   2
   0   5   4 2989.55 300.618   2
   0  -5  -4 2868.43 273.873   5
   0   5  -4 2804.83 332.802  18
   0   5  -5 3164.69 371.777  18
   0  -5  -5 3470.88 308.853   5
   0   5   5 2943.22 325.698   2
   0  -5  -6 654.392 162.655   3
   0   5  -6 361.289 144.840  18
   0   5   6 429.299 154.584   2
   0  -5  -6 435.158 119.115   5
   0  -5  -7 247.264 99.9787   5
   0   5  -7 112.022 87.7413  18
   0  -5  -7 233.301 102.892   3
   0   5   7 250.223 120.961   2
   0   5   8 4602.47 544.238   2
   0  -5  -8 5494.40 507.167   3
   0   5  -8 4909.83 554.612  18
   0  -5  -8 5145.54 452.788   5
   0  -5  -9 1610.87 269.172   5
   0   5  -9 1685.61 335.664  18
   0   5   9 1517.41 328.224   2
   0   5   9 1853.19 110.395  16
   0  -5   9 1486.68 121.679  10
   0   5   9 1757.52 116.372  11
   0   5  10 961.221 87.3283  11
   0   5  10 1074.84 85.5602  16
   0  -5  10 785.277 90.3264  10
   0   5  11 54.9629 31.4928  16
   0   5  11 58.9276 25.3512  11
   0  -5  11 85.3081 39.3982  10
   0  -5  12 1581.22 119.120  10
   0   5  12 1796.69 105.884  16
   0   5  13 927.526 74.8590  16
   0  -5  13 846.765 83.1518  10
   0  -5  14 353.289 52.5418  10
   0   5  14 405.321 50.3137  16
   0   5  15 573.098 52.1058  16
   0  -5  15 468.413 55.9046  10
   0   5  16 301.423 34.7027  16
   0  -5  16 415.020 45.9219  10
   0   5  17 24.0658 12.8331  16
   0  -5  17 9.12157 11.9110  10
   0  -6   0 15002.7 771.363   5
   0  -6   1 98.3409 63.9237   5
   0  -6  -1 129.610 89.4903   5
   0  -6  -2 1914.00 262.931   5
   0  -6  -3 6225.02 459.180   5
   0  -6  -4 4019.34 378.839   5
   0  -6  -5 14168.6 700.781   5
   0  -6  -6 5869.26 472.508   5
   0   6  -6 5789.09 582.382  18
   0  -6  -6 6293.38 538.136   3
   0   6  -7-30.4436 60.0600  18
   0  -6  -7 71.8561 35.5734   5
   0   6   7 85.3260 29.6979   9
   0   6   7-5.80135 26.9788  11
   0   6   8 12927.7 317.866  11
   0   6   8 14272.5 289.656   9
   0   6   9 623.183 73.2025  11
   0   6   9 698.506 71.7030  16
   0   6  10 733.325 77.7103  11
   0   6  10 918.038 80.0542  16
   0   6  11 828.716 77.8185  11
   0   6  11 1006.41 81.0276  16
   0   6  12 27.5218 21.6166  16
   0  -6  12 21.5885 24.9732  10
   0   6  12 37.6549 22.5226  11
   0   6  13 48.6768 24.2962  16
   0  -6  13 20.8999 23.2352  10
   0   6  14 128.103 28.5656  16
   0  -6  14 108.745 27.0184  10
   0  -6  15 98.6267 24.1735  10
   0   6  15 196.611 29.5689  16
   0   6  16 40.2629 13.6846  16
   0  -7   0 4.47580 39.4633   5
   0  -7  -1 1300.06 252.697   5
   0   7  -1 951.451 75.1955  13
   0  -7   1 1227.53 246.761   5
   0   7   2 183.581 34.5850  13
   0  -7  -2 180.374 104.909   5
   0  -7   2 193.650 95.3456   5
   0   7   3 647.995 61.6481  13
   0   7   3 664.892 58.1603   9
   0   7   3 543.889 58.3459  11
   0  -7  -3 576.214 158.470   5
   0   7   4 178.103 33.5235  11
   0   7   4 139.830 27.8712  13
   0   7   4 212.403 34.0435   9
   0   7   5 842.655 79.9823  11
   0   7   5 965.689 74.5831   9
   0   7   5 792.937 68.0772  13
   0   7   6 560.746 59.9703   9
   0   7   6 462.820 52.1448  13
   0   7   6 466.599 59.1423  11
   0   7   7 320.533 51.4937  11
   0   7   7 452.028 60.1703   9
   0   7   8 5010.66 196.713  11
   0   7   8 5400.81 190.540  16
   0   7   9 589.754 68.4417  11
   0   7   9 579.623 63.7221  16
   0   7  10 2341.26 118.636  16
   0   7  10 2394.69 127.931  11
   0   7  11-1.66277 19.2590  11
   0   7  11 35.3255 22.7501  16
   0   7  12 361.267 44.8510  11
   0   7  12 381.673 45.4073  16
   0   7  13 103.913 19.0187  11
   0   7  13 201.187 30.0029  16
   0   7  14 36.3028 15.7824  16
   0  -7  15 5.65892 9.24327  17
   0   7  15-6.08795 8.94473  16
   0   8   0 16819.4 303.901   9
   0   8   0 16989.2 324.183  13
   0   8   1 268.541 41.3780  13
   0   8  -1 286.671 42.3096  13
   0   8  -1 256.858 38.6620   9
   0   8   1 323.538 47.6488  11
   0   8   1 292.069 39.3288   9
   0   8  -2 7616.34 224.365  13
   0   8   2 8165.52 218.851  13
   0   8   2 8022.01 209.512   9
   0   8  -2 7716.16 211.865   9
   0   8   2 7705.88 216.781  11
   0   8   3 16.9116 22.2943  13
   0   8   3 134.694 39.2754  11
   0   8  -3 48.3793 30.8820   9
   0   8   3 107.619 28.5319   9
   0   8  -3 3.97634 35.4520  13
   0   8  -4 1351.01 98.5729  13
   0   8  -4 1290.62 89.9559   9
   0   8   4 1307.14 85.9337  13
   0   8   4 1506.10 93.2072   9
   0   8   4 1416.08 100.606  11
   0   8   5-15.4469 23.6706  13
   0   8   5-14.4868 23.5042  11
   0   8   5 12.0925 20.4817   9
   0   8   6 1923.88 107.245   9
   0   8   6 1710.72 114.843  11
   0   8   6 1620.38 95.3797  13
   0   8   7 156.507 36.9500   9
   0   8   7 101.451 37.1337  11
   0   8   8 14.9044 16.1419  16
   0   8   8 41.0348 30.0149  11
   0   8   9 148.778 31.0095  16
   0   8   9 111.677 32.8605  11
   0   8  10 212.553 34.3284  16
   0   8  10 260.967 41.9497  11
   0   8  11 30.5607 15.7497  16
   0  -8  11 32.2092 16.7471  17
   0   8  11 45.3553 17.2203  11
   0   8 -11 26.8156 15.9814  13
   0  -8  12 124.801 25.7675  17
   0   8  12 152.224 25.3015  16
   0   8 -12 145.582 23.8408  13
   0   8  12 145.325 26.9173  11
   0  -8  13 15.3362 11.7927  17
   0   8  13 24.2348 11.5890  16
   0   8  13 20.7864 11.5722  11
   0   9   0-5.17499 18.8791  13
   0   9   0 8.36996 19.7788   9
   0   9  -1 423.972 50.6968  13
   0   9  -1 467.575 51.7383   9
   0   9   1 437.379 48.6356   9
   0   9   1 409.473 50.7957  13
   0   9   2 46.3630 17.4470   9
   0   9   2 8.04582 28.0392  13
   0   9  -2 83.6216 26.8898   9
   0   9   2 32.3356 20.1160  11
   0   9  -2 34.9046 22.2453  13
   0   9   3 2545.80 121.723  11
   0   9   3 2464.08 114.270  13
   0   9  -3 2478.31 117.962   9
   0   9   3 2584.37 117.346   9
   0   9  -3 2427.60 125.292  13
   0   9   4 715.507 68.7458  11
   0   9   4 661.731 60.3618  13
   0   9  -4 679.380 64.6941   9
   0   9   4 862.138 70.6860   9
   0   9  -4 729.513 71.2126  13
   0   9   5 16.2009 18.0080   9
   0   9   5 25.8291 16.7316  13
   0   9  -5-14.0845 31.0761  13
   0   9   5 52.9757 27.5783  11
   0   9  -5 4.42440 20.3772   9
   0   9   6 100.544 26.5441  13
   0   9   6 149.428 31.7040   9
   0   9  -6 103.757 26.8123  13
   0   9   6 136.296 36.3460  11
   0   9  -6 119.852 28.2293   9
   0   9  -7 1230.62 88.2020  13
   0   9   7 1215.88 87.3487  11
   0   9  -7 1070.67 81.2080   9
   0   9  -8 26.8152 18.1785  13
   0   9   8 3.64671 22.9383  11
   0   9  -8 14.6846 17.6283   9
   0   9  -9-5.77361 15.6879   9
   0   9  -9 2.12365 16.2632  13
   0   9   9-40.9183 27.3817  11
   0   9  10-17.0171 18.0361  11
   0   9 -10-6.73990 11.0777  13
   0   9 -10 9.16844 13.1924   9
   0   9 -11 38.9094 13.3101  13
   0   9  11 93.8524 20.1889  11
   0   9 -11 64.9096 16.7273   9
   0  10   0 243.824 39.5690   9
   0  10   0 286.800 40.5229  13
   0  10   1 503.653 49.2731   9
   0  10  -1 491.733 48.4796   9
   0  10  -1 605.494 56.9397  13
   0  10   1 503.727 49.7181  13
   0  10  -2-30.9592 21.9476   9
   0  10   2 0.53276 17.1113   9
   0  10  -2 22.9177 25.6539  13
   0  10   2 8.96169 18.0823  13
   0  10  -3 17.5963 17.2838  13
   0  10   3 9.33910 14.3753  13
   0  10  -3 10.2380 15.5720   9
   0  10   3 5.26567 17.1218   9
   0  10   3-18.8760 15.1487  11
   0  10   4 2.54995 17.2867  11
   0  10   4 55.4588 20.3133   9
   0  10   4 73.6268 21.7861  13
   0  10  -4 59.3169 23.5126  13
   0  10  -4 45.7655 18.3001   9
   0  10  -5 121.335 25.8448   9
   0  10   5 134.003 26.0018  13
   0  10   5 94.7234 22.9332  11
   0  10  -5 161.706 32.8552  13
   0  10   5 156.012 29.9343   9
   0  10   6 595.380 54.5460  11
   0  10  -6 578.587 49.8542   9
   0  10  -6 638.558 56.8696  13
   0  10   7 868.480 61.2903  11
   0  10  -7 851.099 59.9125  13
   0  10  -8 34.9161 16.5373  13
   0  10   8 9.61248 14.6700  11
   0  10  -8 6.23718 10.6572   9
   0  10   9 63.2952 16.2893  11
   0  10  -9 85.9492 17.0465  13
   0  11   0-7.78297 15.8567  13
   0  11  -1 47.4969 16.6292  13
   0  11   1 62.4895 17.6024  13
   0  11  -2 22.8991 12.9398  13
   0  11   2 43.2784 14.2806  13
   0  11   3 357.444 30.8101  13
   0  11  -3 386.792 38.1132  13
   0  11  -4-5.88818 14.5092  13
   0  11  -5 127.041 20.5059  13
  -1   0  18-5.86209 15.1064  10
  -1   0  17 2.03579 16.3112  10
   1   0 -16-5.21966 18.4549  12
  -1   0  16-10.6641 21.8060  10
   1   0 -15 94.7086 26.6036  12
  -1   0  15 98.5820 25.9145  16
  -1   0  15 79.0279 31.1948  10
  -1   0  14 15.9999 18.0943  16
   1   0 -14 36.6607 24.2836  12
   1   0 -13 2733.55 143.638  12
  -1   0  13 2464.70 121.849  16
   1   0 -12 121.184 67.7056   3
   1   0 -11 87.9318 62.4996   3
  -1   0  11 118.298 81.7287  19
   1   0 -10 75.3301 40.4814   3
   1   0 -10 54.2585 41.8694   6
   1   0  -9 9294.58 513.538   6
   1   0  -9 9291.04 472.444   3
  -1   0   9 9473.11 585.410  19
   1   0  -8 87.1727 50.6366   3
  -1   0   8 111.220 85.3945  19
   1   0  -8 201.612 72.1309   6
   1   0  -7 190563. 1849.04   3
   1   0  -7 189153. 1980.88   6
  -1   0   7 184778. 2211.49  19
  -1   0   6 110.907 60.7990  19
   1   0  -6 222.279 66.5482   3
  -1   0   5 252871. 2114.81  19
   1   0  -5 254920. 1951.00   5
   1   0  -5 256096. 1975.21   6
   1   0  -5 258755. 1841.58   3
   1   0  -4 560.669 80.0331   3
   1   0  -4 1178.69 122.487   6
   1   0  -3 126000. 995.840   3
   1   0  -2 556.524 53.4936   3
  -1   0  -2 246.749 29.8592   6
  -1   0  -3 215936. 1155.15   6
  -1   0  -4 316.965 54.3566   6
   1   0   5 263.282 69.9982  19
  -1   0  -5 322.248 76.7645   3
  -1   0  -6 80.8160 36.1758   3
  -1   0  -6 51.4407 32.3641   6
   1   0   6 2.63117 57.6415  19
  -1   0  -7 2913.12 237.160   6
  -1   0  -7 2816.47 242.254   3
  -1   0  -8 339.855 90.5789   6
  -1   0  -8 381.714 99.1265   3
  -1   0  -9 3294.28 301.285   3
  -1   0 -10 67.8956 55.8890   3
  -1   0 -11 546.176 135.827   3
   1   0  12-13.8800 22.6732  10
  -1   0 -12 41.7807 47.4646   3
   1   0  12-12.2086 17.3185  16
   1   0  13 12876.9 280.157  16
  -1   0 -13 12337.0 301.778  12
   1   0  13 13329.3 322.905  10
   1   0  14 4.20067 24.4360  10
   1   0  14 46.0918 22.3161  16
  -1   0 -14 15.7759 17.1869  12
   1   0  15 1433.80 93.5266  16
   1   0  15 1348.16 104.208  10
   1   0  16-33.7474 26.7531  10
   1   0  17 1178.68 78.2133  10
   1   0  18 38.0537 18.3441  15
  -1  -1  18 26.0341 14.3756  10
  -1  -1  17-15.5751 16.4808  10
  -1  -1  16 175.266 41.3134  10
  -1   1  16 189.905 35.4536  16
   1   1 -15 575.657 65.8273  12
  -1   1  15 532.324 58.5310  16
  -1  -1  15 533.697 68.8627  10
  -1   1  14-13.3048 30.0752  10
   1   1 -14 42.6687 26.7920  12
  -1   1  14 15.0771 20.7223  16
   1   1 -13 6132.88 212.782  12
  -1   1  13 5796.46 189.465  16
  -1   1  12 128.780 30.8511  16
   1  -1 -12 84.5846 77.5728   3
   1   1 -12 98.3165 30.1898  12
   1   1 -11 2929.34 357.394   6
   1   1 -11 2821.13 326.674   3
   1  -1 -11 2877.25 310.819   3
  -1  -1  10 4748.67 457.064  19
   1   1 -10 4722.60 423.345   6
   1   1 -10 4747.65 392.074   3
   1  -1 -10 4625.39 365.346   3
  -1   1  10 4860.46 461.328  19
  -1   1   9 2386.50 299.709  19
   1   1  -9 2574.30 291.830   6
   1  -1  -9 2439.90 250.727   3
   1  -1  -9 2432.31 250.360   6
   1   1  -9 2566.51 269.049   3
  -1  -1   9 2446.57 298.193  19
   1  -1  -8 4194.73 320.132   5
   1  -1  -8 4103.83 303.759   3
   1   1  -8 4291.24 323.967   3
   1  -1  -8 4054.99 303.118   6
  -1   1   8 3964.11 357.274  19
   1   1  -8 4345.73 353.224   6
  -1  -1   8 4209.48 376.744  19
   1   1  -7 30787.7 869.453   6
   1  -1  -7 29248.2 755.783   3
  -1   1   7 29937.9 916.731  19
   1  -1  -7 30347.0 772.267   6
   1  -1  -7 29763.2 785.602   5
  -1  -1   7 30380.5 926.797  19
   1   1  -7 31248.2 802.940   3
  -1  -1   6 4430.71 317.456  19
   1  -1  -6 4187.89 263.089   3
   1   1  -6 3800.53 208.717   1
  -1   1   6 4036.89 307.745  19
   1   1  -6 4321.21 276.933   3
   1  -1  -6 3792.53 258.566   5
   1   1  -6 4070.30 295.156   6
   1  -1  -6 4304.97 272.978   6
  -1  -1   5 13373.5 501.615  19
   1  -1  -5 13490.7 430.145   6
   1   1  -5 12779.5 365.340   1
  -1   1   5 14108.4 508.901  19
   1   1  -5 13795.3 498.007   6
   1  -1  -5 13440.2 435.421   3
   1  -1  -5 12329.9 426.362   5
   1   1  -5 13744.1 447.918   3
   1  -1  -4 209830. 1529.79   3
   1   1  -4 206211. 1742.22   6
   1   1  -4 203180. 1518.10   3
   1   1  -4 199546. 1347.87   1
  -1  -1   4 199319. 1763.83  19
  -1   1   4 206135. 1768.03  19
   1   1  -3 954185. 2852.08   3
  -1  -1   3 952410. 3316.41  19
   1   1  -3 961451. 2757.20   1
   1   1  -2 70477.9 684.641   1
   1   1  -2 69564.1 650.615   3
  -1   1   2 68230.9 750.708  19
  -1  -1   2 68750.7 743.776  19
  -1  -1   1 1453.58 85.3271  19
  -1   1   1 1493.09 85.6139  19
   1   1   0 1335.69 78.1001   6
  -1  -1  -1 222.197 34.0432   5
  -1   1  -2 3661.98 174.013   6
   1   1   2 3578.50 153.481   4
  -1  -1  -2 3567.76 137.749   5
   1   1   3 10461.2 279.448   4
  -1   1  -3 11036.9 335.552   6
  -1  -1  -3 10187.1 281.530   5
  -1   1  -4 40544.7 721.706   6
  -1  -1  -4 38140.4 643.884   5
   1   1   4 40505.8 769.310  19
  -1  -1  -4 39784.5 570.038   6
   1  -1   4 41106.9 789.949  19
  -1   1  -5 5135.83 295.476   3
   1   1   5 4839.10 298.989  19
  -1  -1  -5 5140.18 289.102   3
  -1   1  -5 7082.22 339.009   6
  -1  -1  -5 7229.67 278.520   6
  -1  -1  -5 4875.98 264.835   5
   1  -1   5 5304.96 319.365  19
  -1  -1  -6 2224.64 208.489   3
  -1   1  -6 2219.02 212.662   3
  -1  -1  -6 2242.75 173.611   6
  -1  -1  -6 2327.79 201.688   5
  -1   1  -6 2341.44 216.913   6
  -1  -1  -7 17252.8 530.344   6
  -1   1  -7 18351.9 660.369   6
  -1  -1  -7 18005.2 629.409   3
  -1  -1  -7 17796.4 600.668   5
  -1   1  -7 17741.7 647.508   3
  -1  -1  -8 2069.72 226.043   3
  -1   1  -8 1974.33 232.560   3
  -1   1  -8 1941.00 237.909   6
  -1  -1  -9 4304.38 347.080   3
  -1   1  -9 4741.90 384.609   3
  -1   1  -9 4396.87 375.145   6
  -1   1 -10 5668.52 446.250   3
  -1  -1 -10 5358.91 416.313   3
  -1  -1 -11 493.588 136.423   3
  -1   1 -11 1251.83 225.161   3
  -1  -1 -12 739.169 170.586   3
  -1   1 -12 844.258 78.1124  12
   1  -1  12 801.769 81.0472  10
   1   1  12 1022.56 265.436   2
  -1   1 -12 936.442 208.351   3
   1  -1  12 724.649 64.5637  16
   1   1  12 936.332 74.3958  16
   1   1  13 65.8143 20.6984  16
   1  -1  13 8.93792 21.5393  16
  -1   1 -13 17.4473 21.5187  12
   1  -1  14 1380.22 105.374  10
  -1   1 -14 1256.12 97.7138  12
   1   1  14 1344.49 93.1818  16
   1  -1  15 65.3133 29.4192  10
   1   1  15 72.2468 26.7947  16
   1   1  16 38.7301 23.1753  16
   1  -1  16 9.33907 21.8827  10
   1  -1  17 74.1662 22.7037  15
   1  -1  17 46.5124 23.2901  10
   1  -1  18 20.8719 17.9243  10
  -1  -2  18-20.9271 16.0105  10
  -1  -2  17 3.34269 17.0619  10
  -1   2  17-30.3449 16.0444  16
  -1   2  16 35.1612 21.4813  16
  -1  -2  16-13.3773 20.2545  10
   1   2 -15 60.6880 24.6858  12
  -1   2  15 81.7842 29.4920  16
  -1  -2  15 78.4762 29.5254  10
  -1  -2  14 284.902 50.9406  10
  -1   2  14 342.542 49.7807  16
   1   2 -14 264.977 45.8716  12
   1   2 -13 1325.21 97.4938  12
  -1   2  13 1405.27 94.8450  16
   1   2 -12 36.3170 18.9299  12
  -1   2  12 11.4373 26.0108  16
   1  -2 -11 2485.85 300.874   3
   1   2 -11 2505.39 348.754   6
   1   2 -10 11277.8 668.141   3
  -1   2  10 11039.1 705.007  19
  -1  -2  10 11036.9 705.563  19
   1  -2 -10 11172.9 614.138   3
   1  -2 -10 12335.7 655.363   5
   1   2 -10 10895.5 694.537   6
  -1  -2   9 6764.56 515.816  19
   1  -2  -9 6792.46 455.650   3
   1  -2  -9 6685.91 457.180   5
   1   2  -9 6193.82 474.299   3
  -1   2   9 6104.45 491.430  19
   1   2  -9 6190.31 498.116   6
   1  -2  -8 322.022 90.2929   6
  -1   2   8 109.597 55.2331  19
  -1  -2   8 23.7169 89.7793  19
   1  -2  -8 381.376 106.316   3
   1  -2  -8 285.936 90.9191   5
   1   2  -8 292.301 100.510   3
   1   2  -8 292.552 102.939   6
   1  -2  -7 4051.15 292.844   6
   1   2  -7 4084.14 361.991   6
  -1  -2   7 3870.49 341.262  19
   1  -2  -7 4314.43 319.507   5
   1  -2  -7 3909.38 302.471   3
  -1   2   7 3980.72 338.597  19
   1   2  -7 4190.39 341.579   3
   1   2  -6 102.491 53.7841   3
   1   2  -6 333.905 70.7379   1
  -1  -2   6 197.396 68.0447  19
   1   2  -6 186.146 79.8527   6
  -1   2   6 303.978 88.4380  19
   1  -2  -6 202.850 64.7675   5
   1  -2  -6 162.459 63.6426   3
   1  -2  -5 42236.3 824.233   5
   1   2  -5 42854.5 973.096   6
   1   2  -5 40851.2 765.093   1
   1  -2  -5 45982.8 880.455   3
   1   2  -5 43055.0 911.726   3
  -1  -2   5 45230.3 960.784  19
  -1   2   5 44772.1 932.631  19
   1   2  -4 13590.4 427.506   1
  -1  -2   4 14170.3 487.543  19
   1   2  -4 14438.1 517.066   6
  -1   2   4 13568.9 462.434  19
   1  -2  -4 14807.6 438.419   5
  -1  -2   3 174295. 1495.78  19
   1   2  -3 174671. 1459.09   1
  -1   2   3 171312. 1426.83  19
  -1   2   2 10822.1 298.622  19
   1   2  -2 11964.2 376.914  18
   1   2  -2 10896.8 347.757   1
  -1  -2   2 11426.3 320.450  19
   1   2  -1 6444.35 264.451  18
  -1   2   1 5809.35 168.937  19
  -1  -2   1 5867.12 173.566  19
   1   2  -1 6217.00 213.337   2
  -1  -2   0 350375. 1044.56  19
  -1   2   0 348788. 1013.75  19
   1   2   1 27713.5 528.459   2
   1   2   1 29132.2 575.156   4
   1   2   2 56098.6 799.833   4
   1   2   2 57842.7 864.762   2
  -1  -2  -3 10705.3 329.304   5
   1   2   3 10879.0 360.924   4
   1   2   3 11604.1 434.037   2
  -1   2  -3 10338.3 389.447   6
   1   2   4 14619.5 431.153   4
  -1   2  -4 14495.9 503.069   6
  -1  -2  -4 14670.5 474.533   3
  -1  -2  -4 15268.8 430.860   5
  -1   2  -4 14683.7 509.330   3
  -1  -2  -5 4624.48 266.290   5
   1   2   5 4370.50 244.709   4
  -1   2  -5 5067.58 326.472   6
  -1   2  -5 4721.73 321.402   3
  -1   2  -6 1052.32 158.968   6
  -1  -2  -6 901.136 143.415   3
  -1   2  -6 575.586 121.787   3
  -1  -2  -6 578.615 108.272   5
  -1  -2  -6 741.262 103.555   6
   1   2   6 560.201 91.9435   4
  -1   2  -7 8772.42 520.107   3
  -1   2  -7 8898.59 512.159   6
  -1  -2  -7 10121.3 505.568   3
  -1  -2  -7 8582.63 446.616   5
  -1   2  -8 10116.1 595.407   3
  -1   2  -8 10131.0 588.999   6
  -1  -2  -8 11072.2 565.405   3
  -1  -2  -8 10210.9 518.967   5
  -1  -2  -9 14775.0 693.289   3
  -1  -2  -9 14795.5 666.058   5
  -1   2  -9 13286.2 712.822   6
  -1   2  -9 14063.3 742.598   3
  -1   2 -10 720.889 180.862   3
  -1   2 -10 484.720 144.853   6
  -1  -2 -10 665.268 157.153   3
  -1   2 -11 3741.71 417.457   3
   1   2  11 3683.08 506.932   2
  -1  -2 -11 4085.30 397.027   3
   1  -2  12 177.602 43.6654  10
   1   2  12 247.331 41.7263  16
  -1   2 -12 213.476 38.8921  12
  -1   2 -13 924.293 82.5645  12
   1   2  13 983.053 79.2877  16
   1  -2  13 1055.43 95.1519  10
   1  -2  14 798.380 83.7451  10
   1   2  14 758.794 70.6264  16
   1   2  15 297.665 44.8666  16
   1  -2  15 345.007 55.2563  10
   1  -2  16-14.7160 25.7505  10
   1   2  16 8.10227 17.9931  16
   1  -2  17 149.033 34.3635  10
   1   2  17 131.172 26.6554  16
   1  -2  18 5.26479 14.1477  10
  -1  -3  18 70.7736 22.0326  10
  -1  -3  17 42.0130 22.7667  10
  -1   3  17 50.8453 20.1211  16
  -1  -3  16 48.1960 21.6760  10
  -1   3  16 57.3586 23.8990  16
  -1   3  15 344.140 47.5910  16
  -1  -3  15 280.917 49.8475  10
  -1  -3  14 472.151 67.1331  10
   1   3 -14 484.907 57.8705  12
  -1   3  13 90.7192 28.9926  16
  -1  -3  13 51.8120 31.4244  10
   1   3 -13 60.2525 22.5206  12
  -1   3  12 33.2721 22.8485  16
   1   3 -12-5.06601 26.5962  12
   1  -3 -11 39.8317 45.4452   3
   1  -3 -11-42.6873 64.0005   5
   1   3 -11 10.8393 61.9500   6
  -1   3  11 7.82418 17.8223  16
   1   3 -11 4.25518 20.2945  12
   1   3 -10 1790.16 306.501   6
   1  -3 -10 1900.63 275.112   3
   1   3 -10 1623.15 300.339  18
   1  -3 -10 1877.71 273.706   5
   1   3  -9 1118.97 229.108   6
   1  -3  -9 1154.67 205.030   5
   1  -3  -9 1275.28 215.553   3
   1   3  -9 1243.68 247.453  18
   1  -3  -8 2157.33 261.383   5
   1   3  -8 1926.05 284.265   6
  -1   3   8 1878.17 269.475  19
  -1  -3   8 1881.57 272.430  19
   1   3  -8 1977.12 294.114  18
   1  -3  -8 1988.15 254.117   3
  -1   3   7 17143.5 737.659  19
   1   3  -7 17659.8 813.419   6
   1  -3  -7 19185.6 742.463   3
   1   3  -7 17840.1 812.257  18
  -1  -3   7 18869.2 784.112  19
   1  -3  -7 19245.3 710.752   5
  -1   3   6 3300.41 293.946  19
   1   3  -6 3697.18 345.801   6
   1   3  -6 3393.05 325.965  18
   1  -3  -6 3311.70 285.897   3
   1  -3  -6 3575.87 281.039   5
  -1  -3   6 3346.20 308.348  19
   1   3  -5 5143.80 318.455   1
  -1   3   5 5557.09 350.935  19
  -1  -3   5 5573.10 360.356  19
   1  -3  -5 5649.08 327.220   5
   1   3  -5 5589.92 390.142   6
   1   3  -5 5607.77 381.284  18
   1   3  -4 24644.5 748.518   6
   1  -3  -4 25358.6 633.630   5
  -1  -3   4 27087.7 702.139  19
   1   3  -4 26968.7 777.671  18
   1   3  -4 24745.6 684.416   1
  -1   3   4 25128.9 652.833  19
   1   3  -3 116.910 47.6577  18
   1   3  -3 98.7604 46.0719   6
   1   3  -3 113.456 48.1171   1
   1  -3  -3 158.160 54.7999   5
  -1  -3   3 128.733 46.1172  19
  -1   3   3 106.395 40.9836  19
   1  -3  -2 86669.4 1142.11   5
  -1   3   2 93912.0 1152.73   2
  -1   3   2 82521.2 791.318  19
   1   3  -2 90331.3 1248.46   6
   1   3  -2 90763.8 1250.19   1
   1   3  -2 97424.4 1326.24  18
  -1  -3   2 84430.7 837.892  19
   1   3  -1 12148.9 450.262   1
   1   3  -1 12062.7 347.539   2
   1  -3  -1 11798.8 417.207   5
  -1   3   1 12290.6 357.262   2
  -1   3   0 73671.0 724.474   2
   1   3   0 78712.4 942.050   2
   1   3   1 979.721 117.939   2
  -1   3  -1 1013.65 67.5935   2
  -1   3  -1 1003.30 134.848  18
   1   3   2 911.788 124.630   2
  -1  -3  -2 984.431 121.827   5
   1   3   2 1087.35 137.434   4
  -1   3  -2 923.757 132.413  18
   1   3   3 470.294 100.966   2
  -1   3  -3 412.097 92.3588  18
  -1  -3  -3 481.024 85.4122   5
   1   3   3 311.006 78.1522   4
  -1   3  -4 9435.45 470.778  18
   1   3   4 9785.93 484.619   2
   1   3   4 9024.23 402.871   4
  -1  -3  -4 9705.04 388.427   5
  -1  -3  -5 182.134 58.9110   3
  -1  -3  -5 125.742 53.1460   5
   1   3   5 96.2502 46.2158   2
   1   3   5 159.075 63.0670   4
  -1   3  -5 107.578 55.0390   6
  -1   3  -6 157.873 87.2294  18
  -1   3  -6 186.027 84.6981   6
   1   3   6 90.2865 71.5752   2
  -1  -3  -6 380.360 109.437   3
  -1  -3  -6 130.441 58.8555   5
  -1   3  -7 19501.8 828.227   6
   1   3   7 21102.0 956.239   2
  -1   3  -7 18926.9 863.104  18
  -1  -3  -7 21171.9 796.059   3
  -1  -3  -7 20758.0 732.284   5
  -1   3  -8 1388.86 260.124  18
  -1  -3  -8 1618.49 227.775   5
  -1  -3  -8 1582.03 233.508   3
  -1   3  -8 1362.89 233.548   6
   1   3   8 1414.26 272.587   2
  -1   3  -9 224.639 103.873  18
   1   3   9-17.5966 74.0361   2
  -1  -3  -9 144.141 74.9365   5
  -1  -3  -9 15.7563 74.3978   3
  -1   3  -9-27.8491 95.0185   6
  -1  -3 -10 9368.74 603.596   5
  -1  -3 -10 9236.31 620.792   3
  -1   3 -10 8375.93 641.931   6
   1   3  10 9383.28 786.489   2
  -1   3 -10 8611.14 688.096  18
  -1   3 -11 30.2600 16.1356  12
  -1  -3 -11 38.3603 51.5297   3
   1  -3  11 45.3251 32.9702  10
   1   3  11 33.1556 245.281   2
   1   3  11 35.2932 16.7644  16
   1   3  12 1295.85 89.1047  16
   1  -3  12 1114.48 101.725  10
   1  -3  13 852.050 86.8193  10
   1   3  13 907.704 75.8188  16
   1  -3  14 485.372 66.4636  10
   1   3  14 485.984 55.7685  16
   1  -3  15 589.095 67.9341  10
   1   3  15 546.141 56.6867  16
   1  -3  16 646.118 67.0080  10
   1   3  16 623.905 56.7045  16
   1  -3  17-13.8200 18.1666  10
   1   3  17-14.4454 18.1514  16
   1  -3  18 101.826 22.8578  10
  -1  -4  18 375.378 35.6149  10
  -1  -4  17 41.1649 18.9327  10
  -1   4  17 15.5648 12.9244  16
  -1  -4  16 10.6141 18.3304  10
  -1   4  16 31.0390 18.0002  16
  -1  -4  15 92.3365 33.8089  10
  -1   4  15 167.565 33.2312  16
  -1  -4  14 305.561 54.0335  10
  -1   4  14 460.497 53.5061  16
  -1   4  13 138.655 32.4701  16
  -1  -4  13 191.191 45.4573  10
   1   4 -12 213.558 38.0806  12
  -1  -4  12 227.809 47.5380  10
  -1   4  12 216.482 40.0535  16
  -1   4  11 86.5082 28.8683  16
   1   4 -11 49.8275 23.0913  12
   1  -4 -10 2614.72 341.145   3
  -1   4  10 2697.31 130.159  16
   1  -4 -10 2313.46 323.076   5
   1   4 -10 2354.35 128.911  12
  -1   4  10 2915.14 474.272   2
   1   4 -10 2262.09 364.983   6
   1   4 -10 1792.85 329.448  18
  -1   4   9 150.470 125.109   2
   1  -4  -9 143.993 91.4524   3
   1   4  -9 118.475 88.3867   6
   1  -4  -9 117.386 86.5622   5
   1   4  -9 60.1697 60.6456  18
   1   4  -8 13812.9 831.240   6
   1  -4  -8 14034.1 706.596   5
  -1   4   8 14862.6 951.301   2
   1   4  -8 12805.3 822.147  18
   1  -4  -8 15062.4 753.526   3
  -1   4   7 108.772 83.4211   2
   1  -4  -7 84.6142 54.6806   5
   1   4  -7 10.4347 48.8994  18
   1  -4  -7 16.3320 46.3792   3
   1   4  -7 87.9320 98.7325   6
   1  -4  -6 1339.04 188.406   5
   1   4  -6 1044.15 202.255   6
  -1   4   6 1082.76 222.427   2
   1  -4  -6 1093.69 181.420   3
   1   4  -6 1110.33 208.786  18
   1   4  -5 420.934 116.753  18
  -1   4   5 351.039 118.540   2
   1   4  -5 396.039 115.965   6
   1  -4  -5 367.068 94.9815   5
   1   4  -4 155.035 65.1668   6
   1  -4  -4 169.767 56.3985   5
  -1   4   3 13241.2 529.940   2
   1   4  -3 14013.2 611.158  18
   1  -4  -3 12700.0 505.243   5
   1  -4  -2 140.666 50.5373   5
  -1   4   2 56.6201 31.5175   2
   1  -4  -1 13025.5 526.615   5
   1   4  -1 13660.3 429.731   2
  -1   4   1 12442.0 413.456   2
   1   4   0 9216.41 375.351   2
   1   4   1 127.684 52.5515   2
  -1  -4  -1 113.118 58.2256   5
  -1   4  -2 6845.25 419.928  18
   1   4   2 6908.25 373.409   2
  -1  -4  -2 6994.60 379.517   5
  -1  -4  -3 87.9511 49.1374   5
  -1   4  -3 180.764 71.5797  18
   1   4   3 66.2183 50.3151   2
   1   4   4 10134.9 521.281   2
  -1   4  -4 10370.5 565.435  18
  -1  -4  -4 11018.9 471.008   5
   1   4   5 1976.63 253.325   2
  -1   4  -5 1875.57 256.627  18
  -1  -4  -5 2154.23 219.332   5
  -1  -4  -6 991.601 182.175   3
   1   4   6 777.642 178.403   2
  -1  -4  -6 809.416 147.796   5
  -1   4  -6 798.254 183.890  18
  -1   4  -7 32.3874 48.4660  18
   1   4   7 45.6383 71.5479   2
  -1  -4  -7 27.3198 60.0108   3
  -1  -4  -7 5.73501 45.3702   5
  -1   4  -8 815.208 207.382  18
  -1  -4  -8 874.676 192.711   3
   1   4   8 792.243 233.614   2
  -1  -4  -8 979.964 189.162   5
  -1  -4  -9 367.663 128.973   3
  -1  -4  -9 449.027 140.753   5
   1   4   9 315.176 145.263   2
  -1   4  -9 481.689 186.205  18
  -1   4 -10 306.068 140.489  18
   1   4  10 113.840 145.677   2
  -1  -4 -10 216.495 106.992   3
  -1  -4 -10 142.038 75.9146   5
   1   4  10 152.382 34.2374  16
   1  -4  10 120.606 35.9519  10
   1  -4  11 850.998 91.4889  10
   1   4  11 1006.11 80.0819  16
   1  -4  12 2502.07 151.417  10
   1   4  12 2850.67 130.981  16
   1   4  13 4630.63 165.768  16
   1  -4  13 4314.08 190.126  10
   1   4  14 206.674 40.2587  16
   1  -4  14 197.733 48.5273  10
   1  -4  15 131.744 35.3062  10
   1   4  15 182.508 35.7312  16
   1  -4  16 7.65201 17.8136  10
   1   4  16-3.66871 15.1856  16
   1  -4  17 4.17214 16.6520  10
   1   4  17-22.4204 20.3359  16
   1  -4  18 44.7288 15.2889  10
  -1   5  17 160.192 23.6241  16
  -1  -5  17 202.609 27.9401  10
  -1   5  16 42.4874 18.7516  16
  -1  -5  16 37.5183 19.9666  10
  -1   5  15 81.8208 25.0315  16
  -1  -5  15 16.9084 18.8136  10
  -1   5  14 43.5580 23.2016  16
  -1  -5  14 21.3392 21.6780  10
  -1   5  13 1293.34 86.2737  16
  -1  -5  13 1048.63 91.6972  10
  -1   5  12 802.746 75.5595  11
  -1   5  12 947.789 78.0114  16
  -1  -5  12 787.545 86.8496  10
  -1  -5  11 6223.17 236.427  10
  -1   5  11 6622.97 220.784  11
  -1  -5  10 2580.90 155.792  10
  -1   5  10 2847.65 150.349  11
  -1   5  10 3041.91 141.865  16
   1   5  -9 1437.90 316.493  18
  -1  -5   9 1226.72 112.973  10
  -1   5   9 1428.36 109.484  11
  -1   5   9 1080.82 304.143   2
   1  -5  -8 3393.36 364.858   5
  -1   5   8 2696.30 415.291   2
   1   5  -8 2881.04 419.140  18
   1  -5  -8 3493.43 390.461   3
   1  -5  -7 3720.65 384.326   3
  -1   5   7 2855.02 395.241   2
   1  -5  -7 3629.88 350.994   5
   1   5  -7 3231.68 420.129  18
  -1   5   6 229.182 106.055   2
   1   5  -6 289.008 114.967  18
   1  -5  -6 271.000 93.6600   5
   1  -5  -5 1410.27 198.161   5
   1   5  -5 1541.37 263.461  18
  -1   5   5 1323.03 218.225   2
   1   5  -4 2410.65 303.630  18
   1  -5  -4 2569.03 259.975   5
   1  -5  -3 1311.00 189.206   5
   1  -5  -2 3422.61 310.719   5
   1  -5  -1 312.691 104.258   5
   1  -5   0 6810.05 461.248   5
  -1  -5  -1 13847.0 641.372   5
   1   5   1 12966.2 528.300   2
  -1  -5  -2 3384.93 308.421   5
   1   5   2 3030.01 270.613   2
  -1   5  -3 11033.5 628.250  18
  -1  -5  -3 11050.0 544.111   5
   1   5   3 9477.82 514.999   2
  -1  -5  -4 8050.09 458.570   5
   1   5   4 7730.93 499.146   2
  -1   5  -4 8284.77 571.212  18
   1   5   5 10437.7 628.577   2
  -1   5  -5 11455.3 711.160  18
  -1  -5  -5 11787.9 572.136   5
  -1  -5  -6 18.5554 46.1091   3
  -1   5  -6-18.2825 78.7288  18
   1   5   6-53.9681 64.8271   2
  -1  -5  -6 85.6136 57.6226   5
  -1   5  -7 1060.16 238.177  18
  -1  -5  -7 1213.52 207.346   5
   1   5   7 1123.48 244.586   2
  -1  -5  -7 1163.79 229.404   3
  -1  -5  -8 91.4595 68.3691   3
  -1  -5  -8 125.921 97.7090   5
   1   5   9 277.324 45.3694  16
   1  -5   9 164.871 44.6311  10
   1   5   9 195.522 41.6606  11
  -1  -5  -9 270.096 122.453   5
   1   5  10 1956.45 112.810  16
   1  -5  10 1660.43 126.797  10
   1   5  10 1705.30 112.567  11
   1   5  11 597.080 63.0462  16
   1  -5  11 505.878 71.1798  10
   1   5  11 429.680 57.2905  11
   1  -5  12 1296.24 108.446  10
   1   5  12 1360.58 91.6718  16
   1   5  13 288.695 45.1202  16
   1  -5  13 218.861 46.1190  10
   1   5  14 258.530 40.7961  16
   1  -5  14 186.950 41.6356  10
   1  -5  15 38.7644 22.2860  10
   1   5  15 22.5201 16.3759  16
   1  -5  16 19.0973 18.4625  10
   1   5  16 20.8776 16.8110  16
   1   5  17 84.6422 17.0560  16
   1  -5  17 86.5581 19.7137  10
  -1   6  16 5.54240 10.2423  16
  -1  -6  15 235.949 32.2090  10
  -1   6  15 281.941 34.7929  16
  -1  -6  14 141.018 31.7976  10
  -1   6  14 210.219 34.2908  16
  -1   6  13 824.218 65.7831  16
  -1  -6  13 666.312 67.4295  10
  -1   6  13 737.789 61.5414  11
  -1   6  12 569.021 61.7409  11
  -1  -6  12 553.656 65.0956  10
  -1   6  12 632.479 61.5723  16
  -1   6  11 1612.88 100.837  16
  -1   6  11 1499.16 103.802  11
  -1   6  10-4.22552 24.1972  16
  -1   6  10-37.5613 36.0849  11
  -1   6   9 101.062 29.1675  11
  -1   6   9 156.255 32.7091  16
  -1   6   8 4099.79 182.040  11
  -1   6   8 4554.05 165.424   9
   1   6  -7 1863.99 346.812  18
  -1   6   7 2116.48 132.322  11
  -1   6   7 2490.46 117.779   9
   1  -6  -6 147.069 88.8727   5
  -1   6   6 203.380 44.0903  11
   1  -6  -5 4073.82 380.085   5
   1  -6  -4 976.070 184.261   5
   1  -6  -3 14290.7 695.344   5
   1  -6  -2 2740.37 314.505   5
   1  -6  -1 204.351 97.1371   5
  -1  -6   0 181.940 72.9964   5
   1  -6   0 493.182 148.467   5
  -1  -6  -1 101.032 40.9018   5
   1  -6   1 66.5331 56.6663   5
  -1  -6  -2 1659.12 250.735   5
  -1  -6  -3 1694.01 240.152   5
  -1  -6  -4 336.589 106.920   5
  -1  -6  -5 592.408 147.522   5
  -1   6  -5 481.373 164.345  18
  -1   6  -6 263.688 123.147  18
  -1  -6  -6 132.335 91.1850   5
  -1  -6  -6 247.218 139.267   3
   1   6   6 79.3782 21.7615  11
  -1  -6  -7 653.116 162.199   5
   1   6   7 522.064 55.7468  13
   1   6   7 524.349 63.1587  11
   1   6   7 605.694 60.8437   9
   1   6   8 1900.30 110.267   9
   1   6   8 1910.55 113.929  16
   1   6   8 1711.24 114.393  11
   1   6   8 1645.81 97.1291  13
   1   6   9 10628.5 261.358  16
   1   6   9 10043.9 273.001  11
   1   6  10 477.982 63.0233  11
   1   6  10 502.197 61.0785  16
   1   6  11 3649.36 148.400  16
   1   6  11 3603.58 155.269  11
   1  -6  11 3230.03 164.831  10
   1   6  12 622.101 61.9025  11
   1   6  12 810.556 69.7634  16
   1  -6  12 638.323 72.1390  10
   1   6  13 541.677 53.9099  16
   1  -6  13 404.453 53.5540  10
   1   6  14 35.8527 18.6776  16
   1  -6  14 10.6403 19.4502  10
   1  -6  15 19.2848 13.5565  10
   1   6  15 78.0993 21.3454  16
   1   6  16 24.0027 13.1638  16
  -1   7  15 0.02370 9.09365  16
  -1   7  14 27.4861 15.9946  16
  -1   7  13 170.565 28.9120  11
  -1   7  13 189.312 32.1396  16
  -1   7  12 42.9748 21.0130  11
  -1   7  12 48.8857 23.0205  16
  -1   7  11 1559.38 99.2792  11
  -1   7  11 1620.80 94.0132  16
  -1   7  10 30.3206 26.4253  11
  -1   7  10 14.4007 21.3806  16
  -1   7   9 2357.40 122.712  16
  -1   7   9 2193.88 131.882  11
  -1   7   8 2417.03 124.173   9
  -1   7   8 2155.73 131.251  11
  -1   7   7 4042.12 181.060  11
  -1   7   7 4466.92 165.342   9
  -1   7   6 4468.59 159.250   9
  -1   7   6 4232.15 185.150  11
  -1   7   5 3017.14 128.252  13
  -1   7   5 3221.03 161.097  11
  -1   7   4 1418.51 88.6839  13
  -1   7   4 1322.26 100.750  11
  -1   7   4 1492.16 88.1286   9
  -1   7   3 6986.61 197.641  13
  -1   7   3 7556.41 196.414   9
  -1   7   3 7549.91 227.630  11
   1   7  -2-10.1363 25.6348  13
  -1   7   2-7.90065 18.7110   9
   1  -7  -2 40.9409 60.4967   5
  -1   7   2-15.3671 17.7506  13
  -1  -7   2 56.5478 46.9087   5
   1   7  -1 3506.21 144.115  13
  -1  -7   1 3788.57 437.155   5
   1  -7  -1 4458.85 453.359   5
  -1  -7   0 37.7556 52.2089   5
   1   7   0 5.97540 22.2188  13
   1   7   1 2815.41 126.055  13
   1  -7   1 3344.29 406.591   5
  -1  -7  -1 2949.50 370.468   5
   1   7   2 187.675 35.0336  13
  -1  -7  -2 223.481 113.572   5
   1   7   2 140.486 29.7902  11
   1  -7   2 111.023 96.5926   5
   1   7   3 5553.85 167.269   9
   1   7   3 5852.41 192.411  11
  -1  -7  -3 5804.08 504.342   5
   1   7   3 5815.76 180.249  13
   1   7   4 3853.74 147.275  13
   1   7   4 3835.87 162.334  11
   1   7   4 3801.53 141.394   9
   1   7   5 4152.44 152.256   9
   1   7   5 4303.74 175.502  11
   1   7   5 4018.03 149.570  13
   1   7   6 1679.96 101.694   9
   1   7   6 1626.75 111.365  11
   1   7   6 1658.22 96.8404  13
   1   7   7 817.308 72.0184  13
   1   7   7 634.925 70.8337  11
   1   7   7 792.761 73.8078   9
   1   7   8 184.095 42.6731  11
   1   7   8 190.681 37.4965  13
   1   7   8 275.003 48.3683  16
   1   7   8 281.372 52.7742   9
   1   7   9 69.4085 26.9027  16
   1   7   9 17.9910 25.6810  11
   1   7  10 1273.28 92.3216  11
   1   7  10 1386.33 91.8614  16
   1   7  11 623.986 59.6550  16
   1   7  11 608.782 61.1244  11
   1   7  12-26.7092 22.9695  11
   1   7  12 0.07452 17.6391  16
   1   7  13-3.08753 16.5157  11
   1   7  13 36.5291 18.0981  16
   1   7  14 3.21600 13.4590  16
   1  -7  15 11.9680 10.4534  17
   1   7  15 9.30325 10.0565  16
  -1   8  13-3.33479 9.10303  16
  -1   8  13-10.7276 11.0043  11
  -1   8  12-23.0424 15.7261  16
  -1  -8  12-6.94697 10.1612  17
  -1   8  12-45.6639 19.8976  11
   1   8 -11-0.74222 13.2752  13
  -1   8  11 18.4839 14.8564  16
  -1   8  11 22.2458 19.3997  11
  -1   8  10 72.1631 22.7296  16
  -1   8  10 79.3033 26.0352  11
   1   8 -10 56.8599 20.8261  13
  -1   8   9 5.52146 19.3264  16
  -1   8   9-1.37611 27.2383  11
   1   8  -9-16.6910 24.6134  13
  -1   8   8 474.096 60.6640  11
  -1   8   8 550.547 59.3448   9
  -1   8   8 464.881 55.3736  16
  -1   8   7 1333.19 101.723  11
  -1   8   7 1375.46 92.5406   9
  -1   8   6 296.364 50.4170  11
   1   8  -6 299.904 45.3623  13
  -1   8   6 357.570 49.8434   9
  -1   8   5 684.665 74.4227  11
  -1   8   5 720.226 66.5846   9
  -1   8   5 669.174 62.3088  13
   1   8  -5 777.420 76.0663  13
   1   8  -4 1590.62 106.977  13
  -1   8   4 1605.40 96.4745   9
  -1   8   4 1435.89 90.4842  13
   1   8  -4 1341.75 90.8548   9
  -1   8   4 1508.06 105.428  11
  -1   8   3 454.031 52.2790  13
   1   8  -3 490.734 51.9075   9
  -1   8   3 430.695 50.0193   9
  -1   8   3 514.054 57.5693  11
   1   8  -3 402.974 49.6023  13
  -1   8   2 2019.70 114.207  11
  -1   8   2 2088.20 108.405   9
   1   8  -2 1960.85 112.831  13
  -1   8   2 2088.90 111.930  13
   1   8  -2 2074.22 109.112   9
   1   8  -1 40.0816 28.7478  13
  -1   8   1 101.857 22.9777   9
  -1   8   1 33.2395 22.6018  13
   1   8   0 6613.91 191.371   9
  -1   8   0 6746.64 204.449  13
  -1   8   0 6803.94 193.716   9
   1   8   0 6383.86 199.397  13
   1   8   1 3386.72 138.105  11
   1   8   1 3494.89 145.134  13
   1   8   1 3479.94 137.946   9
  -1   8  -1 3692.55 144.211   9
  -1   8  -1 3329.63 145.871  13
   1   8   2 1197.05 86.4981  11
   1   8   2 1332.57 85.3178   9
   1   8   2 1190.85 85.8995  13
  -1   8  -2 1301.72 86.2382   9
  -1   8  -2 1154.65 86.0582  13
   1   8   3 7339.57 206.648  13
   1   8   3 7104.98 198.083   9
  -1   8  -3 7082.64 205.553   9
   1   8   3 7780.37 221.442  11
   1   8   4 48.5491 30.8445  11
   1   8   4-57.2280 36.5684  13
   1   8   4-22.5356 27.4917   9
  -1   8  -4-25.0918 35.3023   9
   1   8   5 5496.87 179.226   9
   1   8   5 5315.63 173.019  13
   1   8   5 5300.71 194.352  11
   1   8   6 4130.96 172.909  11
   1   8   6 4346.82 161.365   9
   1   8   6 4019.91 148.764  13
   1   8   7 3358.21 156.696  11
   1   8   7 3155.95 130.817  13
   1   8   7 3569.23 147.867   9
   1   8   8 101.020 26.4422  13
   1   8   8 145.029 42.2115  11
   1  -8   8 43.8995 18.9212  17
   1   8   9 238.495 43.1016  11
   1  -8   9 124.417 30.0829  17
   1   8  10-8.92648 15.0734  16
   1  -8  10-24.6019 23.2055  17
   1   8  10-61.6845 27.3324  11
   1   8  11 291.574 35.3569  16
   1   8  11 278.165 36.7337  11
   1  -8  11 211.621 36.1659  17
  -1   8 -12 1.88193 11.4801  13
   1   8  12-22.7978 16.4249  11
   1   8  12-4.11219 11.8807  16
   1  -8  12-2.36996 11.8164  17
   1   8  13 140.869 19.7790  16
   1   8  13 158.044 21.0160  11
   1  -8  13 132.026 22.9729  17
  -1   9  11 17.1285 12.0648  11
  -1   9  10 9.85413 18.7657  11
   1   9 -10 40.6809 14.5011   9
  -1   9  10 35.1477 14.0495  16
   1   9 -10 46.0286 15.9676  13
   1   9  -9 775.255 58.0331  13
  -1   9   9 627.975 49.2413  16
   1   9  -9 630.442 56.2875   9
   1   9  -8 188.487 36.4418   9
  -1   9   8 319.431 48.2352  11
   1   9  -8 297.261 40.6103  13
  -1   9   7 124.185 30.7462   9
  -1   9   7 89.9701 31.2269  11
   1   9  -7 75.6994 26.0513  13
   1   9  -7 71.3394 28.1284   9
   1   9  -6 2.29878 19.0132   9
  -1   9   6 19.9165 27.0830  11
   1   9  -6-11.8615 27.4895  13
  -1   9   6 43.8190 25.6480   9
   1   9  -5 1521.39 101.185  13
  -1   9   5 1422.45 97.1071  11
   1   9  -5 1328.36 88.8490   9
  -1   9   5 1252.42 77.7339  13
  -1   9   5 1494.56 90.5327   9
  -1   9   4 394.511 47.8489   9
  -1   9   4 315.207 42.1193  13
   1   9  -4 324.563 44.9824  13
   1   9  -4 309.616 44.5720   9
  -1   9   4 411.201 54.4620  11
  -1   9   3 2035.24 110.404  11
   1   9  -3 1955.45 106.881   9
  -1   9   3 2031.35 103.219  13
  -1   9   3 2218.96 108.159   9
   1   9  -3 2148.31 118.211  13
  -1   9   2 1646.62 95.6709  13
   1   9  -2 1665.22 96.4967   9
  -1   9   2 1823.67 97.9997   9
  -1   9   2 1476.18 91.0655  11
   1   9  -2 1690.95 104.094  13
   1   9  -1 1619.26 93.7857   9
   1   9  -1 1601.74 98.9435  13
  -1   9   1 1673.40 97.2746  13
  -1   9   1 1586.80 91.8286   9
   1   9   0 1610.83 91.6921   9
  -1   9   0 1690.71 100.188  13
  -1   9   0 1716.97 95.8269   9
   1   9   0 1714.43 101.133  13
  -1   9  -1 631.585 60.2897   9
   1   9   1 573.621 53.1125   9
  -1   9  -1 619.709 62.9769  13
   1   9   1 601.038 59.1086  13
   1   9   2 755.590 63.8634   9
  -1   9  -2 735.504 68.6833  13
   1   9   2 683.060 62.0459  13
  -1   9  -2 758.214 64.4008   9
   1   9   2 601.511 57.3926  11
   1   9   3 121.095 26.2562  13
  -1   9  -3 178.144 34.8092   9
   1   9   3 185.876 35.0424   9
   1   9   3 131.304 29.5308  11
  -1   9  -3 152.995 35.4154  13
  -1   9  -4 1775.54 108.706  13
   1   9   4 1757.68 104.219  11
  -1   9  -4 1885.03 105.943   9
   1   9   4 1869.22 101.174   9
   1   9   4 1777.62 97.2407  13
   1   9   5 318.940 42.3435  13
  -1   9  -5 379.779 50.5942   9
   1   9   5 217.006 36.9194  11
  -1   9  -5 339.435 50.0565  13
   1   9   5 415.966 51.5372   9
  -1   9  -6 54.2813 21.1122  13
   1   9   6 66.3922 23.3523   9
  -1   9  -6 47.4171 19.8230   9
   1   9   6 93.9356 27.1179  13
  -1   9  -7 114.473 29.7583   9
   1   9   7 49.6971 21.5727  11
   1   9   7 88.3622 24.6363  13
  -1   9  -7 146.781 33.8877  13
  -1   9  -8 586.110 60.1573   9
  -1   9  -8 801.084 67.2883  13
   1   9   8 722.107 63.4811  11
   1   9   9 104.877 24.5502  11
  -1   9  -9 66.0791 20.8610   9
  -1   9  -9 74.4343 24.0171  13
  -1   9 -10 266.882 36.6538   9
  -1   9 -10 285.381 33.9425  13
   1   9  10 352.305 38.9095  11
  -1   9 -11 19.3262 13.8015   9
  -1   9 -11 13.3317 9.45725  13
   1   9  11-10.9500 13.0597  11
  -1  10   9 4.77948 10.7453  11
   1  10  -8 54.6134 16.0852  13
  -1  10   8 69.8641 20.8347  11
   1  10  -7 14.4150 15.4848  13
  -1  10   7 15.1567 16.3542  11
   1  10  -6 950.225 66.2659  13
  -1  10   6 658.367 56.1765  11
   1  10  -5 184.905 34.7458  13
  -1  10   5 170.341 32.3069   9
   1  10  -5 134.460 25.4511   9
   1  10  -4 199.258 31.2866   9
   1  10  -4 186.473 34.6344  13
  -1  10   4 197.787 33.1781   9
  -1  10   4 143.196 26.5426  11
  -1  10   4 152.693 26.9659  13
  -1  10   3-21.5017 20.3961  11
  -1  10   3-17.6028 15.1615  13
   1  10  -3-11.1169 19.9213  13
  -1  10   3-5.25049 18.7812   9
   1  10  -3-26.2507 25.9907   9
   1  10  -2 266.312 42.6114  13
  -1  10   2 278.670 37.0886  13
  -1  10   2 210.513 32.4582   9
   1  10  -1 97.1406 25.9618  13
   1  10  -1 95.9232 22.6307   9
  -1  10   1 135.321 28.9684   9
  -1  10   1 136.014 29.8030  13
  -1  10   0 3542.15 125.684   9
  -1  10   0 3438.04 127.553  13
   1  10   0 3429.39 129.008  13
   1  10   0 3308.77 121.074   9
   1  10   1-5.39788 19.3966   9
  -1  10  -1 40.4989 27.5952  13
   1  10   1 35.7611 22.7018  13
  -1  10  -1-2.45224 22.5073   9
   1  10   2 229.345 34.8910  13
  -1  10  -2 159.363 27.8108   9
  -1  10  -2 234.785 39.6507  13
   1  10   2 200.275 31.8332   9
   1  10   3 38.2068 18.5256   9
   1  10   3 42.5382 19.5311  11
   1  10   3 33.1135 19.3507  13
  -1  10  -3 72.9865 25.2472   9
  -1  10  -3 19.6013 19.6343  13
   1  10   4 204.855 31.6765  13
   1  10   4 194.257 31.5999   9
  -1  10  -4 192.180 33.9673   9
  -1  10  -4 129.957 30.3542  13
   1  10   4 149.763 28.9020  11
   1  10   5 174.811 32.4920  11
   1  10   5 194.055 30.0851  13
  -1  10  -5 248.494 38.4855   9
  -1  10  -5 207.396 36.1316  13
   1  10   6 26.6116 18.3782  11
  -1  10  -6 37.5217 18.6527   9
   1  10   6 41.2518 17.9220  13
  -1  10  -6 27.7039 19.4303  13
  -1  10  -7 285.931 34.3343   9
   1  10   7 295.268 37.4367  11
  -1  10  -7 300.001 38.0834  13
  -1  10  -8 27.6682 15.2135   9
   1  10   8 36.0926 16.9231  11
  -1  10  -8 32.6632 16.7106  13
   1  10   9 96.8867 18.2726  11
  -1  10  -9 90.3994 18.4503  13
   1  11  -5 11.1406 11.7597  13
   1  11  -4 133.645 22.4820  13
  -1  11   3 494.222 38.7835   9
   1  11  -3 498.208 42.7286  13
  -1  11   2 272.287 27.4256  13
  -1  11   2 295.451 31.5750   9
   1  11  -2 284.923 33.6817  13
  -1  11   1 30.1178 15.6380   9
  -1  11   1 22.9604 11.8110  13
   1  11  -1 15.5061 13.4239  13
  -1  11   0-9.78976 13.0170  13
  -1  11   0-1.82168 12.5988   9
   1  11   0 16.7397 15.5154  13
  -1  11  -1 4.02837 11.3635   9
  -1  11  -1 1.04324 12.8841  13
   1  11   1 22.4902 14.9891  13
  -1  11  -2 79.9657 17.8580   9
   1  11   2 75.1219 18.1487  13
  -1  11  -2 45.1515 15.9936  13
  -1  11  -3 21.1602 13.1512   9
   1  11   3 17.0436 11.3617  13
  -1  11  -3 19.5397 11.9171  13
  -1  11  -4 155.078 22.7331  13
  -1  11  -5-14.1026 12.3647  13
  -2   0  18 91.3997 23.4565  10
  -2   0  17 8.93561 15.9768  10
  -2   0  16 1460.36 98.2391  10
   2   0 -16 1335.14 92.6494  12
   2   0 -15 0.11201 17.2397  12
  -2   0  15 8.94329 21.2164  10
   2   0 -14 52.3515 21.8533  12
   2   0 -13 87.5341 33.1818  12
   2   0 -12 5828.88 205.534  12
  -2   0  12 4961.71 518.214  19
   2   0 -11-63.8162 60.3976   6
  -2   0  11-396.678 144.531  19
   2   0 -10 11518.7 620.612   6
  -2   0  10 12128.5 719.625  19
   2   0 -10 10848.2 541.002   3
  -2   0   9 86.5415 92.8571  19
   2   0  -9 21.8053 36.9287   3
   2   0  -9 73.6579 50.9150   6
  -2   0   8 18993.6 775.430  19
   2   0  -8 18212.5 675.688   6
   2   0  -8 17682.9 592.741   3
   2   0  -7 361.972 84.0710   3
   2   0  -7 518.883 107.483   6
   2   0  -6 93373.3 1318.14   6
   2   0  -6 91562.8 1145.41   3
  -2   0   6 93092.6 1449.74  19
   2   0  -5 484.593 93.3866   6
  -2   0   5 505.452 102.658  19
   2   0  -5 436.643 84.0704   5
   2   0  -5 408.558 71.6836   3
   2   0  -4 315082. 1722.20   3
   2   0  -4 307420. 2060.52   6
   2   0  -3 128.422 32.7730   3
   2   0  -2 18234.0 261.993   3
   2   0  -2 18390.1 294.825   4
   2   0  -1 356.459 40.1789   4
   2   0  -1 431.431 47.1351   5
   2   0   0 50299.2 306.300   5
  -2   0   0 50183.8 360.919   3
  -2   0  -1 297.102 39.5685   3
   2   0   2 1747.34 76.6886   1
   2   0   2 1754.25 122.097   2
  -2   0  -3 458.755 49.5287   6
   2   0   3 475.924 78.8553   2
   2   0   3 353.502 33.2308   1
  -2   0  -4 44952.7 600.107   6
  -2   0  -5 2.16128 23.9028   3
  -2   0  -5 41.8277 32.4135   6
  -2   0  -6 49313.6 844.871   6
  -2   0  -6 54532.6 1035.97   3
  -2   0  -7 41.0258 33.9423   6
  -2   0  -7-11.0838 44.2653   3
  -2   0  -8 30371.7 885.950   3
  -2   0  -9 119.123 58.3378   3
  -2   0 -10 3508.19 343.765   3
  -2   0 -11 60.2630 50.1574   3
   2   0  11 65.0188 95.2620   2
   2   0  12 16.7163 22.1822  10
  -2   0 -12 94.9563 59.7555   3
   2   0  12 102.489 152.455   2
   2   0  12 1.11541 17.1488  16
   2   0  13 102.065 30.8968  16
   2   0  13 38.7865 23.9522  10
   2   0  14 54.6551 27.9014  10
   2   0  14 10.5704 19.4244  16
   2   0  15-13.6027 19.9359  16
   2   0  15-9.04052 24.6825  10
   2   0  16 7.46148 19.0689  10
   2   0  17 4.60045 14.4514  10
   2   0  18 69.1842 21.2674  15
  -2  -1  18 273.980 35.5917  10
  -2  -1  17 106.982 28.4894  10
   2   1 -16 162.065 34.0862  12
  -2   1  16 87.0306 23.4831  16
  -2  -1  16 135.838 38.2407  10
   2  -1 -15-10.9187 23.1418  12
  -2   1  15-0.49368 20.4360  16
   2   1 -15-16.4537 21.1902  12
  -2  -1  15-7.20728 23.1417  10
  -2   1  15 8.05389 20.0622  10
  -2   1  14 1.11229 17.4190  16
   2   1 -14 38.8060 23.2656  12
   2  -1 -14 19.5521 16.1586  12
   2   1 -13 766.183 76.6321  12
  -2   1  13 772.144 70.6233  16
   2  -1 -13 695.051 72.7310  12
  -2   1  12-5.90780 19.1939  16
   2  -1 -12 61.9938 26.7012  12
   2   1 -12 85.6747 34.1022  12
  -2   1  11 1173.87 241.827  19
  -2  -1  11 1249.16 260.689  19
   2   1 -11 1436.56 251.172   6
   2  -1 -11 1368.55 210.595   3
   2  -1 -10 6313.01 420.690   3
   2  -1 -10 6708.73 463.773   6
   2   1 -10 6854.29 502.726   6
  -2  -1  10 7082.39 559.489  19
  -2   1  10 6984.48 555.363  19
   2   1  -9 24770.5 905.858   6
   2   1  -9 24442.5 818.395   3
   2  -1  -9 23072.9 750.849   3
  -2   1   9 24711.4 980.937  19
  -2  -1   9 24539.3 976.463  19
   2  -1  -9 24608.4 824.730   6
  -2   1   8 29839.5 984.266  19
   2   1  -8 28764.3 908.118   6
   2  -1  -8 27893.2 771.655   3
   2   1  -8 28122.5 812.788   3
   2  -1  -8 28994.5 844.084   6
   2  -1  -8 28073.6 830.549   5
  -2  -1   8 29814.0 982.895  19
   2   1  -7 11762.0 546.021   6
  -2  -1   7 11051.6 547.900  19
   2  -1  -7 11597.7 500.834   6
   2  -1  -7 11596.1 494.228   5
   2  -1  -7 11904.2 471.513   3
  -2   1   7 11453.5 559.814  19
   2   1  -7 10385.4 407.799   1
   2   1  -7 12520.3 501.230   3
   2  -1  -6 11763.3 457.358   5
   2   1  -6 11635.2 413.624   1
   2  -1  -6 12570.2 480.544   6
  -2   1   6 16444.3 615.522  19
   2   1  -6 12492.9 524.727   6
   2   1  -6 12688.4 462.669   3
   2  -1  -6 12295.9 440.007   3
  -2  -1   6 16333.9 613.595  19
   2  -1  -5 22642.4 552.426   3
  -2  -1   5 23554.5 673.897  19
   2   1  -5 23391.4 665.487   6
   2  -1  -5 22667.5 587.732   5
   2   1  -5 21829.4 544.323   1
  -2   1   5 24880.8 691.437  19
   2   1  -5 22578.6 559.459   3
   2  -1  -5 22436.5 580.138   6
  -2  -1   4 4786.97 276.566  19
   2  -1  -4 4236.93 210.825   3
   2   1  -4 4285.90 228.701   1
   2   1  -4 4668.89 221.001   3
  -2   1   4 4556.74 268.959  19
  -2  -1   3 1494.56 135.401  19
   2   1  -3 1736.75 112.508   3
  -2   1   3 1631.85 143.828  19
   2   1  -2 245937. 1495.25   1
   2   1  -2 245168. 1187.95  18
  -2   1   2 251345. 1556.63  19
  -2  -1   2 241125. 1536.45  19
   2   1  -2 248159. 1545.94   4
  -2  -1   1 3776.20 167.877  19
   2   1  -1 3968.41 172.652   6
  -2   1   1 3719.34 164.783  19
   2   1  -1 3723.79 127.879  18
   2  -1  -1 3816.19 153.989   5
   2   1   0 195832. 962.046   6
  -2   1   0 197069. 1168.79  18
   2  -1   1 284.091 27.9833   2
  -2  -1  -1 199.083 29.2359   5
   2   1   1 160.822 22.2780   6
  -2  -1  -1 231.372 39.9039   3
  -2  -1  -2 468505. 2134.83   3
   2  -1   2 470162. 1536.15   2
  -2  -1  -2 466048. 1475.18   5
  -2  -1  -3 2760.46 144.826   5
   2   1   3 2868.45 169.092   4
   2   1   3 2843.34 154.318   1
   2   1   4 60721.6 1049.79   2
  -2  -1  -4 56487.2 790.527   5
  -2   1  -4 58074.4 859.142   6
  -2   1  -5 5204.53 308.944   3
  -2  -1  -5 4913.45 267.741   5
  -2  -1  -5 5017.15 299.570   3
  -2   1  -5 4975.21 278.457   6
  -2  -1  -5 4851.30 192.888   6
  -2  -1  -6 1054.12 137.034   5
  -2  -1  -6 905.718 136.899   3
  -2   1  -6 1137.00 161.372   3
  -2   1  -6 1072.32 147.119   6
  -2  -1  -6 900.309 98.3650   6
  -2  -1  -7 2430.40 237.104   3
  -2   1  -7 2272.39 228.072   6
  -2   1  -8 6094.30 422.572   3
  -2   1  -8 5171.84 370.806   6
  -2  -1  -8 5748.51 386.220   3
  -2  -1  -9 630.296 139.034   3
  -2   1  -9 585.327 140.879   3
  -2  -1 -10 16078.4 732.975   3
  -2   1 -10 17211.5 806.253   3
   2   1  10 16197.9 940.025   2
   2   1  11 739.587 228.889   2
  -2  -1 -11 864.801 183.302   3
  -2   1 -11 964.255 204.401   3
  -2   1 -12 749.611 192.917   3
   2   1  12 749.566 69.3751  16
   2  -1  12 687.535 65.4267  16
  -2   1 -12 716.612 72.2442  12
   2   1  12 636.804 230.066   2
   2  -1  12 724.652 78.0798  10
   2  -1  13 1191.22 99.7308  10
   2   1  13 1411.62 92.9423  16
   2  -1  13 1112.61 83.5890  16
   2   1  14 67.6199 27.0115  16
   2  -1  14 69.0729 30.3152  10
   2  -1  15 37.2721 24.6351  10
   2   1  15 38.1623 21.4775  16
   2   1  16 723.007 63.5295  16
   2  -1  16 748.551 72.2337  10
   2  -1  17 55.4831 22.9649  10
   2  -1  17 33.2933 19.3302  15
   2  -1  18 51.5733 17.8811  10
   2   1  18 103.336 25.7798  15
  -2  -2  18 8.77408 14.8347  10
  -2   2  17-3.67635 14.5536  16
  -2  -2  17-22.4825 20.0008  10
  -2   2  16 85.5467 25.5146  16
  -2  -2  16 115.039 32.1511  10
   2   2 -16 157.906 33.6594  12
   2   2 -15-8.45295 19.7404  12
  -2  -2  15 12.3723 22.7971  10
  -2   2  15-3.09946 20.2005  16
  -2   2  14 130.398 33.3499  16
   2   2 -14 61.8076 22.7995  12
   2   2 -13 1177.56 91.9103  12
  -2   2  13 1113.54 86.2735  16
   2   2 -12 2189.83 124.417  12
  -2   2  12 2210.58 118.863  16
  -2  -2  11 381.151 142.534  19
   2  -2 -11 705.759 157.906   3
   2   2 -11 505.802 156.505   6
  -2   2  11 675.778 185.278  19
  -2   2  10 13105.6 773.943  19
   2  -2 -10 15032.9 736.678   5
  -2  -2  10 13487.8 785.832  19
   2  -2 -10 13905.3 673.835   3
   2   2 -10 14237.3 795.129   6
   2   2  -9 4682.91 429.135   6
   2  -2  -9 4491.24 367.688   3
  -2   2   9 4078.42 413.483  19
   2  -2  -9 4822.87 394.962   5
   2   2  -9 4277.76 389.254   3
   2  -2  -9 4589.41 373.012   6
  -2  -2   9 4208.50 419.486  19
   2   2  -8 33213.3 1018.31   3
   2   2  -8 33284.2 1083.98   6
   2  -2  -8 34729.8 971.230   6
   2  -2  -8 33471.1 931.541   3
  -2  -2   8 35387.1 1107.48  19
   2  -2  -8 34679.7 988.764   5
  -2   2   8 34787.7 1098.46  19
   2  -2  -7 11066.4 506.173   6
   2  -2  -7 10819.3 499.840   3
   2  -2  -7 10484.0 502.732   5
   2   2  -7 10628.6 573.608   6
  -2   2   7 10911.3 563.760  19
   2   2  -7 10854.5 538.133   3
  -2  -2   7 10915.5 566.992  19
   2  -2  -6 43993.8 933.083   5
  -2  -2   6 44786.6 1048.40  19
   2   2  -6 42486.7 907.320   1
   2   2  -6 44916.6 1108.15   6
   2  -2  -6 45029.6 955.564   3
   2   2  -5 12600.8 540.543   6
  -2   2   5 14058.3 534.919  19
  -2  -2   5 13260.1 525.750  19
   2   2  -5 13119.4 486.512   1
   2  -2  -5 14375.2 483.856   3
   2  -2  -5 13361.7 463.642   5
   2   2  -4 1304.44 150.997   1
   2   2  -4 1365.63 165.183   6
   2  -2  -4 1450.18 141.651   5
  -2   2   4 1205.98 151.676  19
   2   2  -4 1217.62 140.842  18
  -2  -2   4 1235.67 155.871  19
   2   2  -3 93806.4 1181.71   1
  -2   2   3 94817.4 1129.77  19
   2   2  -3 96094.5 1234.98   6
  -2  -2   3 91864.2 1123.24  19
   2   2  -3 94343.5 1103.77  18
   2  -2  -3 96644.2 1057.54   5
   2   2  -2 61897.7 914.638   1
  -2   2   2 60063.0 781.747  19
   2   2  -2 63809.7 910.953   6
   2   2  -2 62109.4 830.978  18
  -2  -2   2 58437.6 778.172  19
   2   2  -1 129498. 1178.80   6
  -2  -2   1 122664. 983.108  19
   2   2  -1 129052. 1112.42   2
  -2   2   1 124055. 963.569  19
   2   2   0 71800.1 853.901   2
   2   2   0 73817.1 826.741   6
   2   2   1 75469.0 947.136   2
   2   2   1 77152.7 997.533   4
   2   2   2 2801.59 188.464   1
   2   2   2 2804.81 198.648   2
  -2  -2  -2 2864.97 163.328   5
   2   2   2 2916.95 199.442   4
   2   2   3 62282.2 1022.75   2
  -2   2  -3 56437.8 948.068  18
  -2  -2  -3 59814.5 762.726   5
  -2  -2  -3 58191.7 911.714   3
   2   2   3 61698.6 944.296   4
  -2  -2  -4 44215.2 722.756   5
  -2  -2  -4 42270.1 845.531   3
  -2   2  -4 43149.9 901.961   3
   2   2   4 42570.3 827.198   4
  -2  -2  -5 12776.0 328.381   6
  -2   2  -5 13823.6 563.091   3
  -2   2  -5 13538.0 530.644   6
  -2  -2  -5 13946.5 456.188   5
  -2  -2  -5 13918.7 530.360   3
   2   2   5 15036.8 621.510   2
   2   2   5 13943.5 495.977   4
   2   2   6 30642.7 982.885   2
  -2  -2  -6 29219.5 818.531   3
  -2  -2  -6 29398.8 744.525   5
  -2   2  -6 29092.6 837.925   6
  -2   2  -6 29383.4 903.342   3
   2   2   6 27984.4 734.413   4
  -2   2  -7 3265.31 303.098   6
  -2   2  -7 3263.09 327.381   3
   2   2   7 3060.92 338.114   2
  -2  -2  -7 3376.48 299.244   3
  -2  -2  -7 3162.91 267.754   5
  -2  -2  -8 330.021 90.6954   5
   2   2   8 276.512 118.256   2
  -2   2  -8 224.842 98.4406   6
  -2   2  -8 261.443 96.8967   3
  -2  -2  -8 245.638 94.5079   3
  -2   2  -9 3030.79 357.985   3
  -2   2  -9 2613.28 312.726   6
  -2  -2  -9 2994.15 319.327   3
   2   2   9 2959.88 394.721   2
  -2  -2 -10 938.041 189.079   3
  -2   2 -10 857.741 193.778   3
   2   2  10 792.780 231.047   2
  -2  -2 -11 123.952 61.3997   3
   2   2  11 266.604 175.760   2
  -2   2 -11-53.5812 59.0943   3
   2  -2  12 1963.73 128.562  10
   2   2  12 1801.46 102.817  16
   2   2  13 3506.35 145.778  16
   2  -2  13 3941.13 175.208  10
   2   2  14 98.3899 27.7563  16
   2  -2  14 67.2491 33.8405  10
   2   2  15 5.21404 20.2971  16
   2  -2  15 42.4496 27.7774  10
   2  -2  16 28.0329 20.1395  10
   2   2  16 35.0449 18.0930  16
   2  -2  17 305.849 42.7789  10
   2  -2  18 109.782 23.5227  10
  -2  -3  18-9.52534 15.3153  10
  -2   3  17-21.3187 16.1950  16
  -2  -3  17 12.0383 17.6834  10
  -2  -3  16 39.4659 26.0307  10
  -2   3  16 49.9498 21.5820  16
   2   3 -15-22.2639 23.5787  12
  -2  -3  15-31.1453 31.7881  10
  -2   3  15 19.0893 18.1563  16
  -2   3  14 886.317 72.8221  16
  -2  -3  14 674.428 74.5967  10
   2   3 -14 796.089 72.9048  12
  -2   3  13 3757.81 153.782  16
   2   3 -13 3525.16 154.733  12
  -2   3  12 95.5545 35.9758  16
   2   3 -12 74.9017 27.6776  12
   2   3 -11 8228.17 677.856   6
   2   3 -11 9648.32 256.053  12
  -2   3  11 9800.28 248.169  16
   2  -3 -11 8747.67 599.346   3
  -2  -3  10 953.297 214.787  19
  -2   3  10 861.216 212.098  19
   2  -3 -10 1151.72 216.769   3
   2  -3 -10 1089.97 215.792   5
   2   3 -10 970.828 227.995   6
  -2  -3   9 790.170 190.946  19
   2   3  -9 739.825 185.716   6
   2  -3  -9 1004.73 187.194   3
   2  -3  -9 1001.49 193.633   5
  -2   3   9 907.188 197.327  19
   2   3  -9 756.107 198.811  18
  -2   3   8 1650.34 254.169  19
   2   3  -8 1774.15 275.289  18
  -2  -3   8 1522.68 237.017  19
   2  -3  -8 1687.54 231.376   3
   2  -3  -8 1584.73 225.829   5
   2   3  -8 1724.08 277.068   6
   2  -3  -8 1580.20 215.611   6
   2  -3  -7 981.316 161.559   5
  -2  -3   7 1224.30 201.792  19
   2   3  -7 857.585 183.142   6
  -2   3   7 1150.16 190.623  19
   2   3  -7 952.546 182.738  18
   2  -3  -7 885.628 157.956   3
   2   3  -6 1086.96 188.736   6
   2  -3  -6 910.391 147.270   5
   2   3  -6 705.814 131.622   1
   2  -3  -6 985.711 157.087   3
   2   3  -6 940.540 174.023  18
  -2   3   6 740.798 142.410  19
  -2  -3   6 791.693 149.039  19
   2   3  -5 3896.67 293.823   1
  -2  -3   5 3908.40 306.918  19
   2  -3  -5 4187.28 283.527   5
   2   3  -5 4067.63 324.559  18
  -2   3   5 3958.44 300.997  19
   2   3  -5 4057.64 341.276   6
   2   3  -4 10214.4 498.316   6
   2   3  -4 8937.67 429.034   1
  -2   3   4 10649.9 446.927  19
  -2  -3   4 10121.6 441.592  19
   2  -3  -4 9324.77 396.247   5
   2   3  -4 10873.3 491.876  18
  -2   3   3 9997.98 380.701  19
   2   3  -3 10532.0 464.753   6
   2   3  -3 9576.36 430.195   1
   2  -3  -3 10418.0 396.923   5
   2   3  -3 10564.3 446.412  18
  -2  -3   3 9937.23 388.930  19
   2   3  -2 17491.8 563.297   1
  -2  -3   2 17473.6 446.976  19
   2  -3  -2 17733.8 525.015   5
   2   3  -2 18770.9 575.159   6
  -2   3   2 17625.7 437.497  19
  -2  -3   1 15998.8 349.709  19
  -2   3   1 16306.8 349.875  19
   2  -3  -1 17790.6 527.187   5
   2   3  -1 18685.2 602.646   4
   2   3  -1 17545.6 526.776   6
   2   3  -1 16971.5 459.739   2
  -2   3   1 16915.2 406.293   2
   2   3  -1 16496.5 534.407   1
  -2   3   0 10172.3 230.592   2
   2   3   0 12442.4 410.755   2
  -2   3   0 10868.2 246.988  19
   2   3   0 11434.1 441.749   1
   2   3   0 12669.7 491.556   4
  -2  -3   0 10616.4 250.149  19
   2   3   1 11539.7 443.873   1
   2   3   1 11575.6 469.891   4
  -2   3  -1 11299.2 467.031  18
   2   3   1 10990.3 407.957   2
   2   3   2 4558.23 298.742   4
  -2   3  -2 4343.46 297.954  18
   2   3   2 4439.94 280.840   2
  -2  -3  -2 4491.32 256.369   5
  -2  -3  -3 14204.2 451.463   5
   2   3   3 14232.2 537.774   2
   2   3   3 14657.5 549.577   4
  -2   3  -3 14083.1 554.291  18
  -2  -3  -4 3424.53 232.296   5
   2   3   4 3354.74 268.244   4
   2   3   4 3214.69 275.191   2
  -2  -3  -4 3210.89 258.007   3
  -2   3  -4 3272.56 284.464  18
  -2  -3  -5 15555.8 525.688   5
  -2   3  -5 14190.5 635.337  18
  -2  -3  -5 15806.5 613.821   3
   2   3   5 14671.0 657.436   2
   2   3   5 14129.7 559.849   4
  -2  -3  -6 4125.39 299.280   5
   2   3   6 3875.30 374.739   2
  -2  -3  -6 4081.97 338.638   3
  -2   3  -6 4070.99 374.677  18
  -2   3  -7 184.313 99.2945  18
  -2  -3  -7 93.8176 52.7695   3
  -2  -3  -7 56.9349 34.7190   5
   2   3   7 70.0346 87.9890   2
  -2  -3  -8 7551.47 517.223   3
   2   3   8 7369.61 610.380   2
  -2   3  -8 6508.56 554.588  18
  -2  -3  -8 7762.51 491.918   5
   2   3   9 507.974 184.051   2
  -2  -3  -9 586.752 164.946   3
  -2  -3  -9 470.185 127.070   5
  -2   3  -9 677.428 199.118  18
  -2   3 -10 247.727 119.671  18
  -2  -3 -10 294.760 106.471   3
   2   3  10 199.118 104.483   2
   2  -3  11 346.866 60.0793  10
   2   3  11 487.635 55.5866  16
  -2   3 -11 450.242 187.547  18
   2   3  12 1176.87 84.6141  16
   2  -3  12 1094.71 99.7118  10
   2  -3  13 1970.01 127.101  10
   2   3  13 1895.16 107.455  16
   2  -3  14 1443.52 107.087  10
   2   3  14 1515.11 94.1058  16
   2  -3  15 342.770 53.2523  10
   2   3  15 334.302 45.1993  16
   2   3  16 35.6461 19.3959  16
   2  -3  16 5.85903 18.9674  10
   2   3  17 113.044 24.2120  16
   2  -3  17 134.905 29.7851  10
   2  -3  18 12.8557 14.7972  10
  -2  -4  18 57.6310 19.3451  10
  -2   4  17 61.1493 16.8283  16
  -2  -4  17 74.5360 22.5917  10
  -2  -4  16 212.780 38.6069  10
  -2   4  16 259.647 36.6738  16
  -2   4  15 486.829 51.0390  16
  -2  -4  15 352.405 53.9944  10
  -2   4  14 136.458 36.2896  16
  -2  -4  14 86.1516 34.2132  10
  -2   4  13 1453.97 93.7891  16
   2   4 -13 1366.09 96.4184  12
  -2  -4  13 1355.89 108.621  10
  -2   4  12 81.4202 29.0294  16
   2   4 -12 57.5318 23.5823  12
  -2   4  11 140.955 35.0559  16
   2   4 -11 138.626 34.5767  12
   2   4 -10 494.108 60.7074  12
  -2   4  10 563.636 205.586   2
   2   4 -10 526.207 180.879   6
  -2   4  10 490.314 64.1593  11
   2  -4 -10 582.295 174.178   5
  -2   4  10 605.043 65.2104  16
   2  -4 -10 494.649 153.478   3
   2  -4  -9 253.839 104.322   3
   2   4  -9 297.876 144.547   6
   2  -4  -9 441.038 136.838   5
   2   4  -8 205.578 125.061   6
   2   4  -8 109.665 97.2082  18
   2  -4  -8 233.448 116.723   3
   2  -4  -8-27.2159 56.7206   5
   2  -4  -7 3900.20 358.319   3
   2   4  -7 3463.95 402.984   6
   2  -4  -7 3894.80 348.046   5
   2   4  -7 3390.01 391.832  18
   2   4  -6 189.568 96.5615  18
   2  -4  -6 405.113 99.8300   5
   2   4  -6 294.881 119.038   6
   2  -4  -5 31203.6 850.200   5
   2   4  -5 29782.7 939.918   1
   2   4  -5 30156.9 995.511  18
   2   4  -5 30407.1 1025.24   6
   2   4  -4 1126.30 183.565   6
   2   4  -4 1272.46 194.878   1
  -2   4   4 1107.47 176.539   2
   2  -4  -4 1260.39 165.044   5
   2   4  -4 1286.09 195.364  18
   2   4  -3 76561.5 1436.15   1
   2  -4  -3 73563.2 1205.17   5
   2   4  -3 72326.9 1369.73   6
   2   4  -3 78087.5 1415.52  18
  -2   4   3 74095.1 1264.58   2
  -2   4   2 812.193 115.925   2
   2  -4  -2 886.857 136.376   5
   2   4  -2 901.300 152.342   1
   2  -4  -1 16847.8 602.255   5
   2   4  -1 16195.1 624.693   1
   2   4  -1 16854.0 519.026   2
   2   4   0 52678.9 951.783   2
   2  -4   0 51985.6 1087.06   5
  -2  -4  -1 26747.7 761.009   5
   2   4   1 25602.1 830.638   4
   2   4   1 26061.8 705.117   2
  -2   4  -2 6698.33 426.650  18
  -2  -4  -2 6624.11 369.865   5
   2   4   2 6509.79 418.411   4
   2   4   2 6849.14 389.141   2
  -2  -4  -3 62.9591 50.7808   5
   2   4   3 69.7995 41.2497   2
   2   4   3 70.2202 44.8437   4
  -2   4  -3 78.2736 48.1442  18
  -2   4  -4 4212.08 365.727  18
  -2  -4  -4 4408.14 298.308   5
   2   4   4 4045.43 334.556   4
   2   4   4 4294.06 348.974   2
  -2   4  -5 303.427 112.533  18
  -2  -4  -5 551.626 113.117   5
   2   4   5 242.644 88.9061   4
   2   4   5 410.168 121.871   2
  -2  -4  -5 409.947 105.348   3
   2   4   6 1475.73 239.594   2
  -2  -4  -6 1448.05 191.511   5
  -2   4  -6 1668.92 271.840  18
  -2  -4  -6 1778.94 245.069   3
   2   4   7 42.0087 58.9456   2
  -2  -4  -7 121.785 61.1749   5
  -2   4  -7 257.576 131.963  18
  -2  -4  -7 54.0067 51.2437   3
   2   4   8 2067.64 339.833   2
  -2   4  -8 2162.40 353.663  18
  -2  -4  -8 1912.33 260.356   5
  -2  -4  -8 2243.11 309.394   3
  -2  -4  -9 4903.97 471.392   3
   2   4   9 4179.00 517.900   2
  -2   4  -9 3990.44 508.440  18
   2  -4  10 424.908 63.2188  10
   2   4  10 436.555 52.5844  16
  -2   4 -10 587.026 211.672  18
   2   4  11-10.3266 27.2657  16
   2  -4  11 6.97788 25.5600  10
   2   4  12 164.165 38.1891  16
   2  -4  12 175.026 48.6786  10
   2  -4  13 27.5153 24.1657  10
   2   4  13 78.0614 30.8361  16
   2  -4  14 1010.05 91.6231  10
   2   4  14 1146.06 81.8849  16
   2   4  15-1.58730 21.2889  16
   2  -4  15 17.6195 20.0412  10
   2   4  16-9.28020 18.9032  16
   2  -4  16-38.7872 24.3170  10
   2   4  17-26.8689 16.7670  16
   2  -4  17 20.8404 15.4026  10
   2  -4  18-25.7451 13.9879  10
  -2   5  17 394.578 33.1234  16
  -2  -5  17 437.605 38.2658  10
  -2   5  16 105.676 23.7014  16
  -2  -5  16 80.9368 22.6323  10
  -2  -5  15 13.9205 20.3744  10
  -2   5  15 24.3099 17.1775  16
  -2  -5  14 36.0845 25.9159  10
  -2   5  14 9.17097 20.1419  16
  -2  -5  13 130.795 32.9213  10
  -2   5  13 187.658 37.8799  16
  -2   5  12-33.2221 28.0050  11
  -2  -5  12 3.71163 29.7759  10
  -2   5  11 1376.57 93.8429  16
  -2   5  11 1195.73 98.0228  11
   2   5 -10 1356.18 101.360  12
  -2   5  10 1339.49 105.221  11
  -2   5   9 1369.46 92.7065   9
  -2   5   9 1123.10 98.8498  11
   2   5  -9 1061.88 89.6065  12
   2  -5  -8 1004.59 203.501   3
  -2   5   8 1245.88 283.907   2
   2  -5  -8 1182.28 213.405   5
   2  -5  -7 194.179 92.2694   5
   2   5  -7 187.120 130.338  18
   2  -5  -7 206.509 80.5276   3
  -2   5   7 200.218 111.597   2
   2  -5  -6 3669.52 335.677   5
   2   5  -6 3946.01 434.281  18
   2   5  -5 1668.66 267.837  18
   2  -5  -5 1668.66 224.268   5
   2  -5  -4 3154.77 290.750   5
   2  -5  -3 570.905 134.167   5
   2  -5  -2 2086.63 238.906   5
   2  -5  -1 50229.0 1211.67   5
   2   5   0 664.616 121.833   2
   2  -5   0 899.029 167.107   5
  -2  -5  -1 130.536 65.6093   5
   2   5   1 137.577 63.3626   2
  -2  -5  -2 15462.1 660.735   5
   2   5   2 13018.8 585.499   2
  -2  -5  -3 1108.17 173.476   5
   2   5   3 1202.33 191.660   2
  -2   5  -3 1457.33 234.818  18
  -2   5  -4 3553.05 379.318  18
  -2  -5  -4 3679.47 312.513   5
   2   5   4 3286.86 337.422   2
  -2   5  -5 375.250 117.819  18
   2   5   5 330.475 129.203   2
  -2  -5  -5 556.432 121.577   5
  -2  -5  -5 458.998 135.518   3
  -2   5  -6 8673.01 664.049  18
  -2  -5  -6 8839.73 531.438   5
  -2  -5  -6 9201.58 618.464   3
   2   5   6 7905.59 597.662   2
  -2  -5  -7 6311.11 538.309   3
   2   5   7 5265.00 532.771   2
  -2  -5  -7 5535.30 448.774   5
  -2   5  -7 4858.26 528.967  18
   2   5   8 2497.24 395.357   2
  -2   5  -8 2293.26 382.412  18
  -2  -5  -8 2413.10 349.283   3
   2   5   9 1116.08 90.9637  11
   2  -5   9 1113.07 103.940  10
   2   5   9 1246.58 87.2151  13
   2   5   9 1261.67 88.6700  16
   2  -5  10 4300.27 202.930  10
   2   5  10 4095.02 170.168  11
   2   5  10 4672.52 169.331  16
   2  -5  11-4.34923 32.8365  10
   2   5  11-15.2679 23.7239  11
   2   5  11-18.3635 26.2886  16
   2   5  12 521.081 61.2673  16
   2  -5  12 502.092 69.3196  10
   2   5  13 711.776 65.1887  16
   2  -5  13 604.799 71.5091  10
   2   5  14 74.7482 25.9484  16
   2  -5  14 22.0309 21.6638  10
   2  -5  15 9.09370 18.9553  10
   2   5  15 11.8562 15.5245  16
   2  -5  16 54.6090 21.0152  10
   2   5  16 68.5699 19.7325  16
   2   5  17 3.53883 9.25641  16
   2  -5  17-5.19121 12.7065  10
  -2   6  16 7.83660 10.4670  16
  -2  -6  15 10.4015 12.6167  10
  -2   6  15 21.0678 15.3928  16
  -2   6  14 597.867 52.0235  16
  -2  -6  14 436.220 48.5157  10
  -2   6  13 347.232 43.8483  16
  -2   6  13 271.607 41.4572  11
  -2  -6  13 238.893 42.0168  10
  -2   6  12 764.087 70.1261  11
  -2   6  12 940.440 74.1834  16
  -2   6  11 1003.78 87.3067  11
  -2   6  11 894.862 76.3697  16
  -2   6  10 3993.26 176.732  11
  -2   6  10 4286.32 167.942  16
  -2   6   9 458.074 59.8942   9
  -2   6   9 476.382 67.7920  11
  -2   6   8 6602.02 195.282   9
  -2   6   8 6020.01 222.603  11
  -2   6   7 238.250 48.1770  11
  -2   6   7 322.906 44.9787   9
  -2   6   6 4996.05 201.027  11
  -2   6   6 4862.51 158.276   9
   2  -6  -5 95.2896 68.3756   5
   2  -6  -4 818.779 173.017   5
   2  -6  -3 395.674 122.341   5
   2  -6  -2 2120.79 279.927   5
   2  -6  -1 1647.93 251.982   5
  -2  -6   0 160.659 74.1183   5
   2  -6   0 69.7181 57.3330   5
   2  -6   1 7679.14 565.789   5
  -2  -6  -1 8378.13 568.683   5
  -2  -6  -2 11937.1 660.402   5
  -2  -6  -3 3122.25 331.298   5
  -2  -6  -4 6180.37 464.492   5
  -2  -6  -5 420.877 157.396   3
  -2   6  -5 733.023 194.970  18
  -2  -6  -5 452.744 118.975   5
   2   6   6 389.843 141.149   2
  -2  -6  -6 355.198 145.666   3
   2   6   6 305.772 48.4501  11
  -2   6  -6 570.254 184.343  18
  -2  -6  -6 373.653 128.798   5
   2   6   7 1331.45 98.5298  11
   2   6   7 1129.49 258.507   2
   2   6   7 1389.14 89.0852  13
   2   6   7 1456.17 92.7864   9
   2   6   8 2696.54 132.312  16
   2   6   8 2709.65 139.072  11
   2   6   8 2724.64 125.362  13
   2   6   9 103.596 39.0158  16
   2   6   9 91.2281 29.5728  13
   2   6  10 3891.45 163.690  11
   2   6  10 3705.23 147.562  13
   2   6  10 3786.46 153.266  16
   2   6  11 33.4609 23.3834  11
   2  -6  11 15.4321 24.0686  10
   2   6  11 71.1012 29.6526  16
   2  -6  12 47.0117 28.2278  10
   2   6  12 39.9347 20.1490  11
   2   6  12 42.8673 22.6701  16
   2  -6  13 147.625 34.5370  10
   2   6  13 172.405 32.7261  16
   2  -6  14 6.02964 14.5893  10
   2   6  14 12.5553 14.0898  16
   2   6  15 23.3725 18.5441  16
   2  -6  15-13.1600 14.2098  10
   2   6  16 37.1332 12.5413  16
   2  -6  16 11.4276 9.47249  17
  -2   7  15 14.7575 10.1645  16
  -2   7  14 108.392 22.2944  16
  -2   7  13 92.6319 24.2354  16
  -2   7  13 54.5044 20.3536  11
  -2   7  12-28.1799 20.1269  11
  -2   7  12 47.0987 21.1801  16
  -2   7  11 9.53199 21.9994  11
  -2   7  11 14.0822 22.6509  16
  -2   7  10 479.089 59.7355  11
  -2   7  10 343.159 47.5254  16
  -2   7   9 72.5374 28.2897  16
  -2   7   9 38.9850 24.3915  11
  -2   7   8-24.8643 39.6046  11
  -2   7   8 114.425 35.9363   9
  -2   7   7 34.1839 34.3857  11
  -2   7   7 113.801 34.4176   9
  -2   7   6 775.623 83.7321  11
  -2   7   6 886.507 75.3837   9
  -2   7   5 2088.31 106.596   9
  -2   7   5 1867.29 124.643  11
  -2   7   4 69.8643 25.8122  11
  -2   7   4 34.4687 21.4561   9
  -2   7   3-6.71434 18.4421   9
  -2   7   3 17.5431 17.2217  13
  -2   7   3-20.1262 31.0331  11
   2   7  -3-9.99380 32.5103  13
   2   7  -2 3370.07 146.492  13
  -2   7   2 3070.64 143.759  11
  -2   7   2 3316.01 131.858   9
  -2  -7   2 3350.05 413.384   5
  -2   7   2 3007.27 130.589  13
   2   7  -1 142.428 26.7153  13
  -2  -7   1 30.2554 58.7877   5
  -2   7   1 201.026 32.1430   9
   2  -7  -1 90.3775 86.2146   5
  -2   7   1 211.691 36.9849  13
  -2   7   0 3903.00 151.303  13
  -2  -7   0 4389.47 459.727   5
  -2   7   0 4247.65 152.351   9
   2   7   0 3949.63 150.899  13
   2  -7   0 4515.33 466.297   5
  -2  -7  -1 853.603 209.348   5
   2  -7   1 892.663 204.473   5
  -2   7  -1 891.676 69.6446   9
   2   7   1 927.635 72.8690  13
  -2  -7  -2 5946.09 509.358   5
   2  -7   2 6184.91 553.281   5
   2   7   2 5777.92 182.553  11
   2   7   2 5799.75 179.917  13
   2   7   3 22.1970 23.8406  11
  -2  -7  -3 68.6159 88.2206   5
   2   7   3 104.337 31.4456  13
   2   7   4 8593.15 219.453  13
   2   7   4 8884.86 240.544  11
   2   7   5 437.464 58.1580  11
   2   7   5 413.332 52.3310   9
   2   7   5 413.491 50.8752  13
   2   7   6 7528.57 206.815  13
   2   7   6 7741.78 214.324   9
   2   7   6 7616.90 230.783  11
   2   7   7 2939.95 146.451  11
   2   7   7 3180.48 137.176  13
   2   7   7 3265.59 145.134   9
   2   7   8 4650.00 181.030  11
   2   7   8 4672.67 163.716  13
   2   7   9 167.733 37.4957  16
   2   7   9 76.5058 29.3966  13
   2   7   9 165.663 41.2495  11
   2   7  10 1824.99 109.625  11
   2   7  10 1792.25 101.628  16
   2   7  11 18.9163 18.2747  16
   2   7  11-1.15770 25.1780  11
   2   7  12 342.816 43.1575  11
   2   7  12 376.920 44.0982  16
   2   7  13 229.374 32.1314  16
   2  -7  14-7.52889 14.6000  17
   2   7  14 19.9853 13.4739  16
   2  -7  15-3.30393 9.74370  17
  -2   8  13 46.0911 13.4075  11
  -2   8  13 64.4017 16.2462  16
  -2   8  12 130.453 24.6915  11
  -2   8  12 121.374 23.3968  16
  -2   8  11 32.9242 18.6904  16
  -2   8  11 18.7131 16.7441  11
   2   8 -10 9.96864 15.8405  13
  -2   8  10 15.5854 21.1191  11
  -2   8  10 28.3527 17.5406  16
  -2   8   9-0.40003 26.2516  11
  -2   8   9-17.1512 23.3065  16
   2   8  -9-9.58377 27.6854  13
  -2   8   8 25.2249 18.1217  16
   2   8  -8 5.89515 24.6386  13
  -2   8   8 7.18395 23.0616  11
  -2   8   8 28.8758 22.5382   9
  -2   8   7 13.7356 30.3738  11
  -2   8   7-16.9404 26.5864   9
   2   8  -7-6.17152 31.7846  13
  -2   8   6 360.358 53.2334  11
  -2   8   6 495.060 56.9807   9
   2   8  -6 488.955 58.7483  13
  -2   8   5 166.263 39.6776  11
   2   8  -5 153.373 29.0217   9
  -2   8   5 265.194 45.0116   9
   2   8  -5 209.031 35.1867  13
  -2   8   4 1670.63 111.192  11
  -2   8   4 1701.94 100.226   9
   2   8  -4 1622.23 108.852  13
   2   8  -4 1529.27 97.2235   9
  -2   8   4 1467.40 91.4595  13
  -2   8   3 1176.35 91.2290  11
  -2   8   3 1200.52 83.9839   9
   2   8  -3 1172.43 89.7460  13
  -2   8   3 1047.49 78.5105  13
   2   8  -2 4070.17 163.803  13
  -2   8   2 3744.69 149.176  13
  -2   8   2 3679.53 153.472  11
  -2   8   2 3959.20 148.132   9
  -2   8   1 1829.41 105.708  13
   2   8  -1 1986.39 112.251  13
  -2   8   1 1878.51 102.258   9
  -2   8   0 5881.51 180.934   9
  -2   8   0 5407.68 184.154  13
   2   8   0 5639.79 185.043  13
   2   8   1 3056.50 129.811  11
  -2   8  -1 3232.24 135.834   9
  -2   8  -1 3023.00 139.427  13
   2   8   1 3093.79 136.526  13
  -2   8  -2 1161.49 86.4386  13
   2   8   2 1213.35 85.1551  11
  -2   8  -2 1217.18 83.9816   9
   2   8   2 1269.44 87.2859  13
   2   8   3 586.819 61.7759  13
  -2   8  -3 551.901 57.4552   9
  -2   8  -4 122.465 26.4373   9
   2   8   4 57.7669 22.4426  13
   2   8   5 853.801 74.0794  13
   2   8   5 966.435 88.7946  11
   2   8   5 893.119 77.9762   9
   2   8   6 975.683 86.5174  11
   2   8   6 1010.14 78.3051  13
   2   8   6 956.037 80.5245   9
   2   8   7 2026.90 121.489  11
   2   8   7 2015.12 105.523  13
   2   8   8 911.443 77.0101  11
   2   8   8 867.270 69.6289  13
   2  -8   9 202.493 36.2068  17
   2   8   9 339.669 44.2544  13
   2   8   9 279.253 39.5987  11
   2  -8  10-7.82031 18.1241  17
   2   8  10-55.1624 31.4656  11
   2  -8  11-18.3518 16.9441  17
   2   8  11-22.0669 20.7724  11
   2  -8  12-1.69734 13.6848  17
   2   8  12 2.35881 12.7883  11
   2  -8  13 99.1768 21.0356  17
  -2   8 -13 105.136 18.2529  13
  -2   9  11 86.5682 16.1435  16
  -2   9  11 172.772 25.0375  11
   2   9 -10 67.8896 16.6234  13
  -2   9  10 43.3356 12.8039  16
  -2   9   9 318.594 41.6244  11
   2   9  -9 321.791 37.1729  13
  -2   9   9 341.287 37.0777  16
  -2   9   8 384.111 43.3574  16
   2   9  -8 416.677 47.3282  13
  -2   9   8 415.133 50.3555  11
  -2   9   7 1859.20 109.017  11
  -2   9   7 1660.98 91.9501  16
   2   9  -7 1911.77 103.543  13
  -2   9   7 1875.87 98.8884   9
  -2   9   6 20.3777 19.4845  16
   2   9  -6 41.0132 23.0450  13
  -2   9   6 12.7508 21.9312  11
  -2   9   6-1.25099 21.3820   9
  -2   9   5 794.104 75.9000  11
   2   9  -5 917.413 77.3238  13
  -2   9   5 936.234 71.9561   9
  -2   9   4 126.781 31.6065   9
  -2   9   4 124.665 34.4222  11
   2   9  -4 161.596 37.3046  13
  -2   9   3 2037.97 111.114  11
  -2   9   3 2058.66 106.903   9
  -2   9   3 1973.77 101.668  13
   2   9  -3 2168.12 118.342  13
  -2   9   2 1702.53 95.9458   9
   2   9  -2 1852.17 109.103  13
  -2   9   2 1710.56 96.2703  13
  -2   9   1 58.0539 20.1275   9
   2   9  -1 75.0996 28.0426  13
  -2   9   1 37.2874 23.0229  13
  -2   9   0 1218.76 80.9061   9
   2   9   0 1169.51 86.0956  13
  -2   9   0 1131.74 80.7505  13
  -2   9  -1 533.272 56.9660  13
   2   9   1 513.876 51.5458  11
   2   9   1 517.120 53.8762  13
  -2   9  -1 537.568 55.9157   9
   2   9   2 912.382 70.1857  11
  -2   9  -2 971.096 72.9818   9
  -2   9  -2 934.300 77.1514  13
   2   9   2 904.267 71.4816  13
  -2   9  -3 82.8568 27.4173  13
  -2   9  -3 62.5943 23.9196   9
   2   9   3 92.8940 27.7617  11
   2   9   3 61.6155 22.3978  13
  -2   9  -4 2499.31 121.086   9
   2   9   4 2579.04 115.780  13
   2   9   4 2582.24 123.075  11
  -2   9  -4 2245.73 122.188  13
  -2   9  -5 45.9176 25.8734  13
   2   9   5 55.6846 26.1290  13
  -2   9  -5-7.52591 21.7048   9
  -2   9  -6 87.6907 23.9295   9
   2   9   6 14.9560 26.2127  11
  -2   9  -6 85.8751 29.2294  13
   2   9   6 106.779 27.8321  13
   2   9   7-9.61432 18.4119  13
  -2   9  -7-10.2798 23.9467   9
   2   9   7-11.5663 25.9748  11
  -2   9  -7-30.4565 28.3578  13
  -2   9  -8 566.812 58.9213  13
   2   9   8 648.269 59.3012  11
   2   9   8 612.673 51.2309  13
  -2   9  -8 534.221 57.2177   9
  -2   9  -9 41.0913 16.8305   9
   2   9   9 77.6510 24.9398  11
  -2   9  -9 52.3508 21.1926  13
   2   9  10-20.9375 19.8664  11
  -2   9 -10 39.1249 18.1047   9
  -2   9 -10 7.86120 13.5583  13
   2   9  11 148.432 23.5399  11
  -2   9 -11 105.144 24.0064   9
  -2   9 -11 106.585 20.3406  13
  -2  10   9 759.824 45.7001  11
  -2  10   8-21.3383 17.1432  11
   2  10  -8 20.5485 11.5135  13
  -2  10   7 6.72238 16.1867  11
   2  10  -7 31.9605 15.6888  13
  -2  10   6 12.8448 20.8673  11
   2  10  -6 71.2871 22.2464  13
  -2  10   5 718.384 57.2867   9
  -2  10   5 541.337 51.8228  11
   2  10  -5 708.853 60.3442  13
   2  10  -4 174.959 36.3739  13
  -2  10   4 90.6138 20.7418  11
  -2  10   4 178.679 33.9121   9
  -2  10   3 322.971 35.6915  13
  -2  10   3 451.658 45.2355   9
   2  10  -3 467.922 50.5912  13
  -2  10   2-23.0206 22.5801   9
  -2  10   2-5.39197 14.9142  13
   2  10  -2-41.3866 26.3256  13
  -2  10   1 103.916 24.2128   9
  -2  10   1 125.888 26.3955  13
   2  10  -1 101.391 24.7082  13
   2  10   0 472.665 49.5757  13
  -2  10   0 464.261 47.0251  13
  -2  10   0 472.407 46.4745   9
  -2  10  -1 1374.22 81.8844  13
   2  10   1 1469.94 83.2899  13
  -2  10  -1 1434.50 80.0541   9
   2  10   2 156.078 26.4743  11
  -2  10  -2 138.068 28.3227   9
   2  10   2 161.503 31.1690  13
  -2  10  -2 154.807 31.9644  13
  -2  10  -3 677.218 61.0764  13
   2  10   3 667.119 54.0696  11
  -2  10  -3 740.382 60.5420   9
   2  10   3 697.411 56.0872  13
  -2  10  -4 272.207 39.1963   9
   2  10   4 216.006 34.2190  11
   2  10   4 236.879 33.7816  13
  -2  10  -4 240.722 38.9004  13
   2  10   5 713.535 57.1408  11
  -2  10  -5 727.605 58.4062   9
  -2  10  -5 668.527 60.6444  13
   2  10   5 768.327 54.2265  13
   2  10   6 360.730 40.7217  11
   2  10   6 333.319 36.4987  13
  -2  10  -6 358.277 42.4520   9
  -2  10  -6 357.499 42.7095  13
   2  10   7 199.144 31.7755  11
  -2  10  -7 162.766 28.6210   9
  -2  10  -7 208.772 31.6139  13
   2  10   7 161.115 23.3835  13
  -2  10  -8 42.3855 16.3088  13
  -2  10  -8 14.2309 12.0700   9
   2  10   8 64.2088 21.0264  11
   2  10   9 51.0631 13.7706  11
  -2  10  -9 71.5156 15.8512  13
   2  11  -4 7.00234 10.8705  13
  -2  11   3 80.8368 18.4106   9
   2  11  -3 55.8502 17.2780  13
  -2  11   2 636.935 44.5410   9
   2  11  -2 651.379 48.8206  13
  -2  11   1 79.1939 16.3736  13
   2  11  -1 78.9232 20.8580  13
  -2  11   1 126.448 23.1469   9
   2  11   0 857.465 55.0836  13
  -2  11   0 859.490 52.2335   9
  -2  11   0 716.260 45.3167  13
  -2  11  -1-4.76539 14.4051   9
   2  11   1 38.7211 16.0223  13
  -2  11  -1 4.67087 10.7199  13
  -2  11  -2 39.1041 14.4565  13
  -2  11  -2 13.8705 11.9790   9
   2  11   3-12.4925 13.8729  13
  -2  11  -3-4.44815 13.1920  13
  -2  11  -3 6.37088 10.5559   9
  -2  11  -4-16.6569 15.4791  13
  -3   0  18 18.7027 12.2245  10
   3   0 -17 143.049 29.9888  12
  -3   0  17 129.724 29.6600  10
   3   0 -16-0.25002 16.5574  12
  -3   0  16-24.1791 21.8962  10
   3   0 -15 36.9953 19.5402  12
   3   0 -14-16.5938 21.7930  12
   3   0 -13 8763.63 257.847  12
   3   0 -12 7.65157 21.9348  12
   3   0 -11 1132.33 221.022   6
  -3   0  11 1010.35 236.019  19
  -3   0  10-31.0885 67.7054  19
   3   0 -10 6.91586 43.3941   6
   3   0  -9 7.85152 41.9333   6
  -3   0   9 152.843 108.152  19
   3   0  -8 40.0399 35.5854   6
   3   0  -8-26.4892 56.3172   3
  -3   0   8-26.9357 73.8789  19
  -3   0   7 2622.63 271.346  19
   3   0  -7 3003.54 223.033   3
   3   0  -7 2860.29 259.336   6
   3   0  -6 290.828 69.8271   3
  -3   0   6 189.914 87.2491  19
   3   0  -6 246.181 74.8544   6
  -3   0   5 42498.6 937.758  19
   3   0  -5 42228.5 865.678   6
   3   0  -5 41438.9 667.568   3
   3   0  -4 436.566 79.4457   5
   3   0  -4 463.198 85.6457   6
   3   0  -4 446.217 61.5108   3
   3   0  -3 65807.9 603.829   3
   3   0  -3 66953.2 706.383   4
   3   0  -2 100.959 16.8093   3
   3   0  -2 67.9498 27.1989   5
   3   0  -2 146.287 42.0242   4
   3   0  -1 194838. 1145.89   4
   3   0  -1 191372. 1096.54   5
   3   0   0 271.289 50.2927   2
   3   0   0 304.492 30.8518   5
  -3   0   0 214.739 32.0620   3
   3   0   1 3084.47 163.310   2
  -3   0  -1 4048.65 156.881   3
   3   0   2 169.063 44.8333   2
  -3   0  -2 232.501 51.4682   3
  -3   0  -3 256374. 1797.10   3
   3   0   3 258121. 1180.74   1
   3   0   4 25.2854 36.8365   2
  -3   0  -4 40.4891 30.7038   3
   3   0   4 39.7985 15.0468   1
   3   0   5 16873.0 606.085   2
  -3   0  -5 16223.2 553.171   3
  -3   0  -6 74.3405 33.7621   6
  -3   0  -6 120.774 60.3304   3
   3   0   6 132.200 68.8189   2
   3   0   7 9552.31 547.667   2
  -3   0  -7 9253.69 480.712   3
  -3   0  -8 8.75285 46.9398   3
   3   0   8 9.69451 37.2963   2
  -3   0  -9 245.256 90.6641   3
   3   0   9 275.574 140.381   2
  -3   0 -10 131.142 84.6773   3
   3   0  10 171.659 119.295   2
   3   0  11 2236.77 369.758   2
  -3   0 -11 2216.05 303.824   3
   3   0  12 2.58381 17.2769  16
   3   0  12 28.9543 16.6282  10
   3   0  13 14550.7 330.608  10
   3   0  13 14135.2 298.041  16
   3   0  14-11.3550 27.9312  10
   3   0  14-15.9349 24.9500  16
   3   0  15 370.506 56.1638  10
   3   0  16 7.38440 16.5907  10
   3   0  17 28.3164 20.6145  15
   3   0  17 30.5096 18.4515  10
   3   0  18-9.01767 12.8339  15
  -3  -1  18 90.6840 24.0139  10
   3   1 -17-14.5934 17.3368  12
  -3  -1  17-32.4615 21.0823  10
  -3  -1  16 36.8308 22.5193  10
   3  -1 -16 58.5701 21.2904  12
   3   1 -16 53.1841 23.8364  12
  -3   1  15 1228.90 84.9602  16
   3   1 -15 1281.55 94.5724  12
   3  -1 -15 1258.57 93.0316  12
   3  -1 -14 741.950 75.5703  12
  -3   1  14 663.958 65.0931  16
   3   1 -14 754.807 74.7203  12
  -3   1  13 2187.22 117.500  16
   3   1 -13 2353.46 132.177  12
   3  -1 -13 2336.96 134.054  12
   3  -1 -12 625.830 69.9295  12
   3   1 -12 657.241 193.006   6
   3  -1 -12 710.101 75.9007   8
  -3   1  12 601.879 60.4484  16
   3   1 -12 664.689 69.6747  12
  -3   1  11 2083.81 330.531  19
   3  -1 -11 2038.73 284.408   6
  -3  -1  11 2308.98 352.983  19
   3   1 -11 2180.77 307.387   6
   3  -1 -10 1347.01 218.401   6
  -3  -1  10 1427.03 257.312  19
   3   1 -10 1507.64 241.155   6
  -3   1  10 1413.45 263.599  19
   3  -1  -9 22413.2 726.182   3
   3   1  -9 24695.9 905.906   6
   3  -1  -9 24877.5 859.499   6
  -3   1   9 24134.9 970.702  19
  -3  -1   9 24040.5 965.190  19
   3   1  -8 15822.0 609.133   3
   3  -1  -8 16351.5 641.693   5
   3   1  -8 17128.9 710.443   6
  -3  -1   8 15708.7 725.801  19
  -3   1   8 16212.2 739.926  19
   3  -1  -8 16196.9 659.021   6
   3  -1  -8 15205.9 559.756   3
   3   1  -7 3264.10 293.317   6
   3  -1  -7 3143.60 239.190   3
   3   1  -7 2945.59 238.234   1
   3  -1  -7 3427.93 275.405   5
   3   1  -7 3136.48 249.518   3
  -3  -1   7 3315.49 309.806  19
  -3   1   7 3446.41 315.994  19
   3   1  -6 2846.21 225.144   1
  -3   1   6 3235.65 284.519  19
   3   1  -6 3113.62 225.103   3
   3   1  -6 3170.19 268.893   6
   3  -1  -6 2963.46 212.385   3
   3  -1  -6 3006.20 245.901   6
  -3  -1   6 3176.59 282.075  19
   3  -1  -6 2693.60 226.351   5
  -3  -1   5 27598.4 754.765  19
   3   1  -5 27389.1 591.043   3
   3  -1  -5 26757.7 665.936   6
   3  -1  -5 26073.6 648.347   5
   3   1  -5 27407.7 735.172   6
   3   1  -5 25779.4 654.644   1
   3  -1  -5 26492.4 578.588   3
   3  -1  -4 52477.5 735.191   3
  -3   1   4 58562.6 1007.82  19
   3   1  -4 52754.4 696.888   3
  -3  -1   4 55882.3 986.794  19
   3  -1  -4 54720.0 845.141   5
   3   1  -4 52839.7 897.986   1
   3   1  -4 58937.5 1010.48   6
   3  -1  -3 3809.14 197.588   5
   3   1  -3 3466.79 207.370   4
  -3  -1   3 3431.20 223.918  19
   3   1  -3 3365.17 214.638   1
   3  -1  -3 2881.24 101.280   4
  -3   1   3 3757.41 232.276  19
  -3   1   2 85575.8 1001.67  19
   3   1  -2 88506.4 1052.16   6
  -3  -1   2 85736.3 1013.96  19
   3  -1  -2 87328.3 838.087   5
   3   1  -2 86450.8 984.551   4
   3   1  -1 355659. 1852.85   6
   3   1  -1 359534. 1916.96   4
   3   1   0 157390. 1007.91   6
   3  -1   0 155854. 1007.91   5
  -3  -1   0 154259. 936.648   3
  -3   1   0 153373. 1121.47  18
  -3   1  -1 46303.7 660.027  18
  -3  -1  -1 47954.7 651.451   3
   3   1   1 47494.2 650.499   1
   3   1   1 43474.6 393.858   6
   3  -1   1 43563.0 485.210   2
   3  -1   2 6080.98 202.859   2
  -3   1  -2 6457.92 272.251   3
  -3  -1  -2 5998.36 153.327   5
   3   1   2 6750.55 251.122   1
  -3  -1  -2 7094.09 289.379   3
   3  -1   3 40081.9 617.154   2
  -3   1  -3 39882.9 738.817   3
   3   1   3 39069.1 590.771   1
   3   1   3 39809.3 709.701   4
  -3  -1  -3 37933.5 538.072   5
   3   1   3 40129.1 791.711   2
  -3   1  -4 124.573 49.7224   3
   3  -1   4 24.4613 20.6796   2
   3   1   4 55.3049 27.5155   1
   3   1   4 30.5975 35.7002   2
  -3  -1  -5 755.603 123.712   3
   3   1   5 684.639 130.157   2
  -3  -1  -5 686.490 100.757   5
   3  -1   5 703.066 114.818   2
  -3   1  -5 683.438 118.994   3
   3   1   6 318.406 105.272   2
   3  -1   6 434.355 114.846   2
  -3  -1  -6 557.042 113.048   3
  -3  -1  -7 251.498 84.4229   3
  -3   1  -7 418.748 110.197   3
   3  -1   7 376.918 116.831   2
   3   1   7 259.943 94.3038   2
   3   1   8 341.558 128.808   2
  -3   1  -8 413.521 121.258   3
  -3  -1  -8 367.379 103.569   3
   3   1   8 306.683 91.2258   4
   3  -1   8 613.476 163.109   2
  -3   1  -9 1003.82 197.544   3
   3   1   9 1115.27 235.329   2
  -3  -1  -9 950.273 174.111   3
   3  -1   9 1038.86 220.553   2
  -3   1 -10 64.6814 77.7086   3
  -3  -1 -10 49.9474 58.5058   3
   3   1  10 27.5601 78.5822   2
  -3   1 -11 403.222 135.828   3
   3   1  11 377.588 156.754   2
  -3  -1 -11 564.221 156.073   3
   3  -1  12 1066.80 96.1514  10
   3   1  12 1190.28 85.1605  16
   3  -1  12 957.785 79.9249  16
   3   1  13 8049.38 223.151  16
   3  -1  13 8550.90 257.487  10
   3  -1  14 382.343 58.5966  10
   3   1  14 407.002 50.8734  16
   3  -1  15 92.8131 31.4816  10
   3   1  15 114.283 30.8609  16
   3  -1  16 51.7176 23.6325  15
   3  -1  16-6.99614 21.2353  10
   3  -1  17 46.5146 19.9640  15
   3  -1  17 31.1674 18.7367  10
   3   1  18 1.90409 13.9645  15
   3  -1  18 7.98660 10.2016  15
   3  -1  18 32.4277 14.8031  10
  -3  -2  18 13.1279 16.5011  10
  -3  -2  17 22.3094 19.7523  10
  -3   2  17-25.5113 17.0357  16
   3   2 -16 105.240 27.9912  12
  -3   2  16 91.7066 27.1824  16
  -3  -2  16 116.761 32.8047  10
  -3   2  15 344.274 47.8456  16
   3   2 -15 321.924 48.2006  12
   3   2 -14 324.800 49.0269  12
  -3   2  14 387.538 56.5984  16
  -3   2  13 626.254 66.1383  16
   3   2 -13 640.743 68.5472  12
  -3   2  12 1392.48 95.4813  16
   3  -2 -12 1377.34 104.811   8
   3   2 -12 1530.24 103.392  12
   3   2 -11 82.7676 76.6364   6
   3   2 -11 144.067 38.3867  12
  -3   2  11 56.7387 56.7481  19
  -3  -2  11 107.463 103.888  19
   3  -2 -10 6758.08 497.037   6
   3   2 -10 6164.95 526.200   6
  -3   2  10 6644.42 560.693  19
   3  -2 -10 5721.52 424.898   3
   3  -2 -10 6781.81 498.525   5
  -3  -2  10 6375.97 548.676  19
   3  -2  -9 7252.14 458.046   3
  -3  -2   9 7047.59 532.985  19
   3  -2  -9 7319.81 493.686   5
   3  -2  -9 7754.41 506.713   6
  -3   2   9 7038.43 539.727  19
   3   2  -9 7937.84 565.985   6
  -3  -2   8 10822.8 619.676  19
   3  -2  -8 10568.1 559.616   6
   3  -2  -8 9523.66 493.800   3
   3   2  -8 10726.0 621.642   6
  -3   2   8 9849.54 601.815  19
   3  -2  -8 10303.0 548.499   5
  -3  -2   7 81582.8 1579.52  19
   3  -2  -7 75131.4 1308.73   3
   3   2  -7 78713.6 1578.00   6
   3  -2  -7 77249.1 1388.77   5
  -3   2   7 78137.3 1571.69  19
   3  -2  -7 82537.3 1435.85   6
   3   2  -7 74524.4 1329.43   1
   3  -2  -6 541.583 107.382   5
  -3  -2   6 659.774 132.433  19
   3   2  -6 489.610 125.411   6
  -3   2   6 538.161 118.234  19
   3   2  -6 476.664 108.158   1
   3  -2  -6 624.264 112.652   3
  -3   2   5 36198.4 900.769  19
   3   2  -5 33814.7 908.106   6
   3  -2  -5 33482.8 770.981   5
   3   2  -5 34131.6 849.166   1
  -3  -2   5 33727.2 885.836  19
   3   2  -5 34751.9 811.952  18
   3   2  -4 53159.2 890.802  18
  -3  -2   4 53780.1 1002.80  19
   3  -2  -4 56072.6 902.132   5
   3   2  -4 53464.8 1019.08   1
  -3   2   4 56157.8 1021.11  19
   3   2  -4 55432.1 1078.69   6
  -3   2   3 463.389 87.7870  19
   3   2  -3 322.155 77.7842   4
   3   2  -3 515.152 81.1772  18
   3   2  -3 497.334 96.7914   6
  -3  -2   3 359.925 81.7208  19
   3  -2  -3 452.789 78.1824   5
   3   2  -3 438.610 89.1145   1
   3  -2  -2 123771. 1182.52   5
   3   2  -2 117830. 1375.30   4
   3   2  -2 116767. 1097.91  18
  -3  -2   2 118584. 1237.98  19
   3   2  -2 118915. 1363.85   1
   3   2  -2 122652. 1313.18   6
  -3   2   2 118977. 1228.87  19
   3  -2  -1 217978. 1555.10   5
   3   2  -1 207437. 1587.37   2
   3   2  -1 211208. 1562.85   6
  -3  -2   1 217203. 1569.99  19
  -3   2   1 208386. 1476.53  19
   3   2   0 17457.2 468.398   2
   3   2   0 17717.3 411.056   6
  -3   2   0 17588.0 491.292  18
   3  -2   0 17219.5 448.143   5
   3   2   1 808.892 79.7521   6
   3   2   1 929.253 112.298   1
  -3   2  -1 981.761 123.782  18
   3   2   2 788.956 103.810   1
  -3   2  -2 987.408 124.332  18
  -3  -2  -2 1020.23 116.387   3
  -3  -2  -2 1050.14 97.5578   5
   3   2   2 870.959 122.607   2
   3   2   2 987.634 122.339   4
   3   2   3 9463.73 368.930   1
   3   2   3 9946.24 428.431   2
  -3  -2  -3 9460.33 295.612   5
  -3   2  -3 8980.51 397.968  18
  -3  -2  -3 8991.33 383.420   3
   3   2   3 8908.74 390.680   4
   3   2   4 3693.78 281.744   2
   3   2   4 4136.37 281.568   4
  -3   2  -4 3444.20 266.138   3
   3  -2   4 3189.51 161.765   2
  -3  -2  -4 3727.60 206.614   5
  -3  -2  -4 3930.52 274.490   3
  -3  -2  -5 14215.7 557.037   3
   3   2   5 13945.9 603.573   2
   3   2   5 13758.1 540.366   4
  -3  -2  -5 13558.5 451.841   5
   3  -2   5 13842.6 438.581   2
  -3   2  -5 13977.1 586.750   3
   3   2   6 17384.2 635.965   4
  -3   2  -6 17897.2 728.976   3
   3   2   6 18179.7 752.800   2
  -3  -2  -6 18194.7 674.472   3
  -3  -2  -6 16414.6 557.483   5
  -3   2  -7 15358.7 738.388   3
   3   2   7 16887.6 794.647   2
  -3  -2  -7 15760.6 589.377   5
  -3  -2  -7 17199.1 696.353   3
   3   2   7 15009.9 612.120   4
   3   2   8 12960.8 760.057   2
  -3  -2  -8 12324.1 557.588   5
  -3  -2  -8 12964.5 636.762   3
  -3   2  -8 12852.3 719.116   3
  -3   2  -9 18192.6 905.419   3
   3   2   9 16714.3 924.057   2
  -3  -2  -9 17264.9 777.712   3
  -3   2 -10 9290.57 675.817   3
  -3  -2 -10 9193.75 591.231   3
   3   2  10 8888.56 718.202   2
   3   2  11 2065.53 374.308   2
  -3   2 -11 2277.90 345.370   3
  -3  -2 -11 2452.27 321.192   3
   3  -2  11 2039.00 126.704  10
   3   2  11 2090.87 109.710  16
   3  -2  12 455.075 61.4130  10
   3   2  12 473.429 55.8435  16
   3   2  13 28.1583 20.9198  16
   3  -2  13 23.8302 26.5905  10
   3   2  14 1216.95 86.1962  16
   3  -2  14 1183.18 96.4518  10
   3  -2  14 998.005 89.3391  15
   3  -2  15 318.978 55.2309  10
   3   2  15 285.266 43.6855  16
   3  -2  15 299.807 47.8343  15
   3  -2  16-35.5635 28.8782  10
   3   2  16-27.7578 24.0520  16
   3  -2  17 51.2847 22.4503  10
   3  -2  18 48.2117 16.8835  10
   3   2  18 50.3531 18.5733  15
  -3  -3  18 5.03320 12.6713  10
  -3  -3  17 0.46648 17.4106  10
  -3   3  17 7.01610 13.2514  16
  -3   3  16 107.720 25.7508  16
  -3  -3  16 61.6978 27.4668  10
  -3   3  15 150.986 33.3672  16
  -3  -3  15 100.518 35.0976  10
   3   3 -15 129.933 33.1245  12
  -3   3  14 108.660 29.1809  16
   3   3 -14 66.3611 27.1809  12
   3   3 -13 154.648 34.9638  12
  -3   3  13 151.630 37.4739  16
  -3   3  12 1745.34 110.449  16
   3   3 -12 1846.74 113.037  12
  -3   3  11 5453.95 551.254  19
  -3  -3  11 5341.83 540.570  19
   3   3 -11 6899.82 217.851  12
  -3   3  11 7317.63 216.800  16
   3   3 -10 8247.20 659.522   6
  -3   3  10 7560.29 611.199  19
  -3  -3  10 7151.38 591.892  19
   3  -3 -10 8572.52 564.759   3
   3  -3 -10 9220.76 619.951   5
  -3   3   9 483.134 166.672  19
   3   3  -9 396.527 141.989   6
   3  -3  -9 704.875 170.030   5
   3  -3  -9 552.863 149.784   6
  -3  -3   9 292.791 125.966  19
   3  -3  -9 572.802 144.708   3
   3   3  -8 3402.94 388.122   6
   3  -3  -8 3409.14 342.319   5
  -3  -3   8 2918.56 336.523  19
   3  -3  -8 3439.57 327.874   3
   3  -3  -8 3678.30 342.879   6
  -3   3   8 2914.54 334.977  19
   3   3  -7 6190.23 494.824   6
  -3  -3   7 5994.62 452.615  19
   3   3  -7 6038.95 464.784  18
  -3   3   7 6183.64 461.241  19
   3  -3  -7 5949.35 407.119   3
   3  -3  -7 5768.78 402.584   5
   3   3  -6 15240.8 733.630   6
  -3   3   6 15837.6 675.960  19
   3  -3  -6 16515.3 633.816   5
   3  -3  -6 17039.5 628.506   3
  -3  -3   6 16152.0 682.657  19
   3   3  -6 15093.6 643.144   1
   3   3  -6 15609.5 687.455  18
   3   3  -5 34063.9 930.678  18
   3   3  -5 32637.9 997.545   6
   3  -3  -5 34438.8 835.170   5
   3   3  -5 32206.5 921.887   1
  -3  -3   5 33669.8 902.459  19
  -3   3   5 34759.9 917.152  19
  -3   3   4 3199.30 254.895  19
  -3  -3   4 2335.81 222.667  19
  -3   3   3 51002.9 925.003  19
   3  -3  -3 51473.8 910.721   5
   3   3  -3 52308.8 976.254  18
  -3  -3   3 48880.3 907.733  19
   3   3  -3 51102.5 1055.74   6
   3   3  -3 50116.7 1065.13   1
  -3  -3   2 2135.40 172.717  19
   3   3  -2 2083.78 207.998   1
   3   3  -2 2367.65 211.972   6
   3  -3  -2 2313.94 190.652   5
   3   3  -2 2270.50 222.363   4
  -3   3   2 2268.29 176.297  19
   3   3  -1 4927.53 283.961   6
   3   3  -1 4554.99 288.728   1
   3  -3  -1 4761.38 279.414   5
   3   3  -1 5177.94 326.250   4
  -3  -3   1 4208.36 220.280  19
  -3   3   1 4525.72 224.206  19
   3   3  -1 4857.02 265.788   2
   3   3   0 2545.41 228.809   4
   3   3   0 2236.25 187.700   2
   3   3   0 2276.41 182.788   6
   3   3   0 2140.49 194.842   1
   3  -3   0 2358.39 207.868   5
   3   3   1 28100.9 692.662   2
  -3   3  -1 28456.9 768.340  18
   3   3   1 28694.7 772.245   4
   3   3   1 27571.5 706.062   1
   3   3   2 4126.24 278.415   1
   3   3   2 4335.67 294.332   2
  -3   3  -2 4082.07 298.503  18
   3   3   2 4255.34 302.659   4
  -3  -3  -2 4334.34 252.300   5
   3   3   3 8703.44 440.469   2
  -3  -3  -3 8545.64 346.415   5
   3   3   3 8266.71 435.173   4
  -3   3  -3 8655.88 451.151  18
   3   3   4 5195.44 369.350   2
  -3  -3  -4 5753.22 298.669   5
  -3   3  -4 5461.74 377.589  18
  -3  -3  -4 5734.54 360.576   3
   3   3   4 5599.97 372.303   4
  -3   3  -5 9546.67 537.340  18
   3   3   5 9603.11 503.388   4
   3   3   5 9990.05 545.981   2
  -3  -3  -5 10231.0 519.255   3
  -3  -3  -5 10466.5 429.710   5
  -3  -3  -6 8393.84 425.194   5
  -3   3  -6 8635.48 554.272  18
   3   3   6 7840.40 463.351   4
   3   3   6 8368.09 542.614   2
  -3  -3  -6 9103.19 518.654   3
  -3   3  -7 807.207 191.316  18
  -3  -3  -7 682.538 137.986   5
   3   3   7 836.271 192.371   2
  -3  -3  -7 760.357 161.784   3
  -3  -3  -8 8471.51 556.209   3
  -3   3  -8 7496.51 612.982  18
   3   3   8 7988.38 620.360   2
  -3   3  -9 493.241 172.657  18
   3   3   9 328.426 132.498   2
  -3  -3  -9 364.376 118.202   3
   3   3  10 381.338 153.629   2
  -3  -3 -10 521.461 148.782   3
  -3   3 -10 756.216 207.788  18
   3  -3  11 157.140 39.9846  10
   3   3  11 115.040 28.9010  16
   3   3  12 560.382 58.5829  16
   3  -3  12 522.646 70.0297  10
   3  -3  13 39.3646 27.3702  10
   3   3  13 99.9250 28.8817  16
   3  -3  14 47.3094 26.7898  10
   3   3  14 36.2553 20.6727  16
   3   3  15 77.4863 24.0433  16
   3  -3  15 79.8429 31.9504  10
   3  -3  16-18.3940 21.5094  10
   3   3  16-31.2367 22.5357  16
   3  -3  17 882.189 65.2684  10
   3  -3  18-17.8311 12.9853  10
   3   3  18 10.9777 12.9843  15
  -3   4  17 152.645 23.5224  16
  -3  -4  17 172.465 31.0904  10
  -3  -4  16 136.230 31.8130  10
  -3   4  16 133.299 28.7154  16
  -3   4  15 76.2055 24.1577  16
  -3  -4  15 45.4026 29.4261  10
  -3   4  14 334.047 45.3222  16
   3   4 -14 326.165 46.3606  12
  -3  -4  14 275.318 51.5392  10
   3   4 -13 764.106 71.9577  12
  -3   4  13 779.055 70.5901  16
  -3   4  12 375.441 51.0588  16
   3   4 -12 425.827 55.3959  12
   3   4 -11 82.8084 26.0363  12
  -3   4  11 46.7160 24.9766  11
  -3   4  11 126.164 33.6865  16
  -3   4  10 846.151 86.1854  11
   3  -4 -10 664.240 170.407   3
   3   4 -10 951.894 83.9211  12
   3   4  -9 1754.54 317.816   6
   3  -4  -9 1928.88 281.045   5
   3  -4  -9 1700.05 259.118   3
   3   4  -8 2084.26 339.026   6
   3  -4  -8 2554.11 298.963   6
   3  -4  -8 2405.92 305.792   5
   3  -4  -8 2569.36 305.205   3
   3   4  -7 5594.10 519.380   6
   3  -4  -7 5936.24 434.808   5
   3  -4  -7 5707.25 428.444   3
   3   4  -6 14766.3 704.826   1
   3  -4  -6 15817.9 651.857   5
   3   4  -6 14988.3 749.301  18
   3   4  -6 14702.9 790.669   6
   3   4  -5 6623.12 494.887   6
   3  -4  -5 6483.59 403.871   5
   3   4  -5 5963.24 443.434   1
   3   4  -5 6103.18 444.474  18
   3   4  -4 13545.2 613.538  18
   3   4  -4 13166.0 639.422   1
   3   4  -4 12536.2 628.592   6
   3  -4  -4 13432.5 539.216   5
   3   4  -3 6218.37 425.240   1
   3   4  -3 6801.89 429.051   6
   3  -4  -3 6771.46 377.885   5
   3   4  -2 110323. 1621.81   6
   3   4  -2 112417. 1744.95   1
   3  -4  -2 115565. 1546.80   5
   3   4  -1 3823.39 315.305   1
   3   4  -1 4081.48 273.799   2
   3  -4  -1 3853.22 291.650   5
   3   4   0 73897.3 1345.87   1
   3   4   0 75510.7 1450.70   4
   3   4   0 75763.9 1215.85   2
   3   4   1 1880.55 202.769   2
  -3   4  -1 1856.08 230.892  18
   3   4   1 1647.89 202.275   1
  -3  -4  -1 1981.47 215.159   5
   3   4   1 1802.93 226.869   4
   3   4   2 306.586 84.0150   2
  -3   4  -2 326.621 101.587  18
   3   4   2 213.336 81.5314   4
  -3  -4  -2 382.947 94.1068   5
  -3  -4  -3 16858.1 577.063   5
   3   4   3 18018.5 693.071   2
   3   4   3 16562.7 710.878   4
  -3   4  -3 17000.3 713.170  18
   3   4   4 1919.61 245.324   2
  -3  -4  -4 2091.36 205.882   5
  -3  -4  -4 2014.78 244.707   3
  -3   4  -4 1666.49 229.440  18
   3   4   4 1850.66 241.911   4
  -3  -4  -5 3567.90 338.601   3
  -3   4  -5 3181.76 348.428  18
  -3  -4  -5 3576.01 287.161   5
   3   4   5 3012.97 312.340   4
   3   4   5 3560.02 356.024   2
   3   4   6 9948.75 640.088   2
  -3   4  -6 9837.62 655.028  18
  -3  -4  -6 11353.6 643.160   3
  -3  -4  -6 10156.0 514.540   5
  -3   4  -7 307.207 127.017  18
  -3  -4  -7 409.858 133.186   3
   3   4   7 407.056 157.914   2
  -3  -4  -8 2056.69 296.241   3
   3   4   8 1793.88 326.179   2
  -3   4  -8 1917.46 339.793  18
  -3   4  -9 242.311 126.332  18
  -3  -4  -9 90.6926 75.1811   3
   3   4   9 101.507 85.2009   2
   3   4  10 6413.48 193.257  16
   3   4  10 6859.06 210.974  13
   3  -4  10 6463.65 239.123  10
   3  -4  11 455.786 67.1480  10
   3   4  11 479.368 55.2410  16
   3   4  12 1332.67 91.1163  16
   3  -4  12 1233.40 107.903  10
   3  -4  13 469.400 65.3319  10
   3   4  13 515.251 57.2378  16
   3  -4  14 285.401 50.2283  10
   3   4  14 423.857 51.8226  16
   3   4  15 5.03459 16.1959  16
   3  -4  15-4.73447 20.2772  10
   3   4  16 194.179 32.0983  16
   3  -4  16 237.972 38.8580  10
   3  -4  17 18.0902 15.4981  10
  -3   5  16 493.111 41.8617  16
  -3  -5  16 473.253 46.4383  10
  -3   5  15 18.4643 18.1563  16
  -3  -5  15-29.0303 22.1436  10
  -3  -5  14 175.165 38.6761  10
  -3   5  14 122.272 29.8601  16
  -3   5  13 1145.96 79.7394  16
  -3  -5  13 1090.48 90.6021  10
  -3   5  12 160.490 41.0959  16
  -3  -5  12 146.604 37.9464  10
  -3   5  12 137.456 35.5209  11
  -3   5  11 3642.36 167.223  11
  -3   5  11 3711.28 153.414  16
   3   5 -11 3226.95 152.459  12
  -3   5  10 4387.74 188.322  11
   3   5 -10 3933.72 171.327  12
  -3   5   9 7.06485 21.8701  11
  -3   5   9 28.2878 28.8188   9
   3   5  -9 2.97937 15.3405  12
  -3   5   8 3410.13 142.109   9
   3  -5  -8 3191.26 355.252   5
   3  -5  -8 3418.84 377.624   3
   3   5  -8 3013.86 426.699   6
  -3   5   8 3385.73 167.918  11
   3   5  -7 745.860 192.417   6
   3  -5  -7 711.297 157.516   5
   3  -5  -7 913.383 183.660   3
   3  -5  -6 4580.96 380.489   5
   3   5  -6 3503.38 418.934   6
   3   5  -5 9602.95 645.087   6
   3  -5  -5 10316.0 551.395   5
   3  -5  -4 1730.17 221.054   5
   3  -5  -3 17.2202 42.6944   5
   3  -5  -2 105.681 68.7560   5
   3  -5  -1 17.2490 36.7815   5
   3   5  -1 69.5812 35.5737   2
   3  -5   0 3206.85 322.796   5
   3   5   0 2718.73 258.759   2
   3   5   1 244.592 81.9310   2
   3  -5   1 248.008 98.9288   5
  -3  -5  -1 321.562 108.873   5
  -3  -5  -2 409.323 109.746   5
   3   5   2 302.079 104.688   2
  -3   5  -3 1415.96 239.884  18
   3   5   3 1242.38 199.456   2
  -3  -5  -3 1273.91 187.457   5
   3   5   3 1051.22 207.078   4
  -3   5  -4 951.229 204.215  18
   3   5   4 980.011 188.491   2
  -3  -5  -4 981.630 190.877   3
   3   5   4 938.799 194.673   4
  -3  -5  -4 1132.04 174.210   5
  -3  -5  -5 4437.19 359.809   5
   3   5   5 3981.23 403.702   2
  -3  -5  -5 4882.59 442.172   3
  -3   5  -5 4618.25 462.177  18
   3   5   6 1537.74 273.833   2
  -3   5  -6 1543.88 292.565  18
  -3  -5  -6 1917.71 293.784   3
  -3  -5  -7 332.464 140.121   3
  -3   5  -7 284.644 133.107  18
   3   5   7 433.441 173.389   2
   3   5   8 134.021 35.4788  11
   3   5   8 141.226 32.1942  13
  -3  -5  -8 121.733 88.8298   3
  -3   5  -8-57.6736 70.4909  18
   3   5   8 180.619 134.019   2
   3   5   9 11.0908 20.7253  11
   3   5   9 5.94147 19.6487  16
   3   5   9-14.6521 20.7727  13
   3  -5   9 20.0048 24.8340  10
   3  -5  10 25.5599 28.4402  10
   3   5  10 15.1044 22.8314  11
   3   5  10-45.3123 31.4787  16
   3   5  10-2.63715 26.5171  13
   3   5  11 387.782 51.0612  16
   3  -5  11 403.418 65.0210  10
   3   5  12 515.933 58.2933  16
   3  -5  12 437.453 65.3582  10
   3  -5  13 1769.73 115.903  10
   3   5  13 1797.86 99.6998  16
   3  -5  14 8.96167 18.6658  10
   3   5  14 20.4188 20.7145  16
   3  -5  15 412.626 50.8636  10
   3   5  15 417.394 44.9008  16
   3   5  16-17.2292 16.5115  16
   3  -5  16-9.29823 14.1898  10
   3  -5  17 36.7863 14.2436  10
   3  -5  17 3.94536 10.0158  17
  -3   6  16 57.3524 14.9076  16
  -3  -6  15 50.9018 15.9081  10
  -3   6  15 47.3056 17.1838  16
  -3  -6  14 106.020 26.1539  10
  -3   6  14 136.087 28.4363  16
  -3   6  13 355.191 43.9154  16
  -3  -6  13 290.217 43.4194  10
  -3   6  13 320.991 42.1647  11
  -3   6  12 101.054 29.6468  11
  -3   6  12 138.961 33.0440  16
  -3   6  11-2.79293 27.8790  11
  -3   6  11 8.16464 26.6174  16
  -3   6  10 119.053 39.4065  11
  -3   6  10 19.9158 26.7102  16
  -3   6   9 3808.45 154.425   9
  -3   6   9 3721.88 173.749  11
  -3   6   8 916.171 90.9067  11
  -3   6   8 1062.01 82.4347   9
  -3   6   7 1997.17 106.838   9
  -3   6   7 1725.05 122.281  11
  -3   6   6 915.601 70.8574   9
  -3   6   6 897.217 89.5397  11
   3  -6  -6 901.401 190.093   5
   3  -6  -5 4888.17 433.407   5
   3  -6  -4 56.6045 59.7069   5
   3  -6  -3 8052.02 524.773   5
   3  -6  -2 141.360 89.4850   5
   3  -6  -1 10691.6 634.113   5
  -3  -6   0 664.304 170.293   5
   3  -6   0 635.280 165.029   5
  -3  -6  -1 1521.85 243.709   5
   3  -6   1 1559.75 255.601   5
   3  -6   2 727.330 178.631   5
  -3  -6  -2 583.436 143.485   5
  -3  -6  -3 10385.0 597.468   5
   3   6   4 6588.45 511.864   2
  -3  -6  -4 7535.77 578.399   3
   3   6   5 11493.1 712.701   2
  -3  -6  -5 13484.0 816.072   3
  -3   6  -5 12832.5 840.304  18
   3   6   6 1441.89 98.8603  11
   3   6   6 1017.38 224.769   2
  -3   6  -6 1691.14 328.768  18
   3   6   6 1430.56 89.8761  13
  -3  -6  -6 1686.52 298.978   3
   3   6   7 806.110 74.3521  11
   3   6   7 732.560 65.6188  13
   3   6   8 99.3634 29.2239  11
   3   6   8 158.624 38.6198  13
   3   6   9 923.512 77.6988  16
   3   6   9 1083.18 83.1389  13
   3   6   9 998.822 83.8486  11
   3   6  10 101.032 31.7923  11
   3   6  10 119.808 30.4966  13
   3   6  10 132.612 33.5001  16
   3   6  11 50.9925 24.4784  11
   3   6  11 82.8786 28.4989  16
   3  -6  11 46.4739 27.7209  10
   3  -6  12 109.849 33.2155  10
   3   6  12 154.231 31.0526  11
   3   6  12 167.976 36.0974  16
   3  -6  13-5.22982 23.9906  10
   3   6  13-1.08266 17.2071  16
   3   6  14 44.4543 19.5027  16
   3  -6  14-20.8070 19.0631  10
   3  -6  15 82.5037 21.9382  10
   3   6  15 97.0124 21.8861  16
   3  -6  16-1.40000 10.1280  17
  -3   7  15-2.38663 8.99264  16
  -3   7  14 26.8410 14.4603  16
  -3   7  13 16.9248 15.5885  16
  -3   7  13 13.2432 13.5631  11
  -3   7  12 12.8086 20.9804  11
  -3   7  12-12.7466 18.3982  16
  -3   7  11 735.988 68.7851  11
  -3   7  11 607.265 58.7168  16
  -3   7  10 199.451 41.5768  11
  -3   7  10 191.682 35.2502  16
  -3   7   9-28.2447 35.6277  11
  -3   7   8 1549.16 111.839  11
  -3   7   8 1781.08 104.972   9
   3   7  -8 1516.72 102.027  13
  -3   7   7 1117.75 99.8328  11
  -3   7   7 1230.64 88.0773   9
   3   7  -7 1146.15 91.4113  13
  -3   7   6 2186.20 139.495  11
  -3   7   6 2176.82 111.309   9
   3   7  -6 2028.00 120.650  13
  -3   7   5 74.2608 32.7436  11
  -3   7   5 38.0051 22.1554   9
  -3   7   4 496.632 68.2206  11
  -3   7   4 436.979 48.4326   9
   3   7  -4 408.084 51.9253  13
   3   7  -3 22.6260 25.1410  13
  -3   7   3 46.7190 22.9928  11
  -3   7   3-10.4793 20.9278   9
  -3   7   2 78.1525 23.5168  11
  -3   7   2 102.296 25.4556   9
  -3  -7   2 107.955 64.8082   5
  -3   7   2 87.5218 24.6793  13
   3   7  -2 81.5435 24.1461  13
  -3   7   1 896.406 69.9325   9
   3   7  -1 873.122 72.3820  13
  -3  -7   1 724.936 198.480   5
  -3   7   1 698.829 63.6806  13
   3   7   0 701.100 59.8374  11
   3   7   0 939.698 75.1907  13
  -3   7   0 1001.27 75.3020   9
  -3  -7   0 824.781 206.221   5
   3   7   1 13.1089 19.8938  11
  -3   7  -1 28.6962 18.8544   9
  -3  -7  -1 70.7282 79.8713   5
   3   7   1 31.4622 22.4353  13
   3   7   2 4456.55 161.025  11
   3   7   2 4326.77 158.029  13
  -3   7  -2 4512.51 160.841   9
   3   7   3 552.353 61.3030  11
   3   7   3 579.368 59.7307  13
   3   7   4 127.541 33.5118  13
   3   7   4 85.7754 31.1838  11
   3  -7   4 69.8510 21.1051  17
   3   7   5 1761.30 103.277  13
   3  -7   5 1489.86 104.043  17
   3   7   5 1792.25 110.042  11
   3  -7   6-7.78525 20.0744  17
   3   7   6 26.6128 21.1318  13
   3   7   6 25.3780 28.0510  11
   3   7   7 2711.09 138.326  11
   3   7   7 2601.29 125.792  13
   3   7   8 1150.42 92.5052  11
   3   7   8 1348.53 89.4102  13
   3   7   9 14.1695 29.5808  11
   3   7   9 26.5569 20.3230  13
   3   7  10-3.74264 24.6541  11
   3   7  10 72.0401 26.4298  13
   3   7  11 680.384 60.4393  11
   3   7  11 565.790 54.1725  16
   3   7  12 425.127 45.3832  11
   3   7  12 414.237 45.0544  16
   3  -7  13 732.114 64.9460  17
   3   7  13 850.545 56.9638  16
   3  -7  14 46.9645 19.2383  17
   3   7  14 50.9677 14.6021  16
  -3   8  13 4.25769 9.40895  11
  -3   8  13 22.7842 12.2370  16
  -3   8  12 118.299 22.5490  11
  -3   8  12 123.382 23.5106  16
  -3   8  11 356.152 43.1859  11
  -3   8  11 302.730 37.7598  16
  -3   8  10 169.831 37.5717  11
  -3   8  10 212.691 34.1029  16
  -3   8   9 548.339 62.1263  11
  -3   8   9 488.132 54.2677  16
   3   8  -9 526.538 52.4485  13
  -3   8   8 734.200 74.9257  11
  -3   8   8 715.805 66.4312   9
   3   8  -8 641.002 61.3324  13
  -3   8   7 106.728 36.0387  11
  -3   8   7 49.1657 22.3806   9
   3   8  -7 94.6089 28.7123  13
  -3   8   6 2557.59 144.791  11
  -3   8   6 2566.98 122.468   9
   3   8  -6 2582.12 133.410  13
  -3   8   5 172.877 38.2985  11
  -3   8   5 141.194 34.3627   9
   3   8  -5 158.429 38.5131  13
  -3   8   4 2367.38 135.611  11
  -3   8   4 2313.31 116.198   9
   3   8  -4 2572.81 134.947  13
  -3   8   3 274.915 42.2127   9
   3   8  -3 347.877 49.6887  13
  -3   8   3 316.638 49.0787  11
   3   8  -2 61.6033 28.3676  13
  -3   8   2 13.8841 23.8525  11
  -3   8   2 50.2424 24.5778   9
  -3   8   2 25.9275 19.6960  13
  -3   8   1 3740.60 144.815   9
   3   8  -1 3584.05 152.793  13
  -3   8   1 3626.15 147.888  13
  -3   8   0 946.623 73.8732   9
   3   8   0 885.705 71.0444  11
  -3   8   0 836.053 74.2065  13
   3   8   0 1015.49 83.6207  13
   3   8   1 10552.9 241.701  11
   3   8   1 10967.4 254.942  13
  -3   8  -1 10536.9 260.372  13
  -3   8  -1 11102.5 251.280   9
   3   8   2 424.018 54.5094  11
   3   8   2 454.949 56.0096  13
  -3   8  -2 431.728 50.7691   9
   3   8   3 5005.52 176.799  11
  -3   8  -3 4581.24 165.833   9
   3   8   3 4897.37 167.965  13
  -3   8  -4 193.627 36.5235   9
   3   8   4 215.232 43.7481  11
   3   8   4 203.357 39.5604  13
   3   8   5 2173.01 119.910  11
   3   8   5 2322.46 115.351  13
   3   8   6 6352.57 202.444  11
   3   8   6 6478.73 190.044  13
   3   8   7-53.4959 38.9500  11
   3  -8   7-19.3661 24.2138  17
   3   8   7 19.3476 19.1211  13
   3   8   8 254.271 40.8329  11
   3   8   8 336.780 45.3507  13
   3  -8   8 259.275 44.4238  17
   3   8   9 65.0515 23.7117  11
   3  -8   9 74.4871 27.1179  17
   3   8   9 145.824 32.7871  13
   3   8  10 920.004 70.3034  11
   3  -8  10 628.105 63.6968  17
   3   8  11 119.846 26.3989  11
   3  -8  11 68.0408 22.9057  17
   3  -8  12 27.6670 13.5222  17
   3   8  12 25.9725 14.5615  11
   3  -8  13 94.5105 20.4044  17
  -3   8 -13 96.0951 18.0613  13
  -3   9  11 204.792 23.3357  16
  -3   9  11 294.124 30.0666  11
  -3   9  10 53.8536 19.7166  11
  -3   9  10-0.76655 10.7740  16
  -3   9   9 225.615 35.6276  11
  -3   9   9 220.565 30.8441  16
   3   9  -9 194.626 27.2815  13
  -3   9   8 66.3632 20.4152  16
  -3   9   8 76.2673 27.3836  11
   3   9  -8 82.8049 22.9342  13
  -3   9   7 385.936 51.1563  11
  -3   9   7 318.125 42.3997  16
  -3   9   7 390.814 47.7955   9
   3   9  -7 377.315 46.5456  13
  -3   9   6 321.757 50.7586  11
   3   9  -6 317.572 43.7127  13
  -3   9   6 343.379 48.9310   9
  -3   9   5 1007.97 82.2356  11
  -3   9   5 1006.31 74.3052   9
   3   9  -5 1040.66 79.8258  13
  -3   9   4 1201.67 91.5961  11
  -3   9   4 1333.12 85.2172   9
   3   9  -4 1298.40 91.3411  13
  -3   9   3 663.923 67.6459  11
  -3   9   3 747.559 65.6637   9
   3   9  -3 786.906 76.8256  13
   3   9  -2 5806.82 191.731  13
  -3   9   2 5992.73 175.684   9
   3   9  -1 103.810 37.1019  13
  -3   9   1 83.0946 29.5091   9
  -3   9   1 60.3021 27.5092  13
  -3   9   0 3361.27 132.418   9
   3   9   0 3216.91 136.815  13
  -3   9   0 3124.26 132.423  13
   3   9   1 117.344 26.1129  13
  -3   9  -1 197.868 36.1883   9
  -3   9  -1 139.049 30.7189  13
   3   9   1 175.031 32.6780  11
  -3   9  -2 1295.14 83.6015   9
   3   9   2 1158.62 80.3412  13
   3   9   2 1315.89 83.1759  11
  -3   9  -2 1169.60 85.8175  13
   3   9   3 218.118 38.8761  11
   3   9   3 208.760 36.5274  13
  -3   9  -3 207.990 37.6236  13
  -3   9  -3 183.968 33.5414   9
   3   9   4 104.533 31.1077  11
   3   9   4 110.945 29.7561  13
  -3   9  -4 42.7179 20.7736   9
  -3   9  -4 80.8252 30.8602  13
   3   9   5 2011.61 107.403  11
  -3   9  -5 1817.42 102.269   9
   3   9   5 2019.26 101.232  13
  -3   9  -6 288.218 41.3798   9
   3   9   6 192.293 35.9455  11
   3   9   6 255.894 38.1678  13
  -3   9  -6 178.707 37.9902  13
   3   9   7 265.540 41.7739  11
  -3   9  -7 278.133 43.3097   9
   3   9   7 356.167 42.2981  13
  -3   9  -7 296.192 44.8862  13
   3   9   8-7.42602 19.8959  11
   3   9   8 8.60782 15.3291  13
  -3   9  -8 5.71548 17.5921  13
  -3   9  -8-15.0138 25.3290   9
  -3   9  -9 387.535 46.1226  13
   3   9   9 421.484 44.1314  11
   3  -9   9 299.752 37.0170  17
  -3   9  -9 339.675 42.0021   9
   3   9   9 384.276 38.5473  13
  -3   9 -10 235.822 33.2973  13
  -3   9 -10 186.981 31.6318   9
   3  -9  10 168.591 25.1630  17
   3   9  11 183.316 24.0931  11
  -3   9 -11 146.426 24.8947   9
  -3   9 -11 184.446 25.0903  13
  -3  10   8 50.1694 17.5830  11
  -3  10   7 132.726 24.9936  11
   3  10  -7 139.745 21.9214  13
  -3  10   6-0.54773 19.3272  11
  -3  10   6 13.2997 17.5438   9
   3  10  -6 3.91262 14.1772  13
  -3  10   5 132.337 26.9318  11
  -3  10   5 192.799 31.7027   9
   3  10  -5 152.107 27.3516  13
  -3  10   4 340.182 38.4517  11
   3  10  -4 462.685 48.5399  13
  -3  10   4 447.217 47.6846   9
  -3  10   3 58.4368 22.8107   9
   3  10  -3 32.7010 22.2183  13
   3  10  -2 185.074 32.7380  13
  -3  10   2 226.504 33.4949   9
  -3  10   2 172.693 27.8519  13
  -3  10   1 76.3076 21.0724   9
   3  10  -1 95.2250 20.6367  13
  -3  10   1 94.2398 23.7506  13
  -3  10   0 9.23831 19.4117   9
   3  10   0 45.5427 20.8908  13
  -3  10   0 52.7559 18.7600  13
  -3  10  -1 10.1338 14.6764  13
  -3  10  -1-28.2824 26.3075   9
   3  10   1-4.64463 17.2270  13
   3  10   2 263.825 35.1718  11
  -3  10  -2 280.629 39.8256  13
  -3  10  -2 324.489 40.2759   9
   3  10   2 329.814 41.2386  13
   3  10   3 374.341 42.9660  13
   3  10   3 376.244 42.4372  11
  -3  10  -3 368.812 44.9082  13
  -3  10  -3 434.881 46.4409   9
   3  10   4 257.722 34.7867  11
  -3  10  -4 221.755 33.9732   9
   3  10   4 272.858 36.9773  13
  -3  10  -4 245.473 36.0571  13
   3  10   5 8.10045 16.6210  11
   3  10   5 16.4735 14.6442  13
  -3  10  -5 40.7531 22.4796   9
  -3  10  -5 0.53786 15.2036  13
   3  10   6 77.0076 20.0904  13
  -3  10  -6 91.6771 28.1144   9
   3  10   6 85.7305 23.4770  11
  -3  10  -6 94.5136 24.2175  13
   3  10   7 300.300 35.3420  11
  -3  10  -7 221.836 31.5317   9
  -3  10  -7 247.109 34.7017  13
   3  10   7 201.642 26.1254  13
   3  10   8 61.0955 17.8874  11
  -3  10  -8 39.6336 16.3964   9
  -3  10  -8 24.5773 14.7758  13
  -3  11   3 445.343 36.5206   9
   3  11  -3 516.269 41.4089  13
   3  11  -2 432.951 39.5628  13
  -3  11   2 384.568 35.7700   9
  -3  11   1 16.8268 11.8350   9
   3  11  -1-1.98252 13.4236  13
   3  11   0 107.865 22.2012  13
  -3  11   0 114.163 22.2575   9
  -3  11  -1 346.216 34.3121   9
   3  11   1 350.695 35.7883  13
  -3  11  -1 262.163 27.5516  13
  -3  11  -2 98.6685 18.6438   9
   3  11   2 109.659 19.4746  13
  -3  11  -2 85.8020 17.8472  13
  -3  11  -3 124.748 20.7849   9
   3  11   3 125.478 20.9183  13
  -3  11  -3 106.032 19.8128  13
  -4   0  18 2.91736 12.3491  10
  -4   0  17 1.70135 16.9018  10
   4   0 -17-0.02953 13.1873  12
   4   0 -16 65.9850 25.4296  12
  -4   0  16 84.1534 26.5988  10
   4   0 -15 19.4292 21.0216  12
   4   0 -14 26.9377 23.6865  12
   4   0 -13 20.7691 18.1061  12
   4   0 -12 481.937 61.4299   8
   4   0 -12 495.070 61.8601  12
  -4   0  11 236.691 125.841  19
   4   0 -11 21.0327 53.8471   6
   4   0 -10 120.592 82.8968   6
  -4   0  10 84.7458 102.358  19
   4   0  -9-223.635 89.2650   6
  -4   0   9 66.9883 53.5375  19
   4   0  -8 516.851 116.086   6
  -4   0   8 451.658 136.241  19
  -4   0   7 97.5588 45.8872  19
   4   0  -7 57.3406 39.4472   6
  -4   0   6 32197.2 910.618  19
   4   0  -6 30803.8 817.851   6
   4   0  -5 245.410 49.4500   3
   4   0  -5 234.988 70.8245   5
   4   0  -5 189.248 69.3928   6
  -4   0   5 272.722 74.2838  19
   4   0  -4 210.190 46.3073   4
   4   0  -4 410.892 79.1456   6
  -4   0   4 161.031 56.0474  19
   4   0  -4 285.636 43.6079   3
   4   0  -4 377.943 80.0604   5
   4   0  -3 223.822 48.9023   4
   4   0  -3 297.821 66.5436   6
   4   0  -3 211.836 57.3798   5
   4   0  -3 175.545 26.5705   3
   4   0  -2 319642. 1822.46   5
   4   0  -2 316060. 1962.91   6
   4   0  -1 152.554 45.4035   4
   4   0  -1 116.589 30.5287   5
  -4   0   0 4628.03 144.165  18
   4   0   0 4538.01 139.061   5
   4   0   1 256.055 54.3931   2
  -4   0  -1 292.890 50.1817   3
  -4   0  -2 210738. 1475.15   3
   4   0   2 214065. 1312.51   1
   4   0   3 61.4691 23.9181   1
  -4   0  -3 116.881 41.8917   3
   4   0   3 85.3965 43.4296   2
   4   0   4 43515.7 881.467   2
  -4   0  -4 43485.0 867.194   3
  -4   0  -5 4.93462 27.8844   3
   4   0   5 36.8513 47.2194   2
   4   0   6 1580.76 205.237   2
  -4   0  -6 1699.01 206.158   3
  -4   0  -7-22.2749 59.8167   3
   4   0   7 58.2215 46.9833   2
  -4   0  -8 1265.27 201.651   3
   4   0   8 1132.09 214.623   2
   4   0   9 65.7179 66.6734   2
  -4   0  -9 53.9464 53.7365   3
  -4   0 -10 19813.8 884.273   3
   4   0  10 17561.0 948.602   2
  -4   0 -11 99.0798 82.4007   3
   4   0  12 226.658 45.2077  10
   4   0  12 212.737 38.4157  16
   4   0  13-46.5569 38.9740  16
   4   0  13-167.170 40.9194  10
   4   0  14 24.1454 22.8457  10
   4   0  15-34.9329 28.8866  10
   4   0  16 645.289 65.7836  15
   4   0  16 625.202 61.8256  10
   4   0  17 19.5383 16.6380  15
   4   0  18 10.4191 12.4807  15
  -4  -1  18 75.8674 20.0917  10
  -4  -1  17 6.43388 15.4354  10
   4   1 -17 2.92593 13.8796  12
   4  -1 -17 14.9268 11.9169  12
   4   1 -16 780.941 69.1193  12
   4  -1 -16 726.293 64.7179  12
   4  -1 -15 49.9538 23.1538  12
   4   1 -15 48.2812 25.4708  12
   4   1 -14 351.351 52.7870  12
   4  -1 -14 389.319 57.7763  12
   4   1 -13 835.167 79.3816  12
   4  -1 -13 755.277 78.4325  12
   4   1 -12 81.3055 30.9124  12
   4  -1 -12 72.2721 25.3640  12
   4  -1 -12 91.3254 30.5081   8
  -4   1  11 1490.50 283.307  19
   4   1 -11 1829.69 281.610   6
  -4  -1  11 1703.48 321.966  19
   4  -1 -11 1554.46 254.057   6
   4   1 -10 118.341 85.3345   6
   4  -1 -10 91.7731 39.7120   6
  -4  -1  10 287.156 125.578  19
  -4   1  10 183.326 105.744  19
  -4   1   9 689.309 172.901  19
   4  -1  -9 859.025 167.636   6
  -4  -1   9 530.509 158.562  19
   4   1  -9 643.674 148.465   6
   4  -1  -8 17680.5 714.601   6
  -4  -1   8 16804.6 778.090  19
   4  -1  -8 16118.6 652.476   5
   4   1  -8 14890.2 591.026   1
  -4   1   8 16468.8 775.910  19
   4   1  -8 16675.4 713.708   6
   4  -1  -7 7816.05 369.088   3
   4  -1  -7 7760.65 428.879   5
   4  -1  -7 8432.48 469.046   6
  -4  -1   7 8072.81 509.731  19
   4   1  -7 8043.20 417.937   1
  -4   1   7 8181.75 516.963  19
   4   1  -7 8464.06 477.858   6
  -4   1   6 9341.80 498.534  19
   4  -1  -6 9466.64 454.144   6
  -4  -1   6 9892.16 515.052  19
   4  -1  -6 8598.18 354.884   3
   4  -1  -6 9343.28 434.627   5
   4   1  -6 9948.08 451.968   1
   4   1  -6 9656.80 477.772   6
  -4   1   5 13903.4 562.546  19
  -4  -1   5 13405.6 552.965  19
   4   1  -5 13336.6 531.035   6
   4   1  -5 12404.3 492.839   1
   4  -1  -5 11755.6 382.306   3
   4  -1  -5 12777.9 472.889   5
   4  -1  -5 12944.8 487.352   6
   4   1  -4 923.619 132.229   6
  -4  -1   4 735.694 118.179  19
  -4   1   4 736.174 118.554  19
   4  -1  -4 647.952 81.7370   3
   4   1  -4 860.356 126.288   1
   4  -1  -4 436.909 44.5058   4
   4  -1  -4 724.786 108.303   5
   4   1  -4 827.188 118.067   4
   4  -1  -3 6894.12 214.941   4
   4   1  -3 7735.29 331.549   4
  -4   1   3 7593.45 355.527  19
  -4  -1   3 7254.60 355.456  19
   4  -1  -3 7109.08 291.683   5
   4   1  -3 7676.72 363.189   6
   4   1  -3 6846.69 337.917   1
   4   1  -2 5821.35 296.462   6
  -4  -1   2 5718.31 290.172  19
   4  -1  -2 5591.84 226.990   5
  -4   1   2 5826.09 288.239  19
   4   1  -2 5432.40 268.652   4
   4   1  -1 128490. 1262.32   6
   4  -1  -1 128077. 970.873   5
   4   1  -1 127293. 1278.43   4
   4  -1   0 458476. 1724.94   5
   4   1   0 460832. 2041.74   6
  -4  -1  -1 467.966 69.1716   3
   4   1   1 402.459 68.1830   1
   4   1   1 394.002 46.3093   6
  -4   1  -1 518.003 78.6382  18
   4  -1   1 480.595 65.8660   2
   4  -1   2 17576.0 403.912   2
   4   1   2 17865.3 493.655   4
  -4  -1  -2 18876.0 498.803   3
   4   1   2 17743.5 519.813   2
  -4   1  -2 17459.3 481.996   3
   4   1   2 18511.2 455.257   1
   4  -1   3 12081.1 371.472   2
   4   1   3 12343.0 435.192   4
   4   1   3 12449.6 469.975   2
  -4   1  -3 12505.9 443.276   3
   4   1   3 13030.6 387.808   1
  -4  -1  -3 13216.6 469.817   3
   4   1   4 2106.22 155.663   1
   4  -1   4 2141.72 103.938   1
  -4   1  -4 2834.34 233.497   3
   4   1   4 2586.84 231.683   2
  -4  -1  -4 2583.58 222.494   3
   4  -1   4 2128.21 179.231   2
   4  -1   5 11930.5 474.028   2
   4   1   5 12764.7 557.586   2
  -4  -1  -5 13440.4 541.180   3
  -4   1  -5 12810.1 541.639   3
   4   1   6 19795.1 762.346   2
  -4  -1  -6 20570.8 708.701   3
   4  -1   6 18728.8 663.420   2
  -4   1  -6 18751.6 710.557   3
   4   1   7 2451.67 254.216   4
  -4  -1  -7 2846.17 281.042   3
   4  -1   7 2563.93 274.984   2
   4   1   7 2537.69 300.213   2
  -4   1  -7 2523.39 282.012   3
   4  -1   8 6858.68 494.547   2
   4   1   8 6623.99 432.219   4
  -4   1  -8 8493.41 554.211   3
  -4  -1  -8 8321.35 506.525   3
   4   1   8 7423.96 555.935   2
  -4  -1  -9 298.093 103.251   3
   4   1   9 326.834 128.709   2
  -4   1  -9 283.897 123.717   3
  -4   1 -10 2094.24 305.950   3
   4   1  10 1580.38 288.870   2
  -4  -1 -10 1912.02 273.493   3
   4   1  11 747.370 217.864   2
  -4   1 -11 1287.96 255.048   3
   4   1  11 1159.11 83.3793  16
  -4  -1 -11 1283.78 234.734   3
   4  -1  12 2495.99 140.661  10
   4   1  12 2654.11 127.310  16
   4  -1  13 513.222 66.4365  10
   4   1  13 621.153 65.6094  16
   4   1  14 974.334 78.3159  16
   4  -1  14 1145.21 95.5209  10
   4  -1  15 388.058 54.4022  15
   4  -1  15 406.787 54.2276  10
   4  -1  16 3.55501 17.2944  10
   4  -1  16 11.2634 16.9301  15
   4  -1  17 42.0235 19.1944  15
   4  -1  17 56.7683 21.7796  10
   4   1  17 48.0707 20.6716  15
   4  -1  18-4.78986 9.90261  15
   4  -1  18-13.0846 13.2888  10
   4   1  18 11.6611 11.7271  15
  -4  -2  18 247.652 32.5449  10
  -4  -2  17 230.285 39.3933  10
   4   2 -16-1.15119 16.2597  12
  -4  -2  16-10.1767 20.2758  10
   4   2 -15 18.3493 20.5328  12
  -4   2  15 19.0906 18.3897  16
  -4   2  14 970.997 80.1797  16
   4   2 -14 849.941 79.0061  12
  -4   2  13 8803.91 237.890  16
   4   2 -13 8846.80 243.420  12
   4  -2 -13 8964.73 263.355  12
   4  -2 -12 303.642 50.1109  12
  -4   2  12 314.592 49.9716  16
   4  -2 -12 339.232 56.1537   8
   4   2 -12 363.698 53.5046  12
   4  -2 -11 3780.64 400.323   6
  -4   2  11 3802.47 466.575  19
   4   2 -11 4195.66 461.853   6
  -4   2  11 4263.15 167.036  16
   4   2 -11 4352.59 170.589  12
   4  -2 -11 4382.45 186.960   8
  -4  -2  11 3409.48 441.813  19
   4  -2 -10 937.559 193.596   6
  -4  -2  10 719.908 195.631  19
  -4   2  10 610.944 175.941  19
   4  -2 -10 999.136 192.738   5
   4   2 -10 664.401 178.083   6
  -4  -2   9 13408.9 753.232  19
   4  -2  -9 15257.3 735.439   6
   4   2  -9 13781.5 744.769   6
   4  -2  -9 14342.3 697.041   5
  -4   2   9 14317.3 779.320  19
   4   2  -8 1606.72 243.336   6
   4  -2  -8 1496.36 217.410   5
  -4   2   8 1336.63 222.631  19
  -4  -2   8 1186.69 215.706  19
   4  -2  -8 1437.26 215.562   6
   4  -2  -8 1344.69 183.563   3
   4   2  -7 2061.47 262.638   6
   4  -2  -7 2358.84 260.613   6
   4  -2  -7 2068.90 235.944   5
   4  -2  -7 2046.93 214.655   3
  -4  -2   7 2046.08 265.538  19
  -4   2   7 1962.81 254.748  19
   4   2  -7 1995.54 232.704   1
   4   2  -6 13211.7 620.352   6
  -4  -2   6 14108.5 634.280  19
  -4   2   6 14164.8 631.821  19
   4   2  -6 13260.8 583.361   1
   4  -2  -6 13111.5 549.746   5
   4  -2  -6 13057.3 503.242   3
  -4   2   5 23991.3 760.101  19
   4  -2  -5 22883.4 659.090   5
   4   2  -5 22494.0 768.330   6
  -4  -2   5 23214.1 750.780  19
   4   2  -5 22266.3 731.760   1
   4   2  -5 21946.1 621.332  18
   4   2  -4 1697.40 198.791   6
   4   2  -4 1485.84 142.834  18
  -4   2   4 1273.09 163.310  19
   4  -2  -4 1794.99 168.696   5
   4   2  -4 1496.93 184.977   1
  -4  -2   4 1585.13 185.302  19
   4   2  -3 1044.22 104.263  18
  -4   2   3 1123.26 141.532  19
   4  -2  -3 1186.76 134.341   5
  -4  -2   3 1416.40 165.054  19
   4   2  -3 1089.01 151.302   4
   4   2  -3 1119.93 153.060   1
   4   2  -2 40797.1 862.865   1
  -4  -2   2 41682.4 833.243  19
   4   2  -2 43816.9 840.129   6
   4   2  -2 42423.5 866.767   4
   4  -2  -2 44507.5 732.945   5
  -4   2   2 43194.2 807.239  19
   4   2  -1 85.3299 49.4033   4
   4  -2  -1 61.5960 32.3796   5
   4   2  -1 198.176 56.8235   2
   4   2  -1 66.4615 50.1832   1
   4   2  -1 64.4950 33.7173   6
   4   2   0 1343.17 142.180   2
   4   2   0 1386.74 122.347   6
  -4   2   0 1405.59 147.756  18
   4   2   0 1419.49 151.172   1
   4   2   0 1179.70 142.863   4
   4  -2   0 1308.95 126.745   5
   4   2   1 16107.1 506.194   2
  -4   2  -1 17048.1 534.558  18
   4   2   1 14728.4 349.910   6
   4   2   1 16234.8 497.511   1
  -4  -2  -1 16084.0 453.075   3
   4   2   1 16863.9 530.047   4
  -4  -2  -1 15549.6 369.530   5
   4   2   2 3616.87 233.809   1
   4   2   2 3486.52 250.995   2
  -4  -2  -2 3692.75 243.873   3
  -4   2  -2 3841.28 261.563  18
  -4  -2  -2 3268.26 154.761   5
   4   2   2 3872.81 263.345   4
   4   2   3 36511.5 875.631   2
  -4   2  -3 36585.0 841.146  18
  -4  -2  -3 37610.7 837.269   3
  -4  -2  -3 35161.7 537.769   5
   4   2   3 37455.7 758.492   1
   4   2   3 37818.1 861.702   4
   4   2   4 7021.16 394.084   4
   4   2   4 6695.48 333.270   1
  -4  -2  -4 6287.15 269.435   5
   4   2   4 6758.27 397.976   2
  -4  -2  -4 6846.43 382.946   3
   4   2   5 169.913 69.4298   4
  -4   2  -5 163.092 75.1420   3
  -4  -2  -5 290.951 70.5926   5
   4   2   5 140.248 65.5651   2
  -4  -2  -5 198.810 73.8862   3
   4   2   6 5570.24 392.968   4
  -4   2  -6 6156.66 446.262   3
   4   2   6 5747.75 439.178   2
  -4  -2  -6 6910.38 436.240   3
   4   2   7 688.042 152.218   4
  -4   2  -7 631.567 161.881   3
  -4  -2  -7 762.697 153.187   3
   4   2   7 642.990 160.284   2
  -4   2  -8 2454.84 330.051   3
  -4  -2  -8 2423.16 287.523   3
   4   2   8 1864.79 299.079   2
  -4   2  -9 1604.64 280.435   3
  -4  -2  -9 1660.09 248.674   3
   4   2   9 1513.54 289.721   2
  -4   2 -10 8612.30 673.114   3
   4   2  10 8769.73 718.628   2
  -4  -2 -10 8843.04 598.470   3
  -4   2 -11 1226.56 258.714   3
   4  -2  11 1324.88 101.422  10
   4   2  11 1291.28 88.2760  16
   4   2  11 1161.65 280.622   2
   4  -2  12 1275.53 100.766  10
   4  -2  12 1134.92 99.4640  15
   4   2  12 1139.78 84.3739  16
   4  -2  13 4344.80 186.254  15
   4   2  13 4629.33 165.678  16
   4  -2  13 4701.49 190.998  10
   4   2  14 535.575 56.9109  16
   4  -2  14 549.355 65.9855  15
   4  -2  14 516.952 66.8854  10
   4   2  15-1.22569 19.9932  16
   4  -2  15-24.5404 27.3868  10
   4  -2  15-16.7785 21.4926  15
   4  -2  16 174.698 35.9314  10
   4  -2  16 179.571 32.9635  15
   4   2  17 13.0683 15.5166  15
   4  -2  17-5.22226 17.7475  10
   4  -2  18 95.1810 20.5724  10
   4   2  18 108.940 22.6013  15
  -4  -3  18 50.9111 17.7388  10
  -4   3  17 469.675 39.1171  16
  -4  -3  17 621.488 57.3651  10
  -4   3  16 450.988 45.0252  16
  -4  -3  16 394.921 53.7854  10
   4   3 -16 426.329 47.7089  12
   4   3 -15-1.46917 16.5244  12
  -4   3  15 30.7076 21.2718  16
  -4   3  14 500.932 56.4045  16
   4   3 -14 456.976 55.5056  12
   4   3 -13 24.6302 19.6506  12
  -4   3  13 26.4731 25.4231  16
  -4   3  12 643.744 71.1262  16
   4   3 -12 775.848 75.7240  12
  -4   3  11 320.742 52.2649  16
   4   3 -11 371.980 54.0655  12
  -4  -3  10 8299.16 661.651  19
   4   3 -10 8704.60 673.245   6
   4  -3 -10 9939.98 647.541   5
   4  -3 -10 9450.80 626.532   6
  -4   3  10 8455.97 654.528  19
   4   3  -9 619.963 182.615   6
  -4   3   9 394.567 156.273  19
   4  -3  -9 482.159 139.905   6
   4  -3  -9 592.576 157.241   5
  -4  -3   9 395.888 157.616  19
   4  -3  -8 4585.53 398.137   5
  -4  -3   8 4308.96 415.884  19
   4  -3  -8 4361.24 364.975   3
   4  -3  -8 4768.93 402.892   6
  -4   3   8 3942.40 396.937  19
   4   3  -8 4448.98 449.251   6
   4   3  -7 179.133 74.0419   1
  -4   3   7 259.351 103.225  19
   4   3  -7 242.098 116.648   6
  -4  -3   7 161.081 86.6587  19
   4  -3  -7 154.154 69.7130   5
   4  -3  -7 160.969 77.9595   3
   4   3  -6 2415.29 304.257   6
  -4  -3   6 2514.22 277.629  19
   4  -3  -6 2136.36 227.902   3
   4  -3  -6 2399.17 254.503   5
  -4   3   6 2466.32 275.452  19
   4   3  -6 2487.07 280.938   1
  -4   3   5 112637. 1720.63  19
  -4  -3   5 112510. 1712.68  19
   4   3  -5 111040. 1836.36   1
   4   3  -5 111512. 1918.00   6
   4   3  -4 2220.04 209.759  18
   4   3  -4 2380.56 261.859   6
  -4  -3   4 2638.94 249.390  19
   4   3  -4 2475.31 265.116   1
   4  -3  -4 2625.82 228.990   5
  -4   3   4 2599.05 242.952  19
  -4   3   3 29308.1 751.393  19
   4   3  -3 28922.9 828.101   6
  -4  -3   3 28367.2 745.187  19
   4   3  -3 30664.8 890.018   1
   4  -3  -3 29809.5 709.718   5
   4   3  -3 29850.8 854.303   4
  -4  -3   2 45372.3 883.179  19
   4   3  -2 47732.7 975.344   6
  -4   3   2 45407.7 863.799  19
   4   3  -2 45714.0 1035.94   1
   4  -3  -2 47860.5 877.124   5
   4   3  -2 46216.8 1030.79   4
   4   3  -1 29174.1 704.137   6
  -4   3   1 29019.5 645.756  19
  -4  -3   1 30060.5 684.331  19
   4  -3  -1 31694.3 725.503   5
   4   3  -1 28919.9 783.768   1
   4   3  -1 29261.6 804.335   4
   4   3  -1 29850.6 709.703   2
   4   3   0 53900.8 1090.83   4
   4   3   0 53204.7 978.730   2
   4   3   0 51420.3 878.420   6
   4   3   0 51243.4 1001.81   1
   4   3   1 8674.25 412.968   2
   4   3   1 8046.34 393.068   1
  -4   3  -1 8931.38 450.123  18
  -4  -3  -1 8555.93 365.411   5
   4   3   1 8849.04 444.656   4
   4   3   2 83.0587 36.4842   4
  -4   3  -2 226.812 68.7252  18
   4   3   2 46.0926 47.1431   2
   4   3   2 153.808 52.3561   1
  -4  -3  -2 170.855 54.5905   5
  -4  -3  -2 135.317 55.6424   3
   4   3   3 69468.9 1211.78   1
   4   3   3 71013.6 1314.92   2
   4   3   3 68176.1 1325.76   4
  -4   3  -3 71319.3 1350.46  18
  -4  -3  -3 71286.3 1243.37   3
  -4  -3  -3 68967.5 964.588   5
   4   3   4 738.251 140.395   4
  -4  -3  -4 914.575 153.999   3
  -4  -3  -4 685.137 98.5126   5
  -4   3  -4 805.594 154.515  18
   4   3   4 877.656 162.521   2
   4   3   5 2563.10 287.248   2
  -4  -3  -5 2859.76 286.049   3
   4   3   5 2565.87 280.147   4
  -4   3  -5 3233.05 326.003  18
   4   3   6 16636.9 780.345   2
  -4   3  -6 15390.4 760.426  18
  -4  -3  -6 15665.0 702.099   3
   4   3   6 15136.2 696.721   4
  -4   3  -7 11319.5 712.120  18
  -4  -3  -7 11430.3 631.853   3
   4   3   7 11047.2 691.237   2
  -4  -3  -8 4930.71 436.296   3
   4   3   8 4343.59 470.247   2
  -4   3  -8 4731.63 509.949  18
  -4   3  -9 1039.31 273.422  18
   4   3   9 748.004 192.685   2
  -4  -3  -9 842.882 196.663   3
  -4  -3 -10 30.2271 58.1876   3
   4   3  10-24.3940 82.1039   2
   4  -3  10-3.76688 23.3048  10
   4  -3  11 53.8133 25.3547  10
   4   3  11 144.902 31.1337  16
   4  -3  12 3546.70 167.645  10
   4   3  12 3495.64 146.476  16
   4   3  13 139.247 30.4307  16
   4  -3  13 16.1564 26.5066  10
   4  -3  14-0.88907 24.1613  10
   4   3  14-20.8393 27.2604  16
   4  -3  15 240.318 42.9682  10
   4   3  15 358.457 45.5740  16
   4   3  16 28.1970 17.8903  16
   4  -3  16 10.0028 18.6581  10
   4   3  17 28.5716 16.9818  15
   4  -3  17 36.1918 17.5761  10
   4  -3  18 2.45687 11.1288  10
   4   3  18-10.4644 10.6505  15
  -4  -4  17 79.3146 23.1142  10
  -4   4  17 61.1316 16.3110  16
  -4   4  16 50.7011 20.3180  16
  -4  -4  16 35.0764 19.1933  10
  -4  -4  15 382.916 53.7596  10
  -4   4  15 461.626 49.3986  16
  -4   4  14 179.189 35.0293  16
   4   4 -14 130.384 32.1361  12
  -4   4  13 1751.91 101.846  16
   4   4 -13 1599.34 102.539  12
  -4   4  12 653.719 67.3154  16
   4   4 -12 578.579 64.0641  12
  -4   4  11 598.812 66.9424  16
  -4   4  11 446.495 62.1463  11
   4   4 -11 608.718 65.5991  12
  -4   4  10 699.947 78.0055  11
   4   4 -10 638.683 68.1283  12
   4  -4  -9 3454.16 381.153   5
   4  -4  -9 3116.74 360.768   6
   4   4  -9 3310.30 440.148   6
   4  -4  -8 1303.16 219.667   3
   4  -4  -8 1630.11 240.289   6
   4  -4  -8 1536.11 244.845   5
   4   4  -8 1297.30 269.013   6
   4   4  -7 5018.97 502.692   6
   4  -4  -7 6051.67 443.954   5
   4  -4  -7 5259.84 412.050   3
   4   4  -6 4112.13 392.996   1
   4   4  -6 4643.50 459.836   6
   4  -4  -6 5167.56 384.627   5
   4   4  -5 166.744 89.8528   6
   4  -4  -5 157.637 66.9714   5
   4   4  -5 93.0862 64.1542   1
   4   4  -4 4090.46 373.938   1
   4   4  -4 4298.10 382.902   6
   4  -4  -4 4060.98 318.468   5
   4   4  -3 8924.80 507.195   6
   4   4  -3 8410.32 511.583   1
   4  -4  -3 9865.73 467.220   5
   4   4  -2 5549.32 371.782   6
   4   4  -2 5658.66 404.836   1
   4  -4  -2 6425.91 372.554   5
   4   4  -1 17967.7 699.504   1
   4  -4  -1 19595.9 661.360   5
   4   4  -1 18056.3 727.286   4
   4   4  -1 19320.6 633.083   2
   4   4   0 36349.8 973.845   1
   4   4   0 38355.8 916.842   2
   4   4   0 36737.4 1042.11   4
   4   4   1 2384.98 243.190   2
   4   4   1 2496.72 256.213   1
  -4   4  -1 2753.18 287.629  18
  -4  -4  -1 2533.76 245.921   5
   4  -4   1 2824.38 268.678   5
   4   4   1 2461.01 274.103   4
  -4   4  -2 440.336 116.849  18
   4   4   2 462.580 118.420   2
  -4  -4  -2 432.510 95.5595   5
   4   4   2 458.137 120.766   4
   4   4   2 329.970 106.408   1
   4   4   3 520.369 129.530   4
  -4  -4  -3 474.654 100.218   5
  -4  -4  -3 441.777 108.732   3
   4   4   3 514.358 124.602   2
  -4   4  -3 413.569 113.534  18
   4   4   4 109.633 72.5179   4
  -4   4  -4 152.510 70.9151  18
  -4  -4  -4 13.2343 46.8852   3
   4   4   4-28.3574 82.8745   2
   4   4   5 2334.40 296.589   2
  -4   4  -5 2279.59 302.535  18
  -4  -4  -5 2499.64 294.873   3
   4   4   5 2112.20 281.408   4
  -4   4  -6 1160.07 234.498  18
   4   4   6 1642.19 270.051   2
  -4  -4  -6 1589.49 247.522   3
  -4   4  -7 9.87381 44.8518  18
   4   4   7 157.372 110.292   2
  -4  -4  -7 214.621 108.840   3
   4   4   8 488.327 174.303   2
  -4   4  -8 422.294 173.818  18
  -4  -4  -8 239.877 93.4109   3
   4  -4   9 207.069 42.4517  10
  -4   4  -9 227.795 145.300  18
   4   4   9 235.854 121.257   2
  -4  -4  -9 67.1108 59.3908   3
   4   4  10 2473.01 121.128  16
   4  -4  10 2794.67 155.729  10
   4  -4  11 2290.40 142.491  10
   4   4  11 2238.51 116.877  16
   4  -4  12 8.02137 29.8994  10
   4   4  12 42.9965 22.8696  16
   4  -4  13 451.966 62.9835  10
   4   4  13 610.316 60.8368  16
   4  -4  14 108.500 32.6149  10
   4   4  14 119.868 31.3386  16
   4  -4  15 49.8302 21.2074  10
   4   4  15 84.8469 24.1260  16
   4  -4  16 75.8138 23.6695  10
   4   4  16 47.6312 17.8740  16
   4   4  17 3.22845 10.3827  15
   4  -4  17-4.75975 10.8270  17
   4  -4  17-10.8155 15.5994  10
  -4   5  16 96.9301 20.2609  16
  -4  -5  16 97.0328 23.3918  10
  -4  -5  15 73.7338 25.2000  10
  -4   5  15 97.9959 23.9936  16
  -4   5  14 13.7325 16.6307  16
  -4  -5  14 20.2083 21.6453  10
  -4   5  13 720.976 64.8141  16
  -4   5  13 557.051 59.9433  11
  -4  -5  13 605.664 67.6006  10
  -4   5  12 878.952 80.9922  11
  -4   5  12 834.040 72.0581  16
   4   5 -12 693.292 68.1783  12
  -4   5  11 229.693 50.9255  11
  -4   5  11 234.072 44.7140  16
   4   5 -11 196.454 40.3288  12
  -4   5  10 3118.96 161.157  11
   4   5 -10 2633.59 137.913  12
  -4   5   9 1412.76 109.475  11
  -4   5   9 1432.12 99.6313   9
   4   5  -9 1134.38 91.7274  12
  -4   5   8 1603.74 117.274  11
  -4   5   8 1629.48 99.7831   9
   4  -5  -8 1363.15 242.539   3
   4  -5  -7 40.4224 50.8607   5
   4   5  -7 65.0660 64.5779   6
   4  -5  -7 18.6246 33.2643   3
   4   5  -6 5252.34 520.442   6
   4  -5  -6 6353.12 458.049   5
   4   5  -5 1426.54 259.730   6
   4  -5  -5 1264.52 197.967   5
   4   5  -5 1467.87 260.373   1
   4   5  -4 203.290 94.3562   6
   4   5  -4 222.976 116.723   1
   4  -5  -4 237.919 86.1156   5
   4   5  -3 15436.6 793.041   1
   4  -5  -3 15661.0 662.593   5
   4   5  -2 4312.22 411.337   1
   4  -5  -2 4548.51 359.297   5
   4  -5  -1 1987.49 245.371   5
   4   5  -1 1744.06 213.893   2
   4   5  -1 1665.61 247.294   1
   4  -5   0 7805.02 500.199   5
  -4  -5   0 7808.81 507.001   5
   4   5   0 7483.57 453.334   2
  -4  -5  -1 24282.3 874.125   5
   4  -5   1 25765.5 927.304   5
   4   5   1 23128.4 971.371   4
   4   5   1 22777.2 807.885   2
  -4  -5  -2 16738.8 689.037   5
   4  -5   2 17858.9 799.938   5
   4   5   2 16555.2 829.893   4
   4   5   2 16452.5 717.831   2
  -4   5  -3 13096.5 725.585  18
  -4  -5  -3 11875.1 644.374   3
   4   5   3 11773.2 639.803   2
   4   5   3 12141.7 721.203   4
   4   5   4 1830.70 262.921   2
  -4   5  -4 1775.98 282.514  18
  -4  -5  -4 1552.68 248.726   3
   4   5   4 1819.18 284.902   4
   4   5   5 1696.44 274.837   2
  -4   5  -5 1782.02 284.387  18
  -4  -5  -5 1831.62 280.630   3
  -4   5  -6 892.140 211.147  18
   4   5   6 962.205 216.483   2
  -4  -5  -6 885.828 199.926   3
   4   5   7 5433.81 551.177   2
  -4   5  -7 4228.61 500.863  18
  -4  -5  -7 5555.36 526.661   3
   4   5   8 670.272 66.0243  11
   4  -5   8 813.016 84.7517  10
   4   5   8 753.895 68.7455  13
   4   5   9 1874.85 110.482  11
   4   5   9 1860.48 105.316  16
   4  -5   9 2002.53 132.952  10
   4   5   9 2094.03 114.855  13
   4   5  10 603.781 63.6409  11
   4  -5  10 528.443 70.7597  10
   4   5  10 584.238 60.7509  16
   4   5  10 550.635 62.1680  13
   4   5  11-16.7843 26.5171  16
   4  -5  11 9.93729 24.9348  10
   4   5  12 304.758 46.2068  16
   4  -5  12 309.390 53.8567  10
   4  -5  13 354.058 55.0539  10
   4   5  13 469.946 52.8969  16
   4  -5  14-17.0210 22.0230  10
   4   5  14 6.85659 15.9263  16
   4  -5  15 70.1241 24.7906  10
   4   5  15 120.856 27.2698  16
   4  -5  16 8.47218 13.6510  10
   4  -5  16-3.65461 11.9229  17
  -4   6  15 93.6918 20.7513  16
  -4   6  14 245.190 33.9355  16
  -4   6  13 33.0090 23.3889  11
  -4   6  13 60.8111 23.9884  16
  -4   6  12 953.438 78.4129  11
  -4   6  12 970.845 74.1859  16
  -4   6  11 79.1102 29.1772  11
  -4   6  11 27.8258 19.3780  16
  -4   6  10 618.338 70.9831  11
  -4   6   9 538.054 66.2782   9
  -4   6   9 364.128 58.4842  11
  -4   6   8 563.182 73.9010  11
  -4   6   8 584.643 62.1455   9
  -4   6   7 734.003 83.9467  11
  -4   6   7 682.811 68.0194   9
  -4   6   6 580.653 74.7176  11
  -4   6   6 523.200 58.6169   9
  -4   6   5 16.4556 21.9034  11
  -4   6   5-16.3229 19.2575   9
   4  -6  -5-3.48057 31.2952   5
   4  -6  -4 159.077 80.3109   5
   4  -6  -3 1954.77 272.467   5
   4  -6  -2 500.229 129.712   5
   4  -6  -1 266.845 110.611   5
  -4  -6   1 397.021 132.316   5
   4  -6   0 8377.12 579.836   5
  -4  -6   0 7002.59 538.075   5
   4  -6   1 2733.77 341.209   5
   4   6   2 313.048 113.323   2
   4  -6   2 369.092 131.490   5
   4   6   3 1757.10 259.418   2
  -4  -6  -3 2055.32 297.987   3
   4  -6   3 2470.80 338.068   5
   4   6   4 217.783 78.5022   2
  -4  -6  -4 375.102 154.798   3
   4   6   5 48.7570 24.4950  11
   4   6   5 36.3886 63.7703   2
  -4  -6  -5-71.3480 83.5632   3
   4   6   5 69.9958 27.9218  13
   4   6   6 4375.81 167.046  11
   4   6   6 4503.24 159.278  13
   4   6   7 3831.98 159.277  11
   4   6   7 4094.53 154.710  13
   4   6   8 2967.30 141.418  11
   4   6   8 3147.25 139.378  13
   4   6   9 5001.65 183.961  11
   4   6   9 5355.69 181.861  13
   4   6  10 4903.49 175.583  11
   4   6  10 4541.70 163.293  16
   4   6  10 5089.58 175.322  13
   4  -6  10 4694.81 193.985  10
   4   6  11 286.706 43.7069  11
   4  -6  11 245.422 48.7162  10
   4   6  11 280.457 41.1488  16
   4  -6  12 1225.41 93.8543  10
   4   6  12 1241.15 80.7183  16
   4  -6  13 6.89419 18.2401  10
   4   6  13 16.2771 17.9667  16
   4   6  14 68.1728 20.2258  16
   4  -6  14 36.3382 20.1350  10
   4  -6  15 32.4115 14.8150  10
   4   6  15 38.9535 15.0400  16
   4  -6  15 15.4897 13.0181  17
  -4   7  14-3.61990 11.2917  16
  -4   7  13 56.3519 20.2496  11
  -4   7  13 114.610 21.9946  16
  -4   7  12 111.410 28.3383  11
  -4   7  12 130.443 28.6436  16
  -4   7  11 1408.28 91.7473  11
  -4   7  11 1371.79 85.0322  16
  -4   7  10 1582.93 105.017  11
  -4   7  10 1516.39 95.1340  16
  -4   7   9 22.1173 28.5698  11
  -4   7   8 652.085 74.9258  11
  -4   7   8 680.309 68.8329   9
  -4   7   7 187.642 47.6231  11
   4   7  -7 166.758 33.3723  13
  -4   7   7 154.575 34.1582   9
  -4   7   6 1185.67 84.6351   9
  -4   7   6 1270.94 108.166  11
   4   7  -6 1147.17 88.1125  13
  -4   7   5 2309.94 144.571  11
  -4   7   5 2393.98 115.666   9
   4   7  -5 2187.28 122.308  13
  -4   7   4 2434.10 145.913  11
  -4   7   4 2279.64 113.301   9
   4   7  -4 2186.15 121.122  13
  -4   7   3 176.225 43.5854  11
  -4   7   3 109.646 28.7328   9
   4   7  -3 173.651 35.9170  13
  -4   7   2 1518.08 105.961  11
  -4   7   2 1515.66 91.4452   9
   4   7  -2 1583.61 100.815  13
   4   7  -1 20.4387 21.3349  13
  -4   7   1-22.3319 27.8819   9
   4   7   0 7707.72 200.218  11
  -4   7   0 7851.26 210.787   9
   4   7   0 8069.86 219.332  13
   4   7   1 1247.45 84.1418  11
  -4   7  -1 1202.45 83.3991   9
   4   7   1 1359.38 90.7555  13
   4   7   2 5971.18 184.320  11
  -4   7  -2 5672.28 180.973   9
   4   7   2 6283.99 188.240  13
   4   7   3 1017.45 78.5220  11
   4  -7   3 902.128 77.1842  17
   4   7   3 1044.30 78.1383  13
   4   7   4 2.28352 28.4745  11
   4  -7   4-0.12983 26.1893  17
   4   7   4 56.5232 25.9333  13
   4   7   5 7488.10 220.647  11
   4   7   5 7483.35 207.699  13
   4   7   6 1259.11 94.0783  11
   4  -7   6 1139.63 96.0482  17
   4   7   6 1327.55 92.0693  13
   4   7   7 251.701 48.6434  11
   4   7   7 236.669 43.0706  13
   4  -7   7 203.556 43.5823  17
   4   7   8 214.820 40.5217  11
   4  -7   8 153.661 39.1636  17
   4   7   8 256.686 43.2625  13
   4   7   9 199.023 40.1461  11
   4  -7   9 158.715 36.3512  17
   4   7   9 141.762 35.2958  13
   4   7  10 247.699 41.7661  11
   4  -7  10 161.864 36.3952  17
   4   7  10 307.845 45.7436  13
   4   7  11 110.291 29.2208  11
   4  -7  11 107.832 29.9907  17
   4  -7  12 36.0911 25.7644  17
   4   7  12 102.879 24.2308  11
   4  -7  13 346.312 43.9696  17
   4  -7  14 123.663 26.2403  17
  -4   8  13 187.226 23.1821  16
  -4   8  12 6.53427 13.0673  11
  -4   8  12 19.4612 14.2575  16
  -4   8  11 46.1310 21.8655  11
  -4   8  11 30.9948 17.1749  16
  -4   8  10 242.595 41.0596  11
  -4   8  10 249.136 37.7257  16
  -4   8   9 44.0083 24.3609  11
  -4   8   9 36.5618 22.9339  16
  -4   8   8 849.900 81.8100  11
  -4   8   8 878.025 74.9549   9
  -4   8   7 1223.30 100.380  11
  -4   8   7 1343.75 89.2211   9
   4   8  -7 1253.29 87.8587  13
  -4   8   6 122.588 34.4282  11
  -4   8   6 146.942 34.9507   9
  -4   8   5 1897.40 126.614  11
  -4   8   5 1937.49 106.248   9
   4   8  -5 1960.25 115.348  13
  -4   8   4 169.032 37.5823  11
  -4   8   4 120.255 31.9926   9
   4   8  -4 131.584 33.6871  13
  -4   8   3 383.503 55.5752  11
  -4   8   3 479.581 55.8146   9
   4   8  -3 459.388 57.4162  13
  -4   8   2 707.964 71.0038  11
  -4   8   2 845.844 70.6674   9
   4   8  -2 792.712 74.0181  13
   4   8  -1 913.895 79.5559  13
  -4   8   1 773.357 65.6795   9
  -4   8   1 771.838 69.1056  13
  -4   8   0 188.746 37.4795   9
   4   8   0 250.694 46.9382  13
   4   8   0 214.286 36.8093  11
  -4   8   0 231.303 41.3896  13
   4   8   1 416.945 52.4522  11
  -4   8  -1 324.984 46.5145   9
   4   8   1 342.982 51.5466  13
  -4   8  -1 335.803 50.6780  13
   4   8   2 4507.77 161.788  13
  -4   8  -2 4443.43 159.809   9
   4   8   2 4615.94 162.115  11
   4   8   3 35.9427 19.3335  13
  -4   8  -3-16.3717 31.1979   9
   4   8   3 35.9472 26.2652  11
   4   8   4 2543.87 124.692  11
  -4   8  -4 2250.50 116.238   9
   4   8   4 2543.77 120.793  13
   4   8   5 846.990 75.0344  11
   4  -8   5 662.046 67.6173  17
   4   8   5 892.790 74.7298  13
  -4   8  -5 742.489 69.2797   9
   4   8   6 1309.48 92.1100  11
   4  -8   6 1159.84 90.3629  17
   4   8   7 284.671 44.7758  11
   4  -8   7 277.453 44.9139  17
   4   8   7 332.609 44.3705  13
   4   8   8 1288.48 88.5825  11
   4  -8   8 1122.55 88.1809  17
   4   8   8 1405.61 87.2993  13
   4   8   9 454.104 52.1158  11
   4   8   9 547.403 55.4769  13
   4  -8   9 410.119 54.7346  17
   4   8  10 338.080 42.9326  11
   4  -8  10 218.751 40.8978  17
   4   8  11 820.726 57.1762  11
   4  -8  11 620.213 58.7758  17
   4   8  12 21.7540 13.7573  11
   4  -8  12 13.4491 13.1653  17
   4  -8  13 3.83611 8.87510  17
  -4   8 -13 19.0377 12.0583   9
  -4   9  11-0.07309 11.8133  11
  -4   9  10 88.7590 22.8975  11
  -4   9  10 76.6604 17.9350  16
  -4   9   9 208.619 33.5067  11
  -4   9   9 231.461 31.4558  16
  -4   9   8-5.58961 19.2258  11
  -4   9   8 23.5895 18.9191  16
  -4   9   7 208.363 37.8027  11
  -4   9   7 262.292 39.6347   9
   4   9  -7 242.248 36.2803  13
  -4   9   6 56.0256 25.9824   9
  -4   9   6 33.4559 22.8589  11
   4   9  -6 67.8554 23.0083  13
  -4   9   5 285.633 46.6325  11
  -4   9   5 340.386 46.1889   9
   4   9  -5 345.866 50.0905  13
  -4   9   4 484.611 58.4817  11
  -4   9   4 565.319 60.4127   9
   4   9  -4 592.833 63.1766  13
  -4   9   3 1698.19 94.9105   9
   4   9  -3 1719.44 105.649  13
  -4   9   2 3203.86 128.175   9
   4   9  -2 3262.50 141.331  13
  -4   9   1 2049.99 102.634   9
   4   9  -1 2181.75 115.207  13
  -4   9   1 1796.67 96.1042  13
  -4   9   0 236.868 41.0742   9
   4   9   0 148.089 31.5471  13
  -4   9   0 138.253 29.6507  13
  -4   9  -1 808.190 66.6493   9
   4   9   1 858.866 69.1805  13
  -4   9  -1 681.271 64.5853  13
   4   9   1 840.297 66.2553  11
   4   9   2 86.0729 28.9098  11
  -4   9  -2 74.3210 23.9965  13
  -4   9  -2 79.0141 28.8464   9
   4   9   2 108.526 26.6001  13
   4   9   3 1888.54 101.258  11
  -4   9  -3 1761.10 98.5099   9
   4   9   3 1799.41 99.1040  13
  -4   9  -3 1680.61 102.936  13
   4   9   4 627.521 61.3999  11
   4   9   4 627.700 60.7539  13
  -4   9  -4 609.761 58.8485   9
  -4   9  -4 512.730 58.7215  13
   4   9   5 17.0804 21.6686  11
  -4   9  -5 67.9373 27.3271   9
   4   9   5 48.4799 23.1108  13
  -4   9  -5-13.4853 23.6933  13
   4   9   6 212.156 39.1457  11
  -4   9  -6 181.290 33.4422   9
   4   9   6 213.806 34.1913  13
   4   9   7 1207.47 79.7896  11
  -4   9  -7 1035.65 77.6594   9
   4   9   7 1214.14 75.2474  13
   4   9   8 5.48354 18.9490  11
   4  -9   8 7.00023 13.9497  17
  -4   9  -8 1.16881 21.9997   9
   4   9   8 12.3721 17.1543  13
   4   9   9 55.5079 23.1592  11
   4  -9   9 35.8882 16.4502  17
  -4   9  -9 5.34225 18.7921   9
  -4   9  -9 18.2778 16.4140  13
   4   9  10 11.1746 14.1036  11
   4  -9  10 7.79434 10.2140  17
  -4   9 -10 8.06456 12.9379   9
  -4   9 -10-2.46565 13.3174  13
  -4   9 -11 166.962 25.2819   9
  -4   9 -11 166.792 23.3073  13
  -4  10   8 64.5582 18.3969  11
  -4  10   7 486.547 43.0863  11
   4  10  -7 440.940 33.7901  13
  -4  10   6 37.8720 18.0078  11
   4  10  -6 46.4010 16.4606  13
  -4  10   5 957.256 62.8645  11
  -4  10   5 1183.29 69.3003   9
   4  10  -5 1093.88 66.7647  13
  -4  10   4 284.258 36.5516  11
  -4  10   4 423.197 44.8798   9
   4  10  -4 429.798 46.0360  13
  -4  10   3 222.816 33.5519   9
   4  10  -3 173.397 32.4787  13
  -4  10   2 69.5475 22.9025   9
   4  10  -2 71.9339 25.4212  13
  -4  10   1-14.0351 22.3389   9
   4  10  -1 9.09535 17.8887  13
   4  10   0 75.7206 24.1571  13
  -4  10   0 48.1297 16.3506  13
  -4  10   0 60.7428 20.0134   9
   4  10   1 76.7816 24.3409  13
  -4  10  -1 43.1260 15.3056   9
  -4  10  -1 81.9293 21.5728  13
   4  10   2 82.8522 21.8492  11
  -4  10  -2 31.3072 19.0098   9
   4  10   2 106.842 28.7438  13
  -4  10  -2 82.4670 24.5011  13
   4  10   3 18.9312 19.1069  11
  -4  10  -3 2.87965 17.0095   9
   4  10   3 29.5916 21.0001  13
  -4  10  -3 6.03309 15.3672  13
   4  10   4 58.3426 18.7855  11
   4  10   4 7.79220 17.6172  13
  -4  10  -4 69.1935 24.0645   9
  -4  10  -4-19.5334 18.2961  13
   4  10   5-0.94415 14.4782  11
  -4  10  -5 51.0959 21.2619   9
   4  10   5 12.8802 16.3227  13
  -4  10  -5 25.7805 17.2386  13
   4  10   6 89.4853 23.3445  11
  -4  10  -6 80.0683 23.3733   9
   4  10   6 42.1940 17.2120  13
  -4  10  -6 52.7939 20.6323  13
   4  10   7 76.8513 21.5929  11
  -4  10  -7 67.2343 18.2157   9
   4  10   7 59.4513 17.0820  13
  -4  10  -7 51.9375 19.5425  13
   4  10   8 31.7686 14.1983  11
  -4  10  -8 45.0518 14.6205   9
  -4  10  -8 32.4994 15.1999  13
  -4  11   3 225.152 26.2819   9
  -4  11   2 403.573 34.5967   9
   4  11  -2 408.565 36.2946  13
  -4  11   1 417.406 37.0177   9
   4  11  -1 450.685 38.7742  13
  -4  11   0 595.137 43.1833   9
   4  11   0 641.246 46.1177  13
  -4  11  -1 567.596 41.5688   9
   4  11   1 637.701 45.9228  13
  -4  11  -2 42.2187 13.1215   9
   4  11   2 63.3014 17.2120  13
  -4  11  -3 155.204 21.9273   9
   4  11   3 146.596 22.6426  13
  -5   0  18 3.51778 11.2065  10
  -5   0  17 99.3175 24.5776  10
   5   0 -17 94.9863 22.9953  12
   5   0 -16-26.5006 20.5022  12
   5   0 -15 78.8180 28.1728  12
   5   0 -14 16.9952 23.0736  12
   5   0 -13 633.718 71.8179   8
   5   0 -13 715.588 75.0302  12
   5   0 -12 57.7044 25.6430  12
   5   0 -12 25.6723 21.8236   8
   5   0 -11 9184.54 627.869   6
   5   0 -11 9237.74 262.050   8
  -5   0  11 8412.31 667.286  19
   5   0 -11 9973.21 265.921  12
  -5   0  10-99.6224 81.5884  19
   5   0 -10 42.8935 34.6170   6
  -5   0   9 8664.57 607.118  19
   5   0  -9 8257.94 523.495   6
  -5   0   8 8.14972 46.6592  19
   5   0  -8 20.8614 41.5398   6
   5   0  -7 1820.71 220.731   6
  -5   0   7 2029.50 265.248  19
   5   0  -6 86.9574 46.3779   6
  -5   0   6-34.7986 50.6522  19
  -5   0   5 7680.66 436.393  19
   5   0  -5 7462.62 400.665   6
   5   0  -4 119.825 47.8044   4
  -5   0   4 120.982 48.8484  19
   5   0  -4 104.029 50.8053   6
   5   0  -4 107.038 43.6571   5
  -5   0   3 600.553 109.459  19
   5   0  -3 807.105 116.411   6
   5   0  -3 566.144 90.3293   5
   5   0  -2 42.9837 32.3758   4
   5   0  -2 65.4160 33.5560   5
   5   0  -2 333.921 72.1162   6
  -5   0   2 313.348 75.9220  19
   5   0  -1 48699.6 757.369   4
   5   0  -1 46912.1 636.851   5
  -5   0   0 9.63087 9.99326  18
   5   0   0 115.791 45.7439   2
  -5   0  -1 35216.6 584.923   3
   5   0   1 37744.5 722.825   2
   5   0   2 24.8883 20.3344   1
   5   0   2 136.815 54.6899   2
  -5   0  -2 142.470 45.9744   3
   5   0   3 32443.1 579.687   1
   5   0   3 31698.3 726.899   2
  -5   0  -3 32479.2 701.563   3
   5   0   4 112.441 35.2551   1
   5   0   4 52.0427 43.2935   2
  -5   0  -4 125.745 57.9803   3
   5   0   5 10096.0 491.303   2
  -5   0  -5 10717.9 497.392   3
  -5   0  -6 93.0826 53.9517   3
   5   0   6-3.04771 42.7937   2
   5   0   7 3739.05 355.486   2
  -5   0  -7 3665.81 342.136   3
  -5   0  -8-9.76917 57.6034   3
   5   0   8-74.5217 67.9544   2
   5   0   9 1964.37 299.018   2
  -5   0  -9 2201.77 296.156   3
   5   0  10-42.2359 96.1439   2
  -5   0 -10 61.2814 101.842   3
   5   0  11 2198.12 117.448  16
   5   0  11 2061.81 121.637  10
   5   0  12-40.4927 41.4676  10
   5   0  12 33.6341 30.3632  16
   5   0  13 1466.78 106.475  10
   5   0  14-15.3926 31.2359  10
   5   0  15 36.1128 25.3158  10
   5   0  15 33.4767 20.6873  15
   5   0  16-30.9807 19.6408  10
   5   0  16 31.4364 20.9323  15
   5   0  17 21.6781 13.9727  15
   5   0  18-4.18318 12.0315  15
  -5  -1  18 18.8019 13.4751  10
  -5  -1  17 246.920 38.1484  10
   5   1 -17 251.231 35.2949  12
   5  -1 -17 220.170 31.1599  12
   5   1 -16 148.234 31.8213  12
   5  -1 -16 122.756 28.3777  12
   5  -1 -15 6.71982 15.6900  12
   5   1 -15-6.88240 16.3214  12
   5   1 -14 92.5187 29.1080  12
   5  -1 -14 149.562 37.5545  12
   5   1 -13 103.826 33.0155  12
   5  -1 -13 96.2242 25.8963  12
   5  -1 -13 87.4259 31.0864   8
   5   1 -12 954.847 85.3590   8
   5  -1 -12 841.979 83.2759   8
   5   1 -12 840.039 78.6897  12
   5  -1 -12 929.520 85.5829  12
   5   1 -11 4527.96 452.533   6
  -5  -1  11 4590.19 509.452  19
   5  -1 -11 4149.69 420.952   6
   5   1 -11 4958.56 183.447  12
  -5   1  11 4599.10 501.601  19
   5   1 -11 5575.13 195.542   8
   5  -1 -11 5046.96 199.695   8
   5  -1 -11 5023.01 194.337  12
  -5   1  10 241.287 110.833  19
   5   1 -10 129.445 58.8205   6
   5  -1 -10 138.392 87.7550   6
  -5  -1  10 159.148 100.875  19
  -5   1   9 425.026 136.910  19
   5  -1  -9 485.541 128.764   6
   5   1  -9 614.719 143.046   6
  -5  -1   9 469.189 148.202  19
   5   1  -8 2076.99 256.790   6
   5   1  -8 1791.03 222.226   1
   5  -1  -8 2045.41 251.685   6
   5  -1  -8 2066.51 241.095   5
  -5  -1   8 1540.24 243.020  19
  -5   1   8 1756.79 260.180  19
   5  -1  -7 3964.81 333.454   6
  -5  -1   7 4205.62 377.242  19
   5   1  -7 4182.21 324.136   1
  -5   1   7 4133.47 371.815  19
   5   1  -7 4228.06 348.007   6
   5  -1  -7 4190.49 324.103   5
  -5   1   6 8627.83 503.632  19
  -5  -1   6 8377.86 503.815  19
   5   1  -6 7738.85 441.888   6
   5  -1  -6 8192.86 445.015   6
   5  -1  -6 8162.67 423.194   5
   5   1  -6 7962.53 434.643   1
  -5   1   5 2743.05 272.811  19
   5  -1  -5 2728.41 238.385   6
   5  -1  -5 2650.15 226.778   5
   5   1  -5 2946.46 259.086   1
  -5  -1   5 2731.47 269.328  19
   5  -1  -4 2985.06 220.396   5
   5  -1  -4 2444.38 152.126   3
   5   1  -4 2732.82 242.955   1
  -5   1   4 2793.90 248.505  19
  -5  -1   4 2661.65 243.889  19
   5   1  -4 2645.68 214.315   4
   5   1  -4 2901.87 247.516   6
   5  -1  -3 34100.6 580.667   4
   5   1  -3 33820.7 821.765   1
  -5   1   3 36760.4 831.592  19
  -5  -1   3 35739.4 834.911  19
   5   1  -3 37262.9 855.107   6
   5  -1  -3 34098.8 680.822   5
   5   1  -3 36058.7 773.858   4
  -5   1   2 81226.5 1188.76  19
   5   1  -2 79853.6 1182.93   6
   5   1  -2 74700.0 1163.26   1
   5  -1  -2 76629.6 916.817   5
  -5  -1   2 78608.7 1210.91  19
   5   1  -2 79190.4 1110.40   4
   5   1  -1 61151.3 957.729   6
   5  -1  -1 62260.0 731.393   5
   5   1  -1 60761.8 964.776   4
   5   1   0 14321.7 459.018   4
   5   1   0 14528.5 463.061   1
  -5   1   0 12970.7 374.160  18
   5  -1   0 13014.0 299.249   5
   5   1   0 14197.4 410.647   6
   5   1   0 13759.4 455.995   2
  -5  -1   0 11898.4 250.040   3
   5   1   1 2237.81 131.808   6
   5   1   1 2028.49 179.357   4
   5   1   1 2157.83 189.236   2
  -5  -1  -1 2094.34 140.571   3
  -5   1  -1 2200.90 170.770  18
   5  -1   1 1859.66 111.348   5
   5   1   1 2321.75 178.009   1
   5   1   2 8596.37 374.536   4
   5   1   2 7951.64 374.993   2
  -5   1  -2 8190.67 355.830   3
  -5  -1  -2 8696.62 337.701   3
   5   1   2 8484.58 337.115   1
   5  -1   2 7346.25 235.637   5
   5  -1   2 8009.03 305.124   2
   5  -1   3 45262.2 789.060   2
  -5  -1  -3 49509.9 919.864   3
   5   1   3 47357.1 967.440   2
   5   1   3 48911.2 825.131   1
   5   1   3 47574.0 942.229   4
  -5   1  -3 46715.2 912.500   3
   5   1   4 735.056 124.029   4
   5  -1   4 624.216 70.9161   1
  -5   1  -4 783.601 134.274   3
   5   1   4 666.185 96.0898   1
  -5  -1  -4 760.932 128.251   3
   5   1   4 596.355 119.202   2
   5  -1   4 591.940 101.668   2
   5   1   5 5964.45 381.981   4
   5  -1   5 6360.78 359.642   2
   5   1   5 5805.84 277.154   1
   5   1   5 6793.20 429.690   2
  -5   1  -5 6744.16 416.475   3
  -5  -1  -5 6976.90 406.714   3
   5   1   6 160.546 71.2123   4
  -5   1  -6 180.908 88.3610   3
   5  -1   6 191.438 76.8802   2
   5   1   6 212.332 85.3504   2
  -5  -1  -6 163.747 72.1882   3
   5  -1   7 24663.2 861.951   2
  -5   1  -7 29496.3 1026.92   3
   5   1   7 24788.7 956.745   2
   5   1   7 23402.6 843.180   4
  -5  -1  -7 28610.8 933.198   3
   5   1   8 519.415 131.698   4
  -5   1  -8 612.641 162.073   3
  -5  -1  -8 663.491 154.735   3
   5   1   8 427.223 149.425   2
   5   1   9 11724.2 763.963   2
  -5   1  -9 13746.2 795.813   3
  -5  -1  -9 13483.9 715.798   3
  -5   1 -10 221.097 98.0368   3
  -5  -1 -10 428.845 133.463   3
   5   1  10 240.431 119.366   2
   5  -1  11 1508.23 106.677  10
   5   1  11 1626.35 101.059  16
   5   1  11 1336.09 285.207   2
   5   1  12 3680.52 152.277  16
   5  -1  12 3354.42 158.769  10
   5  -1  13 5000.45 192.070  10
   5   1  13 4985.26 174.814  16
   5  -1  13 4843.94 201.511  15
   5  -1  14 15.4338 21.4290  15
   5  -1  14 8.48681 20.9063  10
   5  -1  15 857.070 78.4237  15
   5  -1  15 1039.18 83.7621  10
   5  -1  16 405.832 49.7097  10
   5   1  16 417.548 52.0295  15
   5  -1  16 343.497 45.8733  15
   5  -1  17-5.38747 15.7529  15
   5   1  17 12.5175 17.6792  15
   5  -1  17-9.22534 16.7257  10
   5  -1  18 141.197 21.9252  10
   5   1  18 168.240 25.6921  15
   5  -1  18 132.024 21.0212  15
  -5  -2  18 25.4433 14.3424  10
  -5  -2  17 64.2250 26.5801  10
   5   2 -17 32.2451 16.2550  12
   5   2 -16-8.22554 17.5937  12
   5  -2 -15 105.448 29.3830  12
   5   2 -15 88.5483 26.9206  12
   5   2 -14 278.271 46.6944  12
   5  -2 -14 298.344 50.0783  12
   5  -2 -13 402.561 58.9474  12
  -5   2  13 348.910 52.9674  16
   5  -2 -13 404.499 60.3530   8
   5   2 -13 422.902 57.4765  12
   5   2 -12 35.0822 21.7842  12
   5  -2 -12 64.8382 27.9326  12
  -5   2  12 102.925 35.8171  16
   5  -2 -12 47.9503 28.7724   8
  -5   2  11 2476.22 129.235  16
   5   2 -11 2878.87 139.881   8
   5  -2 -11 3016.67 156.714   8
   5   2 -11 2867.20 138.941  12
   5  -2 -11 2888.66 151.392  12
  -5  -2  10 1156.56 256.755  19
   5  -2 -10 1421.53 238.007   5
   5  -2 -10 1453.68 245.523   6
   5   2 -10 1164.60 228.175   6
  -5   2  10 1148.83 248.701  19
  -5  -2   9 352.584 120.809  19
   5  -2  -9 446.019 125.562   6
  -5   2   9 427.841 144.622  19
   5   2  -9 653.650 172.525   6
   5  -2  -9 358.884 120.779   5
  -5   2   8 16496.7 814.998  19
   5  -2  -8 18438.5 760.022   5
   5   2  -8 17533.3 808.304   6
  -5  -2   8 17952.5 846.060  19
   5  -2  -8 19082.9 806.221   6
  -5   2   7 170.459 61.8238  19
   5   2  -7 326.357 108.258   1
  -5  -2   7 136.757 67.5199  19
   5   2  -7 129.661 68.7731   6
   5  -2  -7 130.974 54.0542   5
   5  -2  -7 202.656 84.3575   6
   5   2  -6 1711.28 232.888   6
   5  -2  -6 1805.34 209.526   5
   5  -2  -6 1597.22 175.885   3
  -5  -2   6 1719.99 237.806  19
  -5   2   6 1794.48 233.428  19
   5   2  -6 1845.54 235.550   1
  -5   2   5 661.647 133.299  19
  -5  -2   5 575.607 125.198  19
   5   2  -5 636.193 135.445   1
   5  -2  -5 836.167 134.978   5
   5  -2  -5 597.370 101.402   3
   5   2  -5 886.947 157.084   6
  -5   2   4 33122.6 888.961  19
  -5  -2   4 35842.0 930.116  19
   5  -2  -4 32189.2 759.871   5
   5   2  -4 33098.2 923.391   1
   5   2  -4 34372.4 884.884   4
   5   2  -4 33636.3 928.419   6
   5   2  -3 3543.57 283.259   6
  -5  -2   3 3317.54 270.836  19
   5  -2  -3 3898.94 241.682   5
   5   2  -3 3368.15 283.206   1
   5   2  -3 3413.92 267.984   4
  -5   2   3 3418.18 270.132  19
  -5   2   2 1565.94 171.802  19
   5   2  -2 1646.31 175.584   6
  -5  -2   2 1609.76 183.293  19
   5  -2  -2 1535.40 147.255   5
   5   2  -2 1430.05 175.972   1
   5   2  -2 1531.00 174.422   4
   5   2  -1 14653.7 466.471   6
  -5  -2   1 12734.2 311.931   3
   5  -2  -1 14055.9 413.573   5
   5   2  -1 14960.1 537.698   1
   5   2  -1 13427.1 484.147   2
   5   2  -1 14678.8 526.041   4
   5   2   0 167296. 1388.27   6
  -5   2   0 173958. 1697.89  18
   5   2   0 176062. 1725.01   2
  -5  -2   0 168858. 1379.12   3
   5  -2   0 171298. 1453.88   5
   5   2   0 171225. 1786.30   4
   5   2   1 41718.1 889.190   2
   5   2   1 38487.9 585.942   6
  -5   2  -1 43836.5 893.547  18
  -5  -2  -1 37456.3 522.050   5
  -5  -2  -1 42698.6 792.722   3
   5   2   1 44369.5 887.947   1
   5  -2   1 42173.9 741.943   5
   5   2   1 43213.7 907.029   4
  -5   2  -2 74070.8 1219.99  18
   5   2   2 69929.5 1185.20   2
   5   2   2 73830.7 1138.05   1
  -5  -2  -2 73214.5 1141.29   3
   5   2   2 73185.7 1226.48   4
   5   2   3 9197.40 462.644   2
  -5   2  -3 9474.04 448.166  18
   5   2   3 9320.49 402.341   1
  -5  -2  -3 9914.93 454.915   3
   5   2   3 8861.78 449.130   4
   5   2   4 50435.3 1138.15   4
   5   2   4 52610.1 987.121   1
   5   2   4 53225.2 1197.61   2
  -5   2  -4 54870.8 1157.89  18
  -5  -2  -4 56496.9 1162.58   3
   5   2   5 1292.97 194.815   4
  -5   2  -5 1551.32 216.754   3
   5   2   5 1467.34 214.241   2
  -5  -2  -5 1598.39 207.804   3
   5   2   6 301.502 99.7449   4
  -5   2  -6 316.659 114.262   3
   5   2   6 136.423 78.2990   2
  -5  -2  -6 374.635 113.541   3
   5   2   7 10928.6 617.255   4
  -5   2  -7 12471.1 717.401   3
   5   2   7 12219.2 696.963   2
  -5  -2  -7 12453.8 636.967   3
  -5   2  -8 12685.6 774.935   3
   5   2   8 12647.3 761.843   2
  -5  -2  -8 12863.4 675.536   3
   5   2   8 11298.0 641.618   4
  -5   2  -9 1803.01 308.623   3
   5   2   9 2005.24 322.341   2
  -5  -2  -9 2227.06 296.199   3
  -5   2 -10 79.5634 52.2423   3
   5   2  10-9.61305 68.8923   2
  -5  -2 -10 130.439 105.500   3
   5  -2  11 1813.65 121.096  10
   5  -2  11 1748.00 124.631  15
   5   2  11 1922.61 108.575  16
   5  -2  12 418.842 62.5032  15
   5  -2  12 460.496 62.1975  10
   5   2  12 490.414 56.9042  16
   5  -2  13 337.585 57.8605  10
   5   2  13 281.573 44.6704  16
   5  -2  13 334.089 55.5200  15
   5  -2  14-13.1717 33.1912  10
   5  -2  14 10.6692 21.7533  15
   5   2  14 49.2788 21.7154  16
   5  -2  15 102.406 28.4123  15
   5  -2  15 71.8623 30.8913  10
   5   2  16 82.8477 25.8562  15
   5  -2  16 65.7893 23.7056  10
   5  -2  16 69.5205 22.2309  15
   5  -2  17 27.5633 18.5184  10
   5   2  17 23.5321 17.6726  15
   5   2  18 9.96212 11.0845  15
   5  -2  18-5.18352 9.87563  10
  -5  -3  18 39.1495 16.6195  10
  -5  -3  17 288.044 38.7644  10
  -5  -3  16 701.393 65.1000  10
  -5   3  16 564.050 48.3282  16
   5   3 -16 641.809 56.7375  12
  -5   3  15 796.031 62.9259  16
   5   3 -15 849.110 70.3396  12
   5   3 -14 66.4426 26.0033  12
  -5   3  14 90.7012 30.9000  16
   5   3 -13 327.780 47.8907  12
  -5   3  13 310.379 49.0306  16
  -5   3  12 815.611 79.7477  16
   5   3 -12 822.553 75.7752  12
   5   3 -11 125.301 37.5288  12
  -5   3  11 121.382 34.6268  16
   5  -3 -10 3455.18 159.345  17
  -5  -3  10 3207.98 423.125  19
  -5   3  10 3052.76 399.175  19
   5  -3 -10 2994.62 365.312   6
   5   3 -10 3426.33 151.139  12
   5   3  -9 2933.21 381.370   6
  -5   3   9 3157.86 386.719  19
  -5  -3   9 3020.19 386.874  19
   5  -3  -9 3153.21 362.140   6
   5  -3  -9 3294.04 363.969   5
  -5   3   8 1980.13 284.251  19
   5   3  -8 2867.80 365.773   6
  -5  -3   8 2607.16 340.241  19
   5  -3  -8 2601.45 311.081   6
   5  -3  -8 2609.63 317.473   5
   5   3  -7 11646.3 709.793   6
  -5   3   7 11416.2 651.289  19
  -5  -3   7 11317.8 649.425  19
   5   3  -7 10435.5 617.853   1
   5  -3  -7 12103.4 626.339   5
   5   3  -6 22641.8 904.765   1
   5   3  -6 22610.7 945.617   6
  -5   3   6 22514.1 863.392  19
   5  -3  -6 24595.9 817.626   5
   5  -3  -6 21044.1 716.385   3
  -5  -3   6 22887.2 875.081  19
  -5  -3   5 3765.40 339.354  19
   5   3  -5 4161.79 390.367   6
   5  -3  -5 3995.42 306.855   5
   5   3  -5 3994.63 375.736   1
  -5   3   5 4061.71 341.792  19
  -5   3   4 1996.39 223.764  19
  -5  -3   4 2123.82 233.100  19
   5  -3  -4 2310.91 220.982   5
   5   3  -4 2329.31 280.074   1
   5   3  -4 1960.48 246.470   6
   5   3  -3 3918.77 321.944   6
  -5  -3   3 3644.68 289.320  19
   5  -3  -3 4070.84 276.384   5
   5   3  -3 4134.51 352.076   1
   5   3  -3 4060.46 329.319   4
  -5   3   3 3874.44 292.222  19
  -5   3   2 68.0037 36.6716  19
  -5  -3   2 202.497 69.7062  19
   5   3  -2 146.165 59.1586   1
   5   3  -2 156.512 57.0490   6
   5  -3  -2 241.335 66.8139   5
   5   3  -1 9998.20 493.987   1
   5   3  -1 8993.53 408.406   6
   5  -3  -1 9513.18 405.882   5
  -5   3   1 9607.69 422.326  19
   5   3  -1 9449.69 482.775   4
   5   3  -1 9272.25 432.457   2
  -5  -3   1 10476.1 458.262  19
   5   3   0 403.862 90.7607   4
   5   3   0 394.670 78.4238   6
   5   3   0 568.567 118.515   1
   5   3   0 432.941 95.2948   2
   5  -3   0 456.848 96.9252   5
   5   3   1 28.1909 38.2116   1
   5   3   1-1.83160 31.3399   4
  -5   3  -1 109.058 60.0475  18
   5   3   1 114.841 73.0924   2
   5  -3   1 68.6956 50.0335   5
  -5  -3  -1 65.7235 40.0527   5
  -5  -3  -1 32.3737 24.6435   3
   5   3   2 10237.9 497.836   2
   5   3   2 9937.88 465.081   1
  -5   3  -2 10672.2 528.340  18
  -5  -3  -2 11034.0 492.569   3
   5   3   2 10353.3 525.071   4
   5   3   3 17732.1 634.954   1
   5   3   3 17863.6 683.989   2
  -5   3  -3 18989.3 731.094  18
  -5  -3  -3 18646.9 675.030   3
   5   3   3 17588.6 710.814   4
   5   3   4 4215.74 364.102   2
  -5   3  -4 4503.79 373.587  18
  -5  -3  -4 4210.82 340.096   3
   5   3   4 3828.78 348.821   4
   5   3   4 4087.11 316.955   1
  -5   3  -5 26565.1 964.654  18
   5   3   5 27945.7 980.899   2
  -5  -3  -5 26901.8 907.553   3
   5   3   5 25447.0 931.422   4
  -5  -3  -6 10457.3 593.585   3
   5   3   6 9943.10 627.144   2
  -5   3  -6 10284.5 642.360  18
   5   3   6 8708.28 567.518   4
   5   3   7 396.343 133.112   4
  -5   3  -7 489.794 169.505  18
   5   3   7 373.032 144.133   2
  -5  -3  -7 323.507 112.384   3
   5   3   8 15994.0 917.870   2
  -5  -3  -8 16902.8 823.668   3
  -5   3  -8 15436.5 920.063  18
   5   3   9 2096.53 355.110   2
  -5  -3  -9 2130.80 310.694   3
  -5   3  -9 2329.93 385.490  18
   5  -3  10 207.199 46.9735  10
   5   3  10 244.636 38.3282  16
   5  -3  10 175.880 41.1219  15
   5   3  11 24.7965 17.3643  16
   5  -3  11-3.46864 20.8448  15
   5  -3  11-10.5472 34.0561  10
   5  -3  12 339.057 55.2492  10
   5   3  12 292.479 44.7729  16
   5  -3  12 232.854 44.9924  15
   5  -3  13 890.909 83.8005  10
   5   3  13 944.005 75.8337  16
   5   3  14 5.53571 21.4982  16
   5  -3  14-24.2826 31.7179  10
   5  -3  15-3.03483 22.0806  10
   5   3  15 27.2222 20.5725  16
   5  -3  16 508.931 54.1189  10
   5   3  16 508.573 52.9238  15
   5  -3  17-11.9423 14.8643  10
   5   3  17-6.41783 13.0179  15
  -5  -4  17 22.1769 15.9512  10
  -5  -4  16 365.430 45.5074  10
  -5   4  16 306.418 33.4300  16
  -5   4  15 31.2400 21.6514  16
   5   4 -15 4.07934 13.1095  12
  -5   4  14 64.8593 28.2952  16
   5   4 -14 9.08463 16.0300  12
  -5   4  13 1030.12 80.0827  16
   5   4 -13 923.762 76.1634  12
  -5   4  12 3004.64 148.911  11
  -5   4  12 3160.93 143.664  16
   5   4 -12 2984.50 139.536  12
   5   4 -11 159.025 34.7099  12
  -5   4  11 140.668 41.8646  11
  -5   4  11 179.062 36.0389  16
   5   4 -10 49.4239 24.9645  12
  -5   4  10-6.29040 22.6850  11
   5  -4  -9 411.778 139.060   6
   5   4  -9 365.452 50.4023  12
   5  -4  -8 988.742 194.682   5
   5   4  -8 972.427 232.754   6
   5  -4  -8 1134.55 216.221   6
   5   4  -7 307.582 130.955   6
   5  -4  -7 493.113 135.482   5
   5  -4  -7 390.902 113.477   3
   5   4  -6 6749.66 565.924   6
   5   4  -6 6317.01 501.755   1
   5  -4  -6 7504.77 488.902   5
   5   4  -5 197.421 104.654   1
   5   4  -5 215.643 106.440   6
   5  -4  -5 187.172 77.1723   5
   5   4  -4 11309.0 641.207   6
   5   4  -4 10931.5 642.491   1
   5  -4  -4 12716.5 574.256   5
   5   4  -3 1251.89 200.408   6
   5   4  -3 1190.12 202.222   1
   5  -4  -3 1322.37 181.855   5
   5   4  -2 15021.6 634.488   6
   5   4  -2 15755.9 704.361   1
   5   4  -2 16608.7 729.269   4
   5  -4  -2 17484.8 627.919   5
   5   4  -1 1168.74 168.245   6
   5   4  -1 1170.80 189.566   1
   5  -4  -1 1292.12 179.910   5
   5   4  -1 1097.40 191.732   4
   5   4  -1 1152.88 166.589   2
   5   4   0 58440.4 1289.60   1
   5   4   0 62593.5 1400.92   4
   5   4   0 61349.8 1232.27   2
   5   4   1 3021.04 287.797   2
   5   4   1 2723.14 280.734   1
   5  -4   1 2856.80 281.290   5
   5   4   1 3030.38 315.004   4
   5   4   2 7694.63 468.729   1
   5   4   2 8710.12 505.516   2
  -5   4  -2 8736.17 541.077  18
  -5  -4  -2 7705.50 452.424   3
   5   4   2 7882.66 522.140   4
   5  -4   2 8250.84 488.349   5
   5   4   3 4716.13 388.121   2
  -5   4  -3 4837.77 410.098  18
  -5  -4  -3 4373.50 360.597   3
   5   4   3 4177.35 393.623   4
   5   4   4 2692.58 305.931   2
   5   4   4 2449.54 316.947   4
  -5   4  -4 2692.88 313.049  18
  -5  -4  -4 2636.99 298.909   3
   5   4   5 3297.46 362.490   2
  -5   4  -5 3010.07 355.365  18
  -5  -4  -5 2888.05 323.428   3
   5   4   5 2903.34 349.248   4
   5   4   6 685.476 173.635   4
  -5   4  -6 1072.35 224.017  18
  -5  -4  -6 981.360 200.150   3
   5   4   6 990.589 221.567   2
   5   4   7 210.992 105.724   2
  -5  -4  -7 407.389 130.091   3
  -5   4  -8 230.221 123.832  18
   5   4   8 237.265 129.095   2
  -5  -4  -8 125.287 55.4980   3
   5  -4   9 32.1813 20.6002  10
   5   4   9 55.2681 20.7978  16
   5   4   9 57.6869 25.2362  13
   5  -4  10 341.992 56.6594  10
   5   4  10 343.074 46.8175  16
   5  -4  11 526.953 72.8033  10
   5   4  11 574.740 61.1668  16
   5  -4  12 73.9981 26.4717  10
   5   4  12 121.023 33.0183  16
   5  -4  13-23.0114 30.6345  10
   5   4  13 18.2178 22.6417  16
   5   4  14 16.0073 18.4034  16
   5  -4  14 15.7345 21.6621  10
   5  -4  15 11.4769 19.0511  10
   5   4  15-8.76134 16.4544  16
   5   4  16 36.1427 16.8691  15
   5  -4  16 39.1718 18.8856  10
   5  -4  17 5.89987 11.5850  10
   5   4  17 17.9803 10.3070  15
  -5  -5  16 60.6737 18.8695  10
  -5   5  16 78.9415 17.2557  16
  -5  -5  15 8.99465 15.4653  10
  -5   5  15 5.33477 15.4571  16
  -5  -5  14 46.8478 22.8754  10
  -5   5  14 30.4329 18.7631  16
  -5   5  13 244.166 40.5735  11
  -5  -5  13 166.378 36.3370  10
  -5   5  13 218.778 36.7504  16
  -5   5  12 395.697 56.9569  11
  -5   5  12 416.843 51.7432  16
   5   5 -12 368.412 48.5847  12
  -5   5  11 75.9370 35.6581  11
  -5   5  11 57.2169 22.5275  16
   5   5 -11 62.0100 23.7389  12
  -5   5  10 477.588 66.2812  11
   5   5 -10 427.493 56.3889  12
  -5   5   9 482.706 66.5656  11
  -5   5   8 912.098 90.7973  11
  -5   5   8 937.637 76.9114   9
  -5   5   7 2006.97 130.250  11
   5   5  -7 1812.14 332.973   6
   5  -5  -7 2351.76 303.104   5
  -5   5   7 2201.46 113.697   9
   5  -5  -7 1762.16 256.014   3
   5   5  -6 3441.98 415.912   1
   5   5  -6 3540.47 441.452   6
   5  -5  -6 3736.10 367.673   5
   5   5  -5 2250.91 330.640   6
   5  -5  -5 2688.53 295.501   5
   5   5  -5 2641.07 357.389   1
   5   5  -4 3807.41 422.969   1
   5   5  -4 4017.16 411.028   6
   5  -5  -4 4913.81 388.741   5
   5  -5  -3 18325.8 739.098   5
   5   5  -3 16469.0 855.623   1
   5  -5  -2 204.863 88.1186   5
   5   5  -2 223.475 107.927   1
   5   5  -1 184.701 100.898   1
   5  -5  -1 119.688 64.8968   5
   5   5   0 7642.67 530.913   1
   5  -5   0 8471.27 522.382   5
   5   5   0 7469.07 551.124   4
   5   5   0 7640.09 483.455   2
   5   5   1 884.923 195.294   4
   5   5   1 817.121 166.322   2
   5  -5   1 917.190 183.314   5
   5   5   2 195.991 92.5653   4
   5  -5   2 308.693 119.600   5
   5   5   2 168.455 91.4695   2
  -5  -5  -2 226.754 86.5555   3
  -5  -5  -3 2203.62 287.984   3
   5   5   3 2230.91 291.697   2
  -5   5  -3 2651.03 341.342  18
   5  -5   3 2608.34 320.123   5
   5   5   3 2442.86 343.042   4
   5   5   4 5341.32 468.278   2
  -5   5  -4 6077.16 529.319  18
  -5  -5  -4 5400.13 469.234   3
   5   5   4 5060.82 492.893   4
  -5   5  -5 1479.46 274.173  18
   5   5   5 1304.85 254.354   4
   5   5   5 1685.86 278.289   2
  -5  -5  -5 1486.58 263.309   3
   5   5   6 3609.99 424.641   2
  -5   5  -6 3195.20 419.330  18
  -5  -5  -6 3451.77 408.232   3
   5   5   7 1176.68 87.5566  11
   5   5   7 1157.76 263.881   2
  -5   5  -7 938.226 231.833  18
  -5  -5  -7 1381.04 261.502   3
   5   5   7 1332.78 88.6663  13
   5   5   8 470.440 55.0729  11
   5  -5   8 462.236 62.8411  10
   5   5   8 510.605 58.5834  13
   5   5   9 130.296 33.6108  11
   5  -5   9 49.6704 25.5814  10
   5   5   9 77.9523 28.3661  13
   5  -5  10 703.749 81.7148  10
   5   5  10 763.915 69.6995  11
   5   5  10 672.073 64.3384  16
   5   5  10 720.416 70.8157  13
   5  -5  11-25.7627 34.9067  10
   5   5  11 45.9986 23.0270  16
   5  -5  12 12.1720 26.4621  10
   5   5  12 94.8174 23.8573  16
   5   5  13 298.634 41.5247  16
   5  -5  13 190.625 41.4622  10
   5  -5  14 58.6066 25.1487  10
   5   5  14 73.9248 23.6001  16
   5  -5  15 326.943 41.9179  10
   5  -5  15 265.591 37.7955  17
   5   5  15 224.519 32.1221  15
   5   5  15 304.686 35.3130  16
   5   5  16-6.75210 9.16550  15
   5  -5  16-6.79100 13.1074  10
   5  -5  16-7.65804 10.8512  17
  -5   6  15-10.4581 12.3155  16
  -5   6  14-0.56808 14.5209  16
  -5   6  13 898.682 67.5085  11
  -5   6  13 873.314 65.1174  16
  -5   6  12 12.1760 21.0021  11
  -5   6  12 30.1983 20.9313  16
  -5   6  11 12.6734 20.6325  11
  -5   6  11 1.72614 21.5319  16
  -5   6  10-4.81854 26.7914  11
  -5   6   9 1671.18 115.756  11
  -5   6   8 926.025 90.5991  11
  -5   6   8 998.499 81.7576   9
  -5   6   7 1438.72 114.613  11
  -5   6   7 1550.01 102.308   9
  -5   6   6 11491.1 320.297  11
  -5   6   6 11251.0 252.422   9
  -5   6   5 50.1691 26.7810  11
  -5   6   5 3.94576 19.2370   9
  -5   6   4 2541.76 151.063  11
  -5   6   4 2601.03 117.658   9
   5  -6  -4 2607.72 318.669   5
   5  -6  -3-9.24023 36.0223   5
   5  -6  -2 1657.45 250.972   5
   5  -6  -1 1694.98 256.870   5
   5  -6   0 190.546 91.8963   5
   5   6   1 287.642 113.908   2
   5  -6   1 382.873 125.572   5
   5  -6   2 2990.57 368.742   5
   5   6   2 2650.18 320.023   2
   5   6   3-49.4095 48.7068   2
   5  -6   3-105.580 76.1196   5
   5   6   4 252.466 39.1387  11
   5  -6   4 199.524 117.872   5
   5   6   4 111.773 76.6252   2
  -5  -6  -4 406.589 159.327   3
   5   6   4 301.997 43.1123  13
   5  -6   4 239.183 40.1591  17
   5   6   5 325.906 45.9041  11
  -5  -6  -5 406.880 145.089   3
   5  -6   5 284.837 45.7388  17
   5   6   5 392.644 153.925   2
   5   6   5 372.382 48.4178  13
   5  -6   5 258.579 107.534   5
   5   6   6 82.5895 30.1783  11
   5  -6   6 38.1008 19.0359  17
   5   6   6 58.4891 21.2590  13
   5   6   7 79.0557 30.1994  13
   5   6   7 77.6867 31.0126  11
   5   6   8 293.240 48.2155  11
   5   6   8 387.784 53.9606  13
   5   6   9 687.564 67.8452  11
   5   6   9 830.821 74.4859  13
   5   6  10 444.296 53.2135  11
   5  -6  10 337.261 54.4489  10
   5   6  10 432.033 55.0268  13
   5   6  11 475.416 54.0329  11
   5  -6  11 481.892 63.3064  10
   5  -6  12 37.9862 20.7064  10
   5   6  12 23.3970 16.7033  16
   5  -6  13 543.314 58.3760  10
   5   6  13 504.897 47.5959  16
   5  -6  13 517.269 59.0896  17
   5  -6  14 1.67083 13.5316  10
   5   6  14-10.0461 11.7832  16
   5  -6  15 206.300 28.9083  17
   5  -6  15 202.857 26.7081  10
  -5   7  14-6.19168 11.9041  16
  -5   7  13 151.443 25.8974  11
  -5   7  13 139.182 24.7068  16
  -5   7  12 54.1445 21.9878  16
  -5   7  12 44.4094 20.0182  11
  -5   7  11 60.6740 26.8738  11
  -5   7  11 33.3758 21.3834  16
  -5   7  10 1047.32 83.2985  11
  -5   7  10 1014.15 78.0740  16
  -5   7   9 282.842 49.2398  11
  -5   7   8-26.8368 30.6363  11
  -5   7   8-26.3893 30.8988   9
  -5   7   7 123.144 36.5504  11
  -5   7   7 71.3856 26.0342   9
  -5   7   6 75.3883 36.7993  11
  -5   7   6 82.2400 28.2098   9
  -5   7   5 255.613 52.9706  11
  -5   7   5 260.524 44.0567   9
   5   7  -5 222.700 39.4566  13
  -5   7   4 154.948 44.5070  11
  -5   7   4 197.762 36.4811   9
   5   7  -4 141.297 28.3181  13
  -5   7   3 3545.20 171.919  11
  -5   7   3 3789.76 146.836   9
   5   7  -3 3693.19 153.540  13
  -5   7   2 2521.92 138.532  11
  -5   7   2 2782.83 125.958   9
   5   7  -2 2688.74 131.348  13
  -5   7   1 2532.89 121.329   9
   5   7  -1 2289.47 111.084  11
   5   7   0 7.42458 18.2256  11
  -5   7   0-18.2380 32.5957   9
   5   7   0 62.0432 31.0101  13
   5   7   1 4455.16 155.257  11
   5  -7   1 4344.40 168.988  17
  -5   7  -1 4396.44 162.408   9
   5   7   1 4885.37 168.816  13
   5   7   2 5581.30 178.456  11
   5  -7   2 5428.75 187.691  17
  -5   7  -2 5124.04 176.180   9
   5   7   2 5870.56 184.135  13
   5   7   3 9035.38 226.264  13
   5   7   3 8875.94 226.656  11
   5  -7   3 8335.26 235.299  17
   5   7   4 147.932 34.5580  11
   5  -7   4 90.1931 27.7937  17
   5   7   4 138.564 35.0871  13
   5   7   5 654.900 65.6736  11
   5  -7   5 606.257 67.0198  17
   5   7   5 593.450 61.9623  13
   5   7   6 2388.55 124.431  11
   5  -7   6 2255.18 130.009  17
   5   7   6 2507.21 122.490  13
   5  -7   7 1780.64 120.000  17
   5   7   7 1916.49 112.517  11
   5   7   7 2102.03 112.087  13
   5   7   8 4627.40 170.617  11
   5  -7   8 4626.72 191.301  17
   5   7   9 196.207 40.4593  11
   5  -7   9 102.216 34.7404  17
   5   7   9 185.133 38.3572  13
   5   7  10 1649.18 94.1613  11
   5  -7  10 1396.96 103.019  17
   5   7  11-17.6990 19.2094  11
   5  -7  11-8.20147 18.6178  17
   5   7  12 32.2167 17.1147  11
   5  -7  12 19.9799 18.7256  17
   5  -7  13 352.097 43.3029  17
   5  -7  14 185.173 27.7809  17
  -5   8  12 101.370 20.8588  11
  -5   8  12 116.970 22.4006  16
  -5   8  11 95.7085 24.7871  11
  -5   8  11 75.4656 20.0040  16
  -5   8  10 3.71963 17.1042  11
  -5   8  10 16.8602 16.7441  16
  -5   8   9 47.5666 28.5865  11
  -5   8   9 24.8325 17.9201  16
  -5   8   8 80.1063 30.2753  11
  -5   8   8 98.2832 27.8111   9
  -5   8   7 18.0776 23.3200  11
  -5   8   7-5.98584 21.5118   9
  -5   8   6 243.853 48.5125  11
  -5   8   6 275.399 44.4796   9
   5   8  -6 257.884 40.3085  13
  -5   8   5 1529.81 113.767  11
  -5   8   5 1480.87 94.3641   9
   5   8  -5 1532.75 99.2104  13
  -5   8   4 223.747 48.9708  11
  -5   8   4 202.012 38.1535   9
   5   8  -4 205.465 39.8292  13
  -5   8   3 516.115 67.5854  11
  -5   8   3 532.515 60.2151   9
   5   8  -3 605.346 64.3482  13
  -5   8   2 38.2961 20.6114   9
   5   8  -2 64.3041 34.5433  13
  -5   8   1 398.339 49.3397   9
   5   8  -1 431.454 55.9253  13
   5   8   0 3720.32 140.338  11
  -5   8   0 3850.63 148.165   9
  -5   8   0 3448.39 143.724  13
   5   8   0 3961.65 156.326  13
   5   8   1 180.000 34.6357  11
  -5   8  -1 134.688 30.8695   9
   5   8   1 217.077 40.1726  13
  -5   8  -1 160.651 34.9419  13
   5   8   2 140.265 33.7999  11
  -5   8  -2 66.0218 21.7739   9
   5   8   2 132.589 31.3113  13
   5   8   3-1.33628 22.2639  11
   5  -8   3-6.84777 20.1320  17
  -5   8  -3-18.4610 25.9091   9
   5   8   3 10.7899 21.5680  13
   5   8   4 3140.70 136.825  11
  -5   8  -4 2695.14 129.297   9
   5   8   4 3143.83 134.119  13
   5  -8   4 2734.84 131.013  17
   5   8   5 1681.69 101.990  11
   5  -8   5 1585.71 102.428  17
  -5   8  -5 1466.65 95.9623   9
   5   8   5 1702.95 100.713  13
   5   8   6 1129.67 84.5917  11
   5  -8   6 1182.81 89.5006  17
  -5   8  -6 1037.11 81.3494   9
   5   8   6 1163.50 82.7238  13
   5   8   7 1917.59 105.062  11
   5  -8   7 1730.37 107.411  17
   5   8   7 2031.90 107.126  13
   5   8   8 15.7413 20.9944  11
   5  -8   8 40.1361 24.0707  17
   5   8   8 35.4743 23.7761  13
   5   8   9 769.687 63.9003  11
   5  -8   9 658.729 67.4362  17
   5   8   9 796.147 65.1185  13
   5   8  10 1041.33 68.4175  11
   5  -8  10 893.146 72.5974  17
   5   8  11 150.097 25.4188  11
   5  -8  11 114.875 27.4276  17
   5  -8  12-7.22120 12.9600  17
  -5   8 -12-6.03567 13.1696   9
  -5   9  10 63.6405 17.5051  11
  -5   9  10 46.0368 15.5403  16
  -5   9   9 22.5740 16.7384  11
  -5   9   9 31.0739 14.1246  16
  -5   9   8 536.819 53.7274  11
  -5   9   8 501.786 47.9864  16
  -5   9   7-19.7394 19.5792  11
  -5   9   7-0.71176 19.9746   9
  -5   9   6 650.446 64.5603  11
  -5   9   6 782.869 63.3679   9
   5   9  -6 748.967 59.9390  13
  -5   9   5 20.5777 20.3689  11
  -5   9   5 28.4206 22.7394   9
   5   9  -5 1.10364 20.8108  13
  -5   9   4 382.833 53.7508  11
  -5   9   4 427.958 52.6953   9
   5   9  -4 442.179 50.5052  13
  -5   9   3 162.222 36.4043  11
  -5   9   3 124.999 32.9173   9
   5   9  -3 176.813 38.7893  13
  -5   9   2 167.622 32.8755   9
   5   9  -2 193.198 40.9294  13
  -5   9   1 256.754 36.2694   9
   5   9  -1 338.371 46.7512  13
   5   9   0 139.571 30.0386  11
  -5   9   0 62.4757 23.5766   9
   5   9   0 100.612 30.7898  13
  -5   9   0 86.7373 24.6784  13
   5   9   1 1627.02 86.9372  11
  -5   9  -1 1534.05 87.7499   9
   5   9   1 1638.28 95.9141  13
  -5   9  -1 1399.85 86.1527  13
   5   9   2 696.154 61.6227  11
  -5   9  -2 704.753 60.2253   9
  -5   9  -2 616.698 58.3206  13
   5   9   2 711.453 64.0567  13
   5   9   3 922.504 70.6600  11
  -5   9  -3 805.360 66.1470   9
   5   9   3 859.491 68.4248  13
  -5   9  -3 685.290 65.2436  13
  -5   9  -4 192.329 35.8174   9
   5   9   4 252.558 41.3486  13
  -5   9  -4 184.883 36.0999  13
   5   9   5 838.906 65.1350  13
   5   9   5 800.986 66.5529  11
  -5   9  -5 770.314 65.5659   9
  -5   9  -5 612.495 61.2565  13
   5   9   6 153.281 33.3912  11
  -5   9  -6 147.476 32.9180   9
   5  -9   6 92.7453 21.2485  17
   5   9   6 157.932 33.1780  13
   5   9   7 236.473 37.9183  11
   5  -9   7 155.287 30.5578  17
  -5   9  -7 194.579 34.5655   9
   5   9   7 257.596 37.7670  13
   5  -9   8 511.299 48.1931  17
  -5   9  -8 546.160 54.8541   9
   5   9   8 631.044 51.3539  13
   5  -9   9 116.646 24.2025  17
  -5   9  -9 117.038 26.9651   9
  -5   9  -9 173.903 32.7169  13
   5   9  10 235.623 28.3092  11
   5  -9  10 152.464 23.2987  17
  -5   9 -10 178.181 29.1734   9
  -5   9 -10 203.918 30.1635  13
  -5  10   7 59.1731 17.4783  11
  -5  10   6 999.324 60.2038  11
   5  10  -6 1057.10 52.7536  13
  -5  10   6 1002.69 55.2916  16
  -5  10   5 126.652 24.2641  11
  -5  10   5 103.677 21.8946  16
  -5  10   5 133.379 28.8036   9
   5  10  -5 137.341 24.3831  13
   5  10  -4 1114.97 66.9472  13
  -5  10   4 1229.67 69.6810   9
  -5  10   3 53.1059 20.0677   9
   5  10  -3 78.1196 22.1376  13
  -5  10   2 938.570 62.6438   9
   5  10  -2 990.559 68.0640  13
  -5  10   1 299.477 36.7713   9
   5  10  -1 284.791 39.3396  13
  -5  10   0 1300.74 72.5475   9
   5  10   0 1413.62 82.2748  13
  -5  10  -1-21.7000 23.9880   9
   5  10   1 21.5529 20.4602  13
  -5  10  -1 8.73462 11.4222  13
  -5  10  -2 667.583 51.5531   9
  -5  10  -2 655.162 51.7128  13
  -5  10  -3-24.3389 19.8461   9
  -5  10  -3-17.3739 14.1806  13
   5  10   4 628.378 50.6931  11
  -5  10  -4 669.174 53.7773   9
   5  10   4 613.999 50.0111  13
  -5  10  -4 518.935 47.8995  13
   5  10   5 38.5297 18.5101  11
  -5  10  -5 41.1787 20.0414   9
   5  10   5 10.1538 16.6061  13
  -5  10  -5 0.53257 14.2569  13
   5  10   6 42.0808 20.0431  11
  -5  10  -6-0.89703 11.8686   9
   5  10   6 27.4353 17.1489  13
  -5  10  -6 0.42662 13.0968  13
  -5  10  -7 87.8458 20.5425   9
   5  10   7 107.167 20.0915  13
  -5  10  -7 40.6357 16.2440  13
  -5  11   1 133.948 21.6123   9
   5  11   0 7.66295 10.9169  13
  -5  11   0 8.34234 9.97689   9
  -5  11  -1 69.0438 17.4363   9
   5  11   1 30.9603 11.8272  13
  -6   0  17 22.7631 15.6185  10
   6   0 -17-6.43324 13.0080  12
   6   0 -16 196.820 34.7537  12
   6   0 -15 16.0838 16.2215  12
   6   0 -14 1448.38 99.7656  12
   6   0 -13 12.0579 25.6046  12
   6   0 -13 14.4446 20.7745   8
   6   0 -12 341.229 52.8987   8
   6   0 -12 428.873 58.2847  12
   6   0 -11 39.1220 22.5538  12
   6   0 -11 15.7132 16.5423   8
  -6   0  10-144.548 97.0569  19
   6   0 -10-35.3756 50.9276   6
   6   0  -9 74.1666 38.5991   6
  -6   0   9 25.6748 52.0401  19
   6   0  -8 680.008 147.625   6
  -6   0   8 839.937 186.185  19
  -6   0   7 23.5872 70.0860  19
   6   0  -7 54.5853 49.9966   6
   6   0  -6 1153.10 176.008   6
  -6   0   6 902.610 178.118  19
   6   0  -5 126.129 54.3399   6
  -6   0   5 138.354 81.2629  19
   6   0  -4 6241.53 370.452   6
  -6   0   4 6011.66 385.433  19
   6   0  -4 5352.64 289.123   4
   6   0  -3 81.9858 46.7313   4
   6   0  -3 10.0234 34.0312   6
   6   0  -2 1433.56 160.659   6
  -6   0   2 1552.03 184.092  19
   6   0  -2 1610.49 159.695   4
   6   0  -1 161.600 57.7816   4
   6   0  -1 196.800 61.5532   6
   6   0   0 169925. 1586.13   4
  -6   0   0 133682. 846.202  18
   6   0   1 23.1879 39.5541   2
   6   0   1 21.0541 42.0855   1
   6   0   2 176002. 1771.07   2
  -6   0  -2 172915. 1576.12   3
   6   0   2 177941. 1572.75   1
   6   0   3 185.009 55.7147   1
   6   0   3 287.785 90.1817   2
  -6   0  -3 178.952 58.1867   3
   6   0   4 145595. 1780.30   2
   6   0   4 142761. 1366.93   1
   6   0   5-5.23122 38.4465   2
  -6   0  -5 222.602 80.3559   3
   6   0   6 31204.1 977.833   2
  -6   0  -6 31788.7 980.797   3
  -6   0  -7 50.4606 39.1874   3
   6   0   7-3.47697 45.2775   2
  -6   0  -8 6912.58 526.973   3
   6   0   8 6047.91 502.819   2
  -6   0  -9 60.6939 95.0407   3
  -6   0 -10 622.577 181.803   3
   6   0  11-0.49928 23.7525  10
   6   0  12 5351.17 198.094  10
   6   0  13-7.06153 25.0598  15
   6   0  13-48.1465 40.3149  10
   6   0  14 2149.34 122.229  10
   6   0  14 2160.04 128.339  15
   6   0  15 46.6287 24.5926  10
   6   0  15-9.05304 19.5448  15
   6   0  16 15.4820 17.4012  10
   6   0  16 2.13765 16.3553  15
   6   0  17 21.9066 16.3471  15
   6   0  18 85.7421 18.6409  15
  -6  -1  18-4.77140 9.95898  10
  -6  -1  17 141.094 28.4109  10
   6   1 -17 189.201 29.5929  12
   6  -1 -17 140.973 23.9202  12
   6   1 -16 170.561 32.7238  12
   6  -1 -16 216.528 35.1759  12
   6   1 -15 99.2104 30.2186  12
   6  -1 -15 97.4801 28.0297  12
   6   1 -14 42.9414 24.8494  12
   6  -1 -14-3.57391 19.2885  12
   6  -1 -13 1891.09 119.554   8
   6   1 -13 1811.25 114.370  12
   6  -1 -13 1900.17 119.264  12
   6   1 -12 1420.37 101.423   8
   6  -1 -12 1424.83 106.607   8
   6   1 -12 1363.56 98.1538  12
   6  -1 -12 1505.26 107.372  12
   6   1 -11 8327.80 243.881   8
   6  -1 -11 8534.71 255.755   8
   6   1 -11 8257.97 236.831  12
   6  -1 -11 8515.49 252.115  12
   6  -1 -10 1141.39 222.577   6
  -6  -1  10 661.936 190.347  19
  -6   1  10 653.876 171.628  19
   6   1 -10 881.640 198.083   6
  -6   1   9-0.43575 57.9397  19
  -6  -1   9 1.18511 63.2329  19
   6   1  -9 37.3070 40.9615   6
   6  -1  -9 62.6072 66.1611   6
  -6  -1   8 8028.21 579.014  19
   6   1  -8 6862.06 457.214   1
  -6   1   8 7291.32 552.397  19
   6   1  -8 7554.15 502.543   6
   6  -1  -8 7533.81 506.836   6
  -6  -1   7 1970.12 275.047  19
   6  -1  -7 1968.68 247.023   6
  -6   1   7 1932.24 268.481  19
   6  -1  -7 1945.89 226.240   5
   6   1  -7 2076.58 251.461   6
   6   1  -7 2025.16 240.651   1
   6   1  -6 3081.65 292.231   6
  -6  -1   6 3303.77 339.289  19
   6  -1  -6 3119.22 289.919   6
  -6   1   6 2788.92 307.972  19
   6   1  -6 3227.84 300.459   1
   6  -1  -6 3363.04 281.571   5
  -6   1   5 988.247 169.946  19
   6   1  -5 1134.08 169.901   6
  -6  -1   5 870.680 164.980  19
   6  -1  -5 901.481 150.425   6
   6  -1  -5 905.955 139.359   5
   6   1  -5 1196.35 179.353   1
   6   1  -5 747.842 130.494   4
  -6   1   4 6919.02 420.883  19
  -6  -1   4 7295.14 440.903  19
   6  -1  -4 5966.72 332.561   5
   6   1  -4 6050.90 392.921   1
   6   1  -4 7096.55 411.961   6
   6   1  -4 5879.01 341.705   4
   6  -1  -3 5963.02 282.131   4
  -6   1   3 6641.94 382.993  19
   6   1  -3 6801.35 388.413   6
   6   1  -3 6075.86 377.674   1
   6  -1  -3 6148.37 313.731   5
   6   1  -3 6412.79 351.473   4
  -6  -1   3 6660.19 391.994  19
   6  -1  -2 15495.9 453.749   4
  -6   1   2 17796.8 601.094  19
   6   1  -2 16406.8 577.330   6
   6   1  -2 15918.7 585.421   1
   6  -1  -2 15619.2 452.926   5
  -6  -1   2 16685.9 601.033  19
   6   1  -2 16214.8 547.787   4
   6   1  -1 1155.79 139.682   6
   6   1  -1 1848.34 191.135   1
   6  -1  -1 1866.21 140.090   5
   6   1  -1 1026.75 134.634   4
   6   1   0 19522.1 591.001   4
   6   1   0 20885.6 613.818   1
   6   1   0 20046.1 540.997   6
  -6   1   0 18024.2 458.202  18
   6  -1   0 18563.9 390.015   5
   6   1   0 19677.1 604.207   2
   6   1   1 1252.34 155.858   4
   6   1   1 1380.97 152.346   1
  -6   1  -1 1506.62 151.105  18
   6  -1   1 1376.13 94.9808   5
   6   1   1 1533.77 125.231   6
  -6  -1  -1 1226.53 109.633   3
   6   1   1 1381.34 163.583   2
   6   1   2 11209.6 468.242   4
   6   1   2 11806.5 495.040   2
  -6   1  -2 11661.7 440.429  18
  -6  -1  -2 11554.4 394.571   3
   6   1   2 11404.7 431.463   1
   6  -1   2 11309.6 403.813   2
   6   1   3 898.220 141.775   4
   6   1   3 892.577 142.532   2
  -6   1  -3 940.897 136.267   3
   6   1   3 1030.57 131.312   1
  -6  -1  -3 934.618 130.545   3
   6  -1   3 901.885 120.021   2
   6   1   4 305.732 75.8495   1
   6   1   4 294.838 80.4815   4
   6  -1   4 369.080 88.0840   2
  -6   1  -4 204.589 68.7185   3
  -6  -1  -4 351.595 83.3444   3
   6   1   4 351.198 104.864   2
   6   1   5 3664.13 322.622   4
   6  -1   5 3547.83 276.467   2
   6   1   5 3968.00 344.185   2
  -6   1  -5 3607.67 323.520   3
  -6  -1  -5 3749.30 313.248   3
   6   1   6 84.6682 50.9663   4
   6   1   6 96.1976 53.9254   2
  -6  -1  -6 67.3040 56.2119   3
  -6   1  -6 113.779 79.0998   3
   6   1   7 294.568 102.494   4
   6   1   7 222.329 81.0568   2
  -6  -1  -7 282.838 89.8216   3
  -6   1  -7 467.914 150.345   3
   6   1   8 2035.62 286.042   4
  -6  -1  -8 2656.54 314.967   3
   6   1   8 2490.45 347.645   2
  -6   1  -8 2879.42 360.546   3
   6   1   9 152.797 87.2199   4
  -6  -1  -9 135.782 79.0845   3
   6   1   9 124.410 90.6741   2
  -6   1  -9 32.2067 54.2130   3
  -6  -1 -10 641.047 182.623   3
  -6   1 -10 503.624 171.971   3
   6   1  10 341.250 153.230   2
   6   1  11 3312.17 146.066  16
   6  -1  11 3347.07 167.720  15
   6  -1  11 3205.04 154.731  10
   6   1  12 4545.94 172.424  16
   6  -1  12 4483.05 193.106  15
   6  -1  12 4275.09 183.332  10
   6  -1  13 243.068 46.8517  10
   6  -1  13 182.850 43.3698  15
   6  -1  14 1276.82 95.9978  10
   6  -1  14 1133.91 92.6888  15
   6  -1  15 90.3248 30.8768  15
   6  -1  15 62.9583 25.6855  10
   6   1  15 108.376 32.8893  15
   6  -1  16 42.5529 21.2746  10
   6   1  16 71.1598 24.0488  15
   6  -1  16 59.4392 24.2045  15
   6   1  17 17.0505 15.4048  15
   6  -1  17 4.39744 13.9852  10
   6  -1  17-3.89299 11.6512  15
   6   1  18 41.0743 14.9167  15
  -6  -2  18 9.81115 11.0864  10
  -6  -2  17 23.9580 19.9533  10
   6   2 -17 4.13289 12.2870  12
   6   2 -16 1.69867 14.7729  12
   6   2 -15 230.328 39.0862  12
   6  -2 -15 206.192 34.4275  12
   6   2 -14 1376.13 93.4707  12
   6  -2 -14 1339.19 94.4369  12
   6  -2 -13 1819.05 118.424  12
   6  -2 -13 1798.42 117.114   8
   6   2 -13 1567.57 103.914  12
   6   2 -12 3503.09 155.110   8
   6   2 -12 3647.96 155.695  12
   6  -2 -12 3509.73 163.282  12
   6  -2 -12 3597.00 168.479   8
   6   2 -11 1600.57 106.193   8
   6  -2 -11 1675.55 117.777   8
   6   2 -11 1793.20 110.384  12
   6  -2 -11 1676.34 114.954  12
   6   2 -10 83.2160 25.5558  12
   6  -2 -10 135.796 33.0707  17
  -6   2  10 138.646 137.624  19
  -6  -2  10 23.7699 109.901  19
   6   2 -10-30.4094 49.7567   6
   6   2 -10 52.7715 20.2426   8
   6  -2 -10 98.8263 32.4102   8
   6  -2 -10 49.1941 57.3565   6
  -6   2   9 3694.24 422.065  19
   6   2  -9 3596.97 393.854   6
   6  -2  -9 4400.10 419.303   6
   6  -2  -9 4298.68 398.928   5
  -6  -2   9 3462.60 417.997  19
  -6  -2   8 91.7838 70.7549  19
  -6   2   8 142.743 87.8812  19
   6  -2  -8 159.562 90.3438   6
   6   2  -8 289.460 113.029   6
   6  -2  -8 101.741 67.9527   5
   6   2  -8 281.589 102.953   1
   6   2  -7 115.572 76.5378   1
  -6   2   7 131.308 81.7027  19
   6  -2  -7 86.8900 63.4902   6
   6  -2  -7 71.6518 39.3001   5
   6   2  -7 160.586 84.8786   6
  -6  -2   7 15.3320 69.2300  19
   6   2  -6 2721.04 301.836   6
  -6  -2   6 2723.10 317.666  19
   6  -2  -6 2901.29 290.157   6
   6  -2  -6 2735.27 271.063   5
  -6   2   6 2801.41 312.441  19
   6   2  -6 2895.49 313.526   1
   6   2  -5 9350.15 544.229   1
  -6   2   5 9482.06 531.536  19
   6  -2  -5 8776.40 449.932   5
  -6  -2   5 9589.62 555.605  19
   6   2  -4 1092.20 180.462   6
   6   2  -4 963.268 170.143   1
   6  -2  -4 960.922 141.151   5
  -6   2   4 1173.80 181.063  19
  -6  -2   4 977.671 170.057  19
   6   2  -4 1091.49 168.395   4
  -6   2   3 42345.8 999.235  19
   6   2  -3 40736.2 1008.98   6
   6  -2  -3 44093.3 859.558   5
   6   2  -3 43832.9 1016.49   4
  -6  -2   3 45523.6 1082.99  19
   6   2  -3 40878.0 1062.51   1
  -6  -2   2 3085.96 270.726  19
   6   2  -2 3103.11 255.900   6
  -6   2   2 2853.32 247.377  19
   6  -2  -2 2992.54 213.550   5
   6   2  -2 3195.43 271.560   4
   6   2  -2 3361.49 289.376   1
   6   2  -1 945.225 129.125   6
   6  -2  -1 1173.89 124.635   5
   6   2  -1 1135.41 164.027   1
   6   2  -1 1086.82 147.932   2
   6   2  -1 1025.59 150.878   4
   6   2   0 11786.7 394.483   6
  -6   2   0 11951.0 464.409  18
   6  -2   0 11893.4 383.617   5
   6   2   0 12274.8 512.320   1
   6   2   0 11680.2 485.084   2
   6   2   0 11957.0 505.807   4
   6   2   1 17935.6 618.098   2
   6   2   1 17875.2 609.940   1
  -6   2  -1 18472.5 611.445  18
  -6  -2  -1 17936.3 503.540   3
   6  -2   1 17125.0 468.603   5
   6   2   1 17511.6 618.870   4
   6   2   2 14908.8 592.635   2
  -6   2  -2 14768.4 578.224  18
   6   2   2 14170.7 537.687   1
   6  -2   2 13956.1 445.425   5
   6   2   2 13706.2 570.181   4
   6   2   3 56366.0 1197.59   2
  -6   2  -3 56008.5 1164.56  18
   6   2   3 54732.6 1056.53   1
   6   2   3 54033.0 1190.05   4
   6   2   4 7854.88 482.011   4
  -6  -2  -4 8324.55 459.539   3
   6   2   4 7046.32 455.323   2
   6   2   4 6613.18 369.365   1
  -6   2  -4 7331.67 449.182  18
   6   2   5 30763.0 1015.91   4
   6   2   5 33064.5 1058.46   2
  -6   2  -5 32474.3 1012.08  18
   6   2   6 11028.7 641.085   4
   6   2   6 12607.5 700.402   2
  -6  -2  -6 12986.1 641.620   3
   6   2   7 215.741 102.863   4
  -6   2  -7 79.2718 69.2047   3
   6   2   7 194.629 101.438   2
  -6  -2  -7 48.9682 43.4243   3
   6   2   8 423.298 140.697   4
  -6   2  -8 343.289 130.085   3
   6   2   8 381.743 132.280   2
  -6  -2  -8 461.093 146.126   3
  -6   2  -9 414.100 161.644   3
   6   2   9 350.657 156.317   2
  -6  -2  -9 290.916 106.920   3
  -6   2 -10 3936.42 493.584   3
   6   2  10 3315.77 454.497   2
   6  -2  10 3381.64 165.688  15
   6  -2  10 3551.08 165.647  10
   6   2  10 3581.36 148.245  16
  -6  -2 -10 3882.64 424.315   3
   6   2  11 978.128 80.9889  16
   6  -2  11 1031.81 96.4083  15
   6  -2  11 1072.29 92.7121  10
   6  -2  12 0.12003 28.5377  10
   6   2  12 9.49061 21.4712  16
   6  -2  12 20.0277 24.8990  15
   6  -2  13 2873.31 151.486  10
   6   2  13 2939.84 135.656  16
   6  -2  13 2802.83 148.853  15
   6  -2  14 12.8135 25.2302  10
   6  -2  14 29.3110 26.4239  15
   6  -2  15 56.6172 27.0173  10
   6  -2  15 53.2900 22.6307  15
   6   2  15 78.3566 30.3176  15
   6  -2  16 99.9365 24.5565  15
   6  -2  16 136.992 29.0376  10
   6   2  16 194.002 34.7561  15
   6  -2  17 29.7464 17.1292  10
   6   2  17 27.6967 16.1361  15
   6  -2  17-0.80692 9.98765  15
   6   2  18 115.610 19.3679  15
  -6  -3  17 41.4933 20.5494  10
  -6  -3  16 137.741 35.4758  10
   6   3 -16 46.4762 17.6209  12
   6   3 -15 147.653 29.9789  12
  -6   3  14 669.450 61.1862  16
   6   3 -14 695.810 64.1474  12
   6   3 -13 39.5085 21.1968  12
  -6   3  13 58.1084 25.1597  16
   6  -3 -13 47.7817 24.0130   8
   6   3 -12 69.4068 26.9628  12
   6  -3 -12 30.2470 20.4030  12
  -6   3  12-12.3275 26.6204  16
   6  -3 -12 62.6082 31.6758   8
  -6   3  11 5633.19 197.605  16
   6  -3 -11 5857.75 218.709   8
   6   3 -11 5665.14 193.338  12
   6  -3 -11 6052.42 216.819  12
   6   3 -10 569.155 63.8671   8
   6  -3 -10 627.905 72.6292   8
   6  -3 -10 662.359 71.1155  17
   6   3 -10 579.542 64.4335  12
   6   3  -9 7450.07 614.125   6
  -6  -3   9 6762.77 592.624  19
  -6   3   9 6790.70 572.141  19
   6  -3  -9 7952.42 565.718   5
   6  -3  -9 8152.71 592.880   6
  -6  -3   8 995.945 232.451  19
  -6   3   8 796.767 193.575  19
   6  -3  -8 828.069 186.281   6
   6   3  -8 721.593 185.083   6
   6  -3  -8 738.307 168.869   5
   6   3  -7 8674.12 622.176   6
  -6   3   7 9284.18 620.780  19
  -6  -3   7 9139.36 616.718  19
   6  -3  -7 9627.17 585.596   6
   6  -3  -7 9635.84 571.550   5
   6   3  -7 8584.59 586.832   1
  -6   3   6 9218.36 578.766  19
   6   3  -6 8927.87 612.289   6
   6  -3  -6 9491.75 531.274   5
   6   3  -6 8674.24 589.898   1
  -6  -3   6 9341.43 587.325  19
   6   3  -5 1641.82 252.335   6
  -6  -3   5 1880.83 255.877  19
   6  -3  -5 2117.64 238.377   5
   6   3  -5 1805.50 263.944   1
  -6   3   5 1720.90 236.551  19
   6   3  -4 568.616 133.951   4
  -6   3   4 492.520 124.210  19
   6   3  -4 401.303 120.785   6
   6   3  -4 570.645 151.004   1
   6  -3  -4 585.788 113.936   5
  -6  -3   4 428.812 119.518  19
   6   3  -3 13331.0 621.011   6
  -6   3   3 13906.4 596.976  19
  -6  -3   3 15054.0 651.003  19
   6  -3  -3 14770.0 552.825   5
   6   3  -3 15330.6 723.501   1
   6   3  -3 14875.8 658.644   4
   6   3  -2 26583.2 803.545   6
  -6   3   2 27249.3 801.688  19
  -6  -3   2 29926.8 872.778  19
   6   3  -2 28115.1 936.019   1
   6  -3  -2 28654.6 735.431   5
   6   3  -2 26729.3 865.142   4
  -6   3   1 5662.61 355.010  19
   6   3  -1 5133.04 324.320   6
   6   3  -1 5002.61 375.518   1
   6  -3  -1 5293.33 312.509   5
  -6  -3   1 5721.60 380.482  19
   6   3  -1 5510.62 384.988   4
   6   3  -1 5355.73 350.677   2
   6   3   0 5511.18 307.163   6
   6  -3   0 5594.09 321.445   5
   6   3   0 6083.22 403.219   1
   6   3   0 5467.66 383.864   4
   6   3   0 5789.12 369.703   2
  -6   3  -1 7874.11 463.873  18
   6   3   1 6411.72 402.690   1
   6  -3   1 7558.75 384.373   5
   6   3   1 7365.37 426.785   2
   6   3   1 6660.05 430.763   4
   6   3   2 22340.3 777.818   2
   6   3   2 20338.7 695.021   1
  -6   3  -2 23246.5 811.960  18
  -6  -3  -2 20667.5 699.783   3
   6  -3   2 22098.8 685.345   5
   6   3   2 21064.6 792.836   4
   6   3   3 12272.1 557.248   1
  -6   3  -3 13608.7 651.495  18
  -6  -3  -3 13288.0 594.336   3
   6   3   3 13239.3 625.821   2
   6   3   3 13134.9 650.760   4
   6   3   4 7258.11 438.582   1
   6   3   4 7085.90 480.416   2
  -6   3  -4 7665.23 511.292  18
   6   3   4 7950.75 531.088   4
  -6  -3  -4 8080.47 491.688   3
   6   3   5 4864.15 422.736   2
  -6   3  -5 5112.69 437.578  18
  -6  -3  -5 4907.77 404.592   3
   6   3   5 4307.14 412.763   4
   6   3   6 191.515 93.8193   4
  -6   3  -6 176.019 93.1461  18
   6   3   6 15.1685 62.9408   2
   6   3   7 42.7868 49.3761   4
   6   3   7-19.3378 94.4168   2
  -6  -3  -7 54.0543 70.0180   3
  -6   3  -7 145.692 130.870  18
  -6   3  -8 94.9148 120.250  18
   6   3   8 6.55573 80.2548   2
  -6  -3  -8 68.4614 57.0072   3
   6  -3   9 108.576 32.2741  10
   6   3   9 86.0836 66.8380   2
  -6  -3  -9 201.118 94.8386   3
   6  -3  10 44.0038 22.1286  10
   6   3  10 70.5706 26.3009  16
   6  -3  10 84.4073 29.7885  15
   6  -3  11-15.2064 24.4918  15
   6  -3  11-29.1741 29.9609  10
   6   3  11 12.2133 20.0173  16
   6  -3  12 102.913 31.5000  10
   6   3  12 154.072 35.2170  16
   6  -3  12 109.260 33.1136  15
   6  -3  13 22.2563 24.5726  10
   6  -3  13 61.0511 23.3011  15
   6   3  13 75.0438 32.0996  16
   6  -3  14 16.2563 18.2885  15
   6  -3  14 20.7680 25.9791  10
   6   3  14 1.10927 19.2255  16
   6  -3  15 28.6106 19.8096  10
   6   3  15 64.7044 25.2640  15
   6  -3  16 90.2800 25.3412  10
   6   3  16 113.245 25.4452  15
   6  -3  17 53.0097 18.7205  10
   6   3  17 43.3615 15.8814  15
  -6  -4  17 202.575 27.6629  10
  -6  -4  16-10.6020 16.5264  10
  -6   4  16-1.41636 11.6028  16
  -6  -4  15 27.0281 21.6837  10
  -6   4  15 31.7546 16.2696  16
   6   4 -15-5.74690 15.9642  12
  -6   4  14 15.1367 18.0559  16
   6   4 -14 4.37119 14.8114  12
   6   4 -13 176.724 34.4827  12
  -6   4  13 172.224 36.8518  16
  -6   4  12 352.468 54.2229  11
  -6   4  12 340.372 49.3706  16
   6   4 -12 347.875 49.8512  12
   6   4 -11 82.7151 25.6193  12
  -6   4  11 107.292 29.3216  11
  -6   4  11 67.0433 25.5561  16
   6   4 -10 53.2973 21.9732  12
  -6   4  10 51.2363 28.1550  11
   6  -4 -10 19.3875 20.0690  17
   6  -4  -9 62.8924 24.6714  17
   6   4  -9 57.8315 23.6306  12
   6  -4  -8 528.412 139.722   6
  -6   4   8 772.958 77.8722   9
   6   4  -8 539.500 177.207   6
   6  -4  -8 992.177 211.078   5
   6   4  -7 349.492 144.069   1
   6   4  -7 276.383 130.278   6
   6  -4  -7 546.075 141.556   5
   6   4  -6 132.924 106.815   1
   6   4  -6 59.1694 63.7862   6
   6  -4  -6-12.4283 74.1339   5
   6   4  -5 2479.51 341.377   6
   6   4  -5 2008.17 299.909   1
   6  -4  -5 2943.18 296.619   5
   6   4  -4 5653.19 477.570   6
   6   4  -4 5192.83 473.491   1
   6  -4  -4 5744.79 398.844   5
   6  -4  -3 11759.5 549.624   5
   6   4  -3 10528.4 599.786   6
   6   4  -3 11723.9 646.814   4
   6   4  -3 11856.6 683.435   1
   6   4  -2 1044.80 196.431   1
   6   4  -2 902.698 179.112   4
   6   4  -2 950.171 169.744   6
   6  -4  -2 907.323 151.039   5
   6   4  -1 358.682 117.032   4
   6   4  -1 363.072 94.9238   6
   6  -4  -1 328.429 94.1257   5
   6   4  -1 354.120 107.008   2
   6   4  -1 424.772 124.995   1
   6   4   0 1200.84 198.365   1
   6  -4   0 1513.22 195.282   5
   6   4   0 1100.32 200.268   4
   6   4   0 1241.85 187.704   2
   6   4   1 21749.5 817.915   1
   6  -4   1 24004.6 812.122   5
   6   4   1 22016.6 883.813   4
   6   4   1 23127.7 834.671   2
   6   4   2 24311.2 881.897   2
   6   4   2 21553.8 816.385   1
  -6   4  -2 24761.8 941.145  18
   6  -4   2 24185.8 831.959   5
   6   4   2 21780.0 903.053   4
   6   4   3 18220.5 766.182   1
   6   4   3 21881.8 873.043   2
  -6   4  -3 21331.3 898.998  18
  -6  -4  -3 19484.5 792.283   3
   6  -4   3 20916.7 809.995   5
   6   4   3 18988.8 875.506   4
   6   4   4 3578.67 368.631   2
  -6   4  -4 3281.46 363.610  18
  -6  -4  -4 2883.21 322.387   3
   6   4   4 3024.80 361.540   4
   6   4   5 1805.42 279.444   2
  -6   4  -5 1923.84 292.665  18
  -6  -4  -5 2181.36 290.614   3
   6   4   5 1710.88 284.627   4
   6   4   6 45.3277 53.9441   4
   6   4   6-22.3190 40.0988   2
  -6  -4  -6 138.314 71.3291   3
  -6   4  -7 726.373 186.666  18
   6   4   7 718.278 192.880   2
  -6  -4  -7 672.193 178.514   3
  -6   4  -8 1405.89 302.279  18
   6   4   8 1671.91 314.067   2
   6  -4   8 1635.48 112.936  10
  -6  -4  -8 1543.18 272.239   3
   6   4   8 1717.95 103.651  13
   6  -4   9 897.721 87.7591  10
   6   4   9 1178.34 90.0650  13
   6  -4  10 66.8733 29.6192  10
   6   4  10 80.9821 24.7363  16
   6  -4  11 2839.09 155.648  10
   6   4  11 2569.83 125.881  16
   6  -4  12 198.678 44.7762  10
   6   4  12 201.802 38.1959  16
   6  -4  13 2610.64 141.542  10
   6   4  13 2669.76 122.512  16
   6  -4  14 54.8421 30.7385  10
   6   4  14 62.1824 25.5148  16
   6  -4  15-2.25930 14.2250  17
   6   4  15 14.5113 14.8916  15
   6  -4  15 24.9366 19.2273  10
   6  -4  16 42.6235 16.6745  10
   6   4  16 7.24120 12.1954  15
   6  -4  16 37.6737 15.0955  17
   6  -4  17 6.11177 12.4057  10
  -6  -5  15 86.0230 23.7979  10
  -6   5  15 98.3193 20.3498  16
  -6  -5  14 2.40730 15.9571  10
  -6   5  14 4.95852 14.1303  16
  -6   5  13 19.0735 16.3317  11
  -6   5  13 37.7632 20.1064  16
   6   5 -13 6.94367 12.2902  12
  -6   5  12 32.9694 20.5851  11
  -6   5  12 12.6703 19.1370  16
   6   5 -12 36.4849 16.0570  12
  -6   5  11 135.350 40.1692  11
  -6   5  11 127.655 31.9623  16
   6   5 -11 81.3317 24.9795  12
  -6   5  10 542.684 69.9973  11
   6   5 -10 494.219 58.8478  12
  -6   5   9 2416.84 140.142  11
  -6   5   8 3178.21 161.840  11
  -6   5   8 3673.86 160.944   9
  -6   5   7 2604.95 128.916   9
   6  -5  -6 1571.08 248.274   5
   6   5  -6 1646.51 309.440   6
   6   5  -6 1737.60 303.409   1
   6   5  -5 1126.77 238.326   6
   6   5  -5 1198.87 254.503   1
   6  -5  -5 1261.18 209.796   5
   6   5  -4 909.320 210.964   6
   6  -5  -4 830.481 169.847   5
   6   5  -4 801.941 193.228   1
   6   5  -3 3740.16 425.898   1
   6   5  -3 3432.37 371.080   6
   6  -5  -3 4146.82 363.243   5
   6  -5  -2 9384.74 535.797   5
   6   5  -2 8887.26 634.961   1
   6   5  -1 7638.52 570.063   1
   6  -5  -1 7247.23 475.272   5
   6   5  -1 7004.53 544.808   4
   6   5   0 3579.95 379.524   1
   6  -5   0 3812.43 353.968   5
   6   5   0 3129.30 370.592   4
   6   5   0 4153.53 372.320   2
   6  -5   1 3928.47 368.584   5
   6   5   1 3429.68 389.408   4
   6   5   1 3878.06 369.516   2
   6   5   1 3374.23 362.841   1
   6   5   2 1069.99 226.463   4
   6   5   2 979.073 190.599   2
   6  -5   2 1064.31 203.360   5
   6   5   3 1854.38 276.141   2
  -6   5  -3 2416.63 335.206  18
   6  -5   3 2124.50 291.664   5
   6   5   3 1807.88 295.777   4
   6   5   4 1263.14 257.034   4
   6   5   4 1250.18 237.318   2
   6  -5   4 1208.42 234.100   5
  -6   5  -4 1405.93 265.086  18
  -6   5  -5 613.142 187.137  18
   6   5   5 268.041 122.247   4
   6   5   5 360.370 131.299   2
  -6  -5  -5 449.808 146.659   3
   6   5   6 388.193 48.7166  11
  -6   5  -6 264.719 111.335  18
  -6  -5  -6 280.940 101.305   3
   6   5   6 415.789 161.080   2
   6   5   6 380.295 47.5963  13
   6   5   7 133.248 31.6352  11
   6  -5   7 99.2142 31.1005  10
   6   5   7 73.3162 23.4169  13
   6   5   8 1175.91 88.8181  11
   6  -5   8 1231.80 99.5339  10
   6   5   8 1308.38 92.0771  13
   6   5   9 817.010 73.1465  11
   6  -5   9 899.764 89.5537  10
   6   5   9 855.276 77.7396  13
   6   5  10 1964.09 107.969  11
   6  -5  10 2204.03 138.043  10
   6  -5  11 3454.94 169.347  10
   6   5  11 2915.56 129.454  16
   6  -5  12 132.437 38.4451  10
   6   5  12 152.120 32.5671  16
   6  -5  13 43.2550 25.9289  10
   6  -5  13 66.7233 25.4324  17
   6   5  13 73.0845 22.1288  16
   6   5  13 46.0550 23.6139  15
   6   5  14-7.57612 16.5335  15
   6  -5  14 17.1441 19.4541  10
   6  -5  14 1.89013 17.8845  17
   6   5  15-1.28011 10.9365  15
   6  -5  15 13.7853 11.8603  17
   6  -5  15 1.32830 15.2107  10
   6  -5  16-10.5844 11.1452  10
  -6   6  15-19.9219 11.9587  16
  -6   6  14 22.0918 16.6704  16
  -6   6  13 122.592 28.3943  11
  -6   6  13 105.435 27.3522  16
  -6   6  12 655.754 61.9500  11
  -6   6  12 655.388 59.0524  16
  -6   6  11-4.19627 25.2538  11
  -6   6  11-18.2203 24.0293  16
  -6   6  10 513.141 67.2257  11
  -6   6   9 206.333 44.4680  11
  -6   6   8 168.801 40.6329  11
  -6   6   8 106.622 36.6108   9
  -6   6   7 25.1242 23.1977  11
  -6   6   7 9.42475 22.2732   9
  -6   6   6 2133.40 142.877  11
  -6   6   6 2323.47 121.708   9
  -6   6   5 1249.49 113.525  11
  -6   6   5 1352.06 89.3183   9
  -6   6   4 135.472 43.0564  11
  -6   6   4 39.4351 18.6720   9
  -6   6   3 33.2273 21.9192  11
  -6   6   3 13.5331 19.8301   9
  -6   6   2 79.2888 24.2236   9
   6  -6  -2 183.432 93.4538   5
   6  -6  -1 1893.51 269.768   5
   6  -6   0 3962.32 399.436   5
   6   6   1-256.644 100.307   2
   6  -6   1 30.2656 43.3029   5
   6   6   2 4088.53 147.599  11
   6  -6   2 3939.43 157.095  17
   6  -6   2 4141.44 430.325   5
   6   6   2 3804.54 143.582  13
   6   6   2 3483.39 376.882   2
   6   6   3 7689.19 206.903  11
   6  -6   3 7639.69 222.589  17
   6  -6   3 7206.56 587.607   5
   6   6   3 7943.96 208.609  13
   6   6   3 7012.70 554.781   2
   6   6   4 3105.02 133.736  11
   6  -6   4 3116.96 144.608  17
   6  -6   4 2206.50 334.066   5
   6   6   4 3361.03 137.397  13
   6   6   4 1947.88 350.836   4
   6   6   5 1209.49 86.2006  11
   6   6   5 1313.62 86.4656  13
   6  -6   5 1275.55 94.8646  17
   6   6   6 81.4174 27.5744  11
   6  -6   6 81.3145 26.0378  17
   6   6   6 70.7986 25.6068  13
   6   6   7 2897.41 137.543  11
   6  -6   7 2923.80 152.320  17
   6   6   7 3220.51 140.957  13
   6   6   8 41.5253 26.6076  11
   6  -6   8 22.8378 19.7420  17
   6   6   8 3.92624 23.8622  13
   6   6   9 1433.47 93.8656  11
   6  -6   9 1296.55 105.067  17
   6  -6   9 1296.46 100.269  10
   6   6   9 1487.37 97.2132  13
   6   6  10 1953.76 107.030  11
   6  -6  10 1844.90 121.017  10
   6  -6  10 2033.15 129.939  17
   6   6  11 519.614 51.7102  11
   6  -6  11 431.083 58.7603  10
   6  -6  11 539.349 68.5557  17
   6  -6  12 971.754 82.1725  10
   6  -6  12 1070.17 87.2586  17
   6  -6  13 58.4398 24.8041  17
   6  -6  13 31.2639 22.5862  10
   6  -6  14-7.39584 14.1050  10
   6  -6  14 9.69353 14.2316  17
   6  -6  15 40.7926 14.6615  17
  -6   7  14 21.0209 10.4195  16
  -6   7  13 10.2065 12.9179  11
  -6   7  13 26.6461 16.0511  16
  -6   7  12 25.6878 17.9438  11
  -6   7  12 41.8340 19.0549  16
  -6   7  11-34.1571 22.1493  11
  -6   7  11 14.8729 18.0399  16
  -6   7  10 612.449 63.0100  11
  -6   7   9 77.9393 22.7039  11
  -6   7   8 10.0968 25.1595  11
  -6   7   8 4.16597 24.6348   9
  -6   7   7 270.991 53.8768  11
  -6   7   7 292.551 48.2904   9
  -6   7   6 34.5309 31.2521  11
  -6   7   6-10.3194 27.4344   9
  -6   7   5-0.77675 28.0792  11
  -6   7   5 18.2453 19.4490   9
  -6   7   4 1558.56 120.266  11
  -6   7   4 1647.01 100.091   9
   6   7  -4 1543.87 99.3215  13
  -6   7   3 3795.19 180.080  11
  -6   7   3 3998.32 153.916   9
   6   7  -3 3776.20 153.822  13
  -6   7   2 393.370 59.9425  11
  -6   7   2 506.591 57.2840   9
   6   7  -2 427.202 55.3931  13
   6   7  -1 931.322 69.9841  11
   6  -7  -1 1069.95 82.6910  17
  -6   7   1 1112.50 82.1531   9
   6   7  -1 1043.56 80.9342  13
   6   7   0 754.671 65.6688  11
   6  -7   0 855.285 74.9239  17
  -6   7   0 753.389 68.9187   9
   6   7   0 846.384 71.3266  13
   6   7   1 2334.88 112.876  11
   6  -7   1 2199.33 119.359  17
  -6   7  -1 2126.69 113.025   9
   6   7   1 2226.57 114.933  13
   6   7   2 19.9429 21.4058  11
  -6   7  -2-7.34903 29.6694   9
   6  -7   2 5.34522 20.5229  17
   6   7   2 47.2793 27.1194  13
   6   7   3 1860.07 104.883  11
  -6   7  -3 1691.19 102.409   9
   6   7   3 1848.54 105.569  13
   6  -7   3 1720.57 108.773  17
   6   7   4 5007.56 172.164  11
   6  -7   4 4974.06 185.183  17
   6   7   4 4895.86 168.923  13
   6   7   5 58.7090 25.3211  11
   6  -7   5 46.8955 21.5107  17
   6   7   5 48.8860 22.3685  13
   6   7   6 37.1333 24.0699  11
   6  -7   6 48.5229 24.7426  17
   6   7   6 71.7382 29.7235  13
   6   7   7 1015.61 80.4065  11
   6  -7   7 1035.95 88.9642  17
   6   7   7 1166.77 86.0095  13
   6   7   8 922.509 75.5336  11
   6  -7   8 806.021 79.9163  17
   6   7   8 914.291 78.0036  13
   6   7   9 106.873 31.4794  11
   6  -7   9 61.5490 28.9446  17
   6   7   9 110.917 30.0278  13
   6   7  10 508.189 54.0486  11
   6  -7  10 501.468 63.8998  17
   6   7  11 875.542 61.3643  11
   6  -7  11 788.791 72.9651  17
   6  -7  12 15.7742 15.9451  17
   6  -7  13 148.813 28.3378  17
   6  -7  14 69.9898 16.4744  17
  -6   8  12 4.97268 11.0151  11
  -6   8  12 2.96641 11.1936  16
  -6   8  11 10.8478 13.4248  11
  -6   8  11 33.0652 17.2358  16
  -6   8  10 223.658 37.5349  11
  -6   8  10 228.492 33.4140  16
  -6   8   9 666.528 63.0879  11
  -6   8   8 835.977 74.3999  11
  -6   8   7 229.206 43.9121  11
  -6   8   7 279.107 44.9201   9
  -6   8   6 94.1120 34.2437  11
  -6   8   6 112.297 31.2898   9
  -6   8   5 1656.56 116.894  11
  -6   8   5 1772.16 105.061   9
   6   8  -5 1680.20 98.0896  13
  -6   8   4 166.278 45.1400  11
  -6   8   4 186.617 38.1196   9
   6   8  -4 215.048 43.2548  13
  -6   8   3 732.544 79.6341  11
  -6   8   3 825.061 71.8595   9
   6   8  -3 830.884 73.6757  13
  -6   8   2 2211.67 114.356   9
   6   8  -2 2349.25 121.059  13
  -6   8   1 2216.02 114.131   9
   6   8  -1 2392.84 121.469  13
   6   8   0 2199.77 106.572  11
  -6   8   0 2142.50 111.103   9
   6   8   0 2257.74 118.949  13
   6   8   1 536.957 56.0721  11
   6  -8   1 422.969 51.7509  17
  -6   8  -1 433.280 50.0658   9
   6   8   1 494.070 57.3435  13
  -6   8  -1 391.355 47.9359  13
   6   8   2 1272.50 84.7358  11
   6  -8   2 1059.97 80.0529  17
  -6   8  -2 1007.50 76.0494   9
   6   8   2 1245.82 88.1053  13
   6   8   3 1051.68 80.0620  11
   6  -8   3 910.784 75.0224  17
  -6   8  -3 769.619 67.8104   9
   6   8   3 1011.29 77.0958  13
   6   8   4 2429.37 120.240  11
   6  -8   4 2206.44 117.899  17
  -6   8  -4 2147.16 115.271   9
   6   8   4 2529.73 123.315  13
   6   8   5 791.381 71.1727  11
  -6   8  -5 670.804 67.5406   9
   6  -8   5 709.951 70.9732  17
   6   8   5 754.739 73.2220  13
   6  -8   6 144.576 35.2537  17
   6   8   6 155.014 37.0360  13
   6   8   6 184.241 37.7911  11
  -6   8  -6 167.822 35.3297   9
   6   8   7 52.5818 26.9092  11
   6  -8   7 77.0250 28.4176  17
   6   8   7 62.1561 26.9882  13
  -6   8  -7 26.7591 20.6065   9
   6  -8   8 47.8247 23.5951  17
   6   8   8 43.0802 24.7901  11
  -6   8  -8 11.5168 24.9892   9
   6   8   8 66.3016 27.4794  13
   6   8   9 63.7369 23.9254  11
   6  -8   9 22.5076 19.2143  17
   6   8   9 92.1292 27.7963  13
   6   8  10 504.208 45.7796  11
   6  -8  10 396.626 48.0051  17
  -6   8 -10 367.482 44.4248   9
  -6   8 -11 196.484 30.9313   9
   6  -8  11 180.937 30.9779  17
   6  -8  12 73.9389 18.5649  17
  -6   8 -12 37.8686 15.7052   9
  -6   9  10 262.408 28.9007  11
  -6   9  10 236.337 26.2524  16
  -6   9   9 296.289 34.9061  11
  -6   9   9 343.783 35.1112  16
  -6   9   8 215.904 35.4942  11
  -6   9   8 207.666 30.8858  16
  -6   9   7 290.343 44.3204  11
  -6   9   6 240.320 39.0033  11
  -6   9   6 343.194 44.7606   9
  -6   9   5 160.332 34.5144  11
  -6   9   5 222.347 37.4302   9
   6   9  -5 216.864 34.3392  13
  -6   9   4 264.449 43.2542  11
  -6   9   4 378.554 47.7874   9
   6   9  -4 345.789 44.4804  13
  -6   9   3 2860.81 118.740   9
   6   9  -3 2976.67 125.608  13
  -6   9   2-12.9077 23.3640   9
   6   9  -2 44.1718 25.6027  13
  -6   9   1 560.936 54.4989   9
   6   9  -1 620.091 60.5253  13
  -6   9   0 86.2608 21.2856   9
   6   9   0 157.430 33.1738  13
  -6   9  -1 161.756 31.8257   9
   6   9   1 193.694 36.7382  13
   6   9   2 308.667 42.7094  11
  -6   9  -2 221.011 34.9614   9
   6   9   2 246.691 38.8159  13
  -6   9  -2 162.082 30.5832  13
   6   9   3 455.863 51.9202  11
  -6   9  -3 419.442 48.1015   9
   6   9   3 451.278 52.4250  13
  -6   9  -3 338.517 44.6174  13
   6   9   4 27.9478 28.2065  11
   6  -9   4-21.4726 20.1094  17
  -6   9  -4 15.9207 19.4471   9
   6   9   4 30.2879 21.2298  13
  -6   9  -4-16.9333 19.9704  13
   6   9   5 57.9774 25.8270  11
   6  -9   5 0.26467 17.0027  17
  -6   9  -5 25.8120 22.0451   9
   6   9   5 55.5989 23.5123  13
  -6   9  -5 4.82788 21.5279  13
   6   9   6 245.653 38.6787  11
   6  -9   6 178.205 29.5376  17
  -6   9  -6 233.949 37.8362   9
   6   9   6 249.696 37.4740  13
  -6   9  -6 234.708 39.3688  13
   6   9   7 561.045 52.7252  11
   6  -9   7 300.445 37.2455  17
  -6   9  -7 381.042 45.8056   9
   6   9   7 467.049 46.6253  13
   6   9   8 164.411 29.8985  11
  -6   9  -8 42.0126 20.1000   9
   6   9   8 207.197 33.4823  13
   6  -9   9 124.100 22.5403  17
  -6   9  -9 135.482 27.1455   9
  -6   9  -9 144.393 28.8468  13
  -6   9 -10 0.96575 11.3621   9
  -6   9 -10 23.0122 14.9064  13
  -6  10   6 4.97409 9.22458  16
  -6  10   5 50.7767 20.4517   9
  -6  10   4 21.8747 17.2146   9
   6  10  -4 5.47781 11.4747  13
   6  10  -3 171.018 27.3819  13
  -6  10   3 189.462 29.9270   9
  -6  10   2 104.051 23.7748   9
   6  10  -2 195.411 31.3600  13
  -6  10   1 259.805 32.2531   9
   6  10  -1 272.676 37.0772  13
  -6  10   0 85.6434 21.1868   9
   6  10   0 197.014 33.1497  13
  -6  10  -1 536.078 47.1282   9
   6  10   1 607.784 54.7731  13
  -6  10  -2 502.478 45.5893   9
   6  10   2 616.150 52.7994  13
  -6  10  -3 456.306 42.8826   9
   6  10   3 526.793 47.5432  13
  -6  10  -3 388.620 38.2929  13
  -6  10  -4 101.988 23.6074   9
   6  10   4 133.719 26.7054  13
  -6  10  -4 110.339 23.0215  13
  -6  10  -5 1216.03 66.4072   9
   6  10   5 1341.96 69.2009  13
  -6  10  -6 31.5352 19.3291   9
   6  10   6 42.1291 17.2094  13
  -6  10  -6 16.5290 13.9347  13
  -6  10  -7 548.690 41.4914   9
   7   0 -17 19.5107 13.1203  12
  -7   0  17 12.7148 13.7124  10
   7   0 -16 8.14750 14.7164  12
   7   0 -15 331.686 46.2799  12
   7   0 -14-12.8351 23.2561  12
   7   0 -13-38.0787 30.6856  12
   7   0 -13-4.76239 21.9732   8
   7   0 -12-16.3660 23.3328  12
   7   0 -12 9.89755 19.6691   8
   7   0 -11 16.6340 18.6972  12
   7   0 -11 1.08369 20.4477   8
   7   0 -10-18.5465 25.1817  12
   7   0 -10 51.2502 75.0660   6
   7   0 -10-10.4849 21.8492   8
   7   0  -9 146.112 69.6202   1
  -7   0   9 130.479 95.3535  19
   7   0  -9 277.202 113.147   6
   7   0  -8-9.83945 46.8800   1
  -7   0   8-94.8200 100.493  19
   7   0  -8 143.391 75.3798   6
  -7   0   7 181.769 95.2267  19
   7   0  -7 527.442 135.566   6
   7   0  -6 66.2315 51.4742   6
  -7   0   6 9.74131 53.0737  19
  -7   0   5 3500.30 335.116  19
   7   0  -5 3910.42 324.987   6
   7   0  -4-3.22118 29.2463   4
   7   0  -4 34.1673 31.9883   6
  -7   0   3 696.248 138.880  19
   7   0  -3 756.968 133.400   6
   7   0  -3 674.441 119.017   4
   7   0  -2 2.02985 29.0657   4
  -7   0   2 33.3706 35.0726  19
   7   0  -2-9.63972 28.4254   6
   7   0  -1 859.849 128.508   4
   7   0  -1 859.548 131.745   6
   7   0   0 312.619 80.5786   4
   7   0   0 252.550 77.3500   6
   7   0   1 262.353 83.9497   2
   7   0   1 229.846 68.1578   1
   7   0   2 56.9674 33.6246   1
   7   0   2 15.8549 44.5652   2
  -7   0  -2 38.5525 28.4750   3
   7   0   3 1683.99 195.741   2
   7   0   3 1688.82 168.873   1
  -7   0  -3 1491.50 179.267   3
   7   0   4 106.680 61.0991   2
  -7   0  -4 151.400 61.7842   3
   7   0   5 15174.1 664.249   2
  -7   0  -5 15555.8 669.847   3
   7   0   6 28.2384 39.4762   2
  -7   0  -6 164.778 83.0749   3
   7   0   7 4204.89 395.432   2
  -7   0  -7 4671.11 432.119   3
  -7   0  -8 128.997 92.8636   3
  -7   0  -9 1444.80 272.015   3
   7   0  10 26.2414 18.8034  10
   7   0  10-29.5785 27.3841  15
   7   0  11 443.593 58.0028  10
   7   0  11 506.625 66.8084  15
   7   0  12 93.0010 33.5194  15
   7   0  12 52.1854 24.9320  10
   7   0  13 2948.43 146.029  10
   7   0  13 2989.32 151.313  15
   7   0  14-3.82441 19.4822  10
   7   0  14-13.0730 22.5642  15
   7   0  15 358.316 47.5813  10
   7   0  15 401.244 52.8027  15
   7   0  16 23.1362 17.7865  15
   7   0  17 95.8564 21.7067  15
   7  -1 -17 36.3086 14.9672  12
  -7  -1  17 20.3965 16.8689  10
   7   1 -17 10.7386 11.3085  12
   7   1 -16 213.858 35.8640  12
   7  -1 -16 245.284 35.1038  12
   7   1 -15 138.388 33.0947  12
   7  -1 -15 156.370 31.9267  12
   7   1 -14 119.845 33.7460  12
   7  -1 -14 100.374 26.0631  12
   7  -1 -14 108.811 29.6865   8
   7   1 -13 86.9467 26.5085  12
   7  -1 -13 162.728 39.3775  12
   7   1 -13 116.235 31.0897   8
   7  -1 -13 175.751 40.3474   8
   7   1 -12 57.6472 24.4135  12
   7  -1 -12 77.8955 30.6076  12
   7   1 -12 80.9587 29.0681   8
   7  -1 -12 83.5451 34.5900   8
   7   1 -11 1692.12 110.529   8
   7  -1 -11 1500.04 107.184   8
   7   1 -11 1523.25 104.519  12
   7  -1 -11 1516.50 107.632  12
   7   1 -10 523.224 61.9797   8
   7  -1 -10 481.060 61.2225   8
   7   1 -10 478.453 57.7144  12
   7   1  -9 6443.54 504.389   6
   7  -1  -9 6968.30 523.151   6
  -7  -1   9 6281.31 561.453  19
  -7   1   9 7580.36 602.363  19
   7   1  -8 726.686 163.542   6
  -7   1   8 382.355 136.790  19
  -7  -1   8 565.243 177.853  19
   7  -1  -8 640.783 156.574   6
   7   1  -8 616.076 148.782   1
   7   1  -7 8844.16 535.916   1
   7   1  -7 9180.64 551.186   6
  -7  -1   7 9578.32 627.803  19
   7  -1  -7 9162.01 550.488   6
  -7   1   7 9623.52 617.730  19
   7   1  -6 94.8124 68.1639   1
  -7   1   6 20.0159 66.7617  19
  -7  -1   6 38.7800 70.8893  19
   7   1  -6 51.8670 52.8898   6
   7  -1  -6 26.9733 38.9047   6
   7  -1  -6-2.17300 51.9166   5
  -7   1   5-29.5253 71.1497  19
  -7  -1   5 19.5016 86.9340  19
   7   1  -5 143.514 67.2933   6
   7   1  -5 70.6968 46.9333   1
   7  -1  -5 50.1250 40.6820   5
   7  -1  -5 105.807 64.9344   6
  -7  -1   4 6871.93 452.610  19
   7  -1  -4 6553.25 399.334   6
  -7   1   4 6206.25 423.244  19
   7  -1  -4 6941.80 384.938   5
   7   1  -4 7067.37 433.109   6
   7   1  -4 6301.13 380.203   4
   7   1  -4 6391.67 434.950   1
  -7  -1   3 3974.21 329.916  19
   7   1  -3 3794.22 308.877   6
   7  -1  -3 3698.17 263.927   5
  -7   1   3 3579.70 306.751  19
   7   1  -3 4066.76 337.943   1
   7   1  -3 3590.39 281.557   4
   7  -1  -3 3754.51 249.815   4
   7  -1  -2 8314.30 373.989   4
  -7   1   2 9535.07 486.353  19
   7   1  -2 8444.59 468.848   1
   7   1  -2 9496.23 472.412   6
   7  -1  -2 8530.71 371.571   5
  -7  -1   2 9086.32 483.753  19
   7   1  -2 8481.28 429.288   4
   7   1  -1 1062.77 157.629   1
   7   1  -1 1142.07 156.481   6
   7   1  -1 1068.00 155.369   4
   7   1   0 104743. 1519.67   1
   7   1   0 104800. 1477.83   4
   7   1   1 57843.6 1134.74   4
   7   1   1 58614.9 1090.90   1
   7   1   1 60428.6 1156.57   2
   7   1   2 77059.3 1341.75   4
  -7   1  -2 76266.9 1212.53  18
   7   1   2 77553.7 1230.73   1
   7   1   2 80308.7 1382.11   2
   7   1   3 6771.59 422.917   2
   7   1   3 6588.31 416.647   4
  -7  -1  -3 6370.56 345.866   3
  -7   1  -3 6656.33 379.362  18
   7  -1   3 6647.59 328.376   1
   7   1   3 7147.84 376.081   1
   7  -1   3 6356.20 343.470   2
   7   1   4 6768.05 449.901   4
   7   1   4 7021.95 453.887   2
  -7   1  -4 6366.26 414.684   3
  -7  -1  -4 7060.98 404.557   3
   7   1   4 6343.44 354.335   1
   7  -1   4 6224.96 355.808   2
   7   1   5 316.692 110.868   4
   7   1   5 310.400 109.041   2
  -7   1  -5 289.322 104.317   3
  -7  -1  -5 336.318 89.6776   3
   7   1   6 396.173 130.627   4
  -7   1  -6 550.777 158.886   3
   7   1   6 313.202 112.883   2
  -7  -1  -6 398.875 116.686   3
  -7   1  -7 112.889 87.4876   3
   7   1   7-10.8485 41.9027   4
  -7  -1  -7-72.9700 59.8403   3
   7   1   7 34.2149 47.4532   2
   7   1   8 136.844 90.3275   4
  -7   1  -8 79.3349 70.3973   3
   7   1   8 263.989 122.601   2
  -7  -1  -8 124.246 40.2043   3
   7   1   9 4657.74 464.619   4
  -7  -1  -9 5271.04 493.011   3
   7   1   9 4621.13 494.408   2
  -7   1  -9 5858.68 572.725   3
   7   1  10 80.5811 20.5455  16
   7  -1  10 21.4823 19.0223  15
   7  -1  10 20.4523 20.9665  10
   7  -1  11 1130.57 92.5318  10
   7  -1  11 1299.65 105.479  15
   7  -1  12 727.854 76.3085  10
   7  -1  12 691.776 76.9468  15
   7   1  12 610.279 69.4649  15
   7  -1  13 621.818 70.4733  10
   7  -1  13 624.787 72.9271  15
   7   1  13 741.089 77.7989  15
   7  -1  14 117.742 33.7971  10
   7  -1  14 125.605 34.9824  15
   7   1  14 157.845 38.9618  15
   7  -1  15 70.4161 26.2657  10
   7  -1  15 90.8387 29.0103  15
   7   1  15 88.2439 31.8024  15
   7  -1  16 191.811 33.2928  10
   7  -1  16 136.295 28.7263  15
   7  -1  17 182.455 26.9886  15
   7   1  17 222.817 31.0611  15
   7  -1  17 154.468 24.9053  10
  -7  -2  17 154.438 27.1257  10
   7   2 -17 177.327 25.7214  12
   7   2 -16 41.6649 18.4384  12
   7  -2 -16 19.1817 11.4693  12
   7   2 -15 108.178 27.1056  12
   7  -2 -15 126.471 26.7896  12
   7   2 -14 163.399 33.9025  12
   7  -2 -14 104.510 29.5298  12
   7   2 -13 275.780 46.5501  12
   7  -2 -13 202.664 40.6775  12
   7  -2 -13 207.773 41.2155   8
   7   2 -12 1139.12 90.9937   8
   7  -2 -12 1226.26 98.3204   8
   7   2 -12 1157.97 89.2124  12
   7  -2 -12 1199.96 95.5817  12
   7   2 -11 568.317 64.3735   8
   7  -2 -11 543.694 67.9135   8
   7   2 -11 589.666 65.6091  12
   7  -2 -11 666.416 72.7591  12
   7  -2 -10 3285.15 151.369  17
   7   2 -10 3230.08 150.632   8
   7  -2 -10 3105.27 158.005   8
   7   2 -10 3077.44 144.342  12
  -7  -2   9 698.963 197.561  19
   7  -2  -9 871.972 77.2182  17
   7  -2  -9 913.783 201.891   6
  -7   2   9 787.304 189.245  19
   7  -2  -9 868.146 188.418   5
   7   2  -9 662.403 173.506   6
   7  -2  -9 909.021 86.2546   7
  -7   2   8 4587.24 458.653  19
   7   2  -8 4588.45 435.187   6
  -7  -2   8 4596.53 477.084  19
   7  -2  -8 4973.73 445.905   6
   7  -2  -8 4654.51 401.216   5
   7   2  -8 4446.73 407.533   1
   7   2  -7 1835.96 267.569   6
  -7   2   7 2237.53 308.070  19
  -7  -2   7 2095.76 309.849  19
   7  -2  -7 2134.23 278.481   6
   7  -2  -7 2112.93 262.320   5
   7   2  -7 1881.55 264.445   1
   7   2  -6 1682.86 248.938   6
  -7   2   6 1442.60 240.597  19
   7  -2  -6 1464.07 218.685   6
   7  -2  -6 1361.05 199.432   5
  -7  -2   6 1431.03 246.380  19
   7   2  -6 1520.61 239.632   1
   7   2  -5 18809.9 822.582   1
  -7   2   5 18302.2 788.452  19
   7   2  -5 18557.0 794.621   6
  -7  -2   5 19359.8 845.798  19
   7  -2  -5 18308.9 686.531   5
   7   2  -5 16596.3 692.446   4
   7   2  -4 27117.8 967.727   1
   7   2  -4 27328.9 929.529   6
  -7   2   4 27809.6 922.563  19
  -7  -2   4 29191.8 980.153  19
   7  -2  -4 26236.1 772.340   5
   7   2  -4 27905.7 881.405   4
   7   2  -3 79.9841 56.1431   4
  -7  -2   3 118.916 99.7206  19
   7   2  -3 102.046 76.5188   1
   7   2  -3 69.5625 45.1845   6
  -7   2   3 122.667 77.5373  19
   7  -2  -3 196.775 64.3008   5
   7   2  -2 1300.29 180.968   6
  -7   2   2 1103.76 171.477  19
   7  -2  -2 1129.49 140.566   5
  -7  -2   2 1311.76 195.856  19
   7   2  -2 1193.50 179.144   4
   7   2  -2 1377.72 203.486   1
   7   2  -1 702.156 134.487   4
   7   2  -1 617.671 112.520   6
   7  -2  -1 664.648 100.579   5
   7   2  -1 775.172 150.216   1
   7  -2   0 22142.9 545.065   5
   7   2   0 21050.2 730.002   1
   7   2   0 22401.2 724.848   2
   7   2   0 21366.2 727.235   4
  -7   2  -1 18826.7 651.205  18
   7   2   1 19588.6 689.321   1
   7   2   1 18803.1 689.785   4
   7   2   1 20043.3 707.840   2
   7   2   2 564.152 124.792   4
  -7   2  -2 552.908 126.595  18
   7   2   2 567.396 130.078   2
   7   2   2 670.905 128.893   1
   7   2   3 5454.27 399.621   2
  -7  -2  -3 4960.62 330.436   3
  -7   2  -3 4521.65 352.492  18
   7   2   3 4374.08 322.309   1
   7   2   3 4747.28 379.005   4
   7   2   4 3062.81 313.742   2
   7   2   4 2416.77 234.413   1
  -7   2  -4 2929.92 299.170  18
  -7  -2  -4 3096.14 287.426   3
   7   2   4 2761.21 308.311   4
   7   2   5 2431.93 305.707   4
   7   2   5 2903.71 320.486   2
  -7  -2  -5 2878.01 295.215   3
  -7   2  -5 2798.56 309.933  18
   7   2   6 207.013 94.1152   4
   7   2   6 407.944 132.132   2
  -7  -2  -6 371.523 125.278   3
  -7   2  -6 385.532 133.979  18
   7   2   7 3744.12 413.635   4
   7   2   7 3662.89 410.757   2
  -7  -2  -7 4025.61 390.502   3
  -7   2  -7 4345.45 458.046  18
   7   2   8 706.086 190.125   4
  -7   2  -8 1155.59 260.740  18
   7   2   8 726.659 200.562   2
  -7  -2  -8 1026.73 208.956   3
   7  -2   9 16.5325 23.5026  10
   7   2   9 108.873 113.090   2
   7  -2   9 29.2290 16.2764  15
  -7   2  -9 148.707 95.3629  18
   7  -2  10 1160.61 95.9477  10
   7   2  10 1171.17 88.5919  16
   7  -2  10 1185.38 101.268  15
   7   2  11 317.804 48.9072  16
   7  -2  11 262.581 50.6020  15
   7  -2  11 285.490 49.6797  10
   7  -2  12 53.2688 29.9475  10
   7   2  12 21.2099 19.8326  16
   7  -2  12 21.6259 30.0684  15
   7  -2  13 2167.59 132.639  15
   7   2  13 2197.33 132.099  15
   7  -2  13 2251.27 129.127  10
   7  -2  14 407.747 57.2704  10
   7  -2  14 359.615 53.2099  15
   7   2  14 485.730 60.2755  15
   7  -2  15 999.876 78.5900  10
   7   2  15 928.292 75.1273  15
   7  -2  15 921.948 72.5227  15
   7  -2  16 231.677 33.0704  15
   7  -2  16 249.376 37.7574  10
   7   2  16 248.094 37.3031  15
   7  -2  17 22.8955 11.8282  15
   7   2  17 12.2760 13.0763  15
  -7  -3  17-10.9876 14.5176  10
  -7  -3  16 24.4274 18.6241  10
   7   3 -16 0.23440 15.1575  12
   7   3 -15 9.48826 14.3395  12
   7   3 -14 98.6503 27.7422  12
   7  -3 -14 93.2090 24.5770  12
   7  -3 -13 828.797 76.7663   8
   7   3 -13 737.757 68.9546  12
   7  -3 -13 758.588 71.8086  12
   7   3 -12 272.490 45.8719  12
   7  -3 -12 337.813 52.2927  12
   7  -3 -12 253.687 45.6220   8
  -7   3  12 242.057 43.1851  16
   7  -3 -11 660.721 75.8667   8
  -7   3  11 685.138 70.0189  16
   7   3 -11 607.124 64.3251  12
   7  -3 -11 679.959 73.8046  12
   7   3 -10 58.3716 25.3516  12
   7  -3 -10-0.51453 21.1509  17
   7   3 -10 23.6646 22.1105   8
   7  -3 -10-12.7870 29.8757   8
   7  -3  -9 1363.16 97.5837  17
  -7   3   9 840.070 212.415  19
  -7  -3   9 840.217 226.663  19
   7   3  -9 1241.88 91.0585   8
   7  -3  -9 1408.45 105.776   8
   7   3  -9 1251.67 91.5393  12
  -7  -3   8 262.591 111.500  19
   7   3  -8 295.009 120.888   6
   7  -3  -8 197.268 112.376   6
   7  -3  -8 197.918 91.2946   5
  -7   3   8-33.3075 54.5805  19
   7   3  -7 7103.81 577.934   6
  -7   3   7 6442.12 535.310  19
   7  -3  -7 6982.50 519.270   6
   7  -3  -7 6135.02 474.925   5
   7   3  -7 6616.44 539.039   1
  -7  -3   7 6514.75 556.818  19
   7   3  -6 5143.80 480.247   6
  -7   3   6 5088.31 449.440  19
  -7  -3   6 5374.62 479.123  19
   7  -3  -6 5117.25 411.564   5
   7   3  -6 4610.52 454.682   1
  -7  -3   5 0.24700 56.3118  19
   7   3  -5 53.3665 71.9061   1
   7   3  -5 82.3615 74.8933   6
   7  -3  -5 73.9700 53.4669   5
  -7   3   5 50.6754 62.2803  19
   7   3  -4 516.297 127.432   4
  -7   3   4 380.265 113.141  19
  -7  -3   4 658.913 156.314  19
   7   3  -4 522.337 136.639   1
   7   3  -4 717.060 151.721   6
   7  -3  -4 800.784 143.399   5
   7   3  -3 185.434 80.2014   4
  -7  -3   3 295.490 112.671  19
   7   3  -3 163.129 83.0332   1
  -7   3   3 239.519 92.2412  19
   7  -3  -3 252.670 80.9116   5
   7   3  -3 269.108 94.3779   6
  -7   3   2 47491.6 1156.42  19
   7   3  -2 43779.8 1095.79   6
   7  -3  -2 48679.1 1011.44   5
   7   3  -2 49237.1 1326.33   1
  -7  -3   2 54405.4 1297.72  19
   7   3  -2 50316.0 1242.35   4
  -7   3   1 933.563 160.406  19
  -7  -3   1 1037.78 177.525  19
   7  -3  -1 970.799 138.889   5
   7   3  -1 971.286 186.194   1
   7   3  -1 1113.56 188.697   4
   7   3   0 100745. 1751.44   1
   7  -3   0 98512.1 1354.52   5
   7   3   0 97451.4 1710.23   4
   7   3   0 101791. 1671.03   2
  -7   3  -1 13385.1 620.549  18
   7   3   1 12213.6 593.202   1
   7  -3   1 11900.5 481.249   5
   7   3   1 11650.4 599.272   4
   7   3   1 12626.0 595.906   2
   7   3   2 33620.1 1006.01   2
  -7   3  -2 33374.1 1029.31  18
   7   3   2 31907.5 1027.12   4
   7   3   3 134.472 58.5097   4
  -7   3  -3 247.261 94.5319  18
   7   3   3 238.256 95.0911   2
   7   3   3 116.879 58.6039   1
   7   3   4 10074.1 604.159   2
   7   3   4 8733.63 506.191   1
  -7   3  -4 8976.83 573.650  18
  -7  -3  -4 10048.3 559.614   3
   7   3   4 9739.97 622.445   4
   7   3   5 1855.00 275.797   2
  -7   3  -5 2013.06 286.685  18
  -7  -3  -5 2106.41 272.527   3
   7   3   5 1705.60 276.927   4
   7   3   5 1775.58 230.017   1
   7   3   6 3443.67 389.337   2
  -7   3  -6 3329.93 396.895  18
  -7  -3  -6 2865.86 327.845   3
   7   3   6 2770.48 367.652   4
   7   3   7 328.418 139.144   4
  -7   3  -7 480.454 163.745  18
   7   3   7 375.516 137.162   2
  -7  -3  -7 412.454 128.938   3
   7   3   8 2855.98 397.601   2
  -7  -3  -8 2740.37 349.339   3
  -7   3  -8 3090.29 450.979  18
   7  -3   9 147.343 39.1096  10
   7   3   9 156.076 32.2588  16
   7  -3   9 124.482 32.5994  15
   7  -3  10 3269.59 159.859  10
   7  -3  10 2915.38 154.615  15
   7   3  10 3333.64 144.585  16
   7  -3  11 627.718 75.4695  10
   7   3  11 578.128 62.7371  16
   7  -3  11 481.730 65.0138  15
   7  -3  12 312.126 52.8341  15
   7   3  12 371.497 51.3863  16
   7  -3  12 362.985 57.1416  10
   7  -3  13 408.256 58.7455  10
   7  -3  13 296.507 47.8422  15
   7   3  13 331.522 53.0951  15
   7  -3  14-2.99919 15.9876  15
   7  -3  14 20.3895 21.5099  10
   7  -3  14-4.25830 15.1508  17
   7   3  14 20.4474 18.4842  15
   7  -3  15 65.6805 25.8107  10
   7  -3  15 57.7052 20.7359  15
   7   3  15 39.8292 18.3611  15
   7  -3  16 6.92940 15.7409  10
   7   3  16 7.25262 14.8567  15
   7   3  17 36.4958 13.3290  15
   7  -3  17 7.62750 10.4967  10
  -7  -4  16 183.424 29.4849  10
  -7  -4  15-16.2056 22.5912  10
  -7   4  15-12.0800 14.6720  16
   7   4 -15-1.01175 12.8768  12
  -7   4  14 190.721 31.1721  16
   7   4 -14 169.725 30.4003  12
   7   4 -13 144.801 29.5550  12
  -7   4  13 122.045 29.5487  16
  -7   4  12 678.314 72.1625  11
  -7   4  12 747.687 69.1337  16
   7   4 -12 755.104 69.4652  12
  -7   4  11 495.293 66.3035  11
  -7   4  11 587.726 63.6364  16
   7   4 -11 584.919 62.1323  12
   7  -4 -10 1275.81 96.7218  17
   7   4 -10 1230.07 90.9965  12
   7   4  -9 829.217 75.8749  12
   7  -4  -9 920.657 82.4005  17
   7  -4  -8 566.644 63.3984  17
   7  -4  -8 482.347 66.2844   7
   7   4  -7 1429.33 263.551   1
   7   4  -7 2103.07 347.040   6
   7  -4  -7 1968.20 283.673   5
   7   4  -6 1306.35 250.344   1
   7  -4  -6 1655.70 244.734   5
   7   4  -6 1384.03 272.043   6
   7   4  -5 1433.99 267.071   1
   7  -4  -5 1595.11 233.232   5
   7   4  -5 1508.53 273.565   6
   7   4  -4 16061.0 828.035   6
   7  -4  -4 18037.8 739.467   5
   7   4  -4 16138.6 874.015   1
   7   4  -3 3597.51 364.770   6
   7   4  -3 4249.63 437.908   1
   7  -4  -3 4496.08 357.214   5
   7   4  -3 4534.67 417.723   4
   7   4  -2 439.958 131.270   4
   7   4  -2 400.297 130.341   1
   7  -4  -2 303.036 96.3965   5
   7  -4  -1 2965.80 273.869   5
   7   4  -1 2648.72 320.564   1
   7   4  -1 3082.99 335.844   4
   7   4   0 1708.42 247.945   1
   7  -4   0 1892.14 220.548   5
   7   4   0 1554.66 235.522   4
   7   4   0 1885.24 244.435   2
   7   4   1 430.731 132.340   4
   7   4   1 362.949 118.288   2
   7  -4   1 310.313 94.0009   5
   7   4   1 610.577 149.279   1
   7   4   2 2754.05 307.258   1
  -7   4  -2 2655.28 320.943  18
   7   4   2 2799.42 342.200   4
   7   4   2 2608.11 303.908   2
   7   4   3 351.265 136.044   4
  -7   4  -3 278.299 110.301  18
   7   4   3 280.704 95.7738   2
   7   4   3 190.203 76.7790   1
   7   4   4 2575.99 326.065   2
  -7   4  -4 2570.90 333.396  18
   7   4   4 2279.20 330.967   4
   7   4   5 9.92201 71.4728   4
  -7   4  -5-158.309 91.4408  18
   7   4   6 284.076 116.253   4
  -7   4  -6 348.044 141.584  18
   7   4   6 510.777 154.000   2
  -7  -4  -6 477.594 142.969   3
   7   4   7 3361.44 424.448   2
   7  -4   7 3523.94 160.113  10
  -7   4  -7 2710.95 398.659  18
  -7  -4  -7 3421.41 399.105   3
   7   4   7 3849.59 149.073  13
   7   4   8 3879.96 153.695  11
   7  -4   8 4287.93 183.581  10
   7  -4   8 3529.66 161.544  15
   7   4   8 4484.69 167.392  13
   7  -4   9 53.9302 29.5004  10
   7  -4   9 20.0851 21.4138  15
   7  -4  10 0.41778 27.9720  10
   7  -4  11 859.754 88.1972  10
   7   4  11 755.632 68.2875  16
   7  -4  12 848.000 83.9253  10
   7   4  12 860.438 71.3341  16
   7   4  12 733.830 73.6244  15
   7  -4  13 80.4364 28.7494  17
   7   4  13 46.7798 23.5632  15
   7  -4  13 91.2662 34.3884  10
   7  -4  14 158.899 37.8335  10
   7  -4  14 91.6781 27.6836  17
   7   4  14 98.3691 27.1298  15
   7  -4  15 117.996 29.1511  10
   7  -4  15 38.4937 16.7378  17
   7   4  15 80.2244 22.1053  15
   7  -4  16 74.0836 19.7510  10
   7   4  16 86.5671 19.3282  15
  -7  -5  15 112.277 23.2663  10
  -7   5  15 75.0065 16.2348  16
  -7  -5  14 29.4938 18.2922  10
  -7   5  14 15.9616 16.0183  16
  -7   5  13 63.1999 20.2281  11
  -7   5  13 73.4406 23.8616  16
   7   5 -13 51.1729 17.4958  12
  -7   5  12 8.15891 18.7011  11
  -7   5  12-5.49552 17.4376  16
   7   5 -12-15.3518 14.9993  12
  -7   5  11 804.275 70.8163  16
   7   5 -11 749.305 67.5960  12
  -7   5  10 7.03962 21.9971  11
   7  -5  -9 6480.18 219.289  17
  -7   5   9 6524.45 225.005  11
  -7   5   8 885.262 83.1429   9
   7  -5  -8 802.365 77.5142  17
   7  -5  -7 2554.65 133.809  17
  -7   5   7 2864.88 141.822   9
  -7   5   6 2117.86 119.139   9
   7  -5  -6 1948.04 111.497  17
   7   5  -5 204.467 109.678   6
   7  -5  -5 97.8724 27.8899  17
   7  -5  -5 100.485 59.3498   5
   7   5  -5 94.9351 63.2138   1
   7   5  -4 4260.63 449.330   6
   7   5  -4 4968.60 519.135   1
   7  -5  -3 2502.92 297.553   5
   7   5  -3 2515.32 362.540   1
   7   5  -2 16838.6 910.061   1
   7  -5  -2 17355.3 755.281   5
   7   5  -1 970.141 203.018   4
   7  -5  -1 1212.64 199.995   5
   7   5  -1 1023.83 224.366   1
   7   5   0 16307.5 841.863   1
   7  -5   0 17129.8 750.288   5
   7   5   0 16079.3 849.648   4
   7   5   0 18376.2 820.423   2
   7   5   1 1748.90 271.317   1
   7  -5   1 2032.24 263.833   5
   7   5   1 1890.22 301.408   4
   7   5   1 1720.35 257.781   2
   7   5   2-1.29127 44.4592   4
   7   5   2 37.7247 36.9720   2
   7   5   2-24.2773 42.1889   1
   7   5   3 457.805 151.887   4
   7   5   3 463.407 148.048   2
   7   5   4 9881.83 672.253   2
  -7   5  -4 9316.74 692.635  18
   7   5   4 8160.53 681.893   4
   7   5   5 743.014 67.6428  11
  -7   5  -5 1090.84 254.328  18
   7  -5   5 676.958 67.2757  17
   7   5   5 786.972 202.031   2
   7   5   5 883.381 71.1838  13
   7   5   6 2261.55 118.626  11
   7  -5   6 2157.73 124.279  10
   7  -5   6 2541.01 134.052  17
   7   5   6 2573.50 122.466  13
   7   5   7 1473.03 96.9282  11
   7  -5   7 1367.41 101.903  10
   7  -5   7 1518.35 106.740  17
   7   5   7 1604.10 99.7175  13
   7   5   8 2246.55 120.291  11
   7  -5   8 2388.79 139.999  10
   7  -5   8 2388.43 137.340  17
   7   5   8 2444.99 125.949  13
   7   5   9 353.112 50.2633  11
   7  -5   9 413.354 62.9889  10
   7  -5   9 317.967 54.6193  17
   7   5   9 432.883 58.0584  13
   7  -5  10 3495.23 171.677  10
   7  -5  10 3540.33 168.397  17
   7  -5  11 341.869 56.8961  10
   7  -5  11 379.145 63.4896  17
   7  -5  12 516.345 62.6031  17
   7  -5  12 452.389 60.9810  10
   7  -5  13 204.165 39.3254  10
   7  -5  13 172.586 35.1107  17
   7  -5  14 4.67663 15.8966  17
   7  -5  14-0.11058 15.9655  10
   7  -5  15 44.5923 17.6032  10
   7  -5  15 31.7005 13.1173  17
  -7   6  14 126.980 21.6500  16
  -7   6  13-14.0676 14.9100  11
  -7   6  13-4.59012 13.3174  16
  -7   6  12 46.4077 21.0928  11
  -7   6  12 81.7996 26.0187  16
  -7   6  11-21.9219 20.5454  11
  -7   6  11 14.1575 21.6767  16
  -7   6  10 476.770 59.8162  11
  -7   6   9 73.0765 34.0423  11
  -7   6   8 2490.17 142.457  11
  -7   6   8 2799.16 139.925   9
  -7   6   7 281.137 56.2770  11
  -7   6   7 303.644 49.9081   9
  -7   6   6 228.879 53.3449  11
  -7   6   6 234.827 46.1300   9
   7  -6  -5 3880.04 161.108  17
  -7   6   5 4179.13 158.085   9
   7  -6  -4 774.233 72.0481  17
  -7   6   4 728.404 87.2905  11
  -7   6   4 816.680 71.3453   9
  -7   6   3 1206.86 106.463  11
   7  -6  -3 1206.13 89.4646  17
  -7   6   3 1282.14 88.1674   9
  -7   6   2 3219.34 165.294  11
   7  -6  -2 3739.34 151.191  17
  -7   6   2 3508.80 142.692   9
   7   6  -2 3217.95 135.011  13
   7   6  -1 217.696 37.9714  11
   7  -6  -1 168.380 36.3746  17
  -7   6   1 78.9850 19.3329   9
   7  -6  -1 198.842 93.8784   5
   7   6  -1 146.546 30.4615  13
   7   6   0 1457.29 88.7722  11
   7  -6   0 1588.26 102.033  17
  -7   6   0 1421.31 91.5316   9
   7  -6   0 1272.77 231.902   5
   7   6   0 1397.14 88.7772  13
   7   6   1 14300.9 276.104  11
   7  -6   1 14326.2 300.641  17
  -7   6  -1 13987.4 290.138   9
   7  -6   1 12405.6 716.071   5
   7   6   1 13870.1 278.894  13
   7   6   1 12229.3 723.492   2
   7   6   2 1071.28 78.4262  11
   7  -6   2 1072.05 84.9075  17
  -7   6  -2 1012.13 77.6464   9
   7   6   2 1039.17 77.5453  13
   7   6   3 110.822 30.9811  11
   7  -6   3 66.6567 25.8920  17
   7   6   3 33.6617 21.8010  13
   7   6   4 1798.25 102.280  11
   7  -6   4 1798.70 110.743  17
   7   6   4 1953.66 107.737  13
   7   6   5 126.283 32.2633  11
   7  -6   5 164.813 36.0816  17
   7   6   5 105.463 28.4821  13
   7   6   6 90.1611 29.6871  11
   7  -6   6 69.9681 22.3223  17
   7   6   6 125.482 30.7657  13
   7   6   7 240.729 42.1844  11
   7  -6   7 230.214 43.9088  17
   7   6   7 249.448 44.8917  13
   7   6   8 287.286 45.2890  11
   7  -6   8 298.441 52.6503  17
   7   6   8 338.475 49.3578  13
   7   6   9 905.507 74.6919  11
   7  -6   9 915.088 85.3610  10
   7  -6   9 966.545 88.6077  17
   7   6   9 1052.12 82.2912  13
   7   6  10 48.2743 18.3408  11
   7  -6  10 23.8255 25.5965  10
   7  -6  10 72.5095 29.8427  17
   7  -6  11 283.944 47.9386  17
   7  -6  11 319.939 50.3788  10
   7  -6  12 166.365 35.4375  10
   7  -6  12 129.332 33.5548  17
   7  -6  13 1385.18 80.8230  10
   7  -6  13 1438.68 85.8168  17
   7  -6  14 29.8640 15.1481  10
   7  -6  14 37.3772 16.6041  17
  -7   7  13 59.8807 17.8857  11
  -7   7  13 84.5906 18.2496  16
  -7   7  12-10.7712 14.7276  11
  -7   7  12 7.03876 14.2484  16
  -7   7  11 219.765 37.1208  11
  -7   7  11 163.002 31.9078  16
  -7   7  10 3.10145 23.2031  11
  -7   7   9 54.7723 23.8860  11
  -7   7   8-35.6118 33.9929  11
  -7   7   7 250.926 53.1289  11
  -7   7   7 252.421 46.5358   9
  -7   7   6 99.4273 37.2567  11
  -7   7   6 74.6119 30.3123   9
  -7   7   5 600.419 78.4130  11
  -7   7   5 707.291 71.0005   9
  -7   7   4 8561.03 281.150  11
  -7   7   4 9953.34 244.588   9
  -7   7   3 4367.47 196.334  11
  -7   7   3 5090.35 173.873   9
   7  -7  -3 4883.84 179.746  17
   7   7  -3 4527.70 165.689  13
  -7   7   2 35.8188 20.6488  11
   7  -7  -2 25.9947 21.4946  17
  -7   7   2 76.2369 28.2832   9
   7   7  -2 26.5357 18.8879  13
  -7   7   1 1485.68 95.6072   9
   7  -7  -1 1405.27 96.8402  17
   7   7  -1 1332.55 91.0751  13
   7   7   0 916.182 72.5171  11
   7  -7   0 842.512 75.8964  17
  -7   7   0 861.829 74.7747   9
   7   7   0 775.768 69.1097  13
   7   7   1 8.89568 25.3286  11
   7  -7   1 50.5736 19.9200  17
  -7   7  -1 12.8657 25.7361   9
   7   7   1 43.2172 19.5441  13
   7   7   2 161.349 34.0242  11
   7  -7   2 101.724 26.4299  17
  -7   7  -2 93.4844 30.1068   9
   7   7   2 132.253 30.0239  13
   7   7   3 242.687 40.5300  11
  -7   7  -3 164.648 37.7603   9
   7  -7   3 179.970 37.8531  17
   7   7   3 236.279 44.1160  13
   7   7   4 488.587 57.0683  11
   7  -7   4 509.328 61.9420  17
  -7   7  -4 490.500 56.1642   9
   7   7   4 561.756 63.5100  13
   7   7   5 1425.69 93.0759  11
   7  -7   5 1406.44 101.259  17
   7   7   5 1564.24 97.6554  13
   7   7   6 4688.00 166.798  11
   7  -7   6 4681.82 184.050  17
   7   7   6 5027.45 171.982  13
   7   7   7 1681.62 99.9664  11
   7  -7   7 1699.48 111.465  17
   7   7   7 1754.21 103.138  13
   7   7   8 1722.86 98.6242  11
   7  -7   8 1640.18 110.828  17
   7   7   8 1699.46 100.577  13
   7   7   9 11.2987 19.9456  11
   7  -7   9 21.1413 19.0074  17
   7   7   9 22.8587 22.8816  13
   7   7  10 28.7868 18.2551  11
   7  -7  10 19.3734 23.6829  17
   7  -7  11 117.874 31.4890  17
   7  -7  12 152.992 31.6227  17
   7  -7  13-4.41441 11.6732  17
  -7   8  11 109.220 22.7680  11
  -7   8  11 98.3973 21.7182  16
  -7   8  10 150.422 29.3379  11
  -7   8  10 157.927 27.4160  16
  -7   8   9-12.1604 23.9240  11
  -7   8   8 1.06172 22.3437  11
  -7   8   7 65.6298 26.4409  11
  -7   8   7 172.651 37.5584   9
  -7   8   6 303.898 52.5276  11
  -7   8   6 350.358 48.9251   9
  -7   8   5 110.016 36.4584  11
  -7   8   5 88.1716 30.4118   9
  -7   8   4 27.0735 31.1672  11
  -7   8   4 53.6712 27.4601   9
   7   8  -4 15.6784 19.7641  13
  -7   8   3 150.029 38.3099  11
  -7   8   3 106.834 32.8254   9
   7   8  -3 151.775 35.6002  13
  -7   8   2 585.512 58.9972   9
   7   8  -2 605.095 62.1428  13
  -7   8   1 66.3522 23.4632   9
   7   8  -1 104.525 28.3180  13
  -7   8   0 1886.21 102.667   9
   7  -8   0 1797.38 102.328  17
   7   8   0 1981.56 109.729  13
   7   8   1 953.496 71.6874  11
   7  -8   1 874.459 71.4566  17
  -7   8  -1 890.815 71.4283   9
   7   8   1 963.763 76.8754  13
   7   8   2 588.966 58.2678  11
   7  -8   2 489.506 54.5768  17
  -7   8  -2 425.826 50.0529   9
   7   8   2 514.329 57.8315  13
   7   8   3 1669.40 95.7735  11
  -7   8  -3 1565.68 95.5490   9
   7  -8   3 1613.38 98.9819  17
   7   8   3 1795.58 103.372  13
   7   8   4 4999.16 167.647  11
   7  -8   4 4758.91 167.146  17
  -7   8  -4 4599.59 163.564   9
   7   8   4 5157.22 171.620  13
   7   8   5 6388.08 185.591  11
   7  -8   5 5751.06 186.573  17
  -7   8  -5 5637.67 180.665   9
   7   8   5 6332.19 187.092  13
   7   8   6 530.104 59.3132  11
  -7   8  -6 435.033 52.2047   9
   7  -8   6 558.234 60.6955  17
   7   8   6 470.615 53.8301  13
   7   8   7 865.609 68.6633  11
  -7   8  -7 693.707 63.1657   9
   7  -8   7 784.203 71.2189  17
   7   8   7 802.464 67.0646  13
   7   8   8 1214.41 77.3829  11
   7  -8   8 1219.74 85.4259  17
  -7   8  -8 1030.86 76.5716   9
   7   8   8 1236.10 79.9770  13
   7   8   9 17.3435 18.1793  11
   7  -8   9 15.2136 17.3694  17
  -7   8  -9-25.3128 26.5774   9
   7  -8  10 1077.23 71.9598  17
  -7   8 -10 811.399 63.3395   9
   7  -8  11 28.0822 16.1706  17
  -7   8 -11 4.57510 13.1983   9
  -7   9   9 18.0143 12.0237  11
  -7   9   9 31.2890 12.6566  16
  -7   9   8 255.937 35.2381  11
  -7   9   8 335.871 36.1356  16
  -7   9   7 49.9713 20.5896  11
  -7   9   6 491.119 52.3473  11
  -7   9   6 628.834 55.1704   9
  -7   9   5 86.3388 23.7372  11
  -7   9   5 208.095 34.9280   9
  -7   9   4 846.675 68.7182  11
   7   9  -4 985.836 65.9263  13
  -7   9   3 14.5862 21.0522   9
   7   9  -3 20.5721 20.1483  13
  -7   9   2-12.9861 23.7712   9
   7   9  -2 10.6912 18.1617  13
  -7   9   1 18.8549 21.2785   9
   7   9  -1 44.8927 22.0019  13
  -7   9   0 1379.44 80.3475   9
   7   9   0 1395.86 86.7373  13
  -7   9  -1 111.881 28.0545   9
   7   9   1 159.545 35.1243  13
  -7   9  -2 2952.57 118.388   9
   7   9   2 3116.45 128.584  13
  -7   9  -3 783.495 61.8397   9
   7   9   3 731.401 63.2874  13
   7  -9   3 575.056 51.9070  17
  -7   9  -3 547.069 51.2043  13
   7  -9   4 1091.64 70.4527  17
  -7   9  -4 1286.08 79.1031   9
   7   9   4 1319.74 80.7254  13
  -7   9  -4 978.525 70.3880  13
   7  -9   5-1.18511 12.7177  17
  -7   9  -5 9.68315 16.7575   9
   7   9   5 8.95212 17.8517  13
  -7   9  -5 7.30184 18.3224  13
   7  -9   6 260.410 33.7519  17
  -7   9  -6 304.133 39.4244   9
   7   9   6 310.321 39.4469  13
  -7   9  -6 256.275 37.9376  13
   7  -9   7 349.231 38.4102  17
  -7   9  -7 390.746 42.8152   9
  -7   9  -7 361.922 43.7826  13
   7  -9   8 224.571 30.0951  17
  -7   9  -8 240.056 32.7927   9
  -7   9  -8 232.657 33.8849  13
   7  -9   9 48.4662 15.1167  17
  -7   9  -9 77.0171 19.2350   9
  -7   9  -9 73.9837 19.3920  13
  -7  10   4 495.162 42.7954   9
  -7  10   3 39.9710 15.8559   9
   7  10  -3 37.5258 13.2993  13
  -7  10   2 86.1008 21.8463   9
   7  10  -2 104.515 20.4831  13
  -7  10   1 168.614 27.0538   9
   7  10  -1 162.339 27.5827  13
  -7  10   0 53.0994 16.2846   9
   7  10   0 89.4688 23.0252  13
  -7  10  -1 89.3059 19.0888   9
   7  10   1 64.8484 19.3343  13
  -7  10  -2 342.398 36.3341   9
   7  10   2 359.603 38.8381  13
  -7  10  -3 199.974 28.5975   9
   7  10   3 194.596 28.9801  13
  -7  10  -4 170.374 26.0297   9
   7  10   4 222.314 31.3447  13
  -7  10  -5 31.6695 15.2346   9
   7  10   5 63.0934 19.1528  13
   8   0 -17-21.1058 13.9491  12
  -8   0  17 7.23930 11.7100  10
   8   0 -16 4.42441 15.4208  12
   8   0 -15 7.73959 15.3624  12
   8   0 -14 34.2280 17.2793  12
   8   0 -13 7.36815 18.9452  12
   8   0 -13-11.3168 20.9803   8
   8   0 -12 643.694 69.1136   8
   8   0 -12 637.262 69.5010  12
   8   0 -11-1.93908 17.5191  12
   8   0 -11 32.4480 20.9847   8
   8   0 -10 309.548 46.9013  12
   8   0 -10 341.551 51.3130   8
  -8   0   9-50.0362 98.6437  19
   8   0  -9 63.5863 77.8501   6
   8   0  -9 22.3893 56.4074   1
   8   0  -9-5.76526 17.8270   8
   8   0  -8 139.521 73.7102   1
  -8   0   8 340.043 129.950  19
   8   0  -8 406.532 113.709   6
   8   0  -7 11.8239 48.4712   6
  -8   0   7 17.1845 90.7807  19
   8   0  -7-7.04896 48.6701   1
  -8   0   6 20188.0 884.864  19
   8   0  -6 19946.7 800.615   6
  -8   0   5-13.3009 71.2771  19
   8   0  -5 104.531 46.7461   6
  -8   0   4 2604.98 295.068  19
   8   0  -4 2718.91 275.723   6
   8   0  -3 105.530 56.7587   4
  -8   0   3 141.468 72.6762  19
   8   0  -3 52.1521 42.4111   6
  -8   0   2 39838.3 1073.46  19
   8   0  -2 40650.2 1017.36   6
   8   0  -2 38878.3 932.292   4
   8   0  -1 39.7399 35.5395   4
   8   0  -1 54.8294 56.9204   6
   8   0  -1 58.8955 40.6059   1
   8   0   0 71594.1 1277.06   4
   8   0   0 72938.0 1292.64   6
   8   0   0 72650.8 1355.20   1
   8   0   1 81.2118 63.3946   4
   8   0   1 98.1215 54.3182   1
   8   0   2 23122.8 762.788   4
   8   0   2 22935.9 701.489   1
   8   0   2 24397.2 773.551   2
   8   0   3 30.8871 59.0644   4
   8   0   3 10.5749 37.2554   1
   8   0   3 10.7235 55.0181   2
  -8   0  -3 32.4153 31.8945   3
   8   0   4 903.343 152.548   2
  -8   0  -4 844.263 153.891   3
   8   0   5-16.5123 77.6906   2
  -8   0  -5 43.5033 41.6706   3
   8   0   6 2120.20 278.426   2
  -8   0  -6 2057.98 284.511   3
  -8   0  -7 96.0115 91.3631   3
   8   0   8 1631.26 282.377   4
  -8   0  -8 1614.99 294.561   3
   8   0   9 59.2370 27.3152  15
   8   0   9 24.8251 20.0202  10
   8   0  10 19438.6 371.316  10
   8   0  10 21898.6 411.017  15
   8   0  11 46.8865 30.2462  10
   8   0  11 26.9101 25.8001  15
   8   0  12 2700.70 140.901  10
   8   0  12 2789.37 147.110  15
   8   0  13-1.87809 19.6746  15
   8   0  13 10.9204 19.2185  10
   8   0  14 232.687 40.1671  10
   8   0  14 227.081 41.8209  15
   8   0  15 50.1920 23.3916  15
   8   0  15-2.49554 18.1470  10
   8   0  16 640.418 55.3785  15
   8   0  17-20.3778 14.7346  15
   8  -1 -17-11.1927 9.17935  12
  -8  -1  17-8.58714 14.9645  10
   8   1 -17-3.92479 12.4845  12
   8   1 -16-16.6369 14.7039  12
   8  -1 -16 8.56502 14.1930  12
   8   1 -15 105.553 26.4504  12
   8  -1 -15 92.2180 29.8168  12
   8  -1 -14 221.557 36.4958  12
   8  -1 -14 289.575 43.7927   8
   8   1 -14 335.110 47.6201  12
   8   1 -13 1834.76 109.682   8
   8  -1 -13 1831.57 111.652   8
   8   1 -13 1768.15 106.924  12
   8  -1 -13 1835.66 110.242  12
   8   1 -12 1970.05 117.481   8
   8  -1 -12 1725.41 114.431   8
   8   1 -12 1816.54 113.114  12
   8  -1 -12 1877.77 118.045  12
   8   1 -11 499.989 62.3139   8
   8  -1 -11 434.985 59.0125   8
   8   1 -11 555.899 63.9455  12
   8  -1 -11 529.294 63.7076  12
   8   1 -10 891.079 81.1906   8
   8  -1 -10 766.078 76.2091   8
   8   1 -10 817.073 77.2057  12
   8  -1  -9 283.761 48.7612   7
   8   1  -9 307.357 48.3195  12
  -8   1   9 167.749 84.7676  19
  -8  -1   9 165.899 67.0441  19
   8  -1  -9 258.229 113.971   6
   8  -1  -9 267.684 42.2183  17
   8   1  -9 271.215 115.913   6
   8  -1  -9 324.302 52.1889   8
   8   1  -9 242.392 41.8177   8
   8   1  -8 2163.10 287.753   1
   8   1  -8 2370.77 300.628   6
  -8   1   8 2097.79 320.832  19
  -8  -1   8 2417.94 352.228  19
   8  -1  -8 2289.39 297.701   6
   8   1  -7 6355.88 483.415   1
   8   1  -7 6470.85 481.133   6
  -8   1   7 6677.26 542.569  19
  -8  -1   7 6673.81 557.674  19
   8  -1  -7 7231.58 513.478   6
   8   1  -6 23.2883 66.7771   6
   8   1  -6 105.523 46.0790   1
  -8   1   6-9.14637 75.8985  19
  -8  -1   6-80.9293 78.4259  19
   8  -1  -6 19.2269 38.5058   6
   8   1  -5 1947.31 246.377   6
   8   1  -5 2194.49 282.744   1
  -8  -1   5 1886.71 265.611  19
   8  -1  -5 1797.94 237.079   6
   8  -1  -5 1702.21 208.756   5
  -8   1   5 2048.21 279.870  19
  -8  -1   4 5075.47 423.969  19
   8   1  -4 5342.30 428.539   1
  -8   1   4 5020.39 413.094  19
   8   1  -4 4794.82 380.854   6
   8  -1  -4 4625.96 361.410   6
   8   1  -4 4815.23 356.019   4
   8   1  -3 1150.15 193.575   1
   8   1  -3 1200.71 186.777   6
  -8  -1   3 1356.16 213.548  19
  -8   1   3 1082.71 185.702  19
   8  -1  -3 1068.88 170.971   6
   8   1  -3 932.890 157.226   4
   8  -1  -2 16691.6 589.421   4
   8   1  -2 17657.7 741.437   1
  -8  -1   2 20988.0 804.291  19
  -8   1   2 21148.8 789.726  19
   8   1  -2 17795.0 669.614   4
   8   1  -2 17259.4 679.867   6
   8  -1  -1 15069.7 561.220   4
   8   1  -1 14544.3 649.842   1
   8   1  -1 14399.0 590.869   6
   8   1  -1 14632.6 601.397   4
   8   1   0 5872.03 395.285   1
   8   1   0 5426.14 369.070   4
   8   1   1 141.727 68.7397   4
   8   1   1 147.257 69.1637   2
   8   1   1 181.645 63.6224   1
   8   1   2 92718.0 1612.08   4
   8   1   2 92433.9 1471.97   1
   8   1   3 2393.57 272.108   4
   8  -1   3 2272.47 211.399   1
   8   1   3 2478.73 244.311   1
   8   1   3 2326.12 257.885   2
   8   1   4 840.777 173.274   4
  -8   1  -4 842.209 155.442  18
   8   1   4 705.374 152.255   2
  -8  -1  -4 911.792 153.231   3
   8   1   5 3339.42 364.708   4
   8   1   5 3467.52 358.849   2
  -8   1  -5 3298.90 339.731   3
  -8  -1  -5 3599.05 333.092   3
   8   1   6 7202.43 567.974   4
   8   1   6 7227.37 543.140   2
  -8   1  -6 7191.22 547.682   3
  -8  -1  -6 7370.56 512.992   3
   8   1   7 627.629 173.415   4
   8   1   7 501.393 160.583   2
  -8   1  -7 512.091 157.302   3
  -8  -1  -7 651.478 170.594   3
   8   1   8 5746.80 541.318   4
   8   1   8 5889.95 547.021   2
  -8   1  -8 5876.44 571.624   3
  -8  -1  -8 6255.64 539.331   3
   8   1   9 145.497 87.5496   4
   8  -1   9 147.880 34.0834  10
  -8   1  -9 144.297 73.4040   3
  -8  -1  -9 143.028 91.2240   3
   8  -1   9 160.164 40.4129  15
   8   1   9 120.220 32.2145  15
   8  -1  10 59.0154 21.6270  10
   8  -1  10 59.3827 23.8714  15
   8   1  10 0.41350 34.1257  15
   8  -1  11 1997.36 119.990  10
   8  -1  11 2071.61 132.379  15
   8   1  11 2127.75 129.328  15
   8  -1  12 612.131 73.4639  15
   8  -1  12 713.646 74.0007  10
   8   1  12 667.090 71.8377  15
   8  -1  13 158.703 39.9701  10
   8  -1  13 100.261 32.7904  15
   8   1  13 128.507 35.9512  15
   8  -1  14 636.739 66.8288  10
   8  -1  14 603.267 64.4352  15
   8   1  14 618.203 67.2790  15
   8  -1  15 1409.31 88.5193  10
   8  -1  15 1462.66 91.9473  15
   8   1  15 1296.41 85.8475  15
   8  -1  16 1.84445 14.5827  15
   8   1  16 16.5714 15.5259  15
   8  -1  16 4.38154 14.1262  10
   8  -1  17 90.4596 18.3742  15
   8   1  17 106.787 21.7199  15
  -8  -2  17-3.17885 11.8617  10
   8   2 -17-13.3127 11.1525  12
   8   2 -16 73.1690 20.2464  12
   8  -2 -16 93.5622 20.1464  12
   8   2 -15 470.704 48.5511  12
   8  -2 -15 448.689 47.5162  12
   8   2 -14 175.534 36.4241  12
   8  -2 -14 195.178 35.8444  12
   8  -2 -14 154.496 32.7337   8
   8  -2 -13 1232.52 91.3607   8
   8   2 -13 1242.90 89.4971  12
   8  -2 -13 1366.94 94.0893  12
   8   2 -12 333.469 49.5294  12
   8  -2 -12 332.862 50.4130  12
   8   2 -12 255.579 44.5865   8
   8  -2 -12 335.898 51.1882   8
   8   2 -11 158.185 34.8814  12
   8  -2 -11 246.889 44.7181  12
   8   2 -11 245.788 42.7953   8
   8  -2 -11 182.474 40.8198   8
   8   2 -10 156.497 36.5600  12
   8  -2 -10 179.379 39.2982  17
   8   2 -10 144.855 34.6194   8
   8  -2 -10 101.893 29.8549   8
   8   2  -9 294.141 46.0445  12
   8  -2  -9 309.448 47.6125  17
   8   2  -9 312.860 47.1745   8
   8  -2  -9 310.201 50.3361   8
   8  -2  -9 352.963 56.8448   7
   8   2  -8 2113.80 302.374   6
  -8   2   8 2056.38 316.784  19
  -8  -2   8 2018.66 338.868  19
   8  -2  -8 2308.23 313.915   6
   8  -2  -8 2021.58 268.985   5
   8   2  -8 1466.33 251.406   1
   8   2  -7 3022.06 352.427   6
  -8  -2   7 3572.32 424.430  19
   8  -2  -7 3410.19 365.357   6
   8  -2  -7 3265.37 332.323   5
   8   2  -7 2918.87 351.253   1
  -8   2   7 2843.54 369.375  19
   8   2  -6 160.533 96.6405   1
  -8   2   6-31.4501 75.2621  19
  -8  -2   6 92.4456 91.7607  19
   8  -2  -6 77.8026 52.1581   6
   8  -2  -6 50.6720 41.0866   5
   8   2  -6 117.020 90.0280   6
   8   2  -5 2477.47 305.347   6
  -8  -2   5 2587.19 329.462  19
   8  -2  -5 2384.18 281.204   6
   8  -2  -5 2310.83 257.002   5
   8   2  -5 2140.69 262.805   4
   8   2  -5 2459.53 320.944   1
  -8   2   5 2312.38 303.478  19
   8   2  -4 587.799 136.563   4
   8   2  -4 670.492 167.813   1
  -8  -2   4 463.578 131.444  19
  -8   2   4 431.414 123.117  19
   8  -2  -4 503.495 115.407   5
   8   2  -3 30805.0 994.370   6
  -8   2   3 31566.3 1014.96  19
   8   2  -3 31221.0 976.679   4
   8   2  -3 30477.5 1064.59   1
   8   2  -2 33347.2 969.191   6
  -8   2   2 39516.4 1108.81  19
  -8  -2   2 42093.8 1194.40  19
   8   2  -2 37629.6 1145.03   1
   8   2  -2 35110.4 1013.69   4
   8   2  -1 26456.0 921.080   1
  -8   2   1 27351.7 910.820  19
   8   2  -1 25942.8 858.836   4
   8   2   0 1844.31 235.397   1
   8   2   0 2218.26 251.025   2
   8   2   0 2032.66 240.392   4
   8   2   1 780.959 139.291   4
   8   2   1 1147.33 181.131   2
   8   2   1 841.136 157.777   1
   8   2   2 118.576 63.3999   4
   8   2   2 122.602 58.2028   2
   8   2   2 165.254 62.2353   1
   8   2   3 2076.55 259.395   2
  -8   2  -3 1983.09 247.613  18
   8   2   3 1629.89 214.683   1
   8   2   3 1966.69 262.364   4
   8   2   4 1023.77 160.085   1
   8   2   4 1452.89 232.462   2
  -8   2  -4 1260.35 206.082  18
   8   2   4 1485.48 241.188   4
   8   2   5 540.913 158.792   4
  -8   2  -5 523.456 146.086  18
   8   2   5 597.464 161.889   2
   8   2   6 2717.14 345.528   2
  -8  -2  -6 2890.35 325.415   3
  -8   2  -6 2671.70 346.735  18
   8   2   6 2896.65 374.563   4
   8   2   7 3806.91 432.272   2
  -8  -2  -7 3612.83 385.238   3
  -8   2  -7 3391.81 418.152  18
   8   2   7 3124.18 407.318   4
   8   2   8 2788.36 392.283   2
  -8  -2  -8 3019.23 375.739   3
   8  -2   8 2876.96 140.269  10
   8  -2   8 2785.24 142.347  15
  -8   2  -8 3028.46 427.829  18
   8   2   8 2700.54 381.978   4
   8  -2   9 837.930 80.0259  10
   8  -2   9 854.879 84.0014  15
   8   2   9 818.284 79.2512  15
   8  -2  10 34.9817 20.7715  10
   8  -2  10 49.1737 26.7162  15
   8   2  10 19.1231 27.2945  15
   8  -2  11 1022.17 90.8749  10
   8  -2  11 977.644 92.5571  15
   8   2  11 988.467 87.5742  15
   8  -2  12 199.044 42.6557  10
   8   2  12 271.033 50.8848  15
   8  -2  12 218.109 48.1501  15
   8  -2  13 1343.71 101.587  10
   8  -2  13 1275.55 98.2636  15
   8   2  13 1378.66 99.1094  15
   8  -2  14 44.1180 24.8689  10
   8  -2  14 32.4444 22.9989  15
   8   2  14 29.4314 22.2670  15
   8  -2  15 114.637 28.8805  10
   8  -2  15 175.632 33.3834  15
   8   2  15 121.142 29.7149  15
   8  -2  16 71.8534 21.4901  10
   8  -2  16 72.7573 19.1495  15
   8   2  16 89.7703 22.4548  15
   8   2  17 118.240 20.7462  15
   8  -2  17 85.0467 18.1261  14
  -8  -3  16-18.7803 21.0956  10
   8   3 -16-32.0042 16.4086  12
   8   3 -15-8.77157 14.5194  12
   8   3 -14 1.03416 14.7319  12
   8  -3 -14 21.0659 13.3182  12
   8  -3 -13 725.501 69.0178   8
   8   3 -13 767.473 67.5433  12
   8  -3 -13 694.790 66.3517  12
  -8   3  12 457.263 59.6397  11
   8  -3 -12 521.408 63.7117   8
   8   3 -12 525.127 58.7423  12
   8  -3 -12 476.018 57.5337  12
   8   3 -11 1181.45 89.0431   8
   8  -3 -11 1236.99 99.0036   8
   8   3 -11 1200.33 88.1196  12
   8  -3 -11 1290.62 98.5046  12
   8   3 -10 77.1584 25.9408  12
   8  -3 -10 93.2634 28.1043  17
   8   3 -10 82.8333 27.3136   8
   8  -3 -10 64.6339 23.1934   8
   8  -3  -9 867.258 78.3887  17
   8   3  -9 834.989 75.4971   8
   8  -3  -9 1007.18 89.0086   8
   8  -3  -9 912.385 89.1423   7
   8   3  -9 921.399 78.0881  12
   8   3  -8 314.823 45.6116  12
  -8   3   8 314.675 122.941  19
  -8  -3   8 198.542 126.239  19
   8  -3  -8 370.166 50.4460  17
   8  -3  -8 308.591 104.304   5
   8  -3  -8 344.138 53.8488   8
   8  -3  -8 423.030 59.4054   7
  -8   3   7 14523.9 832.641  19
   8   3  -7 14748.4 859.397   6
  -8  -3   7 16971.9 935.641  19
   8  -3  -7 16254.9 821.549   6
   8  -3  -7 15907.7 785.166   5
   8   3  -7 14879.8 845.268   1
  -8   3   6 91.1093 98.2262  19
  -8  -3   6 236.510 120.356  19
   8   3  -6 198.345 100.221   6
   8  -3  -6 233.835 103.022   6
   8   3  -6 110.547 101.467   1
   8  -3  -6 87.7790 80.9736   5
   8   3  -5 3189.55 384.803   6
  -8  -3   5 3461.76 398.018  19
   8  -3  -5 3099.96 318.058   5
   8   3  -5 2944.28 371.655   1
  -8   3   5 3116.68 356.321  19
   8   3  -4 1221.41 213.940   4
  -8   3   4 1037.57 200.054  19
  -8  -3   4 1159.46 222.316  19
   8  -3  -4 1188.46 185.717   5
   8   3  -4 1169.47 225.321   1
   8   3  -4 798.694 181.613   6
  -8  -3   3 1510.93 247.332  19
  -8   3   3 1012.87 197.184  19
   8  -3  -3 1304.54 188.030   5
   8   3  -3 1186.73 208.730   4
   8   3  -3 1458.14 254.020   1
   8   3  -3 1181.36 212.719   6
   8   3  -2 675.111 153.261   4
  -8   3   2 744.175 166.720  19
  -8  -3   2 870.102 175.861  19
   8   3  -2 636.928 161.348   1
  -8   3   1 3025.63 314.618  19
  -8  -3   1 3185.81 344.685  19
   8   3  -1 2689.13 316.367   1
   8   3  -1 2395.54 290.274   4
   8   3   0 2411.02 291.922   1
   8   3   0 2910.62 301.198   2
   8   3   0 2291.22 275.750   4
   8   3   1 742.607 162.309   4
   8   3   1 749.773 160.113   1
   8   3   1 943.131 175.067   2
   8   3   2 1103.65 203.781   4
   8   3   2 819.229 162.259   1
   8   3   2 1054.00 187.327   2
  -8   3  -2 982.743 191.072  18
   8   3   3-26.4411 46.4937   4
   8   3   3 128.837 82.7093   2
  -8   3  -3 219.448 100.295  18
   8   3   3 92.7001 68.8253   1
   8   3   4 8014.29 565.962   2
   8   3   4 6835.89 474.076   1
  -8   3  -4 7162.79 533.672  18
   8   3   4 7378.50 573.397   4
   8   3   5 1249.45 253.292   4
  -8   3  -5 755.699 179.640  18
   8   3   5 1365.51 257.306   2
   8   3   6 3097.00 388.789   2
  -8   3  -6 2684.02 363.999  18
   8   3   6 2553.60 373.894   4
   8   3   7 731.417 201.059   4
   8  -3   7 832.010 76.9231  10
  -8   3  -7 538.091 176.902  18
   8   3   7 876.444 218.396   2
   8  -3   8 4148.15 175.126  10
   8  -3   8 4020.63 173.691  15
   8  -3   8 3988.95 167.304  17
   8  -3   9 35.2847 21.1264  10
   8  -3   9 34.0396 16.9416  17
   8  -3   9 61.6454 25.0887  15
   8   3   9 76.9395 24.2054  15
   8  -3  10 1364.93 105.246  10
   8  -3  10 1247.56 99.6882  17
   8   3  10 1288.20 90.8980  16
   8  -3  10 1159.09 99.7672  15
   8   3  10 1276.99 97.9735  15
   8  -3  11 3562.94 164.013  10
   8  -3  11 3447.65 167.575  15
   8  -3  11 3159.30 155.315  17
   8   3  11 3313.82 156.390  15
   8  -3  12 91.9625 36.5291  10
   8  -3  12 64.9767 26.6667  17
   8  -3  12 122.530 35.5999  15
   8   3  12 112.051 38.6845  15
   8  -3  13 2178.30 125.377  10
   8  -3  13 2076.60 117.898  15
   8   3  13 2052.72 117.187  15
   8  -3  14 110.654 33.2953  10
   8  -3  14 83.5030 27.3280  15
   8   3  14 77.7510 26.3148  15
   8  -3  15 40.4977 21.2970  10
   8  -3  15 39.8829 17.6619  15
   8   3  15 47.6065 20.7781  15
   8  -3  15 49.6555 19.5520  14
   8   3  16 14.2981 13.8802  15
   8  -3  16-21.8316 18.6226  10
   8  -3  16-12.8010 13.1836  14
  -8  -4  16 19.6129 14.2540  10
  -8  -4  15-42.0177 23.8700  10
   8   4 -15-1.11318 10.8899  12
   8   4 -14 172.241 29.5849  12
  -8   4  13 318.224 44.9581  11
  -8   4  13 377.390 44.2428  16
   8   4 -13 306.723 40.8035  12
   8   4 -12 154.460 31.1761  12
  -8   4  12 136.121 35.3967  11
  -8   4  12 174.728 35.0800  16
   8   4 -11 235.885 41.3648  12
  -8   4  11 324.002 54.6853  11
  -8   4  11 347.784 50.5219  16
   8  -4 -11 403.676 53.3995  12
   8   4 -10 176.353 39.0253  12
   8  -4 -10 101.705 29.6407  17
   8  -4 -10 190.356 43.8332   8
   8  -4  -9 3062.15 146.035  17
   8  -4  -9 3212.96 162.452   8
   8  -4  -8 1680.35 106.253  17
   8  -4  -8 1765.49 118.708   8
   8  -4  -8 1911.04 128.021   7
   8  -4  -7 6893.10 209.063  17
   8  -4  -7 6575.13 225.474   8
   8   4  -6 1916.56 329.996   6
   8   4  -6 2066.34 332.218   1
   8  -4  -6 2624.15 124.816  17
   8  -4  -6 2185.21 297.736   5
   8   4  -5 15711.4 907.919   6
   8  -4  -5 17896.9 808.898   5
   8   4  -5 16708.6 952.694   1
   8   4  -4 3782.47 421.402   6
   8   4  -4 4009.17 465.130   1
   8  -4  -4 3995.64 368.676   5
   8  -4  -3 7459.49 476.637   5
   8   4  -3 6235.01 508.118   4
   8   4  -3 5958.52 546.380   1
   8   4  -2 4023.95 431.920   1
   8  -4  -2 4267.13 350.080   5
   8   4  -2 3923.61 404.800   4
   8   4  -1 14.0610 53.1623   4
   8   4  -1 195.469 98.3219   1
   8   4   0 1426.51 233.823   1
   8   4   0 1672.65 259.767   4
   8   4   0 1714.26 255.610   2
   8   4   1 21245.3 896.012   1
   8   4   1 21524.9 945.983   4
   8   4   1 23773.9 929.287   2
   8   4   2 166.176 97.0581   4
   8   4   2 255.147 118.963   2
   8   4   2 184.005 89.5858   1
   8   4   3 3054.59 343.078   1
  -8   4  -3 3362.89 383.737  18
   8   4   3 3064.91 385.212   4
   8   4   3 2735.41 338.158   2
   8   4   4 46.8708 56.0504   4
  -8   4  -4 102.412 104.344  18
   8   4   4 7.68115 72.1053   2
   8   4   4-32.4878 70.0305   1
   8   4   5 56.8394 59.1851   4
   8   4   5 176.908 81.8386   2
   8   4   6 52.6158 25.6416  11
   8  -4   6 27.6708 22.0535  10
   8  -4   6 18.8482 17.6049  17
   8   4   6 64.2478 80.1612   2
   8  -4   6 30.2973 15.0511  15
   8  -4   6 23.2251 15.8902  14
   8   4   6 51.2206 27.8671  13
   8   4   7 2484.88 124.603  11
   8  -4   7 2549.24 138.579  10
   8  -4   7 2585.14 135.536  17
   8  -4   7 2329.17 130.367  15
   8  -4   7 2269.06 130.734  14
   8   4   7 2747.86 132.359  13
   8   4   8 33.4350 26.0826  11
   8  -4   8 35.7145 29.8612  10
   8  -4   8 41.5919 23.5153  17
   8  -4   8 44.2223 27.3723  15
   8  -4   8 6.53210 22.6078  14
   8   4   8 70.8605 34.3736  13
   8  -4   9 360.526 57.5989  10
   8  -4   9 268.525 50.7310  17
   8  -4   9 241.244 46.6439  15
   8  -4  10 828.067 84.4522  10
   8  -4  10 855.904 84.3826  17
   8  -4  10 769.337 79.9165  15
   8  -4  11 621.884 72.4895  10
   8  -4  11 567.772 69.9409  17
   8  -4  11 612.613 70.1460  15
   8   4  11 575.888 64.6942  15
   8  -4  12-1.58234 22.5750  10
   8  -4  12 27.8967 21.8168  17
   8  -4  12 35.8871 23.5699  15
   8   4  12 26.4195 22.1594  15
   8  -4  12 46.8347 25.8562  14
   8  -4  13 82.6087 31.2779  10
   8  -4  13 77.7738 28.2173  17
   8   4  13 27.9096 17.8311  15
   8  -4  13 38.9710 23.8044  14
   8  -4  14 113.738 29.9809  10
   8  -4  14 93.6660 24.9813  17
   8   4  14 99.3182 24.1468  15
   8  -4  14 100.649 24.7180  14
   8  -4  15-24.8237 17.8974  10
   8   4  15 17.0265 13.4873  15
   8  -4  16 17.9814 12.2480  10
  -8  -5  14 3.73350 13.6929  10
  -8   5  14-5.23450 11.5144  16
  -8   5  13-9.29571 18.9757  11
  -8   5  13-12.2022 15.3959  16
  -8   5  12 97.2149 26.3386  11
  -8   5  12 79.2907 25.1202  16
   8   5 -12 60.1963 16.8382  12
  -8   5  11 29.4979 21.9308  11
  -8   5  11-5.99812 26.6740  16
  -8   5  10 50.5342 29.4898  11
   8  -5 -10 64.1764 26.9411  17
  -8   5   9 186.559 48.8173  11
   8  -5  -9 65.7686 30.0977  17
   8  -5  -8 71.9625 26.4003  17
  -8   5   7 1665.62 109.749   9
   8  -5  -7 1563.32 105.577  17
  -8   5   6 928.221 81.8799   9
   8  -5  -6 929.736 80.3492  17
   8  -5  -5 48.4460 20.3293  17
  -8   5   5 58.9898 28.5284   9
   8  -5  -4 176.971 34.0635  17
  -8   5   4 200.717 36.3402   9
   8  -5  -4 276.690 110.646   5
   8  -5  -3 22.6183 13.3155  17
   8  -5  -3 101.542 62.1373   5
   8   5  -3 40.0388 86.6073   1
   8   5  -2 3017.60 400.265   1
   8   5  -1 236.737 106.589   4
   8   5  -1 102.780 74.9984   1
   8   5   0 2400.37 334.512   1
   8   5   0 2295.13 328.478   4
   8   5   1 52.9892 73.2474   4
   8   5   1-24.7661 42.5200   2
   8   5   1-45.8565 50.3192   1
   8   5   2 1827.22 98.3081  11
   8  -5   2 1770.62 103.235  17
   8   5   2 1533.35 260.616   2
   8   5   2 1407.05 250.406   1
   8   5   2 1833.85 324.980   4
   8   5   3 5184.54 169.152  11
   8  -5   3 5105.15 177.708  17
   8   5   3 5168.17 170.154  13
   8   5   3 4501.39 506.384   4
   8   5   3 5321.96 489.401   2
   8   5   4 1430.53 93.4057  11
   8  -5   4 1377.96 95.6512  17
   8  -5   4 1140.42 87.6977  15
   8   5   4 1393.84 91.7098  13
   8   5   5 117.951 32.2053  11
   8  -5   5 110.445 31.4741  17
   8   5   5 118.230 32.4755  13
   8  -5   5 47.5099 20.5858  10
   8  -5   6 410.036 54.4142  10
   8   5   6 398.757 52.0745  11
   8  -5   6 412.672 54.4724  17
   8   5   6 491.212 56.4685  13
   8   5   7 2783.24 131.908  11
   8  -5   7 2817.39 145.339  10
   8  -5   7 2996.59 150.138  17
   8   5   7 2927.04 137.484  13
   8   5   8 575.247 61.4685  11
   8  -5   8 522.772 65.6782  10
   8  -5   8 510.779 66.3030  17
   8   5   8 513.422 63.1695  13
   8   5   9 1195.44 84.0227  11
   8  -5   9 1254.77 99.6248  10
   8  -5   9 1337.58 103.558  17
   8  -5  10 1133.12 94.5955  10
   8  -5  10 1066.37 92.6286  17
   8  -5  11 3297.25 158.615  10
   8  -5  11 3574.38 159.138  17
   8  -5  12 682.032 71.4263  10
   8  -5  12 464.971 59.4820  17
   8  -5  13 752.930 67.6939  10
   8  -5  13 684.241 61.9766  17
   8  -5  14 10.5108 11.6184  17
   8  -5  14 75.2711 23.0864  10
   8  -5  15 20.8368 14.4617  10
  -8   6  13-9.25269 14.1381  11
  -8   6  13-12.8054 15.0373  16
  -8   6  12 378.365 44.6202  11
  -8   6  12 418.957 45.0338  16
  -8   6  11 11.3642 21.6895  11
  -8   6  11 43.4388 21.1827  16
  -8   6  10 85.3285 29.4420  11
  -8   6   9 128.530 39.8021  11
  -8   6   8 134.634 43.4431  11
  -8   6   7 2498.19 147.460  11
  -8   6   7 2875.05 141.223   9
   8  -6  -7 2550.48 135.379  17
  -8   6   6 3895.07 188.106  11
  -8   6   6 4144.64 167.431   9
   8  -6  -6 4062.11 168.386  17
  -8   6   5 1330.11 113.976  11
  -8   6   5 1532.47 100.530   9
   8  -6  -5 1487.18 100.333  17
  -8   6   4 1216.58 88.4218   9
   8  -6  -4 1315.41 91.9215  17
   8  -6  -3 286.912 49.0111  17
  -8   6   3 291.896 44.5907   9
  -8   6   2 4576.11 165.609   9
   8  -6  -2 4702.80 170.365  17
   8  -6  -1 570.265 60.8912  17
  -8   6   1 595.341 60.1079   9
   8   6  -1 628.700 61.7334  13
   8  -6   0 1070.88 83.9191  17
  -8   6   0 1050.64 80.0584   9
   8   6   0 1142.81 82.0857  13
   8   6   1 78.0366 32.4349  11
   8  -6   1 121.831 34.1839  17
   8   6   1 49.1997 27.6788  13
  -8   6  -2 10849.8 262.130   9
   8  -6   2 11317.0 270.521  17
   8   6   2 11385.7 258.541  13
   8   6   3 41.1114 28.7421  11
   8  -6   3 38.2698 21.6859  17
  -8   6  -3-18.4034 35.5064   9
   8   6   3 47.2026 25.1008  13
   8   6   4 852.513 73.0800  11
   8   6   4 916.254 75.6087  13
   8  -6   4 785.335 73.8304  17
   8   6   5 2123.01 112.396  11
   8  -6   5 2192.90 123.595  17
   8   6   5 2180.26 117.130  13
   8   6   6 597.107 63.7270  11
   8  -6   6 647.698 70.0051  17
   8   6   6 655.764 68.0457  13
   8   6   7 6283.82 194.488  11
   8  -6   7 6559.51 220.225  17
   8   6   7 6719.37 202.698  13
   8   6   8 201.855 39.3762  11
   8  -6   8 138.158 35.0843  10
   8  -6   8 200.373 42.2146  17
   8   6   8 119.508 33.4523  13
   8   6   9 17.1643 19.4658  11
   8  -6   9-15.0181 22.4937  17
   8  -6   9-5.66180 23.7860  10
   8  -6  10 63.9362 27.9451  10
   8  -6  10 80.7328 29.6869  17
   8  -6  11 4.80600 18.3971  10
   8  -6  11 1.19537 17.4494  17
   8  -6  12 24.5890 19.5507  10
   8  -6  12 19.6429 18.3478  17
   8  -6  13 315.459 37.9797  10
   8  -6  13 329.049 39.7651  17
   8  -6  14 360.027 34.2963  17
  -8   7  12 96.1577 20.2852  11
  -8   7  12 110.982 22.8643  16
  -8   7  11 41.3825 19.8030  11
  -8   7  11 17.8138 17.0705  16
  -8   7  10 65.3645 18.8204  11
  -8   7  10 82.8998 25.6702  16
  -8   7   9 164.586 34.6113  11
  -8   7   8 606.384 68.1115  11
  -8   7   7 2071.99 129.025  11
  -8   7   7 2544.79 126.969   9
  -8   7   6 1597.37 118.374  11
  -8   7   6 1909.70 109.693   9
  -8   7   5 655.043 79.7116  11
  -8   7   5 775.239 70.6641   9
  -8   7   4 163.669 41.0348  11
   8  -7  -4 211.073 39.1375  17
  -8   7   4 288.758 44.4740   9
  -8   7   3 106.579 35.2149  11
   8  -7  -3 162.213 34.3462  17
  -8   7   3 160.381 35.0004   9
  -8   7   2 489.197 64.5173  11
  -8   7   2 557.500 59.7673   9
   8   7  -2 547.037 57.2687  13
   8  -7  -2 608.010 66.0292  17
   8  -7  -1 69.4658 25.5776  17
  -8   7   1 46.3115 19.5774   9
   8   7  -1 79.0495 23.9629  13
   8  -7   0 4651.33 171.930  17
  -8   7   0 4687.82 166.476   9
   8   7   0 4498.01 164.652  13
   8   7   1 3621.73 141.740  11
   8  -7   1 3701.18 153.237  17
  -8   7  -1 3368.22 141.681   9
   8   7   1 3537.80 146.035  13
   8   7   2 3209.75 134.514  11
   8  -7   2 2956.21 140.028  17
  -8   7  -2 2860.64 131.180   9
   8   7   2 2975.31 135.353  13
   8   7   3 491.257 54.8426  11
   8  -7   3 394.704 52.8731  17
  -8   7  -3 391.327 50.0890   9
   8   7   3 436.834 53.7145  13
   8   7   4 54.2862 25.2169  11
   8  -7   4 77.0236 23.3575  17
  -8   7  -4 87.9854 31.1005   9
   8   7   4 58.7736 28.9888  13
   8   7   5 218.416 41.1570  11
   8  -7   5 250.662 44.7634  17
  -8   7  -5 183.995 36.2634   9
   8   7   5 261.915 44.3059  13
   8   7   6 372.760 49.4618  11
   8  -7   6 379.664 56.3208  17
  -8   7  -6 405.770 52.8218   9
   8   7   6 479.663 55.3088  13
   8   7   7 32.6933 22.1836  11
   8  -7   7 8.37604 20.1387  17
   8   7   8 69.9685 26.5282  11
   8  -7   8 47.4201 22.2026  17
   8   7   8 34.8742 20.8608  13
   8   7   9 42.2049 20.7663  11
   8  -7   9 23.7289 18.7258  17
   8  -7  10 592.290 61.1200  17
   8  -7  11 45.4776 21.7740  17
   8  -7  12 452.450 43.8303  17
  -8   7 -12 281.000 33.7182   9
  -8   8  11 25.9290 13.2399  11
  -8   8  11 63.4529 15.9215  16
  -8   8  10-4.31643 15.1988  11
  -8   8  10-0.64641 13.1613  16
  -8   8   9 345.774 41.6797  11
  -8   8   9 393.104 43.7012  16
  -8   8   8 4.37355 18.7299  11
  -8   8   7 337.523 49.6655  11
  -8   8   6-3.39719 20.8881  11
  -8   8   6 33.5163 27.1227   9
  -8   8   5 524.332 65.0298  11
  -8   8   5 587.167 60.8304   9
  -8   8   4 334.074 53.1700  11
  -8   8   4 336.423 45.9863   9
  -8   8   3 1095.42 89.0216  11
  -8   8   3 1228.74 84.1525   9
   8  -8  -2 100.240 25.0252  17
  -8   8   2 64.9128 21.4458   9
   8   8  -2 69.7850 25.2065  13
  -8   8   1 822.456 67.8156   9
   8  -8  -1 799.570 67.3761  17
   8   8  -1 872.658 71.6568  13
  -8   8   0 230.192 37.3825   9
   8  -8   0 247.184 39.2287  17
   8   8   0 284.104 41.8790  13
  -8   8  -1 1397.83 87.6021   9
   8   8   1 1534.43 94.9175  13
   8  -8   1 1359.38 87.8112  17
   8  -8   2 13.9870 14.9298  17
  -8   8  -2-11.2782 23.7110   9
   8   8   2 6.30489 19.5558  13
   8  -8   3 140.672 29.7042  17
  -8   8  -3 134.242 29.4612   9
   8   8   3 138.342 33.9886  13
   8   8   4 215.520 37.8826  11
   8  -8   4 157.661 33.9922  17
  -8   8  -4 174.169 35.4855   9
   8   8   4 241.541 39.6838  13
   8   8   5 416.357 51.1552  11
   8  -8   5 368.600 49.6672  17
  -8   8  -5 310.642 46.6000   9
   8   8   5 422.679 49.7167  13
   8   8   6 138.622 35.1907  11
   8  -8   6 91.4936 26.5446  17
  -8   8  -6 96.4167 26.2115   9
   8   8   6 101.320 29.6122  13
   8  -8   7-9.60902 20.2390  17
  -8   8  -7-40.0561 26.3409   9
   8   8   7 6.01307 19.5656  13
   8  -8   8 18.5127 15.8474  17
  -8   8  -8 49.3150 38.7075   9
   8  -8   9 20.1763 16.3888  17
  -8   8  -9 12.0660 16.3427   9
   8  -8  10 267.955 35.6617  17
  -8   8 -10 236.989 31.5537   9
   8  -8  11 270.060 30.4472  17
  -8   9   8 434.886 39.6558  11
  -8   9   8 504.825 39.7345  16
  -8   9   7 311.996 36.6442  11
  -8   9   6 237.539 35.3811  11
  -8   9   5 7.92203 14.6899  11
  -8   9   5 36.8754 20.7727   9
  -8   9   4 379.125 42.9133  11
  -8   9   4 821.394 60.0516   9
  -8   9   3 386.922 43.3078   9
  -8   9   2 168.539 29.4714   9
   8   9  -2 151.122 29.3749  13
  -8   9   1 273.110 36.3947   9
   8   9  -1 322.004 42.4486  13
  -8   9   0 24.8992 17.9897   9
   8   9   0 85.5763 26.0359  13
  -8   9  -1 8.17160 18.5799   9
   8   9   1 25.9021 22.2586  13
   8  -9   2 271.664 35.3801  17
  -8   9  -2 327.246 41.3146   9
   8   9   2 358.083 47.2565  13
   8  -9   3 848.605 60.4392  17
  -8   9  -3 970.734 66.6637   9
   8   9   3 925.159 68.8197  13
   8  -9   4 627.424 51.5720  17
  -8   9  -4 787.657 60.2205   9
   8   9   4 762.065 61.4257  13
   8  -9   5 850.250 59.5239  17
  -8   9  -5 964.824 64.3131   9
   8   9   5 1031.62 67.8143  13
   8  -9   6-4.47045 12.3128  17
  -8   9  -6 37.0835 19.3686   9
   8   9   6 15.7933 17.6965  13
  -8   9  -6-7.04818 16.0862  13
   8  -9   7 353.382 37.0416  17
  -8   9  -7 376.344 39.0058   9
  -8   9  -7 294.075 34.8484  13
   8  -9   8 1.18902 9.43964  17
  -8   9  -8 13.1099 14.6523   9
  -8   9  -8 27.9216 16.4671  13
  -8  10   3 800.415 48.6909   9
  -8  10   2-3.59220 14.0501   9
  -8  10   1 1315.48 64.0705   9
   8  10  -1 1257.14 62.1731  13
  -8  10   0 693.815 46.7357   9
   8  10   0 755.669 50.7833  13
  -8  10  -1 586.403 43.1310   9
   8  10   1 571.956 45.3097  13
  -8  10  -2-23.3801 16.6868   9
   8  10   2 15.2759 16.0364  13
  -8  10  -3 425.418 35.3605   9
   8  10   3 434.262 39.6794  13
   8  10   4 130.206 24.0735  13
   9   0 -17 8.42042 9.07596  12
   9   0 -16-4.52806 12.1542  12
   9   0 -15 13.8191 16.5544  12
   9   0 -14-20.1182 18.5744  12
   9   0 -13 905.015 76.7352   8
   9   0 -13 1013.44 80.9669  12
   9   0 -12 29.5794 24.1410  12
   9   0 -12 36.4778 27.3545   8
   9   0 -11 1886.30 118.556   8
   9   0 -11 2137.91 121.921  12
   9   0 -10-4.05637 21.0829  12
   9   0 -10 8.35525 18.4865   8
   9   0  -9 1148.94 92.1005   8
   9   0  -9 1234.48 96.6236   7
   9   0  -8 9.25153 16.0779   7
  -9   0   8 105.771 108.263  19
   9   0  -8-50.7255 50.8119   6
   9   0  -8 7.27576 17.5365  17
   9   0  -8-14.4450 60.3300   1
   9   0  -8 17.9783 18.2652   8
  -9   0   7 5670.67 515.980  19
   9   0  -7 5840.68 467.071   6
   9   0  -7 5931.35 480.203   1
  -9   0   6 198.554 123.958  19
   9   0  -6 68.5707 45.6314   6
   9   0  -6 45.5768 51.5872   1
  -9   0   5 11010.1 669.188  19
   9   0  -5 10906.0 609.088   6
  -9   0   4 22.1030 76.8526  19
   9   0  -4-23.2125 46.6532   6
   9   0  -4-19.8510 45.9483   1
  -9   0   3 6412.72 479.053  19
   9   0  -3 6363.63 450.043   6
   9   0  -3 7027.66 505.342   1
   9   0  -2 145.557 77.9953   4
  -9   0   2 120.766 86.0456  19
   9   0  -2 63.5099 47.9953   6
   9   0  -2 82.7958 65.4815   1
   9   0  -1 53606.3 1254.24   6
   9   0  -1 55779.7 1351.77   1
   9   0   0 76.4142 68.4262   4
   9   0   0 39.4625 58.5964   1
   9   0   1 12971.5 612.233   4
   9   0   1 13386.3 610.529   1
   9   0   2 118.460 62.4896   4
   9   0   2 68.9276 39.7515   1
   9   0   3 958.450 182.321   4
   9   0   3 1318.17 201.142   2
   9   0   4 40.6583 55.1574   4
   9   0   4 157.237 96.3623   2
   9   0   5 11164.2 680.159   4
   9   0   6 60.3182 64.7117   4
   9   0   7 863.888 200.806   4
  -9   0  -7 868.096 212.852   3
   9   0   8 13.9750 55.4066   4
  -9   0  -8 47.7447 66.0007   3
   9   0   8-10.8744 21.8076  15
   9   0   8 14.0397 16.2637  10
   9   0   9 2030.87 119.586  10
   9   0   9 2141.80 129.627  15
   9   0  10 96.1241 35.6497  10
   9   0  10 86.2662 35.3860  15
   9   0  11 17861.6 356.468  10
   9   0  11 19221.4 385.000  15
   9   0  12 4.82004 24.6546  15
   9   0  12-6.25179 23.9401  10
   9   0  13 34.4746 23.6101  15
   9   0  13 115.739 30.1351  10
   9   0  14-26.8827 19.5700  10
   9   0  14-21.4000 18.0239  15
   9   0  15 542.632 55.0333  15
   9   0  16-6.55179 14.2298  15
   9   0  17 79.9132 17.0535  15
   9   0  17 110.435 18.9880  14
   9   1 -17 0.61080 9.09990  12
   9   1 -16 91.3513 21.4065  12
   9  -1 -16 116.341 22.0672  12
   9   1 -15 44.5321 20.5913  12
   9  -1 -15 46.6607 21.0467  12
   9   1 -14-6.71899 15.3559  12
   9  -1 -14 6.69952 15.7029  12
   9  -1 -14 6.08008 15.7038   8
   9   1 -13 93.5866 24.6493  12
   9  -1 -13 160.081 36.6910  12
   9   1 -13 129.749 30.7890   8
   9  -1 -13 101.866 32.6778   8
   9   1 -12 43.4514 24.3067  12
   9  -1 -12 124.145 36.4742  12
   9   1 -12 64.9517 26.3190   8
   9  -1 -12 70.0166 26.0684   8
   9   1 -11 89.4247 24.6161  12
   9  -1 -11 62.4249 29.5451  12
   9   1 -11 56.4535 23.8751   8
   9  -1 -11 90.9414 31.5471   8
   9   1 -10 294.396 46.6493  12
   9   1 -10 324.980 51.1335   8
   9  -1 -10 304.111 50.5356   8
   9  -1  -9 2649.60 131.864  17
   9   1  -9 2781.84 141.483   8
   9  -1  -9 2486.02 132.679   8
   9  -1  -9 2698.56 139.953   7
   9   1  -9 2707.30 136.155  12
   9   1  -8 184.890 39.5388   7
   9  -1  -8 133.606 33.3036   7
  -9   1   8 125.773 98.4987  19
  -9  -1   8 127.952 120.739  19
   9   1  -8 137.434 90.4896   6
   9  -1  -8 135.540 61.3032   6
   9  -1  -8 187.479 38.6509  17
   9   1  -8 127.872 94.6424   1
   9   1  -8 156.241 35.1651   8
   9  -1  -8 182.656 37.9323   8
  -9   1   7-119.674 79.8002  19
  -9  -1   7-64.0925 118.686  19
   9   1  -7-46.5005 45.0376   6
   9  -1  -7 28.6812 47.0788   6
   9   1  -7 19.3648 55.6057   1
   9   1  -6 3599.99 369.721   6
   9   1  -6 4154.41 415.794   1
  -9   1   6 4188.41 433.906  19
  -9  -1   6 3856.79 428.665  19
   9  -1  -6 3844.21 378.083   6
   9   1  -5 8222.90 582.366   1
   9   1  -5 7828.80 528.328   6
  -9   1   5 7226.07 547.787  19
  -9  -1   5 7834.60 578.786  19
   9  -1  -5 7510.32 511.970   6
   9   1  -4 475.539 136.232   1
  -9   1   4 545.822 145.144  19
  -9  -1   4 599.923 165.793  19
   9   1  -4 458.999 118.164   6
   9  -1  -4 534.202 133.546   6
   9   1  -3 99.5367 52.9654   4
  -9   1   3 100.290 76.8865  19
  -9  -1   3 146.950 83.3871  19
   9   1  -3 199.017 71.0545   6
   9  -1  -3 142.007 69.8479   6
   9   1  -3 190.993 97.6940   1
   9   1  -2 124.417 63.9600   4
   9  -1  -2 119.208 60.5123   4
  -9   1   2 121.652 65.5729  19
  -9  -1   2 160.041 87.7782  19
   9   1  -2 165.854 67.2156   6
   9  -1  -2 126.962 68.7789   6
   9   1  -2 51.9114 67.8600   1
   9  -1  -1 1552.61 204.215   4
   9   1  -1 1620.41 237.835   1
   9   1  -1 1571.62 215.178   4
   9  -1   0 14264.7 615.971   4
   9   1   0 14468.3 677.764   1
   9   1   0 13273.2 626.137   4
   9   1   1 229.994 77.3782   1
   9   1   1 245.409 92.2771   4
   9  -1   1 167.425 66.2421   4
   9   1   2 11950.5 625.169   4
   9  -1   2 11110.7 536.624   1
   9   1   2 11560.1 575.839   1
   9   1   2 12485.1 630.540   2
   9   1   3 23525.4 921.724   4
   9   1   3 21343.3 775.413   1
   9   1   3 23560.1 883.706   2
   9   1   4 823.518 185.579   4
   9   1   4 922.379 177.540   2
   9   1   5 9303.62 599.606   2
   9   1   5 9768.80 669.572   4
   9   1   6 1033.65 238.627   4
   9   1   6 1008.45 205.991   2
   9   1   7 682.967 191.241   4
   9   1   7 456.141 156.053   2
   9   1   8 2236.64 350.863   4
   9  -1   8 2646.80 133.274  10
   9  -1   8 2547.60 135.296  15
   9   1   8 2461.07 131.665  15
   9  -1   9 189.253 44.5808  10
   9  -1   9 138.064 35.2779  15
   9   1   9 112.129 33.4983  15
   9  -1  10 177.457 42.6226  10
   9  -1  10 152.040 39.2928  15
   9   1  10 186.751 43.8253  15
   9  -1  11 732.884 75.8175  10
   9  -1  11 721.732 78.8118  15
   9   1  11 686.746 76.8636  15
   9  -1  12 457.005 58.0526  10
   9  -1  12 474.383 62.9860  15
   9   1  12 465.927 61.1013  15
   9  -1  13 1020.89 83.2718  10
   9  -1  13 887.593 81.1985  15
   9   1  13 1031.68 85.8718  15
   9  -1  14 92.8753 29.9974  10
   9  -1  14 96.2341 29.9967  15
   9   1  14 93.3164 27.0969  15
   9  -1  15-9.17053 16.7588  10
   9  -1  15-14.4803 17.2332  15
   9   1  15 13.1007 19.1486  15
   9  -1  16 171.888 26.3398  10
   9  -1  16 191.153 29.7980  15
   9   1  16 213.211 30.8360  15
   9  -2 -16 9.62077 10.1013  12
   9   2 -16-1.11616 10.4582  12
   9   2 -15 156.359 28.0134  12
   9  -2 -15 183.515 29.5108  12
   9   2 -14 18.8175 17.0870  12
   9  -2 -14 33.1139 18.3117  12
   9  -2 -14 60.2492 21.0529   8
   9   2 -13 9.01513 19.3359  12
   9  -2 -13 28.2009 24.5380  12
   9  -2 -13 6.40327 19.2209   8
   9   2 -12 1005.56 80.7110   8
   9  -2 -12 1074.76 87.0023   8
   9   2 -12 1103.95 83.8954  12
   9  -2 -12 1046.75 85.0771  12
   9   2 -11 16.2162 18.3899  12
   9  -2 -11-6.23389 23.1778  12
   9   2 -11 1.63838 19.3250   8
   9  -2 -11 5.50313 25.8838   8
   9   2 -10 1076.53 87.8138   8
   9  -2 -10 1055.43 88.7659   8
   9   2 -10 1186.29 89.6229  12
   9  -2 -10 1117.87 86.6292  17
   9  -2  -9 355.877 54.7353   7
   9   2  -9 422.162 56.1591   8
   9  -2  -9 408.279 55.0928   8
   9  -2  -9 408.080 52.9572  17
   9   2  -9 405.884 52.3988  12
   9  -2  -8 657.126 66.0688  17
   9   2  -8 639.327 67.3324   8
   9  -2  -8 614.400 65.9632   8
   9  -2  -8 789.574 76.1795   7
   9   2  -8 706.678 67.9405  12
   9   2  -7 2112.78 306.432   6
  -9  -2   7 2400.35 382.543  19
   9  -2  -7 2278.28 318.165   6
  -9   2   7 2369.94 343.885  19
   9  -2  -7 2233.05 117.757  17
   9  -2  -7 2321.62 122.752   8
   9   2  -7 2274.52 325.858   1
   9  -2  -7 2375.36 127.695   7
   9   2  -6 2838.80 352.889   6
  -9  -2   6 2476.84 360.143  19
   9  -2  -6 2723.64 329.700   6
  -9   2   6 2922.90 369.784  19
   9   2  -6 2790.27 359.920   1
   9   2  -5 4068.62 417.819   6
  -9  -2   5 4749.05 473.078  19
   9  -2  -5 4298.70 399.016   6
  -9   2   5 3966.16 414.088  19
   9   2  -5 4205.04 440.334   1
   9   2  -4 40.2412 62.7231   1
   9   2  -4 38.6564 52.2324   4
  -9   2   4 12.1750 49.4856  19
  -9  -2   4 34.7043 88.1119  19
   9  -2  -4 49.7910 54.7498   6
   9   2  -4 3.55708 38.8047   6
   9   2  -3 2119.34 274.060   6
  -9   2   3 2091.76 292.257  19
  -9  -2   3 2910.27 348.617  19
   9   2  -3 2176.75 274.388   4
   9   2  -3 2105.41 301.000   1
   9   2  -2 109.581 65.0536   4
  -9   2   2 223.653 103.711  19
  -9  -2   2 230.235 101.212  19
   9   2  -2 269.272 114.974   1
   9  -2  -1 10587.1 522.475   4
  -9   2   1 12764.3 681.350  19
   9   2  -1 11950.6 675.052   1
   9   2  -1 11957.0 625.681   4
   9   2   0 3248.53 338.929   1
   9   2   0 2575.59 295.203   4
   9   2   1 422.879 121.322   4
   9   2   1 704.441 158.456   2
   9   2   1 584.900 142.667   1
   9   2   2 5692.76 430.767   1
   9   2   2 6588.38 477.365   2
   9   2   2 5950.44 460.210   4
   9   2   3 37.3424 44.9637   4
   9   2   3 79.7961 59.3898   1
   9   2   4 2867.74 359.995   4
   9   2   4 3105.37 350.513   2
   9   2   5 225.059 68.4378   4
   9   2   5 295.377 113.886   2
   9   2   6 79.1849 80.6595   4
   9   2   6 6.28325 59.8106   2
   9  -2   7 776.554 72.3914  10
   9  -2   7 679.807 69.4721  15
   9  -2   8 163.625 39.8678  10
   9  -2   8 225.201 45.5321  15
   9   2   8 193.567 41.7843  15
   9  -2   9 61.2404 28.4396  10
   9  -2   9 25.9812 20.5638  15
   9   2   9 35.0403 22.8987  15
   9  -2  10 10703.8 278.278  10
   9  -2  10 10725.3 294.643  15
   9   2  10 9991.10 271.484  15
   9  -2  11 588.366 70.3580  10
   9   2  11 510.326 66.3950  15
   9  -2  12 2317.22 133.956  15
   9  -2  12 2244.72 129.203  10
   9   2  12 2315.21 127.516  15
   9  -2  13 141.405 34.7303  10
   9  -2  13 118.741 34.5653  15
   9   2  13 69.4683 27.2925  15
   9  -2  14 113.780 32.8332  10
   9  -2  14 95.4593 30.2554  15
   9   2  14 86.8661 27.7999  15
   9  -2  15 99.5841 26.2242  10
   9  -2  15 109.330 26.1524  15
   9   2  15 98.8094 24.9115  15
   9  -2  16 211.842 27.8169  15
   9  -2  16 206.635 29.6941  10
   9   2  16 210.201 29.0670  15
   9  -2  16 166.280 27.8429  14
  -9  -3  16 233.460 31.9359  10
   9   3 -16 208.591 25.5144  12
   9  -3 -15 28.9926 13.3129  12
   9   3 -15 24.4537 13.5703  12
   9   3 -14 6.31521 13.8833  12
   9  -3 -14 4.87658 13.2272  12
   9  -3 -13 446.431 53.7640   8
   9   3 -13 424.401 48.4917  12
   9  -3 -13 499.916 53.4585  12
   9   3 -12 91.8677 27.9251  12
   9  -3 -12 57.6403 24.0705  12
  -9   3  12 57.8339 29.9107  11
   9  -3 -12 62.2341 23.7175   8
   9   3 -11 223.414 40.0395  12
   9  -3 -11 169.114 37.1162  12
   9   3 -11 163.714 32.9529   8
   9  -3 -11 168.590 39.2008   8
   9  -3 -10 1555.57 102.476  17
   9   3 -10 1448.68 97.3719   8
   9  -3 -10 1541.33 108.388   8
   9   3 -10 1447.72 95.7842  12
   9   3  -9 251.116 41.7342  12
   9  -3  -9 224.873 41.4308  17
   9   3  -9 219.803 38.6079   8
   9  -3  -9 241.951 46.2919   8
   9  -3  -9 294.872 51.5307   7
   9  -3  -8 1384.38 97.0304  17
   9  -3  -8 1395.00 103.211   8
   9  -3  -8 1527.23 110.624   7
   9   3  -8 1430.91 96.5718  12
  -9   3   7 637.851 202.547  19
  -9  -3   7 611.797 201.002  19
   9  -3  -7 775.642 75.4445   8
   9  -3  -7 786.725 79.3144   7
   9  -3  -7 690.937 67.3873  17
   9   3  -6 6471.16 576.255   6
  -9   3   6 6488.23 559.873  19
  -9  -3   6 7721.44 643.350  19
   9   3  -6 6843.73 601.476   1
   9  -3  -6 7429.30 561.012   6
   9  -3  -6 6989.21 200.879  17
   9  -3  -6 7594.30 221.285   8
   9  -3  -6 7295.51 230.887   7
   9   3  -5 1864.47 297.933   6
   9   3  -5 2200.09 347.199   1
  -9   3   5 2006.41 307.750  19
  -9  -3   5 2337.88 344.845  19
   9   3  -4 468.847 144.656   4
  -9   3   4 317.421 112.388  19
  -9  -3   4 289.802 128.530  19
   9   3  -4 598.605 163.652   6
   9   3  -4 513.177 162.502   1
  -9  -3   3 2408.83 338.478  19
  -9   3   3 1630.05 270.935  19
   9   3  -3 1995.46 309.367   1
   9   3  -3 1481.15 239.461   4
  -9   3   2 1624.62 254.581  19
  -9  -3   2 1605.61 269.771  19
   9   3  -2 1285.69 248.420   1
   9   3  -2 1314.67 225.551   4
  -9   3   1 2788.05 329.032  19
  -9  -3   1 3021.94 356.747  19
   9   3  -1 2595.70 337.038   1
   9   3  -1 2653.40 321.741   4
  -9   3   0 8987.38 582.798  19
  -9  -3   0 9585.73 634.703  19
   9   3   0 8099.27 571.007   1
   9   3   0 8033.64 551.245   4
   9   3   1 116.830 52.5706   4
   9   3   1 121.502 78.8843   1
   9   3   2-80.3525 97.5374   4
   9   3   2 158.484 65.1646   1
   9   3   2 24.8017 53.9926   2
   9   3   3 967.732 211.963   4
   9   3   3 767.047 180.798   2
   9   3   3 617.309 147.587   1
   9   3   4 3223.16 401.469   4
   9   3   4 3747.39 405.831   2
   9   3   5 67.6161 67.0900   4
   9   3   5 127.355 72.4725   2
   9   3   6 2561.35 370.627   2
   9  -3   6 2788.55 136.663  10
   9  -3   6 2672.86 131.267  17
   9  -3   6 2568.64 133.107  15
   9  -3   6 2691.91 140.395  14
   9   3   6 3070.25 140.145  13
   9   3   6 2349.75 374.588   4
   9  -3   7 1583.46 106.310  10
   9  -3   7 1438.50 99.2892  17
   9  -3   7 1354.42 100.776  15
   9  -3   8 1175.62 95.1942  10
   9  -3   8 1236.28 95.1327  17
   9  -3   8 1182.49 96.3153  15
   9  -3   9 1320.39 99.5524  10
   9  -3   9 1179.64 94.5791  17
   9  -3   9 1253.99 102.952  15
   9   3   9 1172.29 92.8238  15
   9  -3  10 215.074 42.8594  17
   9  -3  10 260.494 52.3638  15
   9   3  10 248.816 47.2818  15
   9  -3  10 257.255 45.8020  10
   9  -3  11 822.156 82.9258  10
   9  -3  11 864.892 79.7585  17
   9  -3  11 971.849 90.0189  15
   9   3  11 789.676 76.9726  15
   9  -3  12 4.51930 26.4434  10
   9  -3  12 59.3195 29.3714  15
   9   3  12 22.5161 22.3958  15
   9  -3  13 106.186 36.1831  10
   9   3  13 89.9510 28.0264  15
   9  -3  14 51.8134 21.0144  15
   9   3  14 35.1068 18.9316  15
   9  -3  14 28.8618 22.0429  10
   9  -3  14 31.3285 20.6420  14
   9  -3  15 18.7201 12.7496  15
   9   3  15 23.6067 14.3948  15
   9  -3  15 7.03449 11.9994  14
   9  -3  15 25.5559 17.5601  10
   9  -3  16-4.85597 12.1923  10
  -9  -4  15 188.400 29.0192  10
   9   4 -14 173.309 26.1132  12
   9   4 -13 44.7001 16.9811  12
  -9   4  13 69.6282 21.7768  11
   9   4 -12 90.0276 24.4826  12
   9  -4 -12 140.381 32.2301  12
  -9   4  12 139.369 34.8530  11
   9  -4 -12 147.608 32.1791   8
   9   4 -11 134.134 30.6605  12
   9  -4 -11 129.784 33.3712  12
  -9   4  11 178.845 42.7414  11
  -9   4  11 101.083 29.8713  16
   9  -4 -11 171.079 37.0058   8
   9  -4 -10 692.432 68.3709  17
   9  -4 -10 704.106 75.5254   8
   9   4 -10 684.615 66.7902  12
   9  -4  -9 871.290 78.4087  17
   9  -4  -9 878.171 84.2648   8
   9  -4  -8 721.541 70.4453  17
   9  -4  -8 805.826 81.1174   8
   9  -4  -8 796.280 85.3753   7
   9  -4  -7 1155.13 87.0893  17
   9  -4  -7 1182.67 96.3772   8
   9  -4  -7 1184.69 101.719   7
   9  -4  -6 3679.92 149.211  17
   9  -4  -6 3896.06 167.098   8
   9  -4  -6 4041.31 180.224   7
   9  -4  -5 1448.16 93.9288  17
   9  -4  -5 1719.40 115.482   7
   9   4  -4 566.875 162.800   1
   9  -4  -4 596.887 57.6077  17
   9   4  -3 1770.51 314.336   1
   9   4  -3 1651.04 275.005   4
   9   4  -2 3038.64 397.992   1
   9   4  -2 3866.66 411.280   4
   9   4  -1 1145.13 228.847   4
   9   4  -1 984.829 222.359   1
   9   4   0 290.160 112.869   1
   9   4   0 212.638 100.566   4
   9   4   1 377.467 146.736   4
   9   4   1 287.869 111.681   2
   9   4   1 339.047 126.921   1
   9   4   2 10139.8 651.120   1
   9   4   2 10376.0 706.049   4
   9   4   3 570.396 176.991   4
   9   4   3 834.427 195.600   2
   9   4   3 544.812 150.123   1
   9   4   4 10595.9 250.451  11
   9  -4   4 9492.43 249.192  10
   9  -4   4 10420.0 253.971  17
   9  -4   4 9290.12 249.032  15
   9   4   4 8988.69 713.259   4
   9   4   4 10462.7 703.958   2
   9   4   4 8034.45 579.718   1
   9   4   5 689.573 69.1615  11
   9  -4   5 710.155 69.0153  10
   9  -4   5 782.978 72.7204  17
   9  -4   5 638.151 68.1521  15
   9  -4   5 686.434 71.0494  14
   9   4   5 761.861 69.4190  13
   9   4   6 5553.14 188.817  11
   9  -4   6 5753.93 198.953  17
   9  -4   6 5132.22 193.178  15
   9  -4   6 5070.00 195.184  14
   9   4   6 5707.51 192.142  13
   9  -4   6 5467.64 198.872  10
   9  -4   7-16.5927 19.9733  17
   9  -4   7-3.05057 18.4423  15
   9  -4   7-7.03162 27.8407  10
   9  -4   7 8.54338 16.6138  14
   9   4   7 5.68309 27.2091  13
   9  -4   8 7041.39 235.993  10
   9  -4   8 7159.15 231.184  17
   9  -4   8 6422.58 227.204  15
   9  -4   8 6598.49 232.880  14
   9  -4   9 694.854 75.5198  10
   9  -4   9 669.229 73.9287  17
   9  -4   9 665.376 75.2443  15
   9  -4   9 685.899 78.6331  14
   9  -4  10 2212.72 131.937  10
   9  -4  10 2235.72 131.411  17
   9  -4  10 2069.77 128.029  15
   9  -4  10 1994.21 129.643  14
   9  -4  11 78.8129 29.4321  10
   9  -4  11 78.9772 31.4089  17
   9  -4  11 101.460 32.5411  15
   9  -4  11 118.611 34.3926  14
   9  -4  12 113.544 38.1382  10
   9  -4  12 82.1571 25.3766  17
   9  -4  12 63.3002 25.8311  15
   9   4  12 52.1796 20.3071  15
   9  -4  12 82.8256 29.2125  14
   9  -4  13 214.075 40.5135  10
   9  -4  13 134.601 28.4570  17
   9   4  13 105.914 26.2715  15
   9  -4  13 153.036 32.9357  14
   9  -4  14 71.0757 24.1886  10
   9   4  14 48.6917 18.6507  15
   9  -4  14 27.1337 16.0419  14
   9  -4  15-2.64343 13.0065  10
  -9  -5  14 15.5770 13.0521  10
  -9   5  13-15.2776 17.0254  11
  -9   5  13-18.9361 15.5950  16
  -9   5  12 65.9369 25.1882  11
  -9   5  12 51.1459 20.8893  16
  -9   5  11 33.4293 25.4430  11
  -9   5  11 16.2384 20.4384  16
  -9   5  10 369.959 55.5534  11
   9  -5 -10 346.150 49.3210  17
  -9   5   9 1565.97 111.314  11
   9  -5  -9 1608.86 103.951  17
   9  -5  -8 2158.30 123.411  17
   9  -5  -7 4641.27 178.870  17
   9  -5  -6 5488.41 189.702  17
   9  -5  -5 8796.61 236.364  17
   9  -5  -4 1493.99 97.1687  17
   9  -5  -3 6262.56 192.022  17
   9  -5  -2 276.387 39.8144  17
   9  -5  -2 256.083 43.7372  14
   9  -5  -1 7692.80 210.554  17
   9  -5  -1 6994.92 220.561  14
   9  -5   0 439.848 52.6352  17
   9  -5   0 348.701 49.2840  14
   9  -5   1 2352.14 118.399  17
   9  -5   1 1958.99 114.760  14
   9   5   1 2057.54 110.157  13
   9  -5   2 284.610 43.7482  17
   9   5   2 284.120 43.4041  13
   9   5   3 565.557 59.5650  11
   9  -5   3 587.968 62.9759  17
   9   5   3 533.361 58.1195  13
   9   5   4 5074.37 174.944  11
   9  -5   4 4488.93 173.550  10
   9  -5   4 5162.20 183.351  17
   9   5   4 4776.29 172.842  13
   9   5   5 3669.54 151.485  11
   9  -5   5 3410.80 155.876  10
   9  -5   5 3617.32 159.464  17
   9  -5   5 3262.25 154.330  15
   9   5   5 3967.43 158.814  13
   9   5   6 268.663 45.2810  11
   9  -5   6 198.243 38.7533  10
   9  -5   6 219.978 42.0303  17
   9  -5   6 204.978 41.3148  15
   9   5   6 226.404 42.4633  13
   9   5   7 457.954 57.7167  11
   9  -5   7 372.712 57.0124  17
   9  -5   7 355.270 54.7956  15
   9  -5   7 421.564 56.6699  10
   9   5   7 426.128 58.0586  13
   9  -5   8 883.585 83.3551  10
   9  -5   8 895.179 84.2755  17
   9  -5   8 767.875 76.6109  15
   9  -5   9-13.2985 27.7798  17
   9  -5   9-25.8832 32.1697  10
   9  -5  10 126.589 34.0372  10
   9  -5  10 53.2712 22.7115  17
   9  -5  11 547.116 64.7070  10
   9  -5  11 493.145 59.2363  17
   9  -5  12 5.48899 19.8366  10
   9  -5  12 1.28715 15.7885  17
   9  -5  13 295.010 40.4342  10
   9  -5  13 265.696 36.5898  17
   9  -5  14 18.0048 15.9681  10
   9  -5  14 29.7631 14.3152  17
  -9   6  13-14.5189 12.6584  11
  -9   6  13-14.1507 11.3835  16
  -9   6  12 127.512 26.6611  11
  -9   6  12 138.968 24.7237  16
  -9   6  11 106.916 29.2867  11
  -9   6  11 117.041 29.1792  16
  -9   6  10 28.2220 23.2816  11
  -9   6   9 3120.71 144.829  11
   9  -6  -9 3251.73 140.523  17
  -9   6   8 67.3254 36.8373  11
   9  -6  -8 94.0718 29.2866  17
  -9   6   7 463.175 67.5931  11
   9  -6  -7 351.993 52.6710  17
  -9   6   7 412.586 59.0671   9
  -9   6   6 163.058 44.5175  11
   9  -6  -6 145.217 36.5390  17
  -9   6   6 196.237 40.2287   9
  -9   6   5 1469.40 100.802   9
   9  -6  -5 1491.97 102.654  17
  -9   6   4 2659.18 131.755   9
   9  -6  -4 2726.16 134.249  17
   9  -6  -3 12919.9 287.588  17
  -9   6   3 12385.1 277.589   9
   9  -6  -2 7813.08 221.957  17
  -9   6   2 7093.63 206.954   9
   9  -6  -1 1331.59 92.1751  17
  -9   6   1 1230.39 86.4064   9
   9  -6   0 34.6701 20.5313  17
   9   6   0 66.1166 26.9340  13
   9  -6   1 464.320 56.4835  17
   9   6   1 486.954 55.9065  13
   9  -6   2 63.7348 22.9572  17
  -9   6  -2 83.1518 26.4046   9
   9   6   2 111.384 30.9618  13
   9   6   3 4821.61 166.056  11
   9  -6   3 4699.84 174.579  17
   9   6   3 4786.04 172.707  13
   9   6   4 47.6275 25.6640  11
   9  -6   4 64.1602 27.4533  17
  -9   6  -4 26.1482 20.5658   9
   9   6   4 63.4408 24.7288  13
   9   6   5 370.264 50.1523  11
   9  -6   5 319.805 52.1170  17
  -9   6  -5 228.778 40.7917   9
   9   6   5 329.896 48.2220  13
   9   6   6 542.301 60.4070  11
   9  -6   6 484.004 60.6003  17
   9   6   6 589.577 63.4428  13
   9   6   7 268.195 42.5335  11
   9  -6   7 270.944 44.2003  10
   9  -6   7 269.375 49.3091  17
   9   6   7 191.016 39.4430  13
   9  -6   8 464.767 57.3814  10
   9  -6   8 509.478 62.2269  17
   9  -6   9 174.366 36.4021  10
   9  -6   9 248.350 44.0788  17
   9  -6  10 152.849 37.2499  10
   9  -6  10 112.932 32.8783  17
   9  -6  11 122.898 31.1171  10
   9  -6  11 84.4970 24.6658  17
   9  -6  12 297.285 38.4496  10
   9  -6  12 320.973 40.7351  17
   9  -6  13 52.7010 17.7423  10
   9  -6  13 55.8515 17.5661  17
  -9   7  12-10.8328 12.5140  11
  -9   7  12-13.8024 11.9878  16
  -9   7  11 145.266 28.5143  11
  -9   7  11 118.260 24.8582  16
  -9   7  10 108.094 26.7498  11
  -9   7  10 95.3351 26.4223  16
  -9   7   9-22.3088 21.9958  11
  -9   7   8-5.79510 24.3744  11
  -9   7   7 15.5272 27.0722  11
  -9   7   6 62.3774 34.9312  11
   9  -7  -6 68.9474 23.4674  17
  -9   7   6 151.003 34.1550   9
  -9   7   5 449.988 64.7329  11
   9  -7  -5 568.544 60.7178  17
  -9   7   5 579.543 61.1467   9
  -9   7   4 22.2012 23.4599  11
   9  -7  -4 72.9333 22.7745  17
  -9   7   4 62.3169 25.8529   9
   9  -7  -3 1306.89 91.0823  17
  -9   7   3 1357.86 90.8383   9
   9  -7  -2 115.611 30.8521  17
  -9   7   2 90.1625 24.9028   9
   9  -7  -1 1083.62 85.2403  17
  -9   7   1 1140.97 81.6086   9
   9  -7   0 297.660 46.6196  17
  -9   7   0 326.883 46.8246   9
   9   7   0 287.782 45.2450  13
   9  -7   1 1976.48 111.149  17
  -9   7  -1 1812.71 101.915   9
   9   7   1 1923.78 109.113  13
   9  -7   2 811.795 70.5407  17
  -9   7  -2 724.352 66.2422   9
   9   7   2 865.681 74.0524  13
   9  -7   3 2199.70 116.455  17
  -9   7  -3 2019.28 108.237   9
   9   7   3 2200.83 116.999  13
   9  -7   4 1069.85 83.6956  17
  -9   7  -4 1110.79 81.7349   9
   9   7   4 1202.98 86.0007  13
   9  -7   5 177.027 37.0401  17
  -9   7  -5 168.219 35.8467   9
   9   7   5 231.620 42.5287  13
   9  -7   6 1531.48 98.7583  17
  -9   7  -6 1248.49 85.4766   9
   9   7   6 1521.52 95.6102  13
   9  -7   7 356.543 50.4222  17
  -9   7  -7 327.591 43.6566   9
   9   7   7 289.944 44.3118  13
   9  -7   8 23.8564 19.6040  17
  -9   7  -8-18.7061 19.9239   9
   9  -7   9 79.2313 26.7168  17
  -9   7  -9 26.9274 16.1124   9
   9  -7  10-13.5790 16.3202  17
  -9   7 -10-18.0514 20.4807   9
   9  -7  11 10.9779 13.1329  17
  -9   7 -11 21.0066 12.8793   9
   9  -7  12 41.3902 13.8517  17
  -9   8  10 3.64019 12.9777  11
  -9   8  10 28.5399 13.8122  16
  -9   8   9 55.1331 20.0080  11
  -9   8   9 82.9389 22.6274  16
  -9   8   8 165.696 33.0231  11
  -9   8   7 178.584 33.3112  11
  -9   8   6 222.733 40.8824  11
  -9   8   6 296.840 42.5217   9
  -9   8   5 201.720 37.6752  11
  -9   8   5 239.231 41.0215   9
  -9   8   4 321.637 49.3062  11
  -9   8   4 491.661 51.9681   9
   9  -8  -3 211.505 35.7540  17
  -9   8   3 223.933 37.8466   9
   9  -8  -2 408.052 47.8113  17
  -9   8   2 400.318 47.3887   9
   9  -8  -1 229.160 36.6010  17
  -9   8   1 170.297 32.7687   9
   9   8  -1 219.519 38.0299  13
   9  -8   0 80.3227 22.3805  17
  -9   8   0 58.8553 21.1981   9
   9   8   0 86.6111 25.8412  13
   9  -8   1 138.363 29.4478  17
  -9   8  -1 170.596 30.3619   9
   9   8   1 217.002 36.3372  13
   9  -8   2 368.770 47.3738  17
  -9   8  -2 502.189 52.5781   9
   9   8   2 516.503 54.8233  13
   9  -8   3 7.32767 14.8700  17
  -9   8  -3 77.1308 25.7407   9
   9   8   3 42.2916 20.9811  13
   9  -8   4 651.796 60.2081  17
  -9   8  -4 693.248 58.7891   9
   9   8   4 664.735 60.7292  13
   9  -8   5 108.990 28.3591  17
  -9   8  -5 62.6815 22.5656   9
   9   8   5 30.7017 21.0654  13
   9  -8   6 458.272 49.8420  17
  -9   8  -6 409.443 45.5516   9
   9   8   6 467.475 50.6055  13
   9  -8   7-7.74670 19.5459  17
  -9   8  -7 26.9135 17.0493   9
  -9   8  -8 554.593 48.1932   9
   9  -8   8 734.150 58.6528  17
   9  -8   9-12.1940 18.6792  17
  -9   8  -9-14.6697 16.0396   9
   9  -8  10 244.927 29.4059  17
  -9   9   7 436.310 37.6857  11
  -9   9   6 231.159 31.1120  11
  -9   9   5 51.9458 17.8275  11
  -9   9   4 181.585 29.1634   9
  -9   9   3 364.523 39.8289   9
  -9   9   2 481.839 44.7560   9
  -9   9   1 56.5327 16.1856   9
   9   9  -1 71.2472 21.0114  13
  -9   9   0 781.419 55.4314   9
   9   9   0 769.484 58.8034  13
   9  -9   1 83.2076 20.4169  17
  -9   9  -1 72.6662 20.4648   9
   9   9   1 120.627 27.6775  13
   9  -9   2 1327.97 71.1222  17
  -9   9  -2 1327.98 71.4567   9
   9   9   2 1521.80 82.6094  13
   9  -9   3 856.330 57.6570  17
  -9   9  -3 771.587 54.4929   9
   9  -9   4 219.966 30.7727  17
  -9   9  -4 198.954 29.5827   9
   9   9   4 259.940 35.9852  13
   9  -9   5 586.854 47.6384  17
  -9   9  -5 511.619 43.3860   9
   9  -9   6 139.556 23.6775  17
  -9   9  -6 124.904 22.2453   9
   9  -9   7 271.725 30.0943  17
  10   0 -16 59.1016 15.8425  12
  10   0 -15 19.3211 16.9804  12
  10   0 -14 219.093 36.4639  12
  10   0 -13 23.8567 26.4243  12
  10   0 -13 19.3284 23.3273   8
  10   0 -12 4871.28 174.420   8
  10   0 -12 4815.08 174.650  12
  10   0 -11 72.8444 31.7896  12
  10   0 -11 48.2673 32.0052   8
  10   0 -10 6283.30 210.331   8
  10   0 -10 6521.93 211.565  12
  10   0  -9 83.1142 29.3339   8
  10   0  -9 91.0161 33.8396   7
  10   0  -8 2828.92 136.167  17
  10   0  -8 2981.70 149.488   8
  10   0  -8 2705.13 140.588   7
  10   0  -7 9.40307 16.5367   7
  10   0  -7 54.8017 33.1186   6
  10   0  -7 7.21569 14.7426  17
  10   0  -7-3.35470 65.9273   1
  10   0  -7-2.35604 13.9310   8
  10   0  -6 224.676 113.328   1
 -10   0   6 420.161 145.591  19
  10   0  -6 281.002 101.161   6
  10   0  -5 59.7373 74.3145   1
 -10   0   5 100.791 91.5438  19
  10   0  -5 93.2712 65.9077   6
 -10   0   4 4689.37 453.148  19
  10   0  -4 5031.43 434.587   6
  10   0  -4 5369.01 477.930   1
 -10   0   3 104.088 92.3803  19
  10   0  -3-12.7773 41.4302   6
  10   0  -3 64.7627 63.6332   1
 -10   0   2 8309.81 584.648  19
  10   0  -2 8205.11 540.928   6
  10   0  -2 8512.67 589.290   1
  10   0  -2 7238.38 478.180   4
  10   0  -1-4.56175 53.7107   4
 -10   0   1 28.2600 115.387  19
  10   0  -1 5.68376 41.1365   1
  10   0   0 2700.17 297.575   4
  10   0   0 3001.23 328.892   1
  10   0   1 28.1479 46.6557   4
  10   0   1 116.547 62.9050   1
  10   0   2 1723.76 231.500   1
  10   0   2 2009.62 274.394   4
  10   0   3 83.2669 52.2185   4
  10   0   4 2392.67 317.158   4
  10   0   5 89.2035 95.2846   4
  10   0   6 4752.87 498.763   4
  10   0   7 53.8739 21.9203  10
  10   0   7 91.6839 31.6849  15
  10   0   8 556.249 61.9938  10
  10   0   8 639.917 72.0623  15
  10   0   9 29.6795 23.2833  15
  10   0   9 17.7994 26.6672  10
  10   0  10 3560.15 162.468  10
  10   0  10 4070.67 176.048  15
  10   0  11 31.7657 24.7148  10
  10   0  11 9.96555 22.0647  15
  10   0  12 242.570 43.7312  10
  10   0  12 211.175 40.1386  15
  10   0  13 11.5085 16.8381  10
  10   0  13-6.33012 20.1446  15
  10   0  14 389.979 46.0478  10
  10   0  14 382.363 49.2382  15
  10   0  15 12.8696 16.4323  15
  10   0  16 201.848 27.6187  15
  10   0  16 174.449 26.5099  14
  10   1 -16 200.629 25.8651  12
  10  -1 -16 177.859 23.6033  12
  10   1 -15 21.7452 14.5604  12
  10  -1 -15 3.48690 11.1410  12
  10   1 -14 269.392 39.3296  12
  10  -1 -14 264.955 37.1327  12
  10  -1 -14 287.528 39.6488   8
  10  -1 -13 325.135 44.2773   8
  10   1 -13 310.236 43.9610   8
  10   1 -13 423.396 50.6301  12
  10  -1 -13 336.137 45.2458  12
  10   1 -12 184.744 38.8286  12
  10  -1 -12 249.257 42.3127  12
  10   1 -12 143.155 38.1601   8
  10  -1 -12 167.892 37.4075   8
  10   1 -11 51.8816 27.0107  12
  10  -1 -11 3.17574 20.3715  12
  10   1 -11 8.01018 20.0630   8
  10  -1 -11 29.0168 23.1505   8
  10   1 -10 1699.77 111.055   8
  10   1 -10 1879.59 113.410  12
  10  -1  -9 131.942 36.8001   7
  10   1  -9 62.9731 26.2189  12
  10  -1  -9 65.3926 23.8379  17
  10   1  -9 69.3835 28.4884   8
  10  -1  -9 43.9894 25.0642   8
  10   1  -8 582.437 65.2843   8
  10  -1  -8 496.791 61.2479   8
  10  -1  -8 570.984 62.1819  17
  10   1  -8 657.762 70.1394   7
  10  -1  -8 549.974 64.0801   7
  10  -1  -7 924.968 76.8529  17
  10   1  -7 896.476 79.1074   8
  10  -1  -7 965.424 79.6850   8
  10   1  -7 658.553 181.532   6
  10   1  -7 870.188 79.9878   7
  10  -1  -7 745.415 72.7270   7
 -10   1   6 94.1249 72.2840  19
 -10  -1   6 38.3597 60.1309  19
  10   1  -6 40.6980 42.8857   6
  10  -1  -6 139.037 82.4927   6
  10   1  -6-95.5980 76.0306   1
  10   1  -5 1420.12 243.778   6
 -10   1   5 1422.20 258.848  19
 -10  -1   5 1258.94 248.000  19
  10  -1  -5 1555.19 246.871   6
  10   1  -5 1533.80 268.284   1
 -10   1   4 275.427 128.299  19
 -10  -1   4 365.918 139.809  19
  10   1  -4 368.459 128.095   6
  10  -1  -4 282.907 112.766   6
  10   1  -4 126.384 72.5540   1
  10   1  -3 2822.60 360.357   1
  10   1  -3 2998.06 334.962   6
 -10   1   3 2718.34 341.540  19
 -10  -1   3 3023.89 375.385  19
  10  -1  -3 2735.07 319.215   6
  10   1  -3 2424.62 284.189   4
  10   1  -2 723.701 154.880   4
 -10   1   2 858.781 192.432  19
 -10  -1   2 809.534 192.002  19
  10  -1  -2 764.184 161.229   6
  10   1  -2 658.169 173.799   1
  10   1  -1 387.150 123.429   4
  10  -1  -1 358.649 111.235   4
 -10   1   1 365.436 131.837  19
 -10  -1   1 629.106 178.796  19
  10   1  -1 204.636 88.8537   1
  10  -1  -1 278.319 108.388   6
  10  -1   0 2076.30 260.132   4
  10  -1   0 2451.37 297.917   1
  10   1   0 1872.27 257.278   4
  10   1   0 2090.61 280.700   1
  10  -1   1 2051.40 268.458   4
  10  -1   1 2125.68 266.401   1
  10   1   1 2227.73 282.068   1
  10   1   1 2086.03 275.746   4
  10  -1   2 8250.36 536.423   4
  10   1   2 6830.20 480.886   1
  10   1   2 7821.03 545.478   4
  10   1   3 14405.6 777.123   4
  10  -1   3 14347.4 740.761   4
  10   1   3 14374.8 736.712   2
  10   1   4 1956.09 297.041   4
  10   1   4 1956.08 277.828   2
  10   1   5 2290.76 349.651   4
  10   1   5 2147.27 302.521   2
  10   1   6-7.28905 41.0845   4
  10  -1   6 33.5285 23.0372  10
  10  -1   6 40.0802 17.9259  15
  10   1   7 55.7569 24.8556  10
  10  -1   7 1.28089 21.1609  10
  10  -1   7 95.2352 29.1945  15
  10   1   7 72.1810 25.8474  15
  10  -1   8 27656.3 430.884  10
  10  -1   8 26887.4 445.779  15
  10  -1   9 173.719 44.2537  10
  10  -1   9 91.4567 37.5051  15
  10   1   9 110.447 38.0271  15
  10  -1  10 645.323 70.1178  10
  10   1  10 681.334 75.2690  15
  10  -1  10 491.202 65.0387  15
  10  -1  11 60.6698 27.8215  10
  10  -1  11 26.1220 21.4760  15
  10   1  11 84.8974 30.8276  15
  10  -1  12 1219.11 90.5498  10
  10  -1  12 1129.34 92.1633  15
  10   1  12 1103.70 89.4407  15
  10  -1  13 717.506 68.3604  10
  10  -1  13 776.444 72.5905  15
  10   1  13 729.862 69.0253  15
  10  -1  14 191.351 34.4573  10
  10  -1  14 251.009 40.5760  15
  10   1  14 213.795 36.1100  15
  10  -1  15-0.48711 13.7695  10
  10  -1  15 9.28099 14.6023  15
  10   1  15-11.8634 16.9717  15
  10  -1  15 0.21827 16.3219  14
  10  -1  16 252.817 29.5032  15
  10   1  16 248.057 29.4901  15
  10  -1  16 260.622 31.9598  14
  10   1  16 238.743 29.0853  14
  10   2 -16-8.62800 11.1384  12
  10   2 -15 177.348 27.7228  12
  10  -2 -15 182.949 26.5968  12
  10   2 -14 53.4061 19.8576  12
  10  -2 -14 35.6951 18.3595  12
  10  -2 -14 47.2286 18.2774   8
  10  -2 -13 938.055 73.0077   8
  10   2 -13 900.947 70.9416  12
  10  -2 -13 979.353 72.4512  12
  10   2 -12 882.613 73.3567   8
  10  -2 -12 849.208 75.3582   8
  10   2 -12 838.216 71.4611  12
  10  -2 -12 995.317 78.4966  12
  10   2 -11 507.416 59.0706   8
  10  -2 -11 568.147 65.0852   8
  10   2 -11 600.905 62.9738  12
  10  -2 -11 623.541 65.4208  12
  10  -2 -10 431.293 52.1442  17
  10   2 -10 533.803 62.1315   8
  10  -2 -10 503.772 60.9032   8
  10   2 -10 456.327 56.5173  12
  10  -2  -9 1269.33 93.2336  17
  10   2  -9 1410.79 99.1979   8
  10  -2  -9 1288.91 96.0299   8
  10  -2  -9 1308.96 99.2782   7
  10   2  -9 1288.19 92.0087  12
  10  -2  -8 17.3231 16.0624   7
  10   2  -8 42.4781 20.4226  12
  10  -2  -8 15.5725 20.7173  17
  10   2  -8 61.3309 24.9279   8
  10  -2  -8 51.8538 24.3596   8
  10  -2  -7 192.332 37.7160   7
  10   2  -7 225.778 40.0667  12
  10  -2  -7 201.791 36.4879  17
  10   2  -7 172.637 38.0896   8
  10  -2  -7 200.760 39.7536   8
  10  -2  -6 15.9033 16.4677   7
 -10  -2   6 80.4715 67.2402  19
  10   2  -6-8.69458 28.8669   6
  10  -2  -6 2.38113 60.9249   6
  10  -2  -6 10.4444 18.1018  17
  10   2  -6 43.7889 21.9912   8
  10   2  -6 68.7446 79.7885   1
  10  -2  -6 17.2537 13.5310   8
 -10   2   5 51.3562 61.5929  19
 -10  -2   5 102.710 95.2084  19
  10   2  -5 397.950 134.138   6
  10  -2  -5 406.311 132.483   6
  10   2  -5 425.223 158.572   1
 -10   2   4 254.066 112.171  19
 -10  -2   4 81.3112 89.5227  19
  10  -2  -4 85.1319 72.9597   6
  10   2  -4 234.075 125.560   1
 -10   2   3 3398.37 391.303  19
 -10  -2   3 4465.68 465.258  19
  10  -2  -3 3775.44 373.334   6
  10   2  -3 3685.21 429.263   1
  10   2  -3 3468.00 363.730   4
  10   2  -2-28.1315 57.5180   4
 -10   2   2 64.0883 84.6118  19
 -10  -2   2 6.04653 86.7952  19
  10   2  -2 22.6283 68.8810   1
 -10   2   1 4036.56 417.731  19
 -10  -2   1 4086.68 436.216  19
  10   2  -1 3097.22 369.868   1
  10   2  -1 3238.02 345.006   4
  10   2   0 1101.56 199.095   4
  10  -2   0 859.857 167.911   4
  10   2   0 830.504 191.961   1
  10   2   1 9156.68 601.243   1
  10   2   1 9696.95 610.690   4
  10   2   2 5721.60 463.054   1
  10   2   2 7199.73 530.306   2
  10   2   2 6316.54 507.608   4
  10   2   3 1564.78 240.906   1
  10   2   3 1749.81 266.692   2
  10   2   3 1989.00 303.318   4
  10   2   4 4836.26 461.136   2
  10   2   4 4669.83 480.684   4
  10   2   5 107.360 83.4265   4
  10   2   5 302.120 123.459   2
  10   2   6 209.096 102.236   4
  10  -2   6 315.254 47.1387  10
  10   2   6 410.739 145.442   2
  10  -2   6 340.821 48.5237  15
  10  -2   6 329.522 49.6711  14
  10  -2   7 46.4268 21.5351  10
  10  -2   7 72.1505 22.3719  15
  10   2   7 91.7560 26.3016  15
  10  -2   8 421.957 57.2272  10
  10   2   8 411.084 57.8737  15
  10  -2   8 402.608 58.2973  15
  10  -2   9 7796.09 237.372  10
  10  -2   9 7207.08 239.700  15
  10   2   9 7168.23 226.304  15
  10  -2  10 346.150 56.7921  15
  10   2  10 319.570 50.9463  15
  10  -2  10 271.551 52.0569  10
  10  -2  11 79.1491 31.4483  10
  10  -2  11 81.4141 33.4907  15
  10   2  11 64.8777 30.2950  15
  10  -2  12 364.500 55.9572  10
  10  -2  12 396.236 56.8654  15
  10   2  12 305.395 47.7576  15
  10  -2  13 456.058 54.7850  10
  10  -2  13 438.605 54.9532  15
  10   2  13 403.449 49.8372  15
  10  -2  14 176.104 34.0891  10
  10  -2  14 89.6199 28.3223  15
  10   2  14 119.765 27.2254  15
  10  -2  14 129.514 32.5481  14
  10   2  15 246.211 33.3201  15
  10  -2  15 270.803 35.0126  10
  10  -2  15 214.493 30.5579  15
  10  -2  15 211.320 32.4529  14
  10   2  15 162.020 27.9067  14
  10  -3 -15 13.7310 10.8705  12
  10   3 -15-11.4374 9.33678  12
  10   3 -14 164.122 27.4376  12
  10  -3 -14 173.686 28.3429  12
  10  -3 -13 550.221 55.3333   8
  10   3 -13 523.009 50.7421  12
  10  -3 -13 551.859 53.7309  12
  10   3 -12 23.1752 19.2450  12
  10  -3 -12 5.33929 17.1056  12
 -10   3  12 17.8708 20.9832  11
  10  -3 -12 7.65007 16.3066   8
  10   3 -11 358.566 47.6309   8
  10  -3 -11 388.682 53.4054   8
  10   3 -11 420.470 50.6868  12
  10  -3 -11 453.418 56.3979  12
  10  -3 -10 929.720 77.3474  17
  10   3 -10 846.318 73.5599   8
  10  -3 -10 1048.61 89.4776   8
  10   3 -10 808.166 70.5185  12
  10   3  -9 259.456 41.8670  12
  10  -3  -9 291.862 44.8833  17
  10   3  -9 299.609 45.1436   8
  10  -3  -9 275.947 49.6301   8
  10  -3  -9 357.256 55.8161   7
  10  -3  -8 3502.86 150.552  17
  10  -3  -8 3582.08 165.723   8
  10   3  -8 3153.68 141.973  12
  10  -3  -7 132.492 35.9538   7
  10  -3  -7 148.656 35.2158  17
  10  -3  -7 149.547 38.9860   8
  10  -3  -6 138.231 32.7879   7
  10  -3  -6 118.086 31.2331  17
  10  -3  -6 102.346 29.1676   8
 -10   3   5 4839.51 496.906  19
 -10  -3   5 5896.33 580.262  19
  10  -3  -5 5529.31 177.538  17
  10  -3  -5 5876.12 201.719   7
  10   3  -4 259.916 121.608   4
  10  -3  -4 263.443 43.5028   7
 -10  -3   4 22.0889 121.808  19
  10  -3  -4 231.615 37.6830  17
  10   3  -4 333.360 144.364   1
  10  -3  -4 253.422 43.0781  14
 -10   3   3 8852.64 648.817  19
 -10  -3   3 10709.5 744.145  19
  10   3  -3 9005.73 711.859   1
  10   3  -3 8877.11 617.607   4
  10   3  -2 985.397 206.251   4
 -10   3   2 727.694 182.512  19
 -10  -3   2 887.791 224.384  19
  10   3  -2 895.051 214.980   1
 -10   3   1 7824.56 584.911  19
 -10  -3   1 8336.03 627.506  19
  10   3  -1 7572.97 612.469   1
  10   3  -1 7022.42 544.895   4
 -10   3   0 12144.7 742.309  19
 -10  -3   0 12959.9 787.426  19
  10   3   0 11316.9 721.395   1
  10   3   0 10919.5 675.120   4
  10   3   1 4226.82 426.543   1
  10   3   1 3750.82 402.072   4
  10   3   2 9800.43 625.776   1
  10   3   2 11266.0 686.469   2
  10   3   2 9605.05 670.814   4
  10   3   3 4498.41 419.343   1
  10   3   3 5656.21 502.650   2
  10   3   3 5600.76 530.057   4
  10   3   4 317.386 131.452   4
  10  -3   4 394.897 52.1438  10
  10  -3   4 405.709 51.3767  17
  10   3   4 322.186 139.415   2
  10  -3   4 313.322 46.5740  15
  10  -3   4 346.535 49.7244  14
  10  -3   5 797.090 74.9280  10
  10  -3   5 897.227 75.0190  17
  10  -3   5 805.255 76.5884  15
  10  -3   5 810.951 78.1779  14
  10  -3   6 229.759 43.2005  10
  10  -3   6 251.184 42.2845  17
  10  -3   6 236.398 43.0856  15
  10  -3   6 279.331 45.9646  14
  10  -3   7 2352.77 132.293  10
  10  -3   7 2211.77 125.574  17
  10  -3   7 2366.99 134.202  15
  10  -3   7 2276.12 134.365  14
  10  -3   8 0.51395 24.7206  10
  10  -3   8 37.2586 21.2326  17
  10  -3   8 56.9744 34.0877  15
  10  -3   8 67.0791 26.6096  14
  10  -3   9 2150.47 128.590  10
  10  -3   9 1838.36 115.875  17
  10  -3   9 2035.23 129.746  15
  10   3   9 1908.72 115.469  15
  10  -3   9 2082.07 134.210  14
  10  -3  10 649.612 73.2668  10
  10  -3  10 589.148 63.8965  17
  10  -3  10 716.728 77.6913  15
  10   3  10 560.558 63.4941  15
  10  -3  10 663.075 76.5480  14
  10  -3  11 14.2137 25.9919  10
  10  -3  11 26.8721 25.4773  15
  10   3  11-4.90389 19.0498  15
  10  -3  11 58.0226 32.1104  14
  10  -3  12 7.38439 18.4337  15
  10   3  12 25.4923 19.6706  15
  10  -3  12 36.9058 25.2035  14
  10  -3  12 24.7873 21.4831  10
  10  -3  13 126.822 32.0555  10
  10  -3  13 108.359 31.6694  15
  10   3  13 89.9282 24.4303  15
  10  -3  13 98.1506 31.6947  14
  10  -3  14 64.2383 24.8816  10
  10  -3  14 39.7377 18.1815  15
  10   3  14 43.3558 19.0684  15
  10  -3  14 48.9895 19.9062  14
  10  -3  15 7.64312 12.8507  10
  10  -3  15-12.6390 11.2162  15
  10   3  15 11.1161 10.3036  15
  10  -3  15 11.7637 10.7956  14
  10   4 -14-17.1535 12.8900  12
  10  -4 -13 82.2017 20.7000  12
 -10   4  13 110.357 24.8048  11
  10   4 -13 68.5923 17.1163  12
  10   4 -12 25.3800 15.3937  12
  10  -4 -12 32.6510 18.6167  12
 -10   4  12 26.7881 23.2205  11
  10  -4 -12 12.4774 13.4217   8
 -10   4  11 941.030 80.8390  11
  10  -4 -11 997.253 79.7154   8
  10  -4 -11 1083.42 80.4836  12
  10  -4 -10 522.938 59.4827  17
  10  -4 -10 498.511 60.9439   8
  10  -4  -9 6606.63 205.940  17
  10  -4  -9 7023.73 229.432   8
  10  -4  -8 725.810 70.9802  17
  10  -4  -8 743.557 79.2150   8
  10  -4  -8 752.037 82.4950   7
  10  -4  -7 4130.67 164.895  17
  10  -4  -7 4485.57 185.935   8
  10  -4  -7 4487.58 194.110   7
  10  -4  -6 1804.86 106.539  17
  10  -4  -6 1833.93 118.304   8
  10  -4  -6 1936.87 125.009   7
  10  -4  -5 871.953 73.3635  17
  10  -4  -5 941.616 86.2181   7
  10  -4  -4 26.6163 19.0194   7
  10  -4  -4 21.1094 14.1954  17
  10  -4  -3 2280.52 113.981  17
  10  -4  -3 2702.09 144.076  14
  10  -4  -3 2493.60 135.218   7
  10  -4  -2 2502.37 133.309   7
  10  -4  -2 2263.88 112.144  17
  10  -4  -2 2506.53 134.440  14
  10   4  -2 2094.22 313.489   4
  10  -4  -1 1057.35 86.3832   7
  10   4  -1 831.578 197.512   4
  10   4  -1 841.273 210.858   1
  10  -4  -1 1093.77 77.4828  17
  10  -4  -1 1104.29 87.7756  14
  10  -4   0 555.901 63.3061   7
  10   4   0 447.086 150.503   4
  10  -4   0 565.904 60.8661  10
  10  -4   0 684.718 62.3474  17
  10  -4   0 579.901 66.1604  14
  10   4   0 404.126 136.195   1
  10   4   1 7520.44 590.600   1
  10  -4   1 8505.89 236.246  10
  10  -4   1 9523.78 231.374  17
  10  -4   1 9537.00 256.784  14
  10   4   1 8250.21 636.718   4
  10  -4   2 30.4918 18.9308  10
  10  -4   2 28.1850 17.4075  17
  10  -4   2 20.0484 16.5690  14
  10  -4   3 621.343 67.5181  10
  10  -4   3 774.454 69.1937  17
  10  -4   3 660.302 69.4095  15
  10  -4   3 718.967 72.6449  14
  10   4   3 673.321 66.9338  13
  10  -4   4 555.538 62.0877  10
  10  -4   4 703.368 67.8897  17
  10  -4   4 610.088 67.6347  15
  10  -4   4 604.072 68.4105  14
  10   4   4 649.673 67.6130  13
  10  -4   5 679.208 70.3536  10
  10  -4   5 602.904 66.7059  17
  10  -4   5 626.316 69.1865  15
  10  -4   5 647.044 72.3269  14
  10   4   5 706.253 70.9270  13
  10  -4   6 1483.55 104.032  10
  10  -4   6 1555.72 105.007  17
  10  -4   6 1432.83 104.519  15
  10  -4   6 1331.77 102.400  14
  10  -4   7 106.540 26.6170  17
  10  -4   7 129.961 34.1449  15
  10  -4   7 94.0620 26.7432  10
  10  -4   7 118.559 30.6988  14
  10  -4   8 691.588 74.7300  10
  10  -4   8 744.884 77.1900  17
  10  -4   8 664.645 73.7885  15
  10  -4   8 650.195 75.7991  14
  10  -4   9 248.844 45.3747  10
  10  -4   9 285.099 50.4174  17
  10  -4   9 269.317 46.4596  15
  10  -4   9 257.903 48.4206  14
  10  -4  10 720.639 75.1655  10
  10  -4  10 746.927 72.3869  17
  10  -4  10 711.071 75.1870  15
  10  -4  10 639.834 73.8583  14
  10  -4  11 443.662 58.6253  10
  10  -4  11 330.402 46.4073  17
  10  -4  11 419.926 55.8530  15
  10  -4  11 383.310 55.8334  14
  10  -4  12 52.7293 25.9093  10
  10  -4  12 24.9910 14.1935  17
  10  -4  12-11.8465 18.0881  15
  10  -4  12 27.8063 21.9572  14
  10  -4  13 223.552 37.8521  10
  10  -4  13 119.148 25.4278  15
  10  -4  13 179.110 33.0801  14
  10  -4  14 19.8149 15.9787  10
  10  -4  14 29.3830 14.4344  14
  10  -4  15 292.988 30.2372  10
 -10   5  13-31.0756 17.6942  11
 -10   5  12 88.6370 26.5012  11
 -10   5  11 329.608 48.5586  11
 -10   5  11 262.744 38.0499  16
  10  -5 -10 260.647 42.2735  17
 -10   5  10 285.792 49.8034  11
 -10   5   9 451.498 60.8574  11
  10  -5  -9 405.619 51.0877  17
  10  -5  -8 211.820 41.9745  17
  10  -5  -7 3251.80 148.187  17
  10  -5  -7 3210.41 158.153   8
  10  -5  -7 3078.35 158.914   7
  10  -5  -6 12318.2 283.861  17
  10  -5  -6 12521.1 312.262   8
  10  -5  -6 12433.3 316.066   7
  10  -5  -5 6286.87 203.340  17
  10  -5  -5 6649.65 224.414   8
  10  -5  -5 6547.84 231.375   7
  10  -5  -4 1369.26 92.4395  17
  10  -5  -4 1419.54 106.076   7
  10  -5  -3 31.4352 16.8361   7
  10  -5  -3 65.7129 25.5527  17
  10  -5  -2 2133.07 116.043  17
  10  -5  -2 2281.74 131.690  14
  10  -5  -2 2231.69 129.842   7
  10  -5  -1 1797.39 103.077  17
  10  -5  -1 1733.84 113.268  14
  10  -5  -1 1559.61 109.010   7
  10  -5   0 13221.1 311.288   7
  10  -5   0 13617.3 282.179  17
  10  -5   0 12984.9 304.554  14
  10  -5   1 16.0367 25.1610   7
  10  -5   1 77.2773 26.3171  17
  10  -5   1 60.2694 21.6990  14
  10  -5   2 69.1166 25.6475  17
  10  -5   2 31.6048 19.3989  14
  10   5   2 79.9713 28.1788  13
  10  -5   3 6964.90 216.231  10
  10  -5   3 7369.89 218.316  17
  10  -5   3 6502.01 216.077  14
  10   5   3 7841.79 225.572  13
  10  -5   4 786.952 77.5804  10
  10  -5   4 888.571 78.5438  17
  10  -5   4 675.901 70.8310  14
  10   5   4 767.731 73.0584  13
  10  -5   5 2466.17 133.489  10
  10  -5   5 2720.85 138.843  17
  10  -5   5 2395.25 134.317  14
  10   5   5 2623.25 131.740  13
  10  -5   6 808.734 78.1666  10
  10  -5   6 844.968 77.7024  17
  10  -5   6 749.376 77.1019  14
  10   5   6 836.514 76.8390  13
  10  -5   7 1746.44 116.143  10
  10  -5   7 1864.48 116.041  17
  10  -5   7 1554.16 109.061  15
  10  -5   7 1475.58 106.512  14
  10  -5   8 12.3822 20.0561  10
  10  -5   8-9.08545 19.5897  17
  10  -5   8 12.5499 21.9501  15
  10  -5   8 22.1237 17.4944  14
  10  -5   9 1491.18 104.305  10
  10  -5   9 1537.65 102.229  17
  10  -5   9 1192.94 92.8933  15
  10  -5   9 1177.12 92.5203  14
  10  -5  10 175.206 38.6125  10
  10  -5  10 117.622 29.4323  17
  10  -5  11 159.203 34.9621  10
  10  -5  11 143.577 31.8551  17
  10  -5  12 270.384 41.6336  10
  10  -5  12 166.974 30.6791  17
  10  -5  13 57.5426 20.9500  10
  10  -5  13 48.5943 16.2364  17
  10  -5  14 299.140 30.6605  10
 -10   6  12 17.3355 13.2629  11
 -10   6  12 38.3227 13.6698  16
 -10   6  11 30.6763 21.0464  11
 -10   6  11 48.1989 17.7310  16
 -10   6  10-49.3356 26.4184  11
 -10   6  10 43.3919 22.3111  16
 -10   6   9 142.341 39.6605  11
  10  -6  -9 179.987 35.8002  17
 -10   6   8 629.099 72.0632  11
  10  -6  -8 751.841 68.5417  17
 -10   6   7 597.146 70.8709  11
  10  -6  -7 669.756 67.3802  17
 -10   6   6 211.469 49.9757  11
  10  -6  -6 221.023 39.7943  17
  10  -6  -5 240.026 41.6710  17
  10  -6  -4 1560.10 103.319  17
  10  -6  -3 0.02034 21.4243  17
  10  -6  -2 3833.25 154.795  17
  10  -6  -1 366.397 52.3271  17
  10  -6   0 286.355 47.7801  17
  10  -6   1 1306.83 90.7240  17
  10   6   1 1190.79 88.3006  13
  10  -6   2 74.1322 21.7057  17
  10   6   2 107.598 31.7280  13
  10  -6   3-12.6864 27.7091  17
  10   6   3 26.4140 18.9218  13
  10  -6   4 333.450 47.8988  17
  10   6   4 346.487 49.7040  13
  10  -6   5 255.666 43.2689  17
  10   6   5 213.342 39.1789  13
  10  -6   6 28.1706 25.6706  17
  10   6   6 0.09660 24.9353  13
  10  -6   7 118.970 31.6201  10
  10  -6   7 121.306 34.5269  17
  10  -6   8 188.038 38.1812  17
  10  -6   8 163.200 35.4765  10
  10  -6   9 283.236 43.7474  10
  10  -6   9 372.681 50.2843  17
  10  -6  10 576.333 57.3155  10
  10  -6  10 586.506 58.3049  17
  10  -6  11 0.04410 17.7428  10
  10  -6  11 27.3249 15.3677  17
  10  -6  12 35.0305 14.3582  10
  10  -6  12 71.1028 19.1037  17
 -10   7  11-7.09147 11.7596  11
 -10   7  11-9.04090 12.5752  16
 -10   7  10 357.616 40.3890  11
 -10   7  10 376.127 38.4142  16
 -10   7   9 325.282 42.3379  11
 -10   7   8 111.117 28.7592  11
 -10   7   7 135.090 35.9858  11
  10  -7  -7 166.735 32.8204  17
 -10   7   6 342.622 53.8864  11
  10  -7  -6 401.273 49.8558  17
 -10   7   5 16.9289 22.7293  11
  10  -7  -5 6.30170 15.7167  17
 -10   7   4 63.6262 31.2326  11
  10  -7  -4 81.2193 24.1430  17
 -10   7   3 151.698 40.9002  11
  10  -7  -3 149.244 34.5042  17
  10  -7  -2 133.241 28.4007  17
  10  -7  -1 1017.00 79.8192  17
  10  -7   0 2185.85 114.147  17
  10  -7   1 984.845 76.7317  17
  10   7   1 894.010 73.4785  13
  10  -7   2 184.640 36.1613  17
  10   7   2 201.544 38.6145  13
  10  -7   3 211.481 37.0361  17
  10   7   3 241.026 41.3602  13
  10  -7   4 90.5646 26.9559  17
  10   7   4 107.421 30.2667  13
  10  -7   5 426.861 51.8950  17
  10   7   5 457.964 52.9427  13
  10  -7   6 21.1553 18.3696  17
  10   7   6 48.2626 27.4265  13
  10  -7   7 597.717 60.6882  17
  10  -7   8 11.3117 21.1794  17
  10  -7   9 541.416 53.7873  17
  10  -7  10 47.9971 17.3281  17
  10  -7  11-12.3630 11.9413  17
 -10   8   9 423.598 37.6872  11
 -10   8   9 376.802 34.5703  16
 -10   8   8 341.033 39.1119  11
 -10   8   7 140.672 29.0149  11
 -10   8   6 2452.06 113.847  11
 -10   8   5 687.561 64.2379  11
 -10   8   5 862.540 62.5463   9
 -10   8   4 958.602 75.7831  11
  10  -8  -4 1093.24 71.9423  17
 -10   8   4 1155.65 72.8797   9
  10  -8  -3 261.484 37.0496  17
 -10   8   3 312.032 41.2574   9
  10  -8  -2 132.319 26.4961  17
 -10   8   2 70.5079 22.8156   9
  10  -8  -1 118.363 27.1287  17
 -10   8   1 81.9488 21.3729   9
  10  -8   0 929.082 67.7139  17
 -10   8   0 781.014 59.5007   9
  10   8   0 808.594 63.6691  13
  10  -8   1 231.063 36.3658  17
 -10   8  -1 192.476 30.8490   9
  10   8   1 221.665 34.9226  13
  10  -8   2 21.1065 16.5272  17
 -10   8  -2-28.2109 22.0290   9
  10   8   2 1.62142 16.1072  13
  10  -8   3 141.385 31.7214  17
 -10   8  -3 95.8205 25.2236   9
  10   8   3 128.323 31.6445  13
  10  -8   4 52.8058 21.2735  17
 -10   8  -4 65.1330 20.9514   9
  10   8   4 99.8036 29.1876  13
  10  -8   5 409.115 46.9570  17
 -10   8  -5 434.776 43.4219   9
  10   8   5 443.461 48.8420  13
  10  -8   6 248.592 37.2930  17
  10  -8   7 276.040 35.7281  17
  10  -8   8-2.12133 14.2184  17
  10  -8   9 5.15155 11.0964  17
 -10   9   3 385.186 35.3644   9
 -10   9   2 392.245 36.4688   9
 -10   9   1 357.495 35.7323   9
  10  -9   0 20.3676 13.4275  17
 -10   9   0-9.85867 17.3654   9
  10  -9   1 728.479 50.3370  17
 -10   9  -1 691.281 47.8131   9
  10   9   1 794.924 54.5970  13
  10  -9   2 96.5886 20.6672  17
 -10   9  -2 37.7499 16.2524   9
  10   9   2 87.2842 24.8043  13
  10  -9   3 1213.73 65.2817  17
 -10   9  -3 1065.40 56.6913   9
  10  -9   4 149.132 24.3435  17
  10  -9   5 369.462 34.9587  17
  11   0 -15 28.9475 16.9307  12
  11   0 -14 47.5456 20.7276  12
  11   0 -13 642.291 60.3122   8
  11   0 -13 760.733 63.3294  12
  11   0 -12 54.2510 25.7186  12
  11   0 -12 79.7792 29.9176   8
  11   0 -11 32.8740 23.7644  12
  11   0 -11 20.0624 20.9070   8
  11   0 -10 81.4338 30.9146  12
  11   0 -10 25.5033 28.9422   8
  11   0  -9 46.0665 25.9480   8
  11   0  -8 40.3540 22.9612   7
  11   0  -8 30.6980 24.1501  17
  11   0  -8 72.6021 28.7384   8
  11   0  -7 654.996 66.3680  17
  11   0  -7 634.601 67.5337   8
  11   0  -7 538.849 63.6053   7
  11   0  -6 14.7252 13.9534   7
  11   0  -6-7.74219 14.2638  17
  11   0  -6 33.4397 17.0698   8
  11   0  -5 19.6491 12.6989   7
 -11   0   5-3.67998 82.5187  19
  11   0  -5 59.1389 51.4363   6
  11   0  -5 19.6223 14.4889  17
  11   0  -5 26.3358 12.3525   8
 -11   0   4 47.0197 39.0460  19
  11   0  -4 35.1000 46.4248   1
 -11   0   3 5861.64 532.317  19
  11   0  -3 6075.23 537.751   1
  11   0  -2-148.146 86.9553   1
 -11   0   2-140.800 89.6882  19
  11   0  -1 1704.50 276.677   1
 -11   0   1 2231.87 327.299  19
  11   0  -1 1621.64 245.611   4
  11   0   0 125.631 83.7945   4
  11   0   0 473.103 139.910   1
  11   0   1 30369.9 1100.77   4
  11   0   1 28791.8 1054.47   1
  11   0   2 27.4468 80.7729   4
  11   0   3 68.6111 85.4429   4
  11   0   4 134.502 101.884   4
  11   0   5 22999.7 1118.90   4
  11   0   5 21961.5 362.797  10
  11   0   5 22274.6 375.463  15
  11   0   5 21970.0 382.906  14
  11   0   6 111.846 34.9821  10
  11   0   6 104.276 32.4161  15
  11   0   6 141.538 38.7272  14
  11   0   7 19907.1 361.156  10
  11   0   7 21075.2 385.267  15
  11   0   8 63.0368 28.2428  10
  11   0   8 19.4308 27.6552  15
  11   0   9 1239.80 96.2851  10
  11   0   9 1435.84 105.614  15
  11   0  10 6.16005 19.8194  10
  11   0  10-31.0982 30.1561  15
  11   0  11 2332.69 124.544  10
  11   0  11 2385.21 130.277  15
  11   0  12-13.8133 17.0376  10
  11   0  12 18.9173 23.3996  15
  11   0  13 730.835 61.6974  10
  11   0  13 773.446 68.4946  15
  11   0  14-9.22845 16.1751  15
  11   0  14 19.4891 16.3216  14
  11   0  15 30.1736 15.4758  15
  11   0  15-12.5888 12.4809  14
  11   1 -15 251.824 30.3239  12
  11  -1 -15 275.543 31.3863  12
  11  -1 -14 373.427 40.6472   8
  11   1 -14 406.130 43.4703  12
  11  -1 -14 381.679 40.9272  12
  11   1 -13 89.2341 23.3229  12
  11  -1 -13 70.7803 24.6927  12
  11   1 -13 70.5733 21.3271   8
  11  -1 -13 124.533 28.1035   8
  11   1 -12 243.677 38.9070  12
  11  -1 -12 255.000 41.0770  12
  11   1 -12 237.023 40.7263   8
  11  -1 -12 220.007 40.4502   8
  11   1 -11 12.5239 21.3817  12
  11  -1 -11 20.4014 20.1302  12
  11   1 -11 10.8126 17.0594   8
  11  -1 -11 23.8722 18.6723   8
  11   1 -10 1012.27 85.7284   8
  11  -1 -10 817.770 75.1173   8
  11   1 -10 915.808 78.2371  12
  11  -1  -9 528.345 59.8023  17
  11   1  -9 629.102 69.2910   8
  11  -1  -9 502.821 60.2681   8
  11  -1  -9 504.754 62.5214   7
  11   1  -9 640.475 67.7949  12
  11   1  -8 137.465 37.5667   7
  11  -1  -8 115.656 32.5582   7
  11  -1  -8 158.806 34.1511  17
  11   1  -8 142.405 33.5954   8
  11  -1  -8 136.728 35.6691   8
  11  -1  -7 848.385 76.5662  17
  11   1  -7 864.613 80.3217   8
  11  -1  -7 999.328 82.3118   8
  11   1  -7 895.830 80.6720   7
  11  -1  -7 737.897 72.5070   7
  11   1  -6 17.0920 16.2531   7
  11  -1  -6 9.31540 17.0334   7
  11   1  -6 3.27706 13.6963  17
  11  -1  -6 26.5955 14.7827  17
  11   1  -6 10.4039 17.1425   8
  11  -1  -6-5.11583 14.1064   8
  11  -1  -5 1697.76 102.078  17
  11   1  -5 1382.90 253.788   6
  11  -1  -5 1430.54 248.575   6
  11   1  -5 1665.14 105.298   8
  11  -1  -5 1709.18 102.758   8
  11   1  -5 1678.37 105.512   7
  11  -1  -5 1684.56 102.800   7
 -11   1   4 838.612 202.711  19
 -11  -1   4 986.581 235.903  19
  11  -1  -4 629.762 165.104   6
  11   1  -4 750.798 203.373   1
  11  -1  -4 655.631 63.2970   7
  11  -1  -4 837.353 201.676   1
  11  -1  -3 641.264 170.699   1
 -11   1   3 671.233 200.109  19
 -11  -1   3 855.082 209.440  19
  11   1  -3 628.949 182.110   1
  11  -1  -3 549.070 150.792   6
  11   1  -2 1819.32 296.179   1
 -11   1   2 1758.42 298.059  19
 -11  -1   2 1629.52 289.870  19
  11  -1  -2 2043.54 303.132   1
  11   1  -2 1664.73 255.250   4
 -11   1   1 10343.9 703.535  19
  11  -1  -1 9393.70 637.969   1
  11   1  -1 8624.77 580.572   4
  11   1  -1 9261.79 657.046   1
  11  -1   0 6046.21 476.336   4
  11  -1   0 5695.13 481.643   1
  11   1   0 5609.67 493.323   1
  11   1   0 5067.23 446.908   4
  11  -1   1 13986.2 739.355   4
  11  -1   1 12828.2 695.010   1
  11   1   1 13283.4 737.717   1
  11   1   1 14397.5 767.830   4
  11   1   2 183.886 84.5844   4
  11  -1   2 177.230 63.1855   4
  11   1   2 365.959 123.153   1
  11   1   3 1070.64 237.907   4
  11  -1   3 908.262 205.118   4
  11   1   4 953.515 225.182   4
  11  -1   4 947.262 222.358   4
  11  -1   4 945.531 77.8049  10
  11  -1   4 1000.09 80.6359  15
  11  -1   4 920.753 79.4634  14
  11   1   4 862.108 212.464   2
  11   1   5 800.668 70.3820  10
  11  -1   5 851.237 73.9972  10
  11  -1   5 863.620 75.7400  15
  11   1   5 773.638 69.4436  15
  11  -1   5 897.698 80.1238  14
  11   1   5 815.515 74.3807  14
  11   1   6 1584.43 99.7454  10
  11  -1   6 1653.69 105.854  10
  11  -1   6 1838.67 113.492  15
  11   1   6 1737.57 107.381  15
  11  -1   6 1773.52 115.180  14
  11   1   6 1631.83 106.106  14
  11  -1   7 3680.41 158.034  10
  11  -1   7 3507.81 161.255  15
  11   1   7 3291.06 150.824  15
  11  -1   7 3353.42 159.613  14
  11   1   8 165.617 40.6259  10
  11  -1   8 196.353 42.0574  10
  11  -1   8 244.667 50.5550  15
  11   1   8 247.830 46.1366  15
  11  -1   9 2194.61 124.521  10
  11  -1   9 2155.71 128.729  15
  11   1   9 2090.51 123.285  15
  11  -1  10 1156.39 91.1968  10
  11  -1  10 1120.88 93.3378  15
  11   1  10 1060.88 89.4607  15
  11  -1  11 632.432 69.6917  10
  11  -1  11 649.057 71.9758  15
  11   1  11 637.346 68.2599  15
  11  -1  12 1670.60 100.496  10
  11  -1  12 1738.72 109.423  15
  11   1  12 1453.03 96.6742  15
  11  -1  13 547.484 55.4052  10
  11  -1  13 531.947 57.9611  15
  11   1  13 476.934 53.4956  15
  11  -1  13 448.325 55.8606  14
  11  -1  14 95.3586 23.1456  10
  11  -1  14 100.971 26.7313  15
  11   1  14 127.213 28.6130  15
  11  -1  14 101.360 27.3051  14
  11   1  14 85.9878 24.3196  14
  11  -1  15 33.4673 14.1206  10
  11  -1  15 45.3672 16.8610  15
  11   1  15 26.5099 13.0246  15
  11  -1  15 16.4730 14.5417  14
  11   1  15 12.5273 12.0945  14
  11   2 -15 172.267 23.8687  12
  11  -2 -15 171.843 23.6060  12
  11   2 -14 284.431 35.0492  12
  11  -2 -14 251.979 33.1462  12
  11  -2 -13 522.919 53.7898   8
  11   2 -13 530.792 51.8735  12
  11  -2 -13 590.119 53.6239  12
  11   2 -12 49.2355 20.4018  12
  11  -2 -12 67.8257 22.3923  12
  11   2 -12 64.2291 21.7102   8
  11  -2 -12 79.8118 25.6536   8
  11   2 -11 191.284 34.6498  12
  11  -2 -11 211.101 38.0490  12
  11   2 -11 189.639 34.7781   8
  11  -2 -11 290.909 45.3681   8
  11   2 -10 672.861 67.1353   8
  11  -2 -10 717.651 70.4266   8
  11   2 -10 690.031 66.0394  12
  11  -2  -9 950.336 78.8476  17
  11   2  -9 833.386 78.1325   8
  11  -2  -9 843.566 79.0651   8
  11  -2  -9 872.380 80.4504   7
  11   2  -9 783.144 71.1507  12
  11  -2  -8 1443.94 98.4846  17
  11   2  -8 1375.39 97.7088   8
  11  -2  -8 1353.64 96.9497   8
  11  -2  -8 1221.00 94.6215   7
  11   2  -8 1290.91 92.7323  12
  11  -2  -7 157.764 34.2178   7
  11   2  -7 116.940 29.3720  12
  11  -2  -7 153.680 34.0865  17
  11   2  -7 105.264 30.5486   8
  11  -2  -7 135.323 35.4770   8
  11  -2  -6 5879.65 191.558  17
  11   2  -6 5172.85 187.625   8
  11  -2  -6 5441.35 186.996   8
  11  -2  -6 5252.51 189.498   7
  11  -2  -5 1042.15 79.1937  17
  11  -2  -5 1034.96 83.6399   7
  11  -2  -4 53.4197 16.3371   7
 -11   2   4 19.9799 52.7817  19
 -11  -2   4 148.026 65.2207  19
  11  -2  -4 17.2258 49.1947   6
  11  -2  -4 64.1078 21.9889  17
  11  -2  -4 33.3909 16.7217  14
  11  -2  -3 115.280 30.2137   7
 -11  -2   3 55.8658 78.7968  19
  11  -2  -3 169.710 76.3000   6
  11  -2  -3 122.665 27.9480  17
  11  -2  -3 69.8048 19.9782  14
  11   2  -3 84.5410 63.6109   1
  11   2  -2 1.62935 61.9041   4
 -11   2   2-2.07975 37.1550  19
 -11  -2   2 254.383 155.483  19
  11  -2  -2 110.626 70.2806   6
  11   2  -2-205.754 107.890   1
  11   2  -1 16.0735 57.4579   4
 -11   2   1 82.4019 51.1593  19
 -11  -2   1 128.304 101.760  19
  11   2  -1 124.717 83.0570   1
 -11   2   0 22244.3 1050.73  19
 -11  -2   0 23611.4 1129.04  19
  11   2   0 18580.8 942.739   1
  11   2   0 17105.8 854.741   4
  11  -2   1 4912.71 445.147   4
  11   2   1 5044.00 477.577   1
  11   2   1 4729.60 460.411   4
  11  -2   2 2302.66 310.375   4
  11   2   2 1878.59 281.891   1
  11   2   2 2492.35 348.129   4
  11  -2   3 3165.93 138.809  10
  11  -2   3 3406.31 147.748  15
  11  -2   3 3079.20 143.410  14
  11   2   3 3016.41 390.168   4
  11  -2   4 1093.11 87.2488  10
  11   2   4 1136.44 241.969   2
  11  -2   4 1261.98 92.2736  15
  11  -2   4 1183.63 90.3674  14
  11  -2   5 9694.91 249.219  10
  11  -2   5 9988.86 259.020  15
  11  -2   5 9087.12 254.080  14
  11  -2   6 2666.29 134.725  10
  11  -2   6 2428.39 131.940  15
  11  -2   6 2574.85 139.178  14
  11  -2   7 27.8391 25.0345  10
  11  -2   7 40.6100 27.2667  15
  11   2   7 37.2245 21.0684  15
  11  -2   7 52.0999 26.8177  14
  11   2   7 37.0975 23.8936  14
  11  -2   8 701.659 70.2390  10
  11  -2   8 715.290 74.5072  15
  11   2   8 604.303 66.3377  15
  11  -2   8 634.395 71.4019  14
  11  -2   9 515.601 63.6362  10
  11  -2   9 487.401 63.7131  15
  11   2   9 396.862 54.5177  15
  11  -2   9 431.323 60.2918  14
  11  -2  10 809.539 78.9466  10
  11  -2  10 964.417 90.8846  15
  11   2  10 767.006 75.8090  15
  11  -2  10 793.600 83.0623  14
  11  -2  11 29.5645 21.8576  10
  11  -2  11 5.46772 21.9250  15
  11   2  11-25.6326 22.6826  15
  11  -2  11 5.39189 21.7543  14
  11  -2  12 151.081 35.6607  10
  11  -2  12 88.4343 29.6403  15
  11   2  12 49.4446 20.4915  15
  11  -2  12 81.3398 31.3377  14
  11  -2  13 153.438 31.6693  10
  11  -2  13 205.464 37.3095  15
  11   2  13 128.261 28.5725  15
  11  -2  13 140.382 36.5064  14
  11   2  13 123.193 30.0073  14
  11  -2  14 214.677 33.7293  15
  11   2  14 142.193 26.6561  15
  11  -2  14 170.712 30.4382  10
  11  -2  14 178.641 33.1304  14
  11   2  14 124.834 25.3231  14
  11  -2  15 71.2165 17.6459  10
  11  -2  15 60.5672 16.7686  15
  11   2  15 68.7524 16.5790  15
  11  -2  15 50.6040 15.9485  14
  11   3 -14 3.87818 9.49219  12
  11  -3 -14-10.7083 11.3084  12
  11   3 -13 63.3606 19.1315  12
  11  -3 -13 57.3255 21.5305  12
  11  -3 -13 36.1503 17.8931   8
  11   3 -12 9.08192 14.3345  12
  11  -3 -12 7.87604 14.7115  12
 -11   3  12 8.89218 20.2552  11
  11  -3 -12 2.53025 14.9574   8
  11  -3 -11 347.384 48.0589   8
  11   3 -11 324.543 41.6990  12
  11  -3 -11 368.499 50.3057  12
  11  -3 -10 556.990 59.9144  17
  11   3 -10 515.731 55.3575   8
  11  -3 -10 582.192 64.1420   8
  11   3 -10 472.219 53.0053  12
  11  -3  -9 3399.36 145.311  17
  11  -3  -9 3393.77 154.383   8
  11  -3  -9 3542.83 164.569   7
  11   3  -9 3089.49 134.951  12
  11  -3  -8 741.963 75.1904   8
  11  -3  -8 711.466 71.0220  17
  11  -3  -8 777.813 78.4786   7
  11  -3  -7 17.7539 17.4057   7
  11  -3  -7 5.81140 17.1791  17
  11  -3  -7 44.9109 27.2175   8
  11  -3  -6 5037.86 175.582  17
  11  -3  -6 4994.00 184.248   8
  11  -3  -6 4940.56 192.872   7
  11  -3  -5 9684.11 239.930  17
  11  -3  -5 9666.82 261.183   7
  11  -3  -4 10459.2 247.298  17
  11  -3  -4 10570.4 269.407  14
  11  -3  -4 10430.3 272.499   7
  11  -3  -3 5745.07 180.914  17
  11  -3  -3 5645.58 196.767  14
  11  -3  -3 5551.66 193.852   7
  11   3  -2 167.304 101.293   4
  11  -3  -2 17.9307 15.4708   7
 -11   3   2-50.3960 123.596  19
 -11  -3   2 43.2517 109.710  19
  11  -3  -2 42.3098 19.6767  17
  11  -3  -2 29.3700 19.4350  14
  11  -3  -1 2200.21 122.007   7
  11   3  -1 1681.30 284.338   4
 -11   3   1 1626.22 288.516  19
 -11  -3   1 1529.04 286.487  19
  11   3  -1 1590.55 301.413   1
  11  -3  -1 2120.63 108.826  17
  11  -3  -1 2103.76 120.844  14
  11  -3   0 3463.47 152.093   7
  11  -3   0 3090.07 141.890  10
 -11   3   0 2562.13 359.246  19
 -11  -3   0 2848.47 393.555  19
  11  -3   0 3254.72 134.881  17
  11   3   0 2589.48 364.615   1
  11  -3   0 3493.58 153.489  14
  11   3   0 2582.58 349.053   4
  11   3   1 1262.21 250.936   1
  11  -3   1 1664.79 102.523  10
 -11   3  -1 1453.95 265.192  19
 -11  -3  -1 1440.77 286.587  19
  11  -3   1 1696.46 99.0397  17
  11  -3   1 1619.16 107.092  14
  11   3   2-49.1577 76.5783   1
  11  -3   2 15.1001 21.4198  10
  11  -3   2-13.5439 21.6069  17
  11  -3   2 14.8237 22.6286  15
  11  -3   2 63.0650 30.4831  14
  11  -3   3 5255.56 183.993  10
  11  -3   3 5277.25 175.850  17
  11  -3   3 5301.01 189.352  15
  11  -3   3 5171.32 192.245  14
  11  -3   4 346.152 54.2561  10
  11  -3   4 283.979 42.6456  17
  11  -3   4 338.736 50.4843  15
  11  -3   4 335.302 53.2522  14
  11  -3   5 3913.53 164.292  10
  11  -3   5 3584.54 150.228  17
  11  -3   5 3947.71 168.608  15
  11  -3   5 3918.89 171.786  14
  11  -3   6 31.0909 22.1297  10
  11  -3   6 26.0285 18.1829  17
  11  -3   6 53.0664 25.2088  15
  11  -3   6 36.9577 20.2217  14
  11  -3   7 670.794 69.0634  10
  11  -3   7 681.653 68.2528  17
  11  -3   7 644.517 71.3420  15
  11  -3   7 591.643 69.9912  14
  11  -3   8 2362.61 130.489  10
  11  -3   8 2016.56 117.945  17
  11  -3   8 2382.65 138.923  15
  11  -3   8 2187.94 136.499  14
  11  -3   9 161.936 40.5412  15
  11  -3   9 139.597 36.3043  10
  11  -3   9 195.506 43.1949  14
  11  -3  10 1102.11 88.9727  10
  11  -3  10 1210.98 98.2775  15
  11   3  10 861.694 74.7014  15
  11  -3  10 1017.33 93.2265  14
  11  -3  11 323.521 49.1723  10
  11  -3  11 287.429 49.6687  15
  11   3  11 251.208 39.8943  15
  11  -3  11 258.630 47.0313  14
  11  -3  12 658.003 63.3968  10
  11  -3  12 658.629 66.5744  15
  11   3  12 543.083 54.5903  15
  11  -3  12 667.992 68.5772  14
  11  -3  13 26.1708 19.6893  10
  11  -3  13-9.40368 18.3539  15
  11   3  13 24.5574 17.9613  15
  11  -3  13 25.4281 19.7841  14
  11  -3  14 243.928 33.4378  10
  11  -3  14 210.206 29.4584  15
  11   3  14 185.038 25.4693  15
  11  -3  14 200.376 30.9087  14
 -11   4  13 485.548 43.1084  11
  11  -4 -13 512.267 41.8414  12
 -11   4  12 631.808 60.1774  11
  11  -4 -12 606.620 53.4706   8
  11  -4 -12 732.588 57.5537  12
  11  -4 -11 192.726 34.9988  12
 -11   4  11 214.052 42.0085  11
  11  -4 -11 165.242 33.4392   8
  11  -4 -10 306.453 44.1843  17
  11  -4 -10 317.799 47.0656   8
  11  -4  -9 2210.89 116.650  17
  11  -4  -9 2351.23 129.735   8
  11  -4  -8 3364.89 145.091  17
  11  -4  -8 3579.09 164.163   8
  11  -4  -8 3531.64 169.179   7
  11  -4  -7 51.6602 30.9974   7
  11  -4  -7 50.1441 25.6841  17
  11  -4  -7 61.7027 28.4069   8
  11  -4  -6 53.9581 29.3321   7
  11  -4  -6 64.1371 28.3388  17
  11  -4  -6 78.1177 28.7962   8
  11  -4  -5 1906.67 108.617  17
  11  -4  -5 2016.56 120.940   8
  11  -4  -5 2039.40 127.124   7
  11  -4  -4 1426.17 94.0316  17
  11  -4  -4 1786.42 117.531   7
  11  -4  -3 2272.94 116.936  17
  11  -4  -3 2396.60 134.088  14
  11  -4  -3 2185.39 129.743   7
  11  -4  -2-9.87311 25.6056   7
  11  -4  -2 33.5186 17.8212  17
  11  -4  -2 9.73342 19.0483  14
  11  -4  -1 1498.66 107.068   7
  11  -4  -1 1356.22 88.9999  17
  11  -4  -1 1337.25 100.475  14
  11  -4   0 3300.24 157.365   7
  11  -4   0 3433.63 148.886  10
  11  -4   0 3364.21 139.149  17
  11  -4   0 3362.73 156.515  14
  11  -4   1 32.3364 22.8129   7
  11  -4   1 27.0381 23.7078  10
  11  -4   1 17.1920 15.8714  17
  11  -4   1 16.9291 20.9590  14
  11  -4   2 6214.93 203.193  10
  11  -4   2 6455.12 197.863  17
  11  -4   2 6395.55 215.715  14
  11  -4   3 128.063 36.3328  10
  11  -4   3 125.371 30.8218  17
  11  -4   3 144.181 34.8860  14
  11  -4   4 6966.93 221.477  10
  11  -4   4 7052.65 212.581  17
  11  -4   4 6752.83 224.363  15
  11  -4   4 6844.70 225.593  14
  11   4   4 7215.01 225.304  13
  11  -4   5 79.4168 31.8223  10
  11  -4   5 49.7474 22.8689  17
  11  -4   5 77.0054 30.0209  15
  11  -4   5 63.0799 27.2679  14
  11  -4   6 4823.06 185.335  10
  11  -4   6 4533.68 176.774  17
  11  -4   6 4551.28 186.790  15
  11  -4   6 4430.87 187.643  14
  11  -4   7 15.0670 23.0581  10
  11  -4   7 10.5559 17.7239  17
  11  -4   7 34.0859 21.1451  15
  11  -4   7 45.6153 25.1715  14
  11  -4   8 83.9905 30.3508  10
  11  -4   8 98.2703 29.0706  17
  11  -4   8 101.322 31.6383  15
  11  -4   8 82.2198 26.8725  14
  11  -4   9 68.3990 30.7011  10
  11  -4   9 48.2370 22.9548  17
  11  -4   9 45.9756 20.6731  15
  11  -4   9 55.2474 26.6961  14
  11  -4  10 581.018 64.8729  10
  11  -4  10 557.328 59.7154  17
  11  -4  10 636.640 68.3155  15
  11  -4  10 628.373 69.5301  14
  11  -4  11 184.035 38.7454  10
  11  -4  11 132.271 29.6061  17
  11  -4  11 139.278 31.9965  15
  11  -4  11 173.637 37.5399  14
  11  -4  12 245.335 39.8329  10
  11  -4  12 261.034 38.1313  15
  11  -4  12 221.067 37.4897  14
  11  -4  13 116.800 26.5300  10
  11  -4  13 54.4256 16.9976  15
  11  -4  13 62.0740 20.0776  14
  11  -4  14 415.851 38.1867  10
 -11   5  12 263.359 35.5688  11
 -11   5  11 129.087 31.9938  11
  11  -5 -10 202.730 36.4130  12
 -11   5  10 177.851 38.9211  11
 -11   5  10 184.430 34.7455  16
 -11   5   9 534.033 63.8020  11
  11  -5  -9 653.220 62.9973  17
  11  -5  -8 181.852 35.4707  17
  11  -5  -8 207.896 40.0507   8
  11  -5  -7 3086.07 141.124  17
  11  -5  -7 3161.78 152.190   8
  11  -5  -7 3146.10 154.912   7
  11  -5  -6 538.597 59.6157  17
  11  -5  -6 477.946 61.2311   8
  11  -5  -6 463.631 63.9986   7
  11  -5  -5 2740.52 131.754  17
  11  -5  -5 2600.93 139.102   8
  11  -5  -5 2468.26 139.383   7
  11  -5  -4 934.550 77.1529  17
  11  -5  -4 973.038 88.5506   7
  11  -5  -3 11.7863 25.2517   7
  11  -5  -3 55.9744 26.1191  17
  11  -5  -2 3377.04 142.088  17
  11  -5  -2 3528.04 161.806  14
  11  -5  -2 3318.22 161.196   7
  11  -5  -1 2398.64 121.481  17
  11  -5  -1 2412.24 135.704  14
  11  -5  -1 2398.74 135.337   7
  11  -5   0 2699.77 141.531   7
  11  -5   0 2761.67 129.276  17
  11  -5   0 2582.96 138.814  14
  11  -5   1-7.30445 26.9062   7
  11  -5   1 8.51584 16.2036  17
  11  -5   1 10.1371 18.5329  14
  11  -5   2 90.6842 25.8277   7
  11  -5   2 151.983 36.9940  10
  11  -5   2 151.229 33.7126  17
  11  -5   2 109.192 29.0927  14
  11  -5   3 198.871 39.6924  10
  11  -5   3 150.267 33.6142  17
  11  -5   3 149.494 34.4349  14
  11   5   3 215.433 41.4804  13
  11  -5   4 224.334 42.3024  10
  11  -5   4 247.723 41.7225  17
  11  -5   4 280.574 46.2357  14
  11   5   4 261.541 46.7454  13
  11  -5   5 2141.86 122.723  10
  11  -5   5 2251.37 121.922  17
  11  -5   5 1920.76 118.828  14
  11   5   5 2215.89 122.150  13
  11  -5   6 1006.45 85.5470  10
  11  -5   6 1075.18 88.7098  17
  11  -5   6 992.464 86.7825  14
  11  -5   7 554.672 65.3035  10
  11  -5   7 605.162 67.8957  17
  11  -5   7 505.024 62.4535  14
  11  -5   8 105.468 29.0947  17
  11  -5   8 135.135 34.0428  14
  11  -5   8 83.1725 28.2093  10
  11  -5   9 51.0990 25.3507  10
  11  -5   9 25.7913 19.2077  17
  11  -5   9 39.1330 21.4000  14
  11  -5  10 454.204 54.6715  10
  11  -5  10 438.479 50.0651  17
  11  -5  10 383.053 49.1144  14
  11  -5  11 49.6832 22.2176  10
  11  -5  11 51.8910 19.3861  17
  11  -5  12 193.236 32.8507  10
  11  -5  12 143.180 23.8461  17
  11  -5  13 31.6401 14.9536  10
 -11   6  12-10.8724 13.4906  11
 -11   6  11-14.7812 18.6554  11
 -11   6  11 24.3230 12.6325  16
 -11   6  10-3.84149 19.0613  11
 -11   6  10 8.90409 14.8664  16
 -11   6   9 1717.56 96.9131  11
  11  -6  -9 1763.82 94.4606  17
 -11   6   8 301.261 47.3333  11
  11  -6  -8 381.889 47.8410  17
 -11   6   7 204.410 47.5777  11
  11  -6  -7 158.641 32.8114  17
 -11   6   6 145.758 42.2273  11
  11  -6  -6 114.348 32.0681  17
 -11   6   5 13.9454 26.9796  11
  11  -6  -5-14.0887 22.1847  17
  11  -6  -4 132.674 31.9307  17
  11  -6  -3 2955.04 138.044  17
  11  -6  -2 27.2042 24.1865  17
  11  -6  -1 1367.26 91.5396  17
  11  -6   0 1043.76 81.3681  17
  11  -6   1 108.452 28.6056  17
  11  -6   2 349.261 47.2554  17
  11   6   2 436.920 54.1926  13
  11  -6   3-11.9375 22.5837  17
  11   6   3 44.8750 23.0687  13
  11  -6   4 6.85912 16.8701  17
  11   6   4 28.4896 22.4424  13
  11  -6   5 801.198 70.9080  17
  11   6   5 733.926 72.0255  13
  11  -6   6 397.328 50.2530  10
  11  -6   6 343.094 51.4234  17
  11  -6   7 474.520 55.1108  10
  11  -6   7 505.407 56.6079  17
  11  -6   8 72.3812 25.1066  10
  11  -6   8 67.2307 26.3267  17
  11  -6   9 76.6515 22.4719  10
  11  -6   9 81.6982 25.2635  17
  11  -6  10-11.8316 18.6870  10
  11  -6  10-2.31047 13.1353  17
  11  -6  11 9.33436 12.6965  10
  11  -6  11 36.6556 15.8534  17
 -11   7  10 7.24407 12.5519  11
 -11   7  10 28.5668 12.8590  16
 -11   7   9 524.464 47.8825  11
 -11   7   9 461.537 42.0848  16
 -11   7   8 9.14452 18.7498  11
  11  -7  -8 32.2500 17.1752  17
 -11   7   7 463.531 53.6051  11
  11  -7  -7 488.756 50.3544  17
 -11   7   6-5.03492 22.2513  11
  11  -7  -6 0.86747 16.8781  17
 -11   7   5 420.331 58.3453  11
  11  -7  -5 555.938 56.6064  17
 -11   7   4 9.84988 22.4027  11
  11  -7  -4-5.90414 19.5089  17
 -11   7   3 519.393 63.6212  11
  11  -7  -3 608.071 60.7160  17
  11  -7  -2 25.9819 17.3332  17
  11  -7  -1 368.359 46.8625  17
  11  -7   0 14.0162 17.4442  17
  11  -7   1 128.149 30.0862  17
  11  -7   2 99.4744 25.3714  17
  11   7   2 87.5679 28.4148  13
  11  -7   3 119.272 30.8485  17
  11   7   3 108.829 28.5115  13
  11  -7   4 65.8839 24.3989  17
  11   7   4 90.1363 29.4092  13
  11  -7   5 218.531 37.3404  17
  11  -7   6 903.054 71.1157  17
  11  -7   7 287.611 40.2065  17
  11  -7   8 375.380 43.4407  17
  11  -7   9 280.829 35.3310  17
  11  -7  10 17.0434 10.1298  17
 -11   8   8 177.811 24.5364  11
 -11   8   8 200.935 25.2514  16
 -11   8   7 112.461 23.2072  11
 -11   8   6 187.343 31.5116  11
 -11   8   5 138.715 26.8380  11
  11  -8  -4 136.722 26.0741  17
  11  -8  -3 52.2792 17.2670  17
  11  -8  -2 0.31844 14.9243  17
  11  -8  -1 212.285 33.2658  17
  11  -8   0 32.1357 16.7613  17
  11  -8   1 985.300 69.0165  17
  11  -8   2 531.844 50.9896  17
  11   8   2 530.636 48.7034  13
  11  -8   3 558.280 51.1436  17
  11   8   3 501.306 48.7976  13
  11  -8   4 885.426 63.4321  17
  11  -8   5 624.801 53.1711  17
  11  -8   6 566.556 49.3332  17
  11  -8   7 1165.50 66.2621  17
  11  -8   8 203.496 26.4371  17
  11  -9   1 383.084 34.2050  17
  11  -9   2 263.494 28.2534  17
  12   0 -15 14.4609 9.90996  12
  12   0 -14 175.487 28.6668  12
  12   0 -13 16.6916 16.1885  12
  12   0 -13 8.80525 14.2923   8
  12   0 -12 1010.86 74.3801   8
  12   0 -12 1070.39 74.8697  12
  12   0 -11 2.59089 19.5237  12
  12   0 -11 21.8939 20.6627   8
  12   0 -10 346.733 51.3483  12
  12   0 -10 432.265 55.9459   8
  12   0  -9 28.9162 26.4866   8
  12   0  -8 2870.20 143.683   8
  12   0  -8 2728.49 138.374   7
  12   0  -7 43.7334 27.5498   7
  12   0  -7 17.8072 20.1554  17
  12   0  -7 44.0645 22.1498   8
  12   0  -6 3115.24 141.590  17
  12   0  -6 3243.97 150.450   8
  12   0  -6 3381.51 152.109   7
  12   0  -5 53.5457 24.3568   7
  12   0  -5 58.9916 24.4248  17
  12   0  -5 25.0227 16.9474   8
  12   0  -4 1908.54 108.432  17
  12   0  -4 1924.17 108.953  14
  12   0  -4 2045.92 115.305   8
  12   0  -4 1946.63 112.057   7
  12   0  -3-13.5032 22.0351   7
  12   0  -3 63.4007 17.2697  14
  12   0  -2 698.263 64.3817  14
  12   0  -2 610.601 62.2649   7
  12   0  -1 30.8567 16.0486   7
 -12   0   1 36.7140 63.9982  19
  12   0  -1-47.7484 58.8358   1
  12   0  -1 28.0237 18.7525  14
  12   0   0 4776.55 172.461   7
  12   0   0 4415.01 456.815   1
 -12   0   0 5598.75 559.773  19
  12   0   0 4755.82 168.412  14
  12   0   0 4618.69 446.210   4
  12   0   1-56.2732 57.7713   1
  12   0   1 77.3072 78.3701   4
  12   0   1 26.2138 21.4941  10
  12   0   1 24.3927 23.0238  15
  12   0   1 49.1423 24.4250  14
  12   0   2 123.735 71.7219   4
  12   0   2 263.741 44.9857  10
  12   0   2 229.751 39.6827  15
  12   0   2 218.843 38.8249  14
  12   0   3-3.82360 22.2333  10
  12   0   3-9.45894 21.0547  15
  12   0   3 8.50911 16.4304  14
  12   0   4 1125.97 83.7563  10
  12   0   4 1101.03 86.8131  15
  12   0   4 1122.23 89.1244  14
  12   0   5 21.4582 29.8271  10
  12   0   5 15.9634 19.9679  15
  12   0   5-11.1348 17.8183  14
  12   0   6 732.354 71.5925  10
  12   0   6 705.084 74.0391  15
  12   0   6 654.465 74.0728  14
  12   0   7-7.56427 23.5302  10
  12   0   7 32.0322 25.2537  15
  12   0   7 19.5934 19.2502  14
  12   0   8 3501.85 154.366  10
  12   0   8 3659.67 162.752  15
  12   0   8 3340.22 160.239  14
  12   0   9 3.13196 19.8699  10
  12   0   9-10.5228 26.7020  15
  12   0   9-3.53832 18.5487  14
  12   0  10 558.529 62.3694  10
  12   0  10 605.480 67.6442  15
  12   0  10 579.401 66.6641  14
  12   0  11-9.13503 20.0101  10
  12   0  11-18.5369 21.4542  15
  12   0  11-26.0542 26.9029  14
  12   0  12-2.58573 18.2028  10
  12   0  12 13.1282 19.6575  15
  12   0  12 0.49454 18.5445  14
  12   0  13 36.4373 21.3866  15
  12   0  13-0.63686 17.6226  14
  12   0  14 1077.80 67.0698  15
  12   0  14 1106.75 69.0834  14
  12   0  15 7.31474 10.8339  15
  12   1 -15 38.9331 12.0304  12
  12  -1 -15 29.4636 11.2738  12
  12   1 -14 23.5803 14.8418  12
  12  -1 -14 24.7423 15.0352  12
  12   1 -13 106.226 25.3657  12
  12  -1 -13 93.0077 24.1650  12
  12  -1 -13 72.1902 21.2228   8
  12   1 -12-10.2589 18.7256  12
  12  -1 -12 28.7017 17.1369  12
  12   1 -12 6.76726 19.6654   8
  12  -1 -12 6.73993 15.9590   8
  12   1 -11 99.2823 29.9043  12
  12  -1 -11 153.766 33.9238  12
  12   1 -11 187.182 36.2272   8
  12  -1 -11 109.395 28.3066   8
  12   1 -10 246.829 43.7740  12
  12  -1 -10 173.471 37.2644  12
  12   1 -10 239.580 42.0570   8
  12  -1 -10 155.535 34.1048   8
  12   1  -9 2794.07 137.989   8
  12  -1  -9 2757.90 133.913   8
  12  -1  -9 2726.64 139.000   7
  12   1  -9 2853.25 135.583  12
  12  -1  -8 7241.33 217.241  17
  12   1  -8 7679.89 230.097   8
  12  -1  -8 7200.15 221.665   8
  12   1  -8 7556.38 232.579   7
  12  -1  -8 7332.38 222.615   7
  12   1  -8 7275.47 221.355  12
  12   1  -7 78.9878 33.3260   7
  12  -1  -7 37.0571 24.3436   7
  12  -1  -7 31.3139 20.0083  17
  12   1  -7 71.5590 30.4286   8
  12  -1  -7 40.9615 25.2257   8
  12  -1  -6 1375.22 96.3847  17
  12   1  -6 1450.13 101.268   8
  12  -1  -6 1486.19 99.7649   8
  12   1  -6 1378.39 99.7567   7
  12  -1  -6 1442.83 98.7012   7
  12  -1  -5 1330.00 91.8115  17
  12   1  -5 1248.53 93.5347   8
  12  -1  -5 1357.55 93.4546   8
  12   1  -5 1291.16 97.0679   7
  12  -1  -5 1347.97 96.1375   7
  12  -1  -4 443.943 53.8863  17
  12  -1  -4 409.066 51.7500  14
  12   1  -4 442.179 54.9680   8
  12   1  -4 440.591 54.5412   7
  12  -1  -4 448.021 54.9274   7
  12  -1  -3 1042.15 79.4615  17
  12  -1  -3 933.801 77.5119  14
  12   1  -3 983.135 79.6306   8
  12   1  -3 1015.18 81.5379   7
  12  -1  -3 1020.68 80.2678   7
  12  -1  -2 6238.64 195.516   7
  12  -1  -2 5512.61 178.867  17
  12  -1  -2 6143.25 192.790  14
  12   1  -2 5435.87 183.839   7
  12   1  -1 455.580 52.7981   7
  12   1  -1 488.914 175.193   1
  12  -1  -1 550.098 60.2475   7
  12   1  -1 408.495 141.726   4
  12  -1  -1 459.875 149.015   1
  12  -1  -1 485.607 53.9917  17
  12  -1  -1 529.125 57.3201  14
  12   1   0 1879.89 107.282   7
  12  -1   0 2406.46 122.157   7
  12  -1   0 1926.64 298.059   1
 -12  -1   0 2566.11 388.183  19
 -12   1   0 2307.47 354.866  19
  12  -1   0 2387.28 121.811  14
  12   1   0 1990.26 308.746   1
  12   1   0 1918.15 290.203   4
  12  -1   1 3976.57 421.765   4
  12   1   1 3727.37 150.608   7
  12  -1   1 4342.80 157.799  10
  12  -1   1 4544.85 169.190  15
  12   1   1 3545.47 405.896   1
  12   1   1 3645.78 148.663  14
  12  -1   1 4168.99 165.804  14
  12   1   1 3753.27 420.675   4
  12   1   2 2325.82 115.221  10
  12  -1   2 2620.10 124.815  10
  12  -1   2 2427.58 126.784  15
  12   1   2 2255.50 118.462  14
  12  -1   2 2605.96 130.467  14
  12   1   3 176.290 33.9229  10
  12  -1   3 288.285 47.7624  10
  12  -1   3 223.307 41.0961  15
  12   1   3 168.617 35.5814  14
  12  -1   3 176.092 35.2951  14
  12   1   4 9522.95 240.086  10
  12  -1   4 10075.6 256.437  10
  12  -1   4 10116.5 262.594  15
  12   1   4 8982.89 240.608  15
  12  -1   4 10618.0 270.806  14
  12   1   4 9596.09 252.230  14
  12   1   5 64.1872 20.4279  10
  12  -1   5 87.8473 29.5928  10
  12  -1   5 85.1232 23.4754  15
  12   1   5 88.1951 28.8250  15
  12  -1   5 72.9089 23.4742  14
  12   1   5 109.566 32.7362  14
  12   1   6 2940.46 138.173  10
  12  -1   6 3099.94 143.566  10
  12  -1   6 3033.72 149.252  15
  12   1   6 2852.08 140.281  15
  12  -1   6 3221.02 154.163  14
  12   1   6 2782.42 141.127  14
  12   1   7 2664.53 134.652  10
  12  -1   7 2844.56 141.321  10
  12  -1   7 3022.45 149.152  15
  12   1   7 2745.50 138.491  15
  12  -1   7 2809.69 146.623  14
  12   1   7 2708.03 140.477  14
  12   1   8 58.3309 26.2931  10
  12  -1   8 65.0523 27.1198  10
  12  -1   8 75.5911 26.6827  15
  12   1   8 58.7608 30.0606  15
  12  -1   8 38.2586 22.2966  14
  12   1   8 71.4312 29.2544  14
  12  -1   9 24.1692 22.4200  10
  12  -1   9 57.0400 27.2394  15
  12   1   9 39.0821 23.1244  15
  12  -1   9 41.4203 23.7284  14
  12   1   9 56.9586 26.2001  14
  12  -1  10 8.79886 21.1219  10
  12  -1  10 28.7673 24.7030  15
  12   1  10 14.1012 20.8224  15
  12  -1  10 14.2175 18.9448  14
  12   1  10 84.7439 26.0520  14
  12  -1  11 37.8693 21.0573  10
  12  -1  11 136.896 38.7993  15
  12   1  11 108.655 30.9500  15
  12  -1  11 169.254 40.6631  14
  12   1  11 48.5969 19.6107  14
  12  -1  12 405.553 49.8133  10
  12  -1  12 439.807 53.6442  15
  12   1  12 354.466 47.1491  15
  12  -1  12 346.365 50.7390  14
  12   1  12 341.111 47.3897  14
  12  -1  13 452.331 47.0110  10
  12  -1  13 508.328 52.9062  15
  12   1  13 481.747 49.8066  15
  12  -1  13 397.468 48.2795  14
  12   1  13 404.813 46.4069  14
  12  -1  14 51.4969 16.8555  10
  12  -1  14 47.2421 18.4510  15
  12   1  14 41.6917 15.2367  15
  12  -1  14 32.8831 17.7999  14
  12   1  14 39.7037 15.5236  14
  12   2 -14 67.2215 16.5378  12
  12  -2 -14 74.3347 17.3191  12
  12  -2 -13 255.265 33.8375  12
  12  -2 -13 222.783 32.3279   8
  12   2 -13 218.346 31.3904  12
  12   2 -12 9.01504 15.7425  12
  12  -2 -12 31.8489 15.7948  12
  12  -2 -12 19.1013 15.8469   8
  12   2 -11 2.00768 18.6253  12
  12  -2 -11-22.1676 21.3862  12
  12   2 -11-6.40481 16.5547   8
  12  -2 -11 7.61312 20.7437   8
  12   2 -10 7.77233 19.6977  12
  12   2 -10-0.16633 17.5737   8
  12  -2 -10 37.5274 18.7259   8
  12  -2  -9 874.484 73.9379  17
  12   2  -9 892.305 75.1216   8
  12  -2  -9 810.006 74.0118   8
  12  -2  -9 783.075 74.2225   7
  12   2  -9 822.021 70.6169  12
  12  -2  -8 4602.68 170.823  17
  12   2  -8 4394.82 171.096   8
  12  -2  -8 4026.13 168.339   8
  12  -2  -8 4168.78 171.671   7
  12   2  -8 4453.03 166.485  12
  12  -2  -7 7610.51 220.235  17
  12   2  -7 6882.98 216.386   8
  12  -2  -7 6745.08 211.236   8
  12  -2  -7 6763.97 214.131   7
  12   2  -7 6959.77 210.948  12
  12  -2  -6 1618.01 103.258  17
  12   2  -6 1386.67 97.6269   8
  12  -2  -6 1365.56 95.6668   8
  12  -2  -6 1353.30 97.0223   7
  12  -2  -5 75.7004 29.6498   7
  12  -2  -5 32.5031 17.6725  17
  12  -2  -5 80.7398 28.5815   8
  12  -2  -4 52.6084 18.6786   7
  12  -2  -4 92.3296 27.8080  17
  12  -2  -4 67.5821 17.9769  14
  12  -2  -3 7393.95 210.842  17
  12  -2  -3 7465.09 220.658  14
  12  -2  -3 7637.35 220.528   7
  12  -2  -2 455.872 55.9203   7
  12  -2  -2 464.578 56.0077  17
  12  -2  -2 437.121 53.3886  14
  12  -2  -1 5838.11 191.933   7
  12  -2  -1 5180.16 174.265  17
  12  -2  -1 5735.59 193.552  14
  12  -2   0 1257.59 91.2934   7
  12  -2   0 1122.06 81.1858  17
  12  -2   0 1261.82 93.5580  14
  12  -2   1 4022.27 155.495  10
  12  -2   1 3772.57 146.104  17
  12  -2   1 4284.35 168.311  14
  12  -2   2 2600.40 126.808  10
  12  -2   2 2402.79 117.219  17
  12  -2   2 2773.58 138.099  15
  12  -2   2 2709.59 135.500  14
  12  -2   3 347.255 52.2758  10
  12  -2   3 352.484 51.0650  15
  12  -2   3 367.171 52.1444  14
  12  -2   4 199.104 38.8958  10
  12  -2   4 152.608 35.1625  15
  12  -2   4 176.322 40.2872  14
  12  -2   5 95.3772 31.8962  10
  12  -2   5 72.8284 30.1852  15
  12  -2   5 37.8447 25.3149  14
  12  -2   6 710.966 69.8884  10
  12  -2   6 727.274 74.3171  15
  12  -2   6 694.968 76.1074  14
  12  -2   7 2818.91 143.221  10
  12  -2   7 2939.23 148.152  15
  12   2   7 2532.20 130.388  15
  12  -2   7 2871.95 148.381  14
  12  -2   8 503.362 61.3877  10
  12  -2   8 414.042 59.3334  15
  12   2   8 430.656 56.0771  15
  12  -2   8 428.922 60.0300  14
  12   2   8 379.681 53.6217  14
  12  -2   9 24.2650 21.9023  10
  12  -2   9 16.1406 26.8357  15
  12   2   9-13.9096 22.1178  15
  12  -2   9-5.75949 23.3643  14
  12   2   9 3.48482 18.4813  14
  12  -2  10 761.154 73.9047  10
  12  -2  10 651.099 72.1740  15
  12   2  10 545.805 59.8941  15
  12  -2  10 620.284 70.4250  14
  12   2  10 504.788 60.0242  14
  12  -2  11 44.7076 24.4562  10
  12  -2  11 67.3055 30.9379  15
  12   2  11 54.4321 24.1105  15
  12  -2  11 81.2492 32.7077  14
  12   2  11 48.5554 22.5605  14
  12  -2  12 89.0843 27.4582  10
  12  -2  12 115.794 30.6278  15
  12   2  12 92.1315 25.8209  15
  12  -2  12 110.192 31.8189  14
  12   2  12 99.3842 26.4909  14
  12  -2  13 183.014 32.7590  10
  12  -2  13 162.280 31.0844  15
  12   2  13 157.772 28.2908  15
  12  -2  13 133.372 31.2692  14
  12   2  13 132.363 26.2487  14
  12  -2  14 109.182 22.8720  10
  12  -2  14 113.887 22.9954  15
  12   2  14 90.7712 19.6624  15
  12  -2  14 105.002 22.6115  14
  12   3 -13 30.4280 13.5340  12
  12  -3 -13 21.6725 11.9236  12
  12  -3 -13 10.6884 10.5810   8
  12   3 -12 108.629 22.9921  12
  12  -3 -12 121.682 24.5536  12
 -12   3  12 142.505 31.7138  11
  12   3 -11 98.7515 23.5075  12
  12  -3 -11 107.907 26.1964  12
  12  -3 -11 108.513 28.1377   8
  12   3 -10 50.1558 19.1685  12
  12  -3 -10 79.1936 27.4684   8
  12  -3  -9 190.302 36.1762  17
  12  -3  -9 190.652 40.0512   8
  12  -3  -8 865.015 74.2825  17
  12  -3  -8 879.823 80.5460   8
  12  -3  -8 895.398 81.1297   7
  12  -3  -7 977.700 79.5000  17
  12  -3  -7 950.529 82.4936   8
  12  -3  -7 958.408 87.6231   7
  12  -3  -6 301.575 48.2155   7
  12  -3  -6 384.600 49.7254  17
  12  -3  -6 331.638 50.2088   8
  12  -3  -5 276.118 47.8895   7
  12  -3  -5 211.126 39.5107  17
  12  -3  -5 199.742 43.6491   8
  12  -3  -4 450.949 56.4959  17
  12  -3  -4 441.860 57.9316   7
  12  -3  -3 819.236 71.7864  17
  12  -3  -3 695.790 72.4257  14
  12  -3  -3 752.351 74.3937   7
  12  -3  -2 7588.53 211.166  17
  12  -3  -2 7567.03 228.620  14
  12  -3  -2 7396.20 228.647   7
  12  -3  -1 2618.08 135.296   7
  12  -3  -1 2841.71 129.388  17
  12  -3  -1 2579.63 135.931  14
  12  -3   0 7246.88 223.084   7
  12  -3   0 7298.36 205.750  17
  12  -3   0 7406.78 227.428  14
  12  -3   1 1350.03 98.5682   7
  12  -3   1 1390.27 95.9050  10
  12  -3   1 1279.69 88.2962  17
  12  -3   1 1362.39 99.7011  14
  12  -3   2 1761.97 107.341  10
  12  -3   2 1544.25 97.0056  17
  12  -3   2 1567.17 105.596  14
  12  -3   3 229.772 43.4828  10
  12  -3   3 189.185 33.8297  17
  12  -3   3 186.640 41.6126  15
  12  -3   3 179.748 43.4239  14
  12  -3   4 362.470 56.6762  10
  12  -3   4 315.409 45.1515  17
  12  -3   4 361.725 53.1945  15
  12  -3   4 312.002 52.1299  14
  12  -3   5 1576.25 104.173  10
  12  -3   5 1471.17 96.0109  17
  12  -3   5 1516.91 107.021  15
  12  -3   5 1556.24 108.545  14
  12  -3   6 1307.92 96.4445  10
  12  -3   6 1096.71 85.1937  17
  12  -3   6 1275.03 99.7049  15
  12  -3   6 1224.36 98.2235  14
  12  -3   7 27.7435 26.0299  10
  12  -3   7 34.0921 16.7568  17
  12  -3   7 34.6451 25.2674  15
  12  -3   7 18.0121 19.8062  14
  12  -3   8 809.570 77.0188  10
  12  -3   8 836.700 82.3091  15
  12  -3   8 794.277 80.5261  14
  12  -3   9 104.962 30.4461  10
  12  -3   9 100.646 32.2359  15
  12  -3   9 112.946 36.3635  14
  12  -3  10 23.3993 22.0841  10
  12  -3  10 41.7166 25.7310  15
  12  -3  10 39.4291 25.4130  14
  12  -3  11 194.186 38.8512  10
  12  -3  11 204.773 39.3246  15
  12  -3  11 169.512 40.1704  14
  12  -3  12 120.074 29.1009  10
  12  -3  12 69.6102 23.9853  15
  12  -3  12 57.7070 24.2923  14
  12  -3  13 48.4155 20.4451  10
  12  -3  13 67.3942 21.4757  15
  12  -3  13 53.7120 20.1338  14
  12  -3  14 48.9303 16.6804  10
 -12   4  12 295.924 38.2642  11
  12  -4 -12 244.730 31.4384   8
  12  -4 -12 293.350 34.1904  12
 -12   4  11 269.750 42.7764  11
  12  -4 -11 305.136 39.7778   8
  12  -4 -11 345.323 42.2113  12
  12  -4 -10 636.478 61.0637   8
  12  -4  -9 162.300 35.0738  17
  12  -4  -9 127.550 33.0372   8
  12  -4  -8 37.9101 22.5225   7
  12  -4  -8 58.7374 25.7017   8
  12  -4  -7 64.6815 29.8206   7
  12  -4  -7 62.0162 23.7660  17
  12  -4  -7 58.2246 25.6787   8
  12  -4  -6 3852.22 153.319  17
  12  -4  -6 3911.14 168.623   8
  12  -4  -6 4116.48 177.077   7
  12  -4  -5 18.0104 21.0511   7
  12  -4  -5 47.7702 22.7289  17
  12  -4  -5 4.05870 17.3605   8
  12  -4  -4 26.7529 19.2257   7
  12  -4  -4 38.5173 21.1624  17
  12  -4  -3 2749.81 128.308  17
  12  -4  -3 2842.66 148.492   7
  12  -4  -2 102.866 29.2027   7
  12  -4  -2 158.264 34.1698  17
  12  -4  -2 98.7251 30.7761  14
  12  -4  -1 176.165 38.7917   7
  12  -4  -1 183.612 36.5712  17
  12  -4  -1 158.477 37.7832  14
  12  -4   0 3874.52 170.012   7
  12  -4   0 3705.24 148.616  17
  12  -4   0 3645.33 166.067  14
  12  -4   1 967.799 86.3282   7
  12  -4   1 1100.26 88.7230  10
  12  -4   1 1046.17 80.6595  17
  12  -4   1 992.216 87.1108  14
  12  -4   2 82.1720 27.2219   7
  12  -4   2 95.4008 31.9088  10
  12  -4   2 70.1188 25.4101  17
  12  -4   2 69.5926 25.7505  14
  12  -4   3 321.988 48.8490  10
  12  -4   3 277.857 44.2191  17
  12  -4   3 307.078 49.1901  14
  12  -4   4 1426.99 99.4540  10
  12  -4   4 1382.29 94.0525  17
  12  -4   4 1427.40 104.127  14
  12  -4   5 2965.67 145.707  10
  12  -4   5 2938.14 136.441  17
  12  -4   5 2863.61 147.794  14
  12  -4   6 1197.17 93.7458  10
  12  -4   6 1026.01 84.2150  17
  12  -4   6 1189.22 95.2723  15
  12  -4   6 1047.73 91.1746  14
  12  -4   7 1896.07 115.592  10
  12  -4   7 1822.16 108.025  17
  12  -4   7 1842.11 120.045  15
  12  -4   7 1787.31 117.212  14
  12  -4   8 374.460 52.9151  10
  12  -4   8 290.301 44.0859  17
  12  -4   8 339.322 51.9001  15
  12  -4   8 388.216 56.5844  14
  12  -4   9 479.347 59.2355  10
  12  -4   9 468.923 52.9081  17
  12  -4   9 447.535 57.8045  15
  12  -4   9 473.097 60.7779  14
  12  -4  10 242.007 39.8368  10
  12  -4  10 175.440 30.7455  17
  12  -4  10 162.927 35.9080  15
  12  -4  10 202.801 40.7555  14
  12  -4  11 433.066 52.2337  10
  12  -4  11 361.405 46.8917  15
  12  -4  11 399.013 48.5743  14
  12  -4  12 1.07080 16.6844  10
  12  -4  12 17.3186 14.4817  14
  12  -4  13 5.13832 13.2353  10
 -12   5  12 28.8255 14.4974  11
 -12   5  11 651.862 56.3514  11
  12  -5 -11 608.250 46.6127  12
  12  -5 -10 77.6233 22.9255  12
 -12   5  10 75.1943 29.3563  11
 -12   5   9 94.9616 30.7772  11
  12  -5  -9 110.765 27.6470  17
  12  -5  -9 78.6890 22.6074   8
  12  -5  -8 89.9441 32.3823  17
  12  -5  -8 88.1185 27.5002   8
  12  -5  -7 178.551 41.3091   7
  12  -5  -7 155.783 34.9968  17
  12  -5  -7 137.962 33.1045   8
  12  -5  -6 51.8021 25.0331   7
  12  -5  -6 34.1120 23.3780  17
  12  -5  -6 34.4959 21.6224   8
  12  -5  -5 758.890 69.7484  17
  12  -5  -5 759.101 73.8868   8
  12  -5  -5 696.353 73.6203   7
  12  -5  -4 35.6084 24.4853   7
  12  -5  -4-14.8437 21.8410  17
  12  -5  -4-47.6016 34.8484   8
  12  -5  -3 111.966 34.4466   7
  12  -5  -3 85.8582 28.4952  17
  12  -5  -2 292.969 49.4447   7
  12  -5  -2 304.003 46.4730  17
  12  -5  -1 3568.95 148.456  17
  12  -5  -1 3336.62 155.963  14
  12  -5  -1 3378.50 159.178   7
  12  -5   0 3963.27 153.094  17
  12  -5   0 3587.76 160.817  14
  12  -5   0 3702.99 163.328   7
  12  -5   1 12.1226 18.6339   7
  12  -5   1-6.45275 19.3466  14
  12  -5   2 1130.86 90.6006   7
  12  -5   2 1157.68 86.3319  10
  12  -5   2 1209.59 87.1451  17
  12  -5   2 1193.54 92.2184  14
  12  -5   3 17.1566 16.2314   7
  12  -5   3 27.6979 19.7619  10
  12  -5   3 38.0918 22.6440  17
  12  -5   3 4.54748 23.2445  14
  12  -5   4 466.359 59.0824   7
  12  -5   4 543.337 62.1416  10
  12  -5   4 602.443 62.1075  17
  12  -5   4 482.704 60.2099  14
  12  -5   5 23.7129 22.5421  10
  12  -5   5 14.9943 17.7218  17
  12  -5   5 7.60995 16.5272  14
  12  -5   6 131.824 36.4651  10
  12  -5   6 91.4679 26.1865  17
  12  -5   6 67.0081 28.8012  14
  12  -5   7 2.04784 18.8395  10
  12  -5   7 7.24394 18.1976  17
  12  -5   7-39.3826 25.9961  14
  12  -5   8 300.670 46.9219  10
  12  -5   8 269.865 39.4007  17
  12  -5   8 228.798 41.4280  14
  12  -5   9 86.1099 26.3166  10
  12  -5   9 53.4915 21.1104  17
  12  -5   9 68.0198 23.7849  14
  12  -5  10 145.326 29.7084  10
  12  -5  10 122.781 25.6167  17
  12  -5  10 143.515 29.4960  14
  12  -5  11 52.3710 21.6603  10
  12  -5  11 25.0857 12.6588  17
  12  -5  12 62.7299 17.3558  10
 -12   6  11-2.97363 11.9441  11
 -12   6  10-13.1228 17.9209  11
 -12   6   9 112.716 28.6857  11
 -12   6   9 98.9819 23.8408  16
 -12   6   8 1170.92 81.0973  11
  12  -6  -8 1233.51 78.9343  17
 -12   6   7 129.174 36.4130  11
  12  -6  -7 153.507 32.5912  17
 -12   6   6 185.107 41.3975  11
  12  -6  -6 215.645 39.3493  17
 -12   6   5 93.7011 33.0702  11
  12  -6  -5 58.8755 25.6911  17
 -12   6   4 415.463 61.1981  11
  12  -6  -4 422.698 55.0943  17
  12  -6  -3 64.2966 23.6323  17
  12  -6  -3 46.6446 20.7044   8
 -12   6   2 299.310 53.2312  11
  12  -6  -2 350.353 48.3326  17
  12  -6  -1 54.8839 24.9249  17
  12  -6   0 118.295 30.6592  17
  12  -6   1 216.587 39.1075  17
  12  -6   1 196.990 36.2103  14
  12  -6   2 42.5781 22.7186  17
  12  -6   2 32.8146 18.7719  14
  12  -6   3 25.0587 12.8146   7
  12  -6   3 49.6609 21.9997  17
  12  -6   4 916.611 74.9070   7
  12  -6   4 1138.78 81.8060  17
  12  -6   5 12.9479 15.6851   7
  12  -6   5 7.04529 17.5505  17
  12  -6   6 16.6890 16.5980   7
  12  -6   6 55.0825 23.9077  10
  12  -6   6 12.5538 17.6980  17
  12  -6   7 222.940 35.7738   7
  12  -6   7 329.518 43.1014  10
  12  -6   7 357.840 46.2376  17
  12  -6   8-8.93175 16.5010   7
  12  -6   8 34.8734 18.6437  10
  12  -6   8 4.83583 14.8355  17
  12  -6   9 514.881 47.1310  10
  12  -6   9 536.584 49.4474  17
  12  -6  10 6.09755 12.3297  10
  12  -6  10 1.22175 11.0145  17
 -12   7   9 158.328 25.1335  11
 -12   7   8 277.997 35.0548  11
 -12   7   7-6.81186 18.7007  11
  12  -7  -7 21.9164 16.2217  17
 -12   7   6 795.731 68.1057  11
  12  -7  -6 821.962 62.2909  17
 -12   7   5 560.379 59.3189  11
  12  -7  -5 679.314 58.3564  17
 -12   7   4 956.756 79.3160  11
  12  -7  -4 1138.48 76.7258  17
  12  -7  -3 663.310 60.1682  17
  12  -7  -2 697.669 61.3400  17
  12  -7  -1 1183.01 79.0860  17
  12  -7   0 849.031 69.1216  17
  12  -7   1 110.565 25.4582  17
  12  -7   2 533.078 54.2520  17
  12  -7   3 43.2484 23.9613  17
  12  -7   4 1183.39 77.8237  17
  12  -7   5 438.887 48.6588  17
  12  -7   6 8.04143 14.4192  17
  12  -7   7 78.9780 22.5974  17
  12  -7   8 8.74532 13.2316  17
  12  -7   9 11.9840 10.1662  17
  12  -8  -4-3.22847 10.8936  17
  12  -8  -3 2.99313 13.1871  17
  12  -8  -2 431.834 42.1643  17
  12  -8  -1 29.8233 15.8167  17
  12  -8   0 375.259 40.1424  17
  12  -8   1 47.2242 19.0599  17
  12  -8   2 97.5996 22.6392  17
  12  -8   3 148.801 27.3327  17
  12  -8   4 580.035 48.9203  17
  12  -8   5 1057.69 62.7164  17
  12  -8   6 387.826 36.5405  17
  13   0 -14 19.8234 11.8189  12
  13   0 -13 25.7846 15.6789  12
  13   0 -13-1.05805 11.5631   8
  13   0 -12 47.9778 19.4672  12
  13   0 -12 1.65922 15.8099   8
  13   0 -11 1994.38 101.355   8
  13   0 -11 2088.65 103.772  12
  13   0 -10 43.4513 30.1441  12
  13   0 -10 31.7439 25.2042   8
  13   0  -9 47.0492 29.5416  12
  13   0  -9 30.5716 25.8613   8
  13   0  -8 18.6820 25.5380   7
  13   0  -8 11.2336 21.8900   8
  13   0  -7 2709.45 129.372  17
  13   0  -7 2712.33 138.325   8
  13   0  -7 2703.13 138.200   7
  13   0  -6-8.14391 17.9765   7
  13   0  -6 29.0677 19.2392  17
  13   0  -6-5.66341 19.9454   8
  13   0  -5 1036.39 81.8686  17
  13   0  -5 1049.76 86.6412   8
  13   0  -5 1167.75 89.6831   7
  13   0  -4-5.69588 21.4002   7
  13   0  -4 8.16445 14.8220  17
  13   0  -4-6.59423 20.0680   8
  13   0  -3 1471.74 96.8214  14
  13   0  -3 1436.52 100.690   7
  13   0  -2 21.7873 21.3199   7
  13   0  -2-21.6383 26.9757  14
  13   0  -1 505.941 58.1203   7
  13   0  -1 495.429 57.3444  14
  13   0   0 26.1357 22.3847   7
  13   0   0 47.6681 23.7689  14
  13   0   1 15347.6 315.117   7
  13   0   1 15008.6 315.327  14
  13   0   2 55.4210 24.7617   7
  13   0   2 57.8775 27.5246  10
  13   0   2 36.9250 23.9925  15
  13   0   2 47.9935 26.9654  14
  13   0   3 3345.27 144.225  10
  13   0   3 3287.93 148.667  15
  13   0   3 3219.25 148.740  14
  13   0   4-23.0007 24.3386  10
  13   0   4 12.8986 18.5210  15
  13   0   4-50.9363 24.4403  14
  13   0   5 65.8694 24.2713  10
  13   0   5 59.2826 22.8800  15
  13   0   5 104.005 31.2417  14
  13   0   6 21.0214 20.5499  15
  13   0   6 7.19145 17.1562  14
  13   0   7 1307.06 96.6303  10
  13   0   7 1528.37 104.856  15
  13   0   7 1467.24 105.508  14
  13   0   8 20.0299 19.2683  10
  13   0   8 28.3958 22.2401  15
  13   0   8-2.54784 20.7537  14
  13   0   9 784.600 72.5629  10
  13   0   9 989.603 83.0145  15
  13   0   9 845.331 77.8585  14
  13   0  10 11.9020 17.9103  10
  13   0  10 15.1483 19.6882  15
  13   0  10-24.7132 22.4360  14
  13   0  11-7.48848 16.5844  10
  13   0  11 19.0020 20.7509  15
  13   0  11 11.9300 19.8045  14
  13   0  12 8.43567 15.5901  10
  13   0  12 30.0258 21.3031  15
  13   0  12-12.6534 16.9637  14
  13   0  13 59.7257 21.2775  15
  13   0  13 49.8693 19.1348  14
  13   0  14-5.63652 10.4037  15
  13   0  14 8.46653 9.85500  14
  13   1 -14-4.32207 8.61867  12
  13  -1 -14-6.32194 10.7143  12
  13   1 -13 17.3428 13.5953  12
  13  -1 -13 14.5472 13.8180  12
  13  -1 -13-13.6773 15.5557   8
  13   1 -12-17.9948 17.5470  12
  13  -1 -12 12.1600 14.9118  12
  13   1 -12-21.6172 18.2866   8
  13  -1 -12-2.21852 17.5141   8
  13   1 -11 297.295 40.0761  12
  13   1 -11 316.584 41.8389   8
  13  -1 -11 304.836 42.2619   8
  13  -1 -11 332.182 43.5057  12
  13  -1 -10 357.864 46.5525  12
  13   1 -10 326.181 46.2594   8
  13  -1 -10 301.560 45.6580   8
  13   1 -10 332.709 46.5398  12
  13   1  -9 2875.15 134.256   8
  13  -1  -9 2794.44 132.942   8
  13   1  -9 3012.93 133.798  12
  13  -1  -8 754.737 69.8521  17
  13   1  -8 706.239 71.8948   8
  13  -1  -8 627.809 70.1872   8
  13  -1  -8 629.407 68.0346   7
  13   1  -8 633.558 65.8373  12
  13  -1  -7 1190.82 90.0485  17
  13   1  -7 1272.62 94.3416   8
  13  -1  -7 1037.53 86.6998   8
  13   1  -7 1109.04 90.8863   7
  13  -1  -7 1042.57 87.7860   7
  13  -1  -6 1491.41 100.059  17
  13   1  -6 1349.03 99.0239   8
  13  -1  -6 1381.35 99.3250   8
  13   1  -6 1390.26 99.3499   7
  13  -1  -6 1462.28 99.5668   7
  13  -1  -5 1536.99 100.307  17
  13   1  -5 1605.43 105.652   8
  13  -1  -5 1538.39 102.434   8
  13   1  -5 1399.90 99.2152   7
  13  -1  -5 1510.63 100.756   7
  13   1  -4 199.882 38.0071   7
  13  -1  -4 143.825 28.5652  17
  13   1  -4 213.575 38.9540   8
  13  -1  -3 479.455 55.4567  17
  13  -1  -3 470.058 55.9587  14
  13   1  -3 451.242 53.9466   8
  13   1  -3 439.003 55.9395   7
  13  -1  -3 398.861 51.5011   7
  13   1  -2-3.30535 20.0095   7
  13  -1  -2-1.76425 18.6876   7
  13  -1  -2 30.3630 18.6354  17
  13   1  -1 135.111 32.6476   7
  13  -1  -1 159.047 36.5927   7
  13  -1  -1 197.603 39.8999  14
  13   1   0 174.677 35.7156   7
  13  -1   0 278.980 47.0098   7
  13  -1   0 227.781 43.4128  14
  13   1   1 2846.82 135.881   7
  13  -1   1 2959.32 143.983   7
  13   1   1 2790.65 132.613  14
  13  -1   1 3137.58 147.716  14
  13   1   2 20.3805 17.5678   7
  13  -1   2 57.6282 27.4850  10
  13  -1   2 53.1146 25.1630  15
  13   1   2 45.1770 19.8304  14
  13  -1   2 53.4509 21.7226  14
  13  -1   3 565.464 62.7915  10
  13  -1   3 707.245 70.2922  15
  13   1   3 658.363 66.8942  14
  13  -1   3 760.081 73.6455  14
  13   1   4 1202.93 88.6298  10
  13  -1   4 1367.86 97.0020  10
  13  -1   4 1293.48 98.5097  15
  13   1   4 1249.90 92.2332  15
  13   1   4 1294.80 94.4788  14
  13  -1   4 1439.07 102.818  14
  13   1   5 4610.25 170.848  10
  13  -1   5 4823.89 177.424  10
  13  -1   5 4908.99 187.095  15
  13   1   5 4552.79 175.430  15
  13   1   5 4333.97 174.392  14
  13  -1   5 4833.05 188.137  14
  13   1   6 174.087 37.3524  10
  13  -1   6 181.004 41.8490  10
  13  -1   6 204.125 43.3686  15
  13   1   6 181.218 39.5375  15
  13  -1   6 218.863 44.3440  14
  13   1   6 171.984 38.8082  14
  13   1   7 3098.96 142.809  10
  13  -1   7 3359.73 149.440  10
  13  -1   7 3203.59 153.364  15
  13   1   7 3028.10 143.814  15
  13  -1   7 3131.36 155.325  14
  13   1   7 3071.85 146.913  14
  13   1   8 975.378 81.5640  10
  13  -1   8 1112.86 86.8913  10
  13  -1   8 1148.32 91.8782  15
  13   1   8 1042.46 86.6808  15
  13  -1   8 1082.73 91.3977  14
  13   1   8 1043.48 88.0983  14
  13  -1   9 116.312 34.3731  10
  13  -1   9 132.440 38.3126  15
  13   1   9 130.750 33.2921  15
  13  -1   9 85.2573 28.6420  14
  13   1   9 124.908 32.4479  14
  13  -1  10 59.7342 25.8891  10
  13  -1  10 26.6412 20.1794  15
  13   1  10 60.5325 22.4547  15
  13  -1  10 47.6784 23.3689  14
  13   1  10 36.9994 21.5731  14
  13  -1  11 354.850 46.5768  10
  13   1  11 406.204 49.5311  15
  13  -1  11 378.462 51.5029  15
  13  -1  11 418.396 53.8365  14
  13   1  11 357.047 48.8685  14
  13  -1  12 125.228 27.8929  10
  13  -1  12 133.960 31.0462  15
  13   1  12 71.6591 22.8046  15
  13  -1  12 118.680 31.2664  14
  13   1  12 104.803 26.1732  14
  13  -1  13 8.32148 13.9345  10
  13  -1  13-14.4349 15.7098  15
  13   1  13-2.31657 11.7194  15
  13  -1  13-7.14444 12.9824  14
  13   1  13 12.6442 14.4553  14
  13  -1  14-10.6597 11.4910  15
  13  -1  14 10.5429 10.2006  14
  13   2 -13 31.8730 13.2603  12
  13  -2 -13 28.6084 12.9995  12
  13  -2 -13 32.7549 14.9297   8
  13   2 -12 199.820 29.1845  12
  13  -2 -12 142.832 26.3047  12
 -13   2  12 210.301 32.1816  11
  13  -2 -12 183.757 29.8630   8
  13   2 -11-4.04034 14.6033  12
  13  -2 -11 37.8758 17.6243  12
  13   2 -11 11.6616 13.2262   8
  13  -2 -11 26.5671 17.3885   8
  13   2 -10 140.722 26.9247  12
  13  -2 -10 148.508 31.2022  12
  13   2 -10 139.216 28.8215   8
  13  -2 -10 98.8148 25.6092   8
  13   2  -9 50.3575 20.3065  12
  13   2  -9 51.3188 20.1150   8
  13  -2  -9 60.0107 26.4460   8
  13  -2  -8 98.8071 29.0337   7
  13   2  -8 87.7495 24.3079  12
  13  -2  -8 115.752 30.1411  17
  13   2  -8 90.4935 26.4607   8
  13  -2  -8 50.5178 21.7597   8
  13  -2  -7 85.6003 28.1986   7
  13  -2  -7 45.4147 18.7828  17
  13   2  -7 72.9041 22.7155   8
  13  -2  -7 61.9816 25.6362   8
  13  -2  -6 332.166 49.7324   7
  13  -2  -6 392.288 50.7197  17
  13   2  -6 395.266 52.9137   8
  13  -2  -6 349.760 50.4726   8
  13  -2  -5 1217.89 89.3855  17
  13  -2  -5 1123.65 85.8119   8
  13  -2  -5 1044.60 86.4208   7
  13  -2  -4 4329.33 166.374  17
  13  -2  -4 4177.03 169.689   7
  13  -2  -3 3332.55 146.073  17
  13  -2  -3 3503.66 151.799  14
  13  -2  -3 3242.40 149.794   7
  13  -2  -2 1209.30 88.2600  17
  13  -2  -2 1118.68 87.5584  14
  13  -2  -2 1132.87 87.9623   7
  13  -2  -1 3225.15 147.551   7
  13  -2  -1 3230.78 140.019  17
  13  -2  -1 3323.52 152.719  14
  13  -2   0 1731.82 108.445   7
  13  -2   0 1765.45 105.416  17
  13  -2   0 1785.58 110.884  14
  13  -2   1 942.046 81.0008   7
  13  -2   1 979.036 80.9169  10
  13  -2   1 954.757 77.1399  17
  13  -2   1 942.230 80.8292  14
  13  -2   2 475.572 57.4591  10
  13  -2   2 397.774 50.4170  17
  13  -2   2 355.317 51.9015  14
  13  -2   3 1258.95 91.7620  10
  13  -2   3 1459.44 102.884  15
  13  -2   3 1420.68 100.400  14
  13  -2   4 154.331 37.0956  10
  13  -2   4 125.602 36.8148  15
  13  -2   4 147.372 38.5747  14
  13  -2   5 335.480 55.7321  10
  13  -2   5 388.656 54.9261  15
  13  -2   5 332.974 51.8737  14
  13  -2   6 1909.06 115.634  10
  13  -2   6 1865.55 118.699  15
  13  -2   6 1804.22 117.695  14
  13  -2   7 303.557 50.6544  15
  13  -2   7 305.734 49.9357  14
  13  -2   8 194.014 39.2680  10
  13  -2   8 164.583 39.7178  15
  13   2   8 159.706 31.8999  15
  13  -2   8 190.530 40.7423  14
  13  -2   9 785.922 71.0170  10
  13  -2   9 757.327 74.4687  15
  13   2   9 652.004 62.9811  15
  13  -2   9 762.536 75.4064  14
  13   2   9 563.513 59.7904  14
  13  -2  10-0.13049 22.8451  10
  13  -2  10-3.17447 20.2560  15
  13   2  10 1.74307 15.9149  15
  13  -2  10-7.05515 22.6438  14
  13   2  10 9.04453 13.3840  14
  13  -2  11 10.3586 18.5173  10
  13  -2  11-8.17820 22.8715  15
  13   2  11 1.15651 12.9760  15
  13  -2  11 8.46470 17.2896  14
  13   2  11 13.8448 15.1756  14
  13  -2  12 233.409 34.7960  10
  13  -2  12 227.965 37.7940  15
  13   2  12 161.696 27.7610  15
  13  -2  12 229.614 37.7393  14
  13   2  12 160.204 28.9102  14
  13  -2  13 302.522 33.6130  10
  13  -2  13 323.277 37.6646  15
  13   2  13 233.456 28.3982  15
  13  -2  13 312.785 37.8295  14
  13  -3 -13 409.065 33.4421  12
  13  -3 -12 197.641 28.1192  12
 -13   3  12 219.476 31.5474  11
  13  -3 -12 184.936 28.1846   8
  13  -3 -11 8.70103 15.3056  12
  13  -3 -11 43.6972 18.9421   8
  13  -3 -10 289.416 40.9903  12
  13  -3 -10 254.605 39.1027   8
  13  -3  -9 237.887 38.8383  17
  13  -3  -9 226.912 41.3585   8
  13  -3  -8 46.3821 24.8568   7
  13  -3  -8 61.4061 26.2917  17
  13  -3  -8 76.7386 30.0958   8
  13  -3  -7 407.881 56.4551  17
  13  -3  -7 374.684 54.9850   8
  13  -3  -7 427.533 58.6913   7
  13  -3  -6 1904.18 109.364  17
  13  -3  -6 1873.72 111.583   8
  13  -3  -6 1854.29 114.531   7
  13  -3  -5 1512.57 101.769  17
  13  -3  -5 1428.60 97.6604   8
  13  -3  -5 1578.48 106.843   7
  13  -3  -4 1188.39 87.5190  17
  13  -3  -4 1135.74 90.7839   7
  13  -3  -3 94.1396 30.7202   7
  13  -3  -3 107.013 32.3372  17
  13  -3  -3 62.0386 28.5143  14
  13  -3  -2 1322.44 90.2733  17
  13  -3  -2 1144.40 90.7295  14
  13  -3  -2 1201.36 93.6207   7
  13  -3  -1 203.809 39.4606   7
  13  -3  -1 277.950 43.5342  17
  13  -3  -1 254.570 44.4964  14
  13  -3   0 78.9301 28.3317   7
  13  -3   0 86.9946 24.6889  17
  13  -3   0 57.9689 27.3539  14
  13  -3   1 2528.59 134.314   7
  13  -3   1 2466.90 122.271  17
  13  -3   1 2237.62 127.886  14
  13  -3   2 5699.61 199.222   7
  13  -3   2 5826.99 195.832  10
  13  -3   2 5780.45 186.571  17
  13  -3   2 5698.80 200.361  14
  13  -3   3 2274.78 123.515  10
  13  -3   3 2128.86 114.752  17
  13  -3   3 2138.56 126.531  14
  13  -3   4 9562.12 253.719  10
  13  -3   4 9286.24 236.688  17
  13  -3   4 9835.85 265.708  14
  13  -3   5 268.630 49.2549  10
  13  -3   5 202.554 38.5977  17
  13  -3   5 313.623 54.6738  15
  13  -3   5 220.071 47.3189  14
  13  -3   6 43.1375 31.5544  10
  13  -3   6 99.6384 34.6076  15
  13  -3   6 84.6378 33.0355  14
  13  -3   7 1215.37 89.5540  10
  13  -3   7 1160.31 94.5436  15
  13  -3   7 1129.61 93.3070  14
  13  -3   8 453.997 56.7858  10
  13  -3   8 404.819 55.3556  15
  13  -3   8 377.689 55.3134  14
  13  -3   9-0.71439 19.9287  10
  13  -3   9 15.1089 19.3256  15
  13  -3   9-25.4449 23.6225  14
  13  -3  10 184.685 33.6402  10
  13  -3  10 241.848 41.6704  15
  13  -3  10 172.739 38.5414  14
  13  -3  11-16.4876 19.8724  10
  13  -3  11-4.27208 17.1569  15
  13  -3  11-1.07256 17.2045  14
  13  -3  12 200.755 30.5661  10
  13  -3  12 161.831 30.5291  15
  13  -3  12 238.054 38.8154  14
  13  -3  13 544.664 41.7278  10
  13  -3  13 484.358 40.2914  14
  13  -4 -12 4.99355 9.42168  12
 -13   4  12 17.8219 13.7913  11
 -13   4  11 442.530 46.5960  11
  13  -4 -11 402.232 40.8211   8
  13  -4 -11 424.485 42.3338  12
  13  -4 -10 12.0790 18.3325  12
 -13   4  10 34.6776 24.7291  11
  13  -4 -10 20.3228 17.2895   8
  13  -4  -9 154.177 31.5574  17
  13  -4  -9 167.550 34.9109   8
  13  -4  -8 548.371 56.0559  17
  13  -4  -8 510.272 57.5471   8
  13  -4  -8 511.018 59.7788   7
  13  -4  -7 27.2664 24.0821   7
  13  -4  -7 20.1756 20.4814  17
  13  -4  -7 11.3444 21.2956   8
  13  -4  -6 565.577 59.3682  17
  13  -4  -6 578.209 64.0964   8
  13  -4  -6 530.616 63.3274   7
  13  -4  -5 227.082 41.7524   7
  13  -4  -5 168.637 36.8285  17
  13  -4  -5 173.720 37.6615   8
  13  -4  -4 273.357 46.2418   7
  13  -4  -4 290.114 44.8414  17
  13  -4  -3 93.6290 30.8037   7
  13  -4  -3 108.906 28.9199  17
  13  -4  -2 1367.73 91.3842  17
  13  -4  -2 1292.47 99.5643  14
  13  -4  -2 1310.60 100.889   7
  13  -4  -1-6.86764 20.0896   7
  13  -4  -1 43.8314 20.0860  17
  13  -4  -1 27.3732 20.1476  14
  13  -4   0 151.747 36.2153   7
  13  -4   0 182.174 37.1335  17
  13  -4   0 209.118 42.7326  14
  13  -4   1 640.531 70.9514   7
  13  -4   1 703.489 67.1699  17
  13  -4   1 567.009 64.3968  14
  13  -4   2 39.1821 19.5187   7
  13  -4   2 45.1937 22.3817  17
  13  -4   2 66.2745 29.0180  14
  13  -4   3 102.920 29.3601   7
  13  -4   3 95.7067 32.8050  10
  13  -4   3 96.3862 29.3918  17
  13  -4   3 88.1895 29.9270  14
  13  -4   4 458.913 56.8563  10
  13  -4   4 429.843 54.8670  17
  13  -4   4 433.723 56.0182  14
  13  -4   5 50.6159 32.8575  10
  13  -4   5 6.51496 14.8671  17
  13  -4   5 3.40803 18.9222  14
  13  -4   6 169.204 36.2610  10
  13  -4   6 126.722 30.6234  17
  13  -4   6 113.769 31.5501  14
  13  -4   7 373.332 51.5178  10
  13  -4   7 299.514 43.9935  17
  13  -4   7 305.703 48.9335  14
  13  -4   8 83.8145 29.6782  10
  13  -4   8 97.9037 25.4266  17
  13  -4   8 77.6380 29.0095  14
  13  -4   9-4.93905 22.4616  10
  13  -4   9-21.1489 21.5012  14
  13  -4  10 53.8599 22.3755  10
  13  -4  10 48.7813 22.2530  14
  13  -4  11 441.432 45.2952  10
  13  -4  11 391.676 43.5815  14
  13  -4  12 17.6599 14.2098  10
 -13   5  11 108.456 22.1093  11
 -13   5  10 871.968 61.1384  11
  13  -5 -10 832.629 55.3228  12
 -13   5   9 24.7047 21.9485  11
  13  -5  -9 43.4840 19.6282  17
  13  -5  -9-2.07741 11.9769   8
 -13   5   8 119.156 34.4176  11
  13  -5  -8 63.6303 26.0256  17
  13  -5  -8 54.4903 20.4994   8
  13  -5  -7 1724.65 96.5288  17
  13  -5  -7 1649.98 99.2110   8
  13  -5  -7 1755.36 105.259   7
  13  -5  -6 61.3533 27.1675   7
  13  -5  -6 30.4069 21.7240  17
  13  -5  -6-8.32886 16.4648   8
  13  -5  -5 220.871 40.7519   7
  13  -5  -5 199.105 37.4719  17
  13  -5  -5 210.123 39.9789   8
  13  -5  -4 159.866 34.9354   7
  13  -5  -4 135.088 32.0450  17
  13  -5  -4 182.823 37.2579   8
  13  -5  -3 1626.80 100.268  17
  13  -5  -3 1658.87 107.249   7
  13  -5  -2 45.5060 23.5650   7
  13  -5  -2 48.7368 23.9770  17
  13  -5  -1 437.483 52.6930  17
  13  -5  -1 392.222 53.6002   7
  13  -5   0 1276.00 89.6890  17
  13  -5   0 1167.49 91.0062  14
  13  -5   0 1205.78 91.8938   7
  13  -5   1 63.2042 25.7889   7
  13  -5   1 101.231 29.0695  17
  13  -5   1 47.3978 25.6164  14
  13  -5   2 1078.00 85.4290   7
  13  -5   2 1181.22 84.3885  17
  13  -5   2 1065.00 85.1728  14
  13  -5   3 892.674 78.0120   7
  13  -5   3 968.295 78.1961  17
  13  -5   3 918.946 79.8232  14
  13  -5   4 903.921 79.0261   7
  13  -5   4 1009.04 79.9150  10
  13  -5   4 982.776 78.6959  17
  13  -5   4 965.586 80.8931  14
  13  -5   5 1436.98 98.0539   7
  13  -5   5 1483.29 94.2961  10
  13  -5   5 1591.90 95.6172  17
  13  -5   5 1437.26 97.0782  14
  13  -5   6 1145.64 87.3628   7
  13  -5   6 1268.75 86.7743  10
  13  -5   6 1101.91 78.9552  17
  13  -5   6 1036.90 83.2377  14
  13  -5   7 15.3911 17.1645  10
  13  -5   7 15.5108 15.6895  17
  13  -5   7-0.17536 16.3274  14
  13  -5   8 120.770 28.1813  10
  13  -5   8 138.303 27.3721  17
  13  -5   8 120.642 28.0681  14
  13  -5   9 34.2783 20.8360  10
  13  -5   9-2.31945 12.1478  17
  13  -5   9-0.70425 13.2614  14
  13  -5  10 8.88302 15.5126  10
  13  -5  10 12.4527 9.80363  17
  13  -5  10 12.1651 10.4574  14
  13  -5  11 26.1094 12.8762  10
 -13   6  10 4.62230 11.1063  11
 -13   6   9 15.5786 15.5543  11
 -13   6   8 326.116 40.8186  11
  13  -6  -8 384.312 40.6111  17
 -13   6   7 644.881 61.4348  11
  13  -6  -7 810.767 61.4796  17
 -13   6   6 25.5791 22.9730  11
  13  -6  -6 12.9218 16.1882  17
 -13   6   5 1149.11 87.3214  11
  13  -6  -5 1194.46 80.6645  17
 -13   6   4 336.761 52.2797  11
  13  -6  -4 358.644 46.6320  17
  13  -6  -4 323.131 43.4621   8
 -13   6   3 1821.61 115.697  11
  13  -6  -3 2190.29 109.531  17
  13  -6  -3 1950.75 105.289   8
  13  -6  -2 318.450 44.6838  17
  13  -6  -1 42.3057 20.1690   7
  13  -6  -1 38.9979 23.1688  17
  13  -6   0 84.5506 23.5566   7
  13  -6   0 104.480 28.5179  17
  13  -6   1 514.621 54.7515  17
  13  -6   1 398.921 49.1384   7
  13  -6   2 567.748 57.7847  17
  13  -6   2 469.315 53.1735  14
  13  -6   2 472.666 52.2295   7
  13  -6   3-11.9104 13.9430   7
  13  -6   3 14.2557 19.1476  17
  13  -6   3 26.6512 18.1460  14
  13  -6   4 168.716 34.4790   7
  13  -6   4 242.627 41.6416  17
  13  -6   5-9.99789 15.5015   7
  13  -6   5 3.76024 15.3926  17
  13  -6   6 165.215 30.2328   7
  13  -6   6 243.986 37.0796  17
  13  -6   7 12.3485 12.4136   7
  13  -6   7 13.3568 15.1655  17
  13  -6   8 64.0887 17.6969  17
  13  -6   9-1.73538 9.81482  17
 -13   7   7 281.928 33.5110  11
  13  -7  -7 273.048 29.6839  17
 -13   7   6 322.184 39.1726  11
  13  -7  -6 367.653 38.2570  17
 -13   7   5 34.7756 18.3933  11
  13  -7  -5 69.5169 20.2164  17
 -13   7   4 292.913 39.3530  11
  13  -7  -4 378.233 42.3534  17
  13  -7  -3 7.04705 14.5337  17
  13  -7  -2 248.565 37.2216  17
  13  -7  -1 19.6243 19.2659  17
  13  -7   0 492.946 49.5677  17
  13  -7   1 209.108 33.5547  17
  13  -7   2 265.142 37.1951  17
  13  -7   3 179.327 33.1901  17
  13  -7   4 132.884 28.0551  17
  13  -7   5 176.007 30.2691  17
  13  -7   6 25.3093 15.7137  17
  13  -7   7 326.887 34.1388  17
  13  -8  -2 19.8512 12.1175  17
  13  -8  -1 666.404 47.8173  17
  13  -8   0 140.066 24.9166  17
  13  -8   1 1267.85 67.0457  17
  13  -8   2 59.0383 17.0203  17
  13  -8   3 185.154 26.3575  17
  13  -8   4 61.8256 16.6483  17
  14   0 -13 7.44628 10.1962  12
  14   0 -12 347.717 36.8218   8
  14   0 -12 360.843 37.1852  12
  14   0 -11-11.6166 15.3156  12
  14   0 -11 1.41860 16.2821   8
  14   0 -10 4.89007 19.9489  12
  14   0 -10 25.1333 19.2333   8
  14   0  -9 28.5888 24.8898  12
  14   0  -9 53.0911 26.0010   8
  14   0  -8 4234.32 162.573   8
  14   0  -8 4221.95 161.275   7
  14   0  -8 4484.17 163.181  12
  14   0  -7 85.4206 33.2762   7
  14   0  -7 46.4633 27.4448   8
  14   0  -6 2940.75 133.796  17
  14   0  -6 3069.85 142.728   8
  14   0  -6 3026.73 144.415   7
  14   0  -5 1.50328 21.2543   7
  14   0  -5 41.9472 21.1129  17
  14   0  -5 15.3619 18.4803   8
  14   0  -4 296.506 44.6255   7
  14   0  -4 231.293 39.2089   8
  14   0  -3-9.41035 20.2871   7
  14   0  -3-12.3209 20.9526   8
  14   0  -2 0.80770 19.4670   7
  14   0  -2 68.9166 25.0003  14
  14   0  -1 16.3376 16.9512   7
  14   0  -1 9.17382 16.0059  14
  14   0   0 194.601 41.0795   7
  14   0   0 223.413 40.6361  14
  14   0   1 11.9691 19.1197   7
  14   0   1 31.9180 22.5838  14
  14   0   2 1274.81 93.2249   7
  14   0   2 1290.40 93.9927  14
  14   0   3 34.1220 25.1472   7
  14   0   3 33.0030 23.1819  14
  14   0   4 2206.90 117.484  10
  14   0   4 2192.64 122.540  15
  14   0   4 2122.65 124.644  14
  14   0   5-36.1088 25.2583  10
  14   0   5 10.5852 18.2914  15
  14   0   5 34.8798 24.2329  14
  14   0   6 40.6317 27.4638  10
  14   0   6 36.5305 22.1063  15
  14   0   6 79.8682 29.9526  14
  14   0   7 17.7538 20.7331  10
  14   0   7 68.7529 29.0023  15
  14   0   7-8.74976 22.3934  14
  14   0   8 130.221 34.1239  10
  14   0   8 90.5241 28.8247  15
  14   0   8 72.0496 32.0928  14
  14   0   9 13.7148 17.9205  10
  14   0   9-12.9982 23.8028  15
  14   0   9 0.03950 16.5886  14
  14   0  10 241.588 35.7096  10
  14   0  10 270.350 42.3119  15
  14   0  10 292.233 43.5792  14
  14   0  11 12.5239 15.9342  10
  14   0  11-36.4102 21.8811  15
  14   0  11 9.65321 15.5895  14
  14   0  12 875.941 61.0587  15
  14   0  12 903.947 62.5362  14
  14   0  13 2.10469 11.5229  15
  14   1 -13 61.7743 14.3112  12
  14  -1 -13 82.1274 16.0892  12
  14  -1 -12 233.343 30.5834   8
  14   1 -12 205.398 29.0314  12
  14  -1 -12 245.349 30.6125  12
  14   1 -11 35.2806 15.4122  12
  14  -1 -11 70.9074 21.2662  12
  14   1 -11 62.3711 18.6141   8
  14  -1 -11 71.5177 22.8649   8
  14   1 -10 31.8030 19.0342  12
  14  -1 -10 55.0366 22.0367  12
  14   1 -10 48.7497 21.8979   8
  14  -1 -10 62.0891 23.7451   8
  14   1  -9 394.320 49.0106   8
  14  -1  -9 352.311 46.6699   8
  14   1  -9 450.525 49.0783  12
  14  -1  -9 428.646 50.6001  12
  14   1  -8 573.119 60.8955   8
  14  -1  -8 578.156 61.0232   8
  14  -1  -8 529.705 58.9726   7
  14   1  -8 581.230 60.3578  12
  14  -1  -7 1438.16 92.6264  17
  14   1  -7 1352.26 95.2719   8
  14  -1  -7 1368.08 94.4089   8
  14   1  -7 1352.11 94.6972   7
  14  -1  -7 1414.78 97.4540   7
  14   1  -7 1293.04 90.5070  12
  14  -1  -6 5967.83 191.746  17
  14   1  -6 5938.22 196.343   8
  14  -1  -6 5969.87 196.345   8
  14   1  -6 5620.92 194.675   7
  14  -1  -6 5810.03 195.952   7
  14   1  -5 68.4445 24.6243   7
  14  -1  -5 54.3637 22.5312   7
  14  -1  -5 100.902 29.9595  17
  14   1  -5 62.9951 25.3442   8
  14  -1  -5 50.3357 21.3919   8
  14   1  -4 375.302 51.1300   7
  14  -1  -4 336.024 49.4762   7
  14  -1  -4 342.661 48.7656  17
  14   1  -4 367.428 50.9247   8
  14  -1  -4 283.280 45.6825   8
  14   1  -3 83.6867 25.5001   7
  14  -1  -3 85.0079 24.1814   7
  14  -1  -3 92.9645 24.6149  17
  14  -1  -3 101.297 30.6585  14
  14   1  -3 87.7152 25.9839   8
  14   1  -2 89.1400 28.2719   7
  14  -1  -2 11.9483 19.4113   7
  14  -1  -2 31.8785 18.9462  17
  14  -1  -2 46.6964 26.5240  14
  14   1  -2 35.2820 18.4088   8
  14  -1  -1 8402.86 233.401  14
  14   1  -1 7833.48 228.441   7
  14  -1  -1 8482.11 237.058   7
  14  -1   0 683.727 70.7562   7
  14  -1   0 619.248 68.5487  14
  14   1   0 578.992 62.9089   7
  14   1   1 673.087 66.2817   7
  14  -1   1 748.168 71.7506   7
  14   1   1 706.513 67.1752  14
  14  -1   1 742.851 72.1885  14
  14   1   2 81.7794 22.2408   7
  14  -1   2 117.927 27.9424   7
  14   1   2 164.710 33.8603  14
  14  -1   2 108.725 29.4055  14
  14   1   3 4528.96 172.304   7
  14  -1   3 4704.87 180.969   7
  14  -1   3 5039.63 177.662  10
  14   1   3 4513.45 171.551  14
  14  -1   3 5170.71 189.989  14
  14   1   4 125.601 32.7634   7
  14  -1   4 171.849 37.7544  10
  14  -1   4 148.674 41.1306  15
  14   1   4 163.331 33.4340  14
  14  -1   4 212.918 43.6007  14
  14  -1   5 1274.17 94.5124  10
  14  -1   5 1331.62 97.5540  15
  14   1   5 1032.20 85.7383  15
  14   1   5 1150.51 88.9045  14
  14  -1   5 1223.60 97.1443  14
  14  -1   6 2879.00 135.615  10
  14  -1   6 2833.02 140.815  15
  14   1   6 2555.81 129.432  15
  14   1   6 2684.09 133.548  14
  14  -1   6 2755.27 142.161  14
  14   1   7 173.836 34.9195  10
  14  -1   7 126.650 36.7791  10
  14  -1   7 182.683 42.4235  15
  14   1   7 155.459 35.9948  15
  14   1   7 165.862 38.2966  14
  14  -1   7 102.828 30.8481  14
  14  -1   8 279.508 44.4913  10
  14  -1   8 254.807 47.6459  15
  14   1   8 218.214 39.5670  15
  14   1   8 180.606 37.3016  14
  14  -1   8 281.767 47.0921  14
  14  -1   9-9.95724 20.9805  10
  14  -1   9 24.5194 23.2011  15
  14   1   9 6.89924 15.5764  15
  14   1   9 6.01418 18.2439  14
  14  -1   9-20.3379 21.2688  14
  14  -1  10 11.6994 16.2957  10
  14  -1  10-1.26109 19.9288  15
  14   1  10 20.8680 18.4329  15
  14   1  10 43.0780 19.9597  14
  14  -1  10 16.6091 19.8643  14
  14  -1  11 115.577 26.2611  10
  14  -1  11 92.5740 25.4178  15
  14   1  11 88.4844 22.8298  15
  14   1  11 105.674 26.9063  14
  14  -1  11 116.050 28.3209  14
  14  -1  12 43.1944 15.7325  10
  14  -1  12 3.88447 13.9319  15
  14   1  12 39.2405 16.2490  15
  14   1  12-3.69037 11.6215  14
  14  -1  12 3.49215 13.9068  14
  14  -1  13 223.260 27.1567  15
  14  -1  13 270.997 30.2870  14
  14  -2 -12 481.384 41.0330   8
  14  -2 -12 521.744 41.9157  12
  14   2 -11 83.6336 19.6566  12
  14  -2 -11 75.5492 21.7338  12
  14  -2 -11 114.322 24.0189   8
  14   2 -10 69.4940 18.6095  12
  14  -2 -10 88.7327 25.8408  12
  14   2 -10 93.5406 22.4542   8
  14  -2 -10 91.6568 25.8689   8
  14   2  -9 292.510 39.0050   8
  14  -2  -9 325.171 44.9701   8
  14   2  -9 295.120 39.0416  12
  14  -2  -8 19.6464 22.7078   7
  14  -2  -8 29.5766 22.4278  17
  14   2  -8 11.0415 13.8764   8
  14  -2  -8 26.9843 21.3454   8
  14  -2  -7 195.210 38.3171   7
  14  -2  -7 130.148 34.0504  17
  14   2  -7 130.268 30.9754   8
  14  -2  -7 125.390 31.5459   8
  14  -2  -6 338.842 49.2543   7
  14  -2  -6 338.772 47.2044  17
  14  -2  -6 326.754 49.0507   8
  14  -2  -5 75.2588 28.1318   7
  14  -2  -5 21.9481 21.1641  17
  14  -2  -5 28.9222 20.0106   8
  14  -2  -4 153.217 34.7351   7
  14  -2  -4 224.600 41.3250  17
  14  -2  -4 225.801 39.8990   8
  14  -2  -3 2786.97 133.304  17
  14  -2  -3 2747.25 135.045  14
  14  -2  -3 2749.54 137.070   7
  14  -2  -2 7109.61 211.848  17
  14  -2  -2 6901.97 218.905  14
  14  -2  -2 7137.76 219.140   7
  14  -2  -1 631.078 65.2427  17
  14  -2  -1 639.700 68.2150  14
  14  -2  -1 629.349 66.5713   7
  14  -2   0 8083.53 232.289   7
  14  -2   0 7447.25 215.071  17
  14  -2   0 8196.53 233.984  14
  14  -2   1 1357.45 96.7107   7
  14  -2   1 1336.99 90.5553  17
  14  -2   1 1319.39 95.8447  14
  14  -2   2 40.3007 26.6606   7
  14  -2   2 47.5892 19.5957  14
  14  -2   3 121.433 29.1480   7
  14  -2   3 179.357 39.4022  10
  14  -2   3 124.212 36.6090  14
  14  -2   4 28.5796 23.9531  10
  14  -2   4 43.0578 20.8686  14
  14  -2   5 188.886 43.7090  10
  14  -2   5 174.799 39.0410  15
  14  -2   5 174.409 45.2713  14
  14  -2   6 586.082 62.9724  10
  14  -2   6 575.405 67.2217  15
  14  -2   6 480.853 65.2938  14
  14  -2   7 215.993 39.8379  10
  14  -2   7 236.664 44.7611  15
  14  -2   7 229.053 45.6000  14
  14  -2   8 402.279 52.8393  10
  14  -2   8 361.828 52.0291  15
  14  -2   8 285.344 48.3281  14
  14  -2   9 68.6261 24.8917  10
  14  -2   9 84.5201 26.2914  15
  14  -2   9 59.0606 23.0941  14
  14  -2  10-21.2567 22.2363  10
  14  -2  10-21.5418 24.2415  15
  14   2  10 14.6561 14.9257  15
  14  -2  10 19.5741 18.8158  14
  14  -2  11 92.1664 21.7565  10
  14  -2  11 96.9523 25.5571  15
  14   2  11 67.4111 18.3804  15
  14  -2  11 60.3498 21.5853  14
  14  -2  12 14.7463 12.8746  10
  14  -2  12 6.31478 13.8265  15
  14  -2  12 51.7187 18.4380  14
  14  -3 -12 35.5020 12.4047  12
  14  -3 -12 13.0248 9.71164   8
  14  -3 -11 60.5117 17.3790  12
 -14   3  11 86.1205 24.2569  11
  14  -3 -11 58.8272 16.5054   8
  14  -3 -10 19.7188 16.6118  12
  14  -3 -10-6.38356 13.7700   8
  14  -3  -9 206.946 36.4903   8
  14  -3  -8 180.331 33.8450  17
  14  -3  -8 124.756 32.6805   8
  14  -3  -8 165.319 35.5721   7
  14  -3  -7 448.861 51.5831  17
  14  -3  -7 487.632 55.9418   8
  14  -3  -7 517.295 61.3435   7
  14  -3  -6 332.086 49.1713   7
  14  -3  -6 328.936 47.5827  17
  14  -3  -6 307.194 49.8275   8
  14  -3  -5 526.861 58.9616  17
  14  -3  -5 502.725 60.1894   8
  14  -3  -5 437.837 58.7693   7
  14  -3  -4 3954.04 155.311  17
  14  -3  -4 3537.51 151.431   8
  14  -3  -4 3706.50 159.981   7
  14  -3  -3 660.118 65.7156  17
  14  -3  -3 559.273 64.3838   7
  14  -3  -2 46.7755 21.7723   7
  14  -3  -2 49.1591 22.1090  17
  14  -3  -2 95.9296 31.6495  14
  14  -3  -1 493.968 56.3786  17
  14  -3  -1 396.546 55.2556  14
  14  -3  -1 411.921 57.4651   7
  14  -3   0 12.4983 19.5252   7
  14  -3   0 16.0584 20.4699  14
  14  -3   1 659.396 68.8221   7
  14  -3   1 609.489 61.8912  17
  14  -3   1 665.709 69.2430  14
  14  -3   2 158.477 35.8292   7
  14  -3   2 172.250 34.1053  17
  14  -3   2 153.345 35.6853  14
  14  -3   3 177.067 39.1303   7
  14  -3   3 240.407 44.4390  10
  14  -3   3 155.252 31.3828  17
  14  -3   3 186.104 39.0574  14
  14  -3   4 1379.97 99.0963   7
  14  -3   4 1388.45 97.6979  10
  14  -3   4 1290.95 87.8045  17
  14  -3   4 1407.00 100.824  14
  14  -3   5 2149.07 119.091  10
  14  -3   5 2113.08 121.864  14
  14  -3   6 906.835 76.9828  10
  14  -3   6 744.569 74.0653  14
  14  -3   7 305.996 47.7678  10
  14  -3   7 313.862 47.9948  14
  14  -3   8 247.913 39.7334  10
  14  -3   8 277.884 45.6215  15
  14  -3   8 210.031 40.8023  14
  14  -3   9 165.199 33.0330  10
  14  -3   9 159.038 34.6408  15
  14  -3   9 162.157 35.8209  14
  14  -3  10 13.1969 19.8962  10
  14  -3  10 0.96255 17.5823  14
  14  -3  11 26.4184 16.9339  10
  14  -3  11-0.36106 14.0947  14
  14  -3  12 347.014 33.1788  10
  14  -3  12 346.276 34.7539  14
  14  -4 -11 12.4327 10.4660  12
 -14   4  11 28.8878 16.7236  11
  14  -4 -10 80.5332 20.9249  12
 -14   4  10 59.6107 22.7224  11
  14  -4 -10 91.5524 22.0104   8
  14  -4  -9 1430.42 81.8314   8
  14  -4  -8 658.169 58.8408  17
  14  -4  -8 675.017 61.6305   8
  14  -4  -7 1868.93 100.274  17
  14  -4  -7 1867.95 104.077   8
  14  -4  -7 1979.09 110.285   7
  14  -4  -6 998.221 76.1434  17
  14  -4  -6 1020.22 80.0329   8
  14  -4  -6 948.198 81.6213   7
  14  -4  -5 34.0978 21.5190   7
  14  -4  -5 41.0367 24.9773  17
  14  -4  -5-4.92307 19.0440   8
  14  -4  -4 1442.09 92.6014  17
  14  -4  -4 1394.31 94.7875   8
  14  -4  -4 1342.39 96.9303   7
  14  -4  -3 399.689 51.0337  17
  14  -4  -3 366.721 52.9146   7
  14  -4  -2-0.54626 21.9559   7
  14  -4  -2 23.4742 20.8666  17
  14  -4  -1 30.2399 26.0896   7
  14  -4  -1 26.6667 19.4491  17
  14  -4  -1 52.8195 23.8425  14
  14  -4   0 18.0880 18.0934   7
  14  -4   0 40.4619 18.9842  17
  14  -4   0 49.5523 26.3711  14
  14  -4   1 406.386 54.7630   7
  14  -4   1 406.879 50.1844  17
  14  -4   1 480.889 59.5893  14
  14  -4   2 7.49917 15.9288   7
  14  -4   2 11.7277 19.7926  17
  14  -4   2 2.88558 17.6945  14
  14  -4   3 28.2560 21.6060   7
  14  -4   3 36.5921 22.4240  17
  14  -4   3 13.9069 17.8796  14
  14  -4   4 136.304 32.8254   7
  14  -4   4 157.311 36.6080  10
  14  -4   4 145.795 33.0362  17
  14  -4   4 141.944 34.4935  14
  14  -4   5 242.060 42.7959   7
  14  -4   5 341.819 48.2830  10
  14  -4   5 277.097 41.1373  17
  14  -4   5 252.547 46.0815  14
  14  -4   6 285.098 45.8161  10
  14  -4   6 204.760 34.7294  17
  14  -4   6 255.504 43.1427  14
  14  -4   7 490.775 56.8531  10
  14  -4   7 354.479 41.6979  17
  14  -4   7 418.243 52.9921  14
  14  -4   8 525.376 53.6612  10
  14  -4   8 414.544 51.3804  14
  14  -4   9 11.6787 16.5149  10
  14  -4   9 17.7388 16.3563  14
  14  -4  10 73.5468 22.2494  10
  14  -4  10 55.1956 19.4745  14
  14  -4  11 143.034 24.4489   7
  14  -4  11 118.996 22.7730  10
 -14   5  10 86.7721 19.9581  11
 -14   5   9 306.945 37.9493  11
  14  -5  -9 305.554 35.5153  12
 -14   5   8 420.681 47.8329  11
  14  -5  -8 478.586 45.7302  17
  14  -5  -8 384.852 40.1466   8
  14  -5  -7 41.7600 19.7491  17
  14  -5  -7 39.8739 21.1259   8
  14  -5  -6 39.5429 20.3324   7
  14  -5  -6 10.9791 16.1136  17
  14  -5  -6-5.71592 13.8154   8
  14  -5  -5 39.4811 22.6284   7
  14  -5  -5 11.1780 16.3476  17
  14  -5  -5-17.1137 22.2746   8
  14  -5  -4 16.9397 17.1710   7
  14  -5  -4-9.33818 18.4479  17
  14  -5  -4-12.0929 22.2038   8
  14  -5  -3-3.30780 18.8175   7
  14  -5  -3 10.7155 17.5123  17
  14  -5  -3 11.8354 17.3240   8
  14  -5  -2 304.662 45.7146   7
  14  -5  -2 360.878 46.1731  17
  14  -5  -1 140.935 33.6162   7
  14  -5  -1 46.9535 21.8897  17
  14  -5   0 31.8383 21.2707   7
  14  -5   0 52.4611 23.6665  17
  14  -5   0 66.1702 24.7338  14
  14  -5   1 240.055 41.0539   7
  14  -5   1 329.537 45.5660  17
  14  -5   1 283.004 45.4799  14
  14  -5   2 41.5260 22.5524   7
  14  -5   2 44.9713 22.7199  17
  14  -5   2 25.8095 16.9944  14
  14  -5   3 19.2616 18.8155   7
  14  -5   3 22.8058 18.4758  17
  14  -5   3 11.4056 20.6371  14
  14  -5   4 1306.63 90.0801   7
  14  -5   4 1295.35 84.1690  17
  14  -5   4 1265.88 88.5012  14
  14  -5   5 83.0632 25.9858   7
  14  -5   5 94.9806 27.9218  17
  14  -5   5 108.133 30.5873  14
  14  -5   6 66.8469 22.7141   7
  14  -5   6 77.3548 22.7435  17
  14  -5   6 104.396 28.3930  14
  14  -5   7-8.49052 14.9634   7
  14  -5   7 1.79276 16.4558  10
  14  -5   7 11.3218 12.6500  17
  14  -5   7 16.0768 15.9342  14
  14  -5   8 376.436 43.8966   7
  14  -5   8 404.628 42.7090  10
  14  -5   8 275.055 32.7733  17
  14  -5   8 325.772 39.0653  14
  14  -5   9 17.0667 11.8808   7
  14  -5   9-10.6066 13.6651  10
  14  -5   9 5.08613 11.1817  14
 -14   6   8 6.73691 12.8701  11
 -14   6   7 70.1579 22.2012  11
  14  -6  -7 74.2379 22.2469  17
 -14   6   6 12.2963 17.3413  11
  14  -6  -6 9.90340 13.7643  17
 -14   6   5 23.4072 19.6885  11
  14  -6  -5-1.46412 15.6859  17
 -14   6   4 9.11986 19.9075  11
  14  -6  -4 9.47628 15.3241  17
  14  -6  -4 25.7940 17.7587   8
 -14   6   3 331.672 48.1747  11
  14  -6  -3 366.192 44.2047  17
  14  -6  -3 287.606 38.2731   8
  14  -6  -2 2063.42 102.251   8
  14  -6  -2 1867.57 94.5870   7
  14  -6  -1 217.242 33.3656   7
  14  -6  -1 329.776 43.3001  17
  14  -6   0 2019.44 100.310  17
  14  -6   0 1554.39 87.9856   7
  14  -6   1-4.05908 17.8978   7
  14  -6   1 22.5204 20.8604  17
  14  -6   2 876.914 66.5717  17
  14  -6   2 713.779 60.7669   7
  14  -6   3 218.550 33.8861   7
  14  -6   3 238.911 37.0047  17
  14  -6   4 163.020 30.0018   7
  14  -6   4 195.236 34.7660  17
  14  -6   5 71.6125 21.5958   7
  14  -6   5 99.0848 25.0303  17
  14  -6   6 217.725 31.4837   7
  14  -6   6 312.711 37.4757  17
  14  -6   7 26.3748 14.5241  17
  14  -7  -5 561.294 42.8058  17
  14  -7  -4 761.658 52.4316  17
  14  -7  -3 271.864 33.9773  17
  14  -7  -2 244.740 33.4348  17
  14  -7  -1 930.239 62.8815  17
  14  -7   0 23.4586 15.9679  17
  14  -7   1 156.644 27.9067  17
  14  -7   2 94.6727 20.8084  17
  14  -7   3 68.5720 19.9714  17
  14  -7   4 118.149 22.6639  17
  14  -7   5 15.2174 12.5778  17
  15   0 -12 19.3008 11.4623  12
  15   0 -11 189.003 27.9565   8
  15   0 -11 241.996 30.1363  12
  15   0 -10 10.6972 13.4311  12
  15   0 -10 25.7534 17.3031   8
  15   0  -9 1237.42 77.5502   8
  15   0  -9 1198.63 74.7720  12
  15   0  -8 42.1672 25.1690  12
  15   0  -8 51.0186 23.9674   8
  15   0  -7 37.4474 24.3776   7
  15   0  -7 60.9150 25.7671   8
  15   0  -6 19.1560 21.6495   7
  15   0  -6 50.6502 27.3329   8
  15   0  -5 538.348 59.3674   8
  15   0  -5 507.337 57.7579   7
  15   0  -4-12.1311 22.9538   7
  15   0  -4-2.37033 21.3385   8
  15   0  -3 36.0909 24.3524   7
  15   0  -3 28.9863 17.8127   8
  15   0  -2 11.7095 15.3991   7
  15   0  -2-12.8134 22.7863  14
  15   0  -2-12.5915 27.8931   8
  15   0  -1 2248.74 118.986  14
  15   0  -1 2279.20 122.069   7
  15   0   0-7.00295 18.2420   7
  15   0   0 5.58022 19.8501  14
  15   0   1 1383.58 97.3061   7
  15   0   1 1494.29 100.213  14
  15   0   2 22.8200 18.2380   7
  15   0   2 0.64288 17.0179  14
  15   0   3 98.2953 30.9413   7
  15   0   3 62.5777 27.9948  14
  15   0   4 14.6194 15.7330   7
  15   0   4-15.3663 15.9522  14
  15   0   5 15.9698 18.0647   7
  15   0   5 20.8092 18.9585  14
  15   0   6-3.86546 16.4341   7
  15   0   6 16.1665 29.2257  15
  15   0   6-11.3136 20.3037  14
  15   0   7 67.8319 25.7378  15
  15   0   7 108.083 31.2330  14
  15   0   8 40.4582 26.5111  15
  15   0   8 6.92269 17.0669  14
  15   0   9 183.515 34.6732  15
  15   0   9 166.985 32.6641  14
  15   0  10 8.59000 14.5533  15
  15   0  10-22.4696 15.8052  14
  15   0  11 325.080 33.1603   7
  15   0  11 406.540 40.6113  15
  15   0  11 401.722 40.1606  14
  15  -1 -12 14.9899 9.82909  12
  15  -1 -12-4.71965 8.72996   8
  15   1 -11 64.4558 15.8223  12
  15  -1 -11 25.3441 13.9038  12
  15   1 -11 47.5410 15.8187   8
  15  -1 -11 59.8945 17.4463   8
  15   1 -10 132.550 24.1205  12
  15  -1 -10 179.842 29.8617  12
  15   1 -10 133.250 25.5871   8
  15  -1 -10 161.973 29.0693   8
  15   1  -9 596.060 52.4879   8
  15  -1  -9 651.677 59.0800   8
  15   1  -9 595.952 50.6199  12
  15  -1  -9 633.495 55.6045  12
  15   1  -8 95.6260 26.3791  12
  15   1  -8 141.014 29.0722   8
  15  -1  -8 105.656 25.2203   8
  15  -1  -7 286.305 45.8321   7
  15   1  -7 230.108 39.9678  12
  15   1  -7 275.443 41.8202   8
  15  -1  -7 271.419 42.4256   8
  15  -1  -6 3024.01 129.568  17
  15   1  -6 2826.12 130.545   8
  15  -1  -6 3122.51 139.807   8
  15   1  -6 2893.82 130.506   7
  15  -1  -6 3225.41 140.829   7
  15   1  -6 2795.18 124.812  12
  15   1  -5 78.6065 25.5898   7
  15  -1  -5 95.1852 28.6376   7
  15  -1  -5 130.236 33.0002  17
  15   1  -5 139.780 34.4432   8
  15  -1  -5 101.675 28.3886   8
  15   1  -4 98.8102 28.5092   7
  15  -1  -4 92.8196 28.0334   7
  15  -1  -4 140.646 30.6193  17
  15   1  -4 174.436 36.9761   8
  15  -1  -4 98.6255 28.6853   8
  15  -1  -3 1706.51 103.316  17
  15   1  -3 1642.06 102.367   8
  15  -1  -3 1674.49 104.032   8
  15   1  -3 1635.98 103.280   7
  15  -1  -3 1705.17 104.888   7
  15   1  -2 72.1528 23.5716   7
  15  -1  -2 55.5311 25.6015   7
  15  -1  -2 101.763 30.1663  14
  15  -1  -1 523.065 59.3987  14
  15   1  -1 549.437 59.2936   7
  15  -1  -1 525.495 60.8004   7
  15   1   0 275.442 42.5336   7
  15  -1   0 297.299 46.9898   7
  15  -1   0 298.919 46.8337  14
  15  -1   1 1716.64 107.847   7
  15  -1   1 1699.77 107.858  14
  15   1   1 1536.63 99.2533   7
  15   1   2 20.9517 16.1396   7
  15  -1   2 35.3780 19.9692   7
  15   1   2 57.9800 23.9484  14
  15  -1   2 63.6756 25.3259  14
  15   1   3 410.604 53.3222   7
  15  -1   3 446.539 56.0058   7
  15   1   3 433.448 53.4178  14
  15  -1   3 533.413 62.6292  14
  15  -1   4 349.731 51.2581   7
  15   1   4 340.235 48.2671  14
  15  -1   4 397.738 55.0724  14
  15  -1   5 1056.82 85.7972   7
  15  -1   5 1221.90 86.7579  10
  15   1   5 1053.69 82.6372  14
  15  -1   5 1084.00 86.0237  14
  15  -1   6 64.0707 29.3224  10
  15  -1   6 68.8307 30.7203  15
  15   1   6 55.5108 22.6009  15
  15   1   6 10.2475 20.3560  14
  15  -1   6 25.6533 26.8648  14
  15  -1   7 384.544 50.3856  10
  15   1   7 305.706 45.1181  15
  15  -1   7 321.019 49.4510  15
  15  -1   7 339.983 49.6971  14
  15   1   7 276.486 40.8719  14
  15  -1   8 265.339 42.5846  10
  15  -1   8 317.362 45.7879  15
  15   1   8 213.393 37.6659  15
  15   1   8 234.302 37.5320  14
  15  -1   8 277.643 45.3880  14
  15  -1   9 33.6963 19.2467  10
  15  -1   9 58.7788 22.8595  15
  15   1   9 73.5492 21.9140  15
  15   1   9 49.0506 18.2962  14
  15  -1   9 30.1029 18.0576  14
  15  -1  10-26.8839 16.1423  10
  15  -1  10-5.11226 19.7767  15
  15   1  10 2.72225 12.1963  15
  15   1  10-2.22592 10.9775  14
  15  -1  10-19.3575 20.0223  14
  15  -1  11 27.0253 15.7454  15
  15   1  11 7.02600 10.3616  15
  15   1  11 30.4949 12.4007  14
  15  -1  11 27.2443 15.2518  14
  15  -2 -11 189.025 25.9018  12
 -15   2  11 188.521 27.0103  11
  15  -2 -11 220.414 28.5186   8
  15  -2 -10 11.9197 14.1009  12
  15  -2 -10 5.10373 13.5666   8
  15  -2  -9 533.483 51.6283   8
  15  -2  -9 488.270 48.4922  12
  15  -2  -8 381.060 47.5978   8
  15  -2  -7 2804.78 120.813  17
  15  -2  -7 2621.36 121.877   8
  15  -2  -7 2632.17 125.089   7
  15  -2  -6 92.2906 31.6911   7
  15  -2  -6 88.9361 27.4147  17
  15  -2  -6 78.1074 27.8946   8
  15  -2  -5 1053.83 78.9370  17
  15  -2  -5 953.599 77.8388   8
  15  -2  -5 949.418 79.2736   7
  15  -2  -4 8.45917 17.9719   7
  15  -2  -4 66.4936 24.9466  17
  15  -2  -4 40.0937 21.4885   8
  15  -2  -3 133.807 34.4240   7
  15  -2  -3 81.8688 27.4290  17
  15  -2  -3 69.8856 18.8668   8
  15  -2  -2 26.3441 17.6575   7
  15  -2  -2 72.5509 26.3385  17
  15  -2  -2 74.8060 27.8527  14
  15  -2  -1 61.1533 24.4130   7
  15  -2  -1 86.9349 29.1369  17
  15  -2  -1 76.1656 23.9478  14
  15  -2   0 2966.69 135.045  17
  15  -2   0 3076.25 141.333  14
  15  -2   0 3036.90 142.282   7
  15  -2   1 68.1894 25.6372   7
  15  -2   1 54.6091 24.3291  14
  15  -2   2 1232.57 91.9848   7
  15  -2   2 1150.05 90.2757  14
  15  -2   3 525.102 60.9588   7
  15  -2   3 522.717 62.4212  14
  15  -2   4 30.8303 22.8362   7
  15  -2   4 57.6621 29.8934  14
  15  -2   5 33.5353 23.9834   7
  15  -2   5 65.5239 31.4021  10
  15  -2   5 19.2547 23.8889  14
  15  -2   6 464.594 54.2416  10
  15  -2   6 340.582 49.5726  14
  15  -2   7 781.796 67.4790  10
  15  -2   7 646.495 65.4178  14
  15  -2   8 50.9121 23.1242  10
  15  -2   8 15.2112 21.2141  14
  15  -2   9 426.838 46.3618  10
  15  -2   9 444.487 50.5979  14
  15  -2  10 524.496 46.9135  10
  15  -2  10 563.759 52.4058  14
  15  -2  11 517.127 44.4091   7
  15  -2  11 545.593 45.3892  14
  15  -3 -11 1.00949 8.96233  12
  15  -3 -10 46.7535 18.7890  12
  15  -3 -10 42.2489 16.4361   8
  15  -3  -9 477.340 47.7555   8
  15  -3  -9 449.607 46.6622  12
  15  -3  -8 534.873 53.2965   8
  15  -3  -7 166.593 36.1647   7
  15  -3  -7 168.408 32.9836  17
  15  -3  -7 174.801 35.0743   8
  15  -3  -6 23.0374 22.4585   7
  15  -3  -6 32.5530 22.4965  17
  15  -3  -6 0.68664 16.0725   8
  15  -3  -5 364.759 48.2641  17
  15  -3  -5 342.824 49.3810   8
  15  -3  -5 420.148 53.8996   7
  15  -3  -4 1068.35 79.8168  17
  15  -3  -4 986.693 78.9760   8
  15  -3  -4 901.775 75.7378   7
  15  -3  -3 172.578 34.8236   7
  15  -3  -3 274.936 43.3088  17
  15  -3  -3 235.800 41.4387   8
  15  -3  -2 284.091 47.2183   7
  15  -3  -2 285.061 44.6643  17
  15  -3  -1 1763.19 103.458  17
  15  -3  -1 1686.36 105.759  14
  15  -3  -1 1528.93 102.937   7
  15  -3   0-19.5161 20.6982   7
  15  -3   0 36.1884 22.8076  17
  15  -3   0 38.4278 21.8282  14
  15  -3   1 51.9690 24.0458   7
  15  -3   1 123.763 29.9565  17
  15  -3   1 104.179 28.8849  14
  15  -3   2 841.882 76.2121   7
  15  -3   2 887.146 72.0663  17
  15  -3   2 856.918 76.0675  14
  15  -3   3 827.048 75.5556   7
  15  -3   3 826.287 69.1888  17
  15  -3   3 866.603 77.1478  14
  15  -3   4 114.136 29.9556   7
  15  -3   4 118.915 30.8039  14
  15  -3   5 251.172 41.4367   7
  15  -3   5 394.397 49.9584  10
  15  -3   5 322.644 46.8478  14
  15  -3   6 754.251 69.2923   7
  15  -3   6 800.488 68.5879  10
  15  -3   6 745.041 69.7489  14
  15  -3   7 14.5897 22.2365   7
  15  -3   7 69.0949 25.6013  10
  15  -3   7 57.2451 23.9086  14
  15  -3   8 44.7953 18.9550   7
  15  -3   8 101.183 28.2184  10
  15  -3   8 114.888 26.8664  14
  15  -3   9 10.7365 15.3270   7
  15  -3   9 32.2515 18.0671  10
  15  -3   9-4.78844 16.1923  14
  15  -3  10 11.2786 12.4811   7
  15  -3  10 49.6299 16.5022  10
  15  -3  10 11.2608 12.8738  14
 -15   4  10 55.8117 15.7181  11
  15  -4  -9 38.2554 17.0427  12
 -15   4   9 24.7856 20.4238  11
  15  -4  -9 26.1079 13.1342   8
  15  -4  -8 279.342 36.7677   8
  15  -4  -7 62.5784 22.9258  17
  15  -4  -7 23.8228 19.9396   8
  15  -4  -6 361.358 43.8901  17
  15  -4  -6 257.006 40.0790   8
  15  -4  -6 327.709 44.8900   7
  15  -4  -5 91.8610 27.4335   7
  15  -4  -5 86.0248 24.8870  17
  15  -4  -5 91.7479 24.5130   8
  15  -4  -4 49.3517 20.1997   7
  15  -4  -4 58.6101 24.5802  17
  15  -4  -4 32.7377 18.4118   8
  15  -4  -3 71.1967 24.3747   7
  15  -4  -3 73.8720 23.4929  17
  15  -4  -3 58.6784 19.5761   8
  15  -4  -2 565.044 58.9191  17
  15  -4  -2 602.461 63.1195   7
  15  -4  -1 79.5972 26.1987   7
  15  -4  -1 74.0101 27.1503  17
  15  -4   0 199.212 37.3061   7
  15  -4   0 194.533 37.3110  17
  15  -4   0 218.242 40.6800  14
  15  -4   1 367.849 46.8861  17
  15  -4   1 384.883 52.6033  14
  15  -4   1 397.816 52.1997   7
  15  -4   2 330.748 48.5698   7
  15  -4   2 264.593 39.4817  17
  15  -4   2 258.603 43.0518  14
  15  -4   3 24.7963 18.7528   7
  15  -4   3-8.45511 18.1503  17
  15  -4   3 11.3815 18.6469  14
  15  -4   4 23.2127 19.4451   7
  15  -4   4 11.9791 15.6111  17
  15  -4   4 23.4744 21.7934  14
  15  -4   5 485.069 55.7695   7
  15  -4   5 388.648 43.1879  17
  15  -4   5 429.708 52.7395  14
  15  -4   6 1133.81 80.9455   7
  15  -4   6 1121.65 81.6933  14
  15  -4   7 4.11873 16.5755   7
  15  -4   7-12.5815 19.0702  14
  15  -4   8 484.827 50.6694   7
  15  -4   8 471.546 48.8714  14
  15  -4   9 234.601 32.4982   7
  15  -4   9 279.983 33.7458  14
 -15   5   8 383.689 39.0858  11
  15  -5  -8 423.313 37.6546  12
 -15   5   7 306.774 37.7618  11
  15  -5  -7 304.024 36.2905  17
  15  -5  -7 232.039 30.4128   8
 -15   5   6 454.604 50.5631  11
  15  -5  -6 414.479 44.0287  17
  15  -5  -6 395.164 42.6290   8
  15  -5  -5 654.304 55.5716  17
  15  -5  -5 628.948 55.8767   8
  15  -5  -5 669.776 58.9081   7
  15  -5  -4 235.316 35.9248   7
  15  -5  -4 241.266 36.8613  17
  15  -5  -4 176.955 32.7723   8
  15  -5  -3 204.959 35.1500   7
  15  -5  -3 189.781 33.3605  17
  15  -5  -3 177.302 32.8962   8
  15  -5  -2 72.0007 21.5199   7
  15  -5  -2 49.8931 21.1472  17
  15  -5  -2 65.2260 21.7669   8
  15  -5  -1 82.1725 25.5806   7
  15  -5  -1 79.2263 26.1662  17
  15  -5   0 12.7520 14.7314   7
  15  -5   0 28.0140 19.7041  17
  15  -5   1 973.781 72.1690  17
  15  -5   1 860.708 69.2649   7
  15  -5   2 236.958 38.8979   7
  15  -5   2 296.726 42.1694  17
  15  -5   2 262.431 41.3511  14
  15  -5   3 1081.85 73.1427  17
  15  -5   3 1066.81 75.9756  14
  15  -5   3 1148.19 78.9120   7
  15  -5   4 243.622 37.9767   7
  15  -5   4 210.590 33.7588  17
  15  -5   4 214.647 35.8895  14
  15  -5   5 48.5223 20.7713   7
  15  -5   5 9.06646 12.3761  17
  15  -5   5 68.0925 22.6161  14
  15  -5   6 37.8860 18.7986   7
  15  -5   6 27.2035 14.3812  17
  15  -5   6 43.4086 18.7670  14
  15  -5   7-4.66994 15.7598   7
  15  -5   7-10.5913 12.2628  17
  15  -5   7-2.19631 11.3846  14
  15  -6  -6 26.5186 13.7303  17
 -15   6   5 179.905 27.7386  11
  15  -6  -5 262.522 32.7089  17
 -15   6   4 61.3660 20.1563  11
  15  -6  -4 105.490 22.8001  17
  15  -6  -4 60.2431 16.0482   8
  15  -6  -3 545.613 48.8400  17
  15  -6  -3 439.170 41.4215   8
  15  -6  -2 173.748 29.8429  17
  15  -6  -2 115.151 24.4904   8
  15  -6  -1-3.74551 13.4740   7
  15  -6  -1 12.3922 15.6154  17
  15  -6  -1 3.83003 11.8680   8
  15  -6   0-3.70658 13.1646   7
  15  -6   0 37.0298 18.6393  17
  15  -6   0 31.7927 17.4636   8
  15  -6   1 148.569 26.1100   7
  15  -6   1 236.692 35.4075  17
  15  -6   2 682.774 55.9388  17
  15  -6   2 546.464 47.6041   7
  15  -6   3 8.20000 12.0811   7
  15  -6   3 10.8310 14.5713  17
  15  -6   4 129.274 24.0562   7
  15  -6   4 180.123 28.6593  17
  15  -6   5 402.597 38.4084  17
  15  -7  -2 240.551 28.2006  17
  15  -7  -1 66.8099 16.8382  17
  15  -7   0 152.435 23.7234  17
  15  -7   1 75.8230 18.1245  17
  15  -7   2 183.476 25.6655  17
  16   0 -10 291.860 31.2692   8
  16   0 -10 332.811 31.6387  12
  16   0  -9 25.4221 14.0844  12
  16   0  -9 19.0512 16.1980   8
  16   0  -8 1093.38 69.4829   8
  16   0  -8 1107.74 67.4670  12
  16   0  -7 10.3021 15.5632  12
  16   0  -7 0.12451 14.0285   8
  16   0  -6 414.084 49.8030   8
  16   0  -6 428.738 50.6730   7
  16   0  -5 1.17360 14.7129   7
  16   0  -5 29.3534 16.7797   8
  16   0  -4 167.906 32.2195   7
  16   0  -4 156.752 32.1081   8
  16   0  -3 1.69925 15.7424   7
  16   0  -3 1.77020 16.9310   8
  16   0  -2-11.2188 20.7589   7
  16   0  -2-14.5553 18.7988   8
  16   0  -1 2.19414 18.2067   7
  16   0  -1-21.3287 21.6369  14
  16   0  -1-18.1862 16.3979   8
  16   0   0 537.828 56.3266  14
  16   0   0 584.820 60.1904   7
  16   0   1-11.8783 17.7645   7
  16   0   1 0.94611 17.4765  14
  16   0   2 86.2603 28.4818   7
  16   0   2 59.7159 24.1253  14
  16   0   3 21.3858 21.7212   7
  16   0   3 7.18240 17.9647  14
  16   0   4 37.6051 19.4637   7
  16   0   4 5.73493 15.3883  14
  16   0   5-6.02238 16.5245   7
  16   0   5-3.15570 16.8273  14
  16   0   6 247.830 37.4943   7
  16   0   6 267.078 40.0812  14
  16   0   7-9.50901 17.7619   7
  16   0   7-4.70453 15.6944  14
  16   0   8-7.81903 15.4496   7
  16   0   8 28.7247 17.2134  14
  16   0   9-0.75712 9.25388   7
  16   0   9 3.86226 11.7853  14
  16   0  10 557.516 41.9049  14
  16  -1 -10 255.739 29.3434   8
  16  -1 -10 265.396 29.6556  12
  16   1  -9 58.6130 15.5338  12
  16  -1  -9 113.420 22.9518  12
  16   1  -9 73.1210 17.6768   8
  16  -1  -9 85.8742 22.4238   8
  16  -1  -8 4.30318 13.6512  12
  16   1  -8 19.5086 14.8694   8
  16   1  -7 124.063 25.6931   8
  16  -1  -7 142.784 29.9969   8
  16  -1  -7 136.014 32.3866   7
  16  -1  -6 170.244 33.9282   7
  16   1  -6 138.879 28.7567   8
  16  -1  -6 136.880 31.0725   8
  16  -1  -5 1294.62 80.3840  17
  16   1  -5 1302.21 82.4863   8
  16  -1  -5 1460.15 92.1756   8
  16   1  -5 1330.76 85.0729   7
  16  -1  -5 1420.84 91.4825   7
  16   1  -4 31.3018 16.0620   7
  16  -1  -4 46.6037 19.4530   7
  16   1  -4 45.4130 21.6088   8
  16  -1  -4 94.7122 26.3432   8
  16   1  -3 16.7206 13.4944   7
  16  -1  -3 3.17674 17.7714   7
  16  -1  -3-0.70098 19.3422   8
  16   1  -2-0.68595 17.2114   7
  16  -1  -2 20.9978 16.8936   7
  16  -1  -2 43.2423 19.2933   8
  16  -1  -1 1365.53 91.8945  14
  16  -1  -1 1363.27 92.4529   7
  16  -1   0 21.7309 16.3881   7
  16  -1   0 43.1997 21.8427  14
  16  -1   1 248.132 41.4961   7
  16  -1   1 236.517 42.5900  14
  16  -1   2 311.777 46.7279   7
  16  -1   2 335.043 48.1287  14
  16  -1   3 47.7850 22.7602   7
  16  -1   3 43.5195 23.8115  14
  16  -1   4 134.035 32.5896   7
  16   1   4 109.001 28.3227  14
  16  -1   4 133.086 31.3343  14
  16  -1   5 213.074 38.5340   7
  16   1   5 142.650 30.3175  14
  16  -1   5 216.992 38.4885  14
  16  -1   6 46.7574 18.1726   7
  16   1   6 39.4214 17.3411  14
  16  -1   6 49.9839 19.7948  14
  16  -1   7 298.426 41.2680   7
  16   1   7 281.389 37.2455  14
  16  -1   7 230.872 38.5709  14
  16  -1   8 509.482 50.8377   7
  16   1   8 437.880 42.8307  14
  16  -1   8 546.986 52.4064  14
  16  -1   9 77.8556 19.6783   7
  16  -1   9 50.7974 19.5918  14
  16  -1  10 127.865 22.4853  14
  16  -2 -10 179.606 24.2343   8
  16  -2 -10 207.138 25.4222  12
  16  -2  -9 241.875 30.4109   8
  16  -2  -9 257.820 31.8193  12
  16  -2  -8 27.7360 15.7288  12
  16  -2  -8 30.3984 17.3648   8
  16  -2  -7 86.6260 27.5994   8
  16  -2  -7 51.7503 21.9108   7
  16  -2  -6 1232.60 75.9546  17
  16  -2  -6 1199.07 79.8155   8
  16  -2  -6 1286.96 83.0540   7
  16  -2  -5 26.9671 17.8649   7
  16  -2  -5 57.9704 21.8944  17
  16  -2  -5 40.7737 21.5069   8
  16  -2  -4 71.4357 19.5839   7
  16  -2  -4 113.559 26.9797  17
  16  -2  -4 60.1030 20.3015   8
  16  -2  -3 111.854 24.7105   7
  16  -2  -3 132.450 29.4992  17
  16  -2  -3 79.7911 20.2501   8
  16  -2  -2 459.255 50.9817  17
  16  -2  -2 489.105 55.0972   8
  16  -2  -2 531.689 58.3213   7
  16  -2  -1 126.418 30.6191   7
  16  -2  -1 115.541 28.8761  14
  16  -2   0 1.64546 19.2212   7
  16  -2   0-22.3010 23.0180  14
  16  -2   1 399.195 50.9081  14
  16  -2   1 468.773 57.0705   7
  16  -2   2 82.1484 29.7617   7
  16  -2   2 89.2083 27.9983  14
  16  -2   3 575.593 60.1854   7
  16  -2   3 646.233 65.1544  14
  16  -2   4 309.613 45.7701   7
  16  -2   4 287.986 44.3917  14
  16  -2   5 12.4280 19.3413   7
  16  -2   5 53.9572 25.1702  14
  16  -2   6 10.1942 16.3519   7
  16  -2   6 26.6059 20.5379  14
  16  -2   7 150.012 30.5174   7
  16  -2   7 186.497 34.1733  14
  16  -2   8 17.3354 13.4859   7
  16  -2   8 41.2980 17.1762  14
  16  -2   9 25.5649 14.1978   7
  16  -2   9 54.1180 18.1980  14
  16  -2  10 187.090 25.9416  14
  16  -3  -9 669.578 46.7460   8
  16  -3  -9 684.778 47.5108  12
  16  -3  -8 20.6101 13.7180  12
  16  -3  -8 23.6975 14.7153   8
  16  -3  -7 211.461 33.2096   8
  16  -3  -6 688.552 55.5330  17
  16  -3  -6 648.297 57.7325   8
  16  -3  -6 657.912 60.2666   7
  16  -3  -5 594.864 54.9786  17
  16  -3  -5 571.939 56.5429   8
  16  -3  -5 623.587 60.3452   7
  16  -3  -4 179.534 33.4753   7
  16  -3  -4 186.977 32.6260  17
  16  -3  -4 181.397 32.5626   8
  16  -3  -3 26.2783 18.6757   7
  16  -3  -3 49.2760 20.4473  17
  16  -3  -3 4.30553 22.4028   8
  16  -3  -2 165.261 34.3710   7
  16  -3  -2 212.607 36.6607  17
  16  -3  -2 170.205 33.0811   8
  16  -3  -1 2090.74 107.674  17
  16  -3  -1 2339.25 117.254   7
  16  -3   0 274.321 40.2455  17
  16  -3   0 317.516 45.6086  14
  16  -3   0 356.142 48.4807   7
  16  -3   1 400.221 47.4893  17
  16  -3   1 425.213 51.3145  14
  16  -3   1 396.292 49.8851   7
  16  -3   2 32.2413 18.6502   7
  16  -3   2 26.1143 22.4256  14
  16  -3   3 219.902 38.3832   7
  16  -3   3 254.937 44.0599  14
  16  -3   4 923.050 74.4491   7
  16  -3   4 923.154 74.6647  14
  16  -3   5 148.456 33.0850   7
  16  -3   5 202.120 37.5662  14
  16  -3   6 338.637 44.0155   7
  16  -3   6 326.423 43.5171  14
  16  -3   7 202.272 32.4236   7
  16  -3   7 277.346 38.4517  14
  16  -3   8 3.15627 12.0459   7
  16  -3   8 10.4157 15.1818  14
  16  -3   9 48.4327 15.8585   7
  16  -3   9 56.0489 17.0834  14
 -16   4   8 202.805 28.1676  11
  16  -4  -8 206.443 25.8419   8
  16  -4  -8 223.907 28.4411  12
  16  -4  -7 326.663 36.4110   8
  16  -4  -6-0.57936 13.7605  17
  16  -4  -6 10.5509 13.9556   8
  16  -4  -6 10.1914 14.6246   7
  16  -4  -5 175.790 32.3980   7
  16  -4  -5 202.348 32.0347  17
  16  -4  -5 185.335 31.6191   8
  16  -4  -4 20.3634 17.5780   7
  16  -4  -4 33.3106 16.9120  17
  16  -4  -4 9.00727 15.0895   8
  16  -4  -3 9.36914 14.6985   7
  16  -4  -3 9.60933 15.2985  17
  16  -4  -3 10.7739 14.7163   8
  16  -4  -2 118.396 29.1738   7
  16  -4  -2 81.2310 23.7554  17
  16  -4  -2 109.016 26.4950   8
  16  -4  -1 611.530 55.5926  17
  16  -4  -1 522.420 55.6811   7
  16  -4   0 77.3007 24.6948   7
  16  -4   0 49.0432 19.5725  17
  16  -4   1 741.896 61.2401  17
  16  -4   1 796.867 67.6134  14
  16  -4   1 822.003 67.6960   7
  16  -4   2 22.6401 15.4698   7
  16  -4   2 56.3439 20.9308  17
  16  -4   2 56.9858 27.5949  14
  16  -4   3 72.9689 25.0132   7
  16  -4   3 56.1343 20.6669  17
  16  -4   3 53.5019 23.6826  14
  16  -4   4 54.1434 22.2271   7
  16  -4   4 51.4732 23.7734  14
  16  -4   5 22.7567 18.8112   7
  16  -4   5 53.3323 24.4117  14
  16  -4   6 205.081 33.5226   7
  16  -4   6 230.393 35.6267  14
  16  -4   7 108.100 24.0994   7
  16  -4   7 105.527 22.6666  14
  16  -4   8 84.8397 19.1746   7
 -16   5   6 8.99263 12.1330  11
  16  -5  -6 11.2996 10.2788  17
 -16   5   5 142.063 25.8093  11
  16  -5  -5 182.293 27.4112  17
  16  -5  -5 174.638 26.6101   8
  16  -5  -4 103.250 22.3670   7
 -16   5   4 83.7563 22.0188  11
  16  -5  -4 150.200 26.3395  17
  16  -5  -4 144.533 25.9021   8
  16  -5  -3 83.8653 21.7905   7
 -16   5   3 76.8153 22.2055  11
  16  -5  -3 112.907 24.6855  17
  16  -5  -3 80.1527 22.5138   8
  16  -5  -2 108.157 25.4763   7
  16  -5  -2 160.745 27.3845  17
  16  -5  -2 131.301 26.5296   8
  16  -5  -1 16.0019 13.9134   7
  16  -5  -1-14.9231 16.3826  17
  16  -5  -1 2.92608 13.5262   8
  16  -5   0 62.9885 22.0888   7
  16  -5   0 89.3030 23.7139  17
  16  -5   1 61.0714 21.1885   7
  16  -5   1 59.9415 21.3675  17
  16  -5   2 484.921 46.2213  17
  16  -5   2 565.283 51.3996   7
  16  -5   3 67.7868 23.7257   7
  16  -5   3 71.2642 20.0583  17
  16  -5   4 490.094 42.1097  17
  16  -5   4 532.741 48.4223   7
  16  -5   5 252.495 31.9985  14
  16  -5   5 241.918 32.3641   7
  16  -6  -3 18.7750 11.2290  17
  16  -6  -2 231.757 29.2308  17
  16  -6  -1 122.209 22.6499  17
  16  -6   0 742.369 51.3704  17
  16  -6   1 350.435 36.1093  17
  16  -6   2 50.9853 15.9730  17
  17   0  -8 3.31650 8.91268   8
  17   0  -7 91.1374 20.0983  12
  17   0  -7 72.0985 18.7454   8
  17   0  -6-30.8692 14.6412  12
  17   0  -6-30.0703 19.7606   8
  17   0  -5 46.6371 18.7731   7
  17   0  -5 6.26792 13.0412   8
  17   0  -4-13.6470 17.8669   7
  17   0  -4 11.0308 15.7375   8
  17   0  -3-17.6424 16.5940   7
  17   0  -3 8.21785 12.6965   8
  17   0  -2-5.77652 14.9558   7
  17   0  -2-0.84771 15.8153   8
  17   0  -1 811.539 65.3797   8
  17   0  -1 851.043 67.7819   7
  17   0   0 24.3591 17.8981   7
  17   0   0 13.5443 12.7674   8
  17   0   1 662.623 59.0626  14
  17   0   1 694.088 62.7654   7
  17   0   2 3.42157 14.9829   7
  17   0   2 2.92235 13.0903  14
  17   0   3 1309.27 81.4305  14
  17   0   3 1223.53 79.4113   7
  17   0   4 26.9605 16.6629   7
  17   0   4 4.83252 14.4771  14
  17   0   5 907.559 64.3716  14
  17   0   5 916.222 64.1750   7
  17   0   6 12.5138 12.3930   7
  17   0   6-1.99675 11.4589  14
  17   0   7 541.387 45.3631  14
  17   0   7 486.809 41.0659   7
  17   0   8 18.1041 11.6380  14
  17  -1  -8-28.7870 14.3893  12
  17  -1  -8 3.62380 10.4592   8
  17  -1  -7 180.899 26.3162  12
  17  -1  -7 179.799 27.7054   8
  17  -1  -6-27.8894 17.5750  12
  17  -1  -6-26.9640 18.0706   8
  17  -1  -6 3.12542 14.0842   7
  17  -1  -5 359.149 43.7671   8
  17  -1  -5 362.240 43.9474   7
  17  -1  -4 36.8455 17.9901   7
  17  -1  -4 73.0058 21.4691   8
  17  -1  -3-3.57978 17.6766   7
  17  -1  -3 25.5828 16.8879   8
  17  -1  -2 64.5874 23.5077   7
  17  -1  -2 77.9190 22.6305   8
  17  -1  -1 165.973 32.1364   7
  17  -1  -1 122.900 30.1139   8
  17  -1   0 423.517 49.9883   8
  17  -1   0 433.323 51.4652   7
  17  -1   1 1027.04 74.9039  14
  17  -1   1 1033.36 77.0974   7
  17  -1   2 123.733 30.5848   7
  17  -1   2 72.3480 23.7628  14
  17  -1   3-5.12111 14.2922   7
  17  -1   3 24.6798 17.5577  14
  17  -1   4 84.2309 23.8832   7
  17  -1   4 102.898 27.3396  14
  17  -1   5 85.7611 25.3434   7
  17  -1   5 124.194 26.2696  14
  17  -1   6 97.2538 23.0307   7
  17  -1   6 72.5365 21.8195  14
  17  -1   7 398.848 40.3491   7
  17  -1   7 407.659 41.0684  14
  17  -1   8 8.77700 10.4729   7
  17  -1   8 29.9902 14.4381  14
  17  -2  -8 480.427 39.6991   8
  17  -2  -8 500.095 38.7901  12
  17  -2  -7 0.54854 11.0325  12
  17  -2  -7-16.3393 15.2810   8
  17  -2  -6-5.49664 12.7435   8
  17  -2  -6 14.5097 15.2869   7
  17  -2  -5 26.1645 18.3333   7
  17  -2  -5-3.57845 15.4440   8
  17  -2  -4 294.275 39.5503   7
  17  -2  -4 299.098 36.3959  17
  17  -2  -4 365.497 43.7244   8
  17  -2  -3 75.5127 22.5728   7
  17  -2  -3 101.190 25.2837   8
  17  -2  -2 691.792 60.3231   8
  17  -2  -2 702.543 61.7898   7
  17  -2  -1 61.7097 24.2394   7
  17  -2  -1 87.4308 26.2262   8
  17  -2   0 249.104 39.1348   7
  17  -2   1 475.850 52.6013  14
  17  -2   1 522.411 54.6654   7
  17  -2   2 272.286 41.9152   7
  17  -2   2 288.113 41.7833  14
  17  -2   3 233.283 39.9472  14
  17  -2   3 295.718 41.3592   7
  17  -2   4 31.7282 19.8243   7
  17  -2   4 8.80542 15.4794  14
  17  -2   5 447.389 48.2728   7
  17  -2   5 484.671 49.2164  14
  17  -2   6 152.084 27.7578   7
  17  -2   6 169.078 29.8998  14
  17  -2   7 106.072 22.4785   7
  17  -2   7 121.704 24.7207  14
  17  -2   8 492.158 40.0461   7
  17  -2   8 538.378 42.5839  14
  17  -3  -7 42.1885 14.7782  12
  17  -3  -7 50.8860 16.0004   8
  17  -3  -6 100.436 22.3222   8
  17  -3  -5 15.0032 12.3671   7
  17  -3  -5 41.3585 16.1782  17
  17  -3  -5 36.3743 18.6668   8
  17  -3  -4 90.9042 24.1678   7
  17  -3  -4 106.585 21.9887  17
  17  -3  -4 101.849 24.1253   8
  17  -3  -3 34.7768 18.7998   7
  17  -3  -3 40.7457 18.3043  17
  17  -3  -3 25.2870 16.2459   8
  17  -3  -2 177.239 32.9228   7
  17  -3  -2 193.380 30.9209  17
  17  -3  -2 211.402 34.5262   8
  17  -3  -1 11.6152 15.2640   7
  17  -3  -1-3.32868 13.1922  17
  17  -3  -1 4.47086 15.8269   8
  17  -3   0 178.722 33.6723   7
  17  -3   1 491.554 51.9527   7
  17  -3   2 459.647 49.6487  14
  17  -3   2 477.497 50.3670   7
  17  -3   3 10.4711 14.8423   7
  17  -3   3 32.8079 18.8674  14
  17  -3   4 774.138 61.1012  14
  17  -3   4 664.679 57.1736   7
  17  -3   5 29.0767 14.8405   7
  17  -3   5 17.0723 17.1385  14
  17  -3   6 392.998 41.2402  14
  17  -3   6 344.229 38.8690   7
  17  -3   7 4.89448 9.48699   7
  17  -3   7 6.82409 10.7958  14
  17  -4  -5 2.37328 9.89304  17
  17  -4  -5-2.02188 10.4905   8
  17  -4  -5-1.08405 10.7443   7
  17  -4  -4 116.468 24.1584   7
  17  -4  -4 71.1715 16.7639  17
  17  -4  -4 70.6440 19.0075   8
  17  -4  -3 210.308 32.8858   7
  17  -4  -3 198.496 28.4260  17
  17  -4  -3 221.881 32.8102   8
  17  -4  -2 174.316 30.0739   7
  17  -4  -2 213.487 29.7711  17
  17  -4  -2 183.517 30.4312   8
  17  -4  -1 485.692 44.4446  17
  17  -4  -1 469.345 47.7825   8
  17  -4  -1 440.966 45.0191   7
  17  -4   0 81.3779 23.6750   7
  17  -4   0 54.6202 17.4202  17
  17  -4   0 53.7321 20.5108   8
  17  -4   1 70.4313 22.5149   7
  17  -4   1 61.0676 17.6776  17
  17  -4   2 391.745 43.0662   7
  17  -4   3 191.292 31.1944   7
  17  -4   4 50.6469 19.5673   7
  17  -4   4 62.5340 21.6503  14
  17  -4   5 0.42881 12.0292   7
  17  -4   5 22.1055 13.7758  14
  17  -5  -2 744.443 47.9853  17
  17  -5  -2 770.826 50.5265   8
  17  -5  -1 481.333 39.6218  17
  17  -5  -1 484.278 41.8312   8
  17  -5   0 32.9200 14.1616   7
  17  -5   0 81.2724 18.4943  17
  17  -5   0 89.9466 20.9438   8
  17  -5   1 56.1411 18.9662   8
  17  -5   2 22.7528 13.7609   8
  18   0  -5-14.2572 11.7256   8
  18   0  -4 9.52268 11.4821   8
  18   0  -4 43.2028 15.4701   7
  18   0  -3 8.07427 13.3381   7
  18   0  -3 5.84340 12.7623   8
  18   0  -2-13.4412 15.0209   7
  18   0  -1 6.25845 11.2988   7
  18   0   0 227.597 31.5379   7
  18   0   1-7.94885 11.6497   7
  18   0   2 58.1018 18.1289   7
  18   0   3 3.21618 10.6042   7
  18   0   4 50.2392 14.7891  14
  18  -1  -6-14.3980 11.8957   8
  18  -1  -5 2.36564 11.9986   8
  18  -1  -4 201.242 28.6832   7
  18  -1  -4 172.577 26.6567   8
  18  -1  -3 29.8280 16.9739   7
  18  -1  -3 11.0065 10.7689   8
  18  -1  -2 127.999 25.7097   7
  18  -1  -2 141.526 26.2366   8
  18  -1  -1 82.8889 21.9735   7
  18  -1  -1 93.2185 22.3932   8
  18  -1   0 60.3311 19.7205   7
  18  -1   0 74.4736 21.9795   8
  18  -1   1 162.742 27.9699   7
  18  -1   1 131.656 25.1580   8
  18  -1   2 79.6790 21.2386   7
  18  -1   2 46.6188 17.1959   8
  18  -1   3 61.4100 18.2018   7
  18  -1   3 40.1507 15.9928  14
  18  -1   3 41.2502 15.1639   8
  18  -1   4 9.23868 11.9895   7
  18  -1   4-9.42839 11.5274  14
  18  -1   5 350.634 35.2638  14
  18  -1   5 295.084 31.9418   7
  18  -2  -5 66.0884 17.4662   8
  18  -2  -4 1.52299 10.9771   7
  18  -2  -4-13.1865 13.1759   8
  18  -2  -3 34.5168 15.7730   7
  18  -2  -3 16.0043 13.2217   8
  18  -2  -2 114.655 24.1705   7
  18  -2  -2 141.362 26.9947   8
  18  -2  -1 292.955 36.5101   8
  18  -2  -1 289.074 36.4707   7
  18  -2   0 57.6400 19.7412   7
  18  -2   0 69.9383 21.1997   8
  18  -2   1 1457.25 77.9752   8
  18  -2   1 1546.52 82.1038   7
  18  -2   2 258.521 33.6862   8
  18  -2   2 308.617 37.7294   7
  18  -2   3 185.680 29.3773   7
  18  -2   3 222.920 31.5094  14
  18  -2   3 183.275 28.4442   8
  18  -2   4 37.7625 16.7529   7
  18  -2   4 43.7760 15.3144  14
  18  -2   5 432.047 38.8424  14
  18  -2   5 409.300 37.8184   7
  18  -3  -4 22.3897 12.5339   7
  18  -3  -4 29.0222 11.9901   8
  18  -3  -3-5.89640 13.8736   7
  18  -3  -3 13.4923 11.5923   8
  18  -3  -2 419.789 41.1747   8
  18  -3  -2 443.423 42.0323   7
  18  -3  -1-0.18887 14.7367   7
  18  -3  -1 11.4449 13.5674   8
  18  -3   0 169.614 27.5934   7
  18  -3   0 198.147 30.2838   8
  18  -3   1 507.543 45.1767   8
  18  -3   1 487.272 44.8303   7
  18  -3   2 130.740 25.4213   7
  18  -3   2 180.100 27.4152   8
  18  -3   3 3.85012 10.8252   7
  18  -3   3 11.5552 12.4972   8
  18  -3   4 196.402 27.3045   7
  18  -4   0 29.0122 13.9574   8
   0   0   0    0.00    0.00   0
TITL cyc-wkk-515-3-2 in P2(1)/n
REM P2(1)/n (#14 in standard setting)
CELL 1.54184  15.517332   9.245560  15.664701  90.0000  90.4044  90.0000
ZERR   10.00   0.000364   0.000191   0.000476   0.0000   0.0023   0.0000
LATT  1
SYMM -x+1/2, y+1/2,-z+1/2
SFAC C H N O
UNIT 110.00 100.00 10.00 10.00
TREF
HKLF 4
END
;
_shelx_hkl_checksum              37392
_shelx_shelxl_version_number     2014/7
_olex2_date_sample_data_collection 2015-07-17
_olex2_submission_special_instructions 'No special instructions were received'
loop_
_space_group_symop_operation_xyz
'x, y, z'
'-x+1/2, y+1/2, -z+1/2'
'-x, -y, -z'
'x-1/2, -y-1/2, z-1/2'
loop_
_atom_site_label
_atom_site_type_symbol
_atom_site_fract_x
_atom_site_fract_y
_atom_site_fract_z
_atom_site_U_iso_or_equiv
_atom_site_adp_type
_atom_site_occupancy
_atom_site_site_symmetry_order
_atom_site_calc_flag
_atom_site_refinement_flags_posn
_atom_site_refinement_flags_adp
S001 S 0.65136(6) 0.17703(8) 0.48616(7) 0.0859(3) Uani 1 1 d . .
N002 N 0.72098(16) 0.3144(3) 0.47396(18) 0.0718(7) Uani 1 1 d . .
O003 O 0.98681(15) 0.7914(4) 0.34950(18) 0.1090(10) Uani 1 1 d . .
O004 O 0.6383(2) 0.1532(3) 0.5752(2) 0.1179(10) Uani 1 1 d . .
C005 C 0.73045(14) 0.5592(3) 0.41904(16) 0.0532(6) Uani 1 1 d . .
H005 H 0.6950 0.6402 0.4388 0.064 Uiso 1 1 calc R .
C006 C 0.68261(15) 0.4222(3) 0.43927(16) 0.0554(6) Uani 1 1 d . .
C007 C 0.82011(14) 0.5744(3) 0.46197(17) 0.0575(6) Uani 1 1 d . .
H007 H 0.8459 0.4781 0.4680 0.069 Uiso 1 1 calc R .
C008 C 0.74591(16) 0.5815(3) 0.32050(17) 0.0585(6) Uani 1 1 d . .
H008 H 0.7548 0.4864 0.2944 0.070 Uiso 1 1 calc R .
O009 O 0.6791(2) 0.0585(3) 0.4358(2) 0.1230(11) Uani 1 1 d . .
O00A O 0.99823(18) 0.6861(5) 0.4736(2) 0.1319(14) Uani 1 1 d . .
C00B C 0.86893(15) 0.6578(3) 0.39464(18) 0.0586(6) Uani 1 1 d . .
C00C C 0.81452(15) 0.6437(3) 0.54897(18) 0.0621(7) Uani 1 1 d . .
C00D C 0.58895(16) 0.4044(3) 0.41980(17) 0.0617(7) Uani 1 1 d . .
C00E C 0.67618(17) 0.6585(3) 0.27132(19) 0.0628(7) Uani 1 1 d . .
C00F C 0.83018(16) 0.6608(3) 0.32050(18) 0.0621(7) Uani 1 1 d . .
H00F H 0.8524 0.7072 0.2728 0.075 Uiso 1 1 calc R .
C00G C 0.95676(18) 0.7144(4) 0.4122(2) 0.0731(8) Uani 1 1 d . .
C00H C 0.64255(19) 0.7888(3) 0.3000(2) 0.0755(8) Uani 1 1 d . .
H00H H 0.6632 0.8309 0.3500 0.091 Uiso 1 1 calc R .
C00I C 0.79721(18) 0.7892(4) 0.5584(2) 0.0737(8) Uani 1 1 d . .
H00I H 0.7907 0.8463 0.5099 0.088 Uiso 1 1 calc R .
C00J C 0.52992(17) 0.5017(4) 0.3869(2) 0.0732(8) Uani 1 1 d . .
H00J H 0.5461 0.5958 0.3734 0.088 Uiso 1 1 calc R .
C00K C 0.5626(2) 0.2667(4) 0.4401(2) 0.0757(8) Uani 1 1 d . .
C00L C 0.4460(2) 0.4552(5) 0.3746(2) 0.0946(11) Uani 1 1 d . .
H00L H 0.4054 0.5200 0.3532 0.114 Uiso 1 1 calc R .
C00M C 0.8240(2) 0.5633(5) 0.6218(2) 0.0838(9) Uani 1 1 d . .
H00M H 0.8351 0.4647 0.6175 0.101 Uiso 1 1 calc R .
C00N C 0.6451(2) 0.6018(5) 0.1953(2) 0.0849(9) Uani 1 1 d . .
H00N H 0.6669 0.5145 0.1754 0.102 Uiso 1 1 calc R .
C00O C 0.7893(2) 0.8522(5) 0.6375(3) 0.0929(11) Uani 1 1 d . .
H00O H 0.7771 0.9504 0.6413 0.112 Uiso 1 1 calc R .
C00P C 0.5777(2) 0.8552(4) 0.2528(3) 0.0959(12) Uani 1 1 d . U
H00P H 0.5539 0.9411 0.2725 0.115 Uiso 1 1 calc R .
C00Q C 0.8174(3) 0.6258(7) 0.7023(3) 0.1106(15) Uani 1 1 d . .
H00Q H 0.8251 0.5700 0.7512 0.133 Uiso 1 1 calc R .
C00R C 0.5481(3) 0.7969(6) 0.1780(3) 0.1062(14) Uani 1 1 d . U
H00R H 0.5046 0.8426 0.1470 0.127 Uiso 1 1 calc R .
C00S C 0.7988(2) 0.7747(6) 0.7090(3) 0.1047(14) Uani 1 1 d . .
H00S H 0.7933 0.8182 0.7623 0.126 Uiso 1 1 calc R .
C00T C 0.4788(3) 0.2204(5) 0.4271(3) 0.0999(13) Uani 1 1 d . .
H00T H 0.4620 0.1267 0.4408 0.120 Uiso 1 1 calc R .
C00U C 0.4209(2) 0.3183(6) 0.3929(3) 0.1054(14) Uani 1 1 d . .
H00U H 0.3643 0.2901 0.3823 0.126 Uiso 1 1 calc R .
C00V C 0.5831(3) 0.6713(6) 0.1494(3) 0.1102(14) Uani 1 1 d . .
H00V H 0.5644 0.6325 0.0977 0.132 Uiso 1 1 calc R .
C00W C 1.0709(3) 0.8562(7) 0.3620(4) 0.135(2) Uani 1 1 d . .
H00A H 1.1095 0.8216 0.3188 0.202 Uiso 1 1 calc GR .
H00B H 1.0929 0.8303 0.4173 0.202 Uiso 1 1 calc GR .
H00C H 1.0661 0.9595 0.3580 0.202 Uiso 1 1 calc GR .
loop_
_atom_site_aniso_label
_atom_site_aniso_U_11
_atom_site_aniso_U_22
_atom_site_aniso_U_33
_atom_site_aniso_U_23
_atom_site_aniso_U_13
_atom_site_aniso_U_12
S001 0.0945(6) 0.0526(5) 0.1105(7) 0.0074(4) 0.0014(5) -0.0188(4)
N002 0.0675(14) 0.0542(13) 0.0936(17) 0.0024(12) -0.0069(12) -0.0077(11)
O003 0.0642(13) 0.150(3) 0.1125(19) 0.0451(18) -0.0082(12) -0.0461(15)
O004 0.142(3) 0.100(2) 0.111(2) 0.0407(17) -0.0016(18) -0.0250(18)
C005 0.0419(11) 0.0466(12) 0.0709(15) -0.0046(10) -0.0008(10) -0.0054(9)
C006 0.0499(12) 0.0520(14) 0.0644(14) -0.0040(11) -0.0007(10) -0.0085(10)
C007 0.0426(12) 0.0528(13) 0.0772(16) -0.0002(11) -0.0042(10) -0.0049(10)
C008 0.0532(13) 0.0540(13) 0.0682(15) -0.0057(11) 0.0048(10) -0.0068(11)
O009 0.134(2) 0.0543(14) 0.181(3) -0.0135(16) 0.012(2) -0.0117(14)
O00A 0.0734(15) 0.214(4) 0.108(2) 0.037(2) -0.0230(15) -0.055(2)
C00B 0.0428(12) 0.0562(14) 0.0770(16) -0.0004(12) 0.0053(11) -0.0047(10)
C00C 0.0408(11) 0.0727(17) 0.0728(16) 0.0020(13) -0.0064(10) -0.0175(11)
C00D 0.0520(13) 0.0677(16) 0.0654(14) -0.0026(12) 0.0008(11) -0.0185(12)
C00E 0.0499(13) 0.0631(15) 0.0755(16) 0.0113(13) 0.0047(11) -0.0106(11)
C00F 0.0479(12) 0.0670(16) 0.0714(16) 0.0010(12) 0.0061(11) -0.0031(11)
C00G 0.0496(14) 0.089(2) 0.0808(19) 0.0024(16) -0.0016(13) -0.0125(14)
C00H 0.0648(16) 0.0627(16) 0.099(2) 0.0103(15) 0.0017(15) -0.0056(13)
C00I 0.0604(15) 0.0723(18) 0.088(2) -0.0141(15) 0.0023(13) -0.0216(14)
C00J 0.0501(14) 0.090(2) 0.0793(18) 0.0106(16) -0.0012(12) -0.0116(14)
C00K 0.0743(18) 0.0713(18) 0.0816(19) -0.0047(15) 0.0076(14) -0.0302(15)
C00L 0.0544(16) 0.135(3) 0.094(2) 0.009(2) -0.0060(15) -0.0149(19)
C00M 0.0719(18) 0.100(2) 0.079(2) 0.0058(17) -0.0064(15) -0.0192(17)
C00N 0.082(2) 0.101(2) 0.0715(18) -0.0022(17) -0.0042(15) -0.0084(18)
C00O 0.0720(19) 0.101(3) 0.106(3) -0.033(2) 0.0125(18) -0.0340(19)
C00P 0.0699(19) 0.078(2) 0.140(3) 0.037(2) 0.014(2) 0.0063(16)
C00Q 0.085(2) 0.174(5) 0.073(2) 0.022(3) -0.0031(17) -0.027(3)
C00R 0.072(2) 0.135(4) 0.111(3) 0.048(3) -0.014(2) -0.005(2)
C00S 0.076(2) 0.150(4) 0.088(3) -0.035(3) 0.0063(18) -0.042(3)
C00T 0.088(2) 0.100(3) 0.113(3) -0.005(2) 0.008(2) -0.052(2)
C00U 0.0600(18) 0.143(4) 0.113(3) -0.002(3) -0.0043(18) -0.042(2)
C00V 0.096(3) 0.144(4) 0.091(3) 0.012(3) -0.022(2) 0.002(3)
C00W 0.074(2) 0.160(5) 0.169(5) 0.045(4) -0.002(3) -0.056(3)
loop_
_atom_type_symbol
_atom_type_description
_atom_type_scat_dispersion_real
_atom_type_scat_dispersion_imag
_atom_type_scat_source
C C 0.0181 0.0091 'International Tables Vol C Tables 4.2.6.8 and 6.1.1.4'
H H 0.0000 0.0000 'International Tables Vol C Tables 4.2.6.8 and 6.1.1.4'
N N 0.0311 0.0180 'International Tables Vol C Tables 4.2.6.8 and 6.1.1.4'
O O 0.0492 0.0322 'International Tables Vol C Tables 4.2.6.8 and 6.1.1.4'
S S 0.3331 0.5567 'International Tables Vol C Tables 4.2.6.8 and 6.1.1.4'
loop_
_geom_angle_atom_site_label_1
_geom_angle_atom_site_label_2
_geom_angle_atom_site_label_3
_geom_angle
N002 S001 C00K 95.71(13)
O004 S001 N002 108.89(17)
O004 S001 C00K 110.90(19)
O009 S001 N002 108.84(17)
O009 S001 O004 118.0(2)
O009 S001 C00K 112.10(19)
C006 N002 S001 109.9(2)
C00G O003 C00W 116.8(3)
C006 C005 H005 107.4
C006 C005 C007 115.4(2)
C006 C005 C008 113.3(2)
C007 C005 H005 107.4
C007 C005 C008 105.72(19)
C008 C005 H005 107.4
N002 C006 C005 121.1(2)
N002 C006 C00D 116.8(2)
C00D C006 C005 122.1(2)
C005 C007 H007 108.9
C00B C007 C005 101.3(2)
C00B C007 H007 108.9
C00C C007 C005 111.9(2)
C00C C007 H007 108.9
C00C C007 C00B 116.4(2)
C005 C008 H008 108.3
C00E C008 C005 116.7(2)
C00E C008 H008 108.3
C00F C008 C005 101.7(2)
C00F C008 H008 108.3
C00F C008 C00E 113.1(2)
C00F C00B C007 113.7(2)
C00F C00B C00G 125.1(3)
C00G C00B C007 120.9(2)
C00I C00C C007 121.5(3)
C00M C00C C007 121.1(3)
C00M C00C C00I 117.4(3)
C00J C00D C006 130.3(3)
C00K C00D C006 110.2(3)
C00K C00D C00J 119.4(3)
C00H C00E C008 121.1(3)
C00N C00E C008 120.4(3)
C00N C00E C00H 118.5(3)
C008 C00F H00F 123.6
C00B C00F C008 112.7(2)
C00B C00F H00F 123.6
O003 C00G C00B 112.7(3)
O00A C00G O003 122.6(3)
O00A C00G C00B 124.5(3)
C00E C00H H00H 120.5
C00P C00H C00E 119.0(4)
C00P C00H H00H 120.5
C00C C00I H00I 119.1
C00O C00I C00C 121.9(4)
C00O C00I H00I 119.1
C00D C00J H00J 120.9
C00D C00J C00L 118.1(3)
C00L C00J H00J 120.9
C00D C00K S001 107.3(2)
C00D C00K C00T 122.3(4)
C00T C00K S001 130.4(3)
C00J C00L H00L 118.9
C00U C00L C00J 122.1(4)
C00U C00L H00L 118.9
C00C C00M H00M 119.3
C00C C00M C00Q 121.4(4)
C00Q C00M H00M 119.3
C00E C00N H00N 119.4
C00V C00N C00E 121.2(4)
C00V C00N H00N 119.4
C00I C00O H00O 119.4
C00S C00O C00I 121.2(4)
C00S C00O H00O 119.4
C00H C00P H00P 119.3
C00R C00P C00H 121.4(4)
C00R C00P H00P 119.3
C00M C00Q H00Q 120.3
C00M C00Q C00S 119.3(4)
C00S C00Q H00Q 120.3
C00P C00R H00R 120.4
C00V C00R C00P 119.2(4)
C00V C00R H00R 120.4
C00O C00S C00Q 118.8(4)
C00O C00S H00S 120.6
C00Q C00S H00S 120.6
C00K C00T H00T 121.2
C00U C00T C00K 117.5(4)
C00U C00T H00T 121.2
C00L C00U C00T 120.5(3)
C00L C00U H00U 119.7
C00T C00U H00U 119.7
C00N C00V C00R 120.8(4)
C00N C00V H00V 119.6
C00R C00V H00V 119.6
O003 C00W H00A 109.5
O003 C00W H00B 109.5
O003 C00W H00C 109.5
H00A C00W H00B 109.5
H00A C00W H00C 109.5
H00B C00W H00C 109.5
loop_
_geom_bond_atom_site_label_1
_geom_bond_atom_site_label_2
_geom_bond_distance
S001 N002 1.679(2)
S001 O004 1.429(3)
S001 O009 1.419(3)
S001 C00K 1.758(4)
N002 C006 1.280(4)
O003 C00G 1.303(4)
O003 C00W 1.448(4)
C005 H005 0.9800
C005 C006 1.503(3)
C005 C007 1.548(3)
C005 C008 1.577(4)
C006 C00D 1.492(3)
C007 H007 0.9800
C007 C00B 1.514(4)
C007 C00C 1.509(4)
C008 H008 0.9800
C008 C00E 1.503(4)
C008 C00F 1.499(3)
O00A C00G 1.182(4)
C00B C00F 1.304(4)
C00B C00G 1.484(4)
C00C C00I 1.380(4)
C00C C00M 1.369(4)
C00D C00J 1.381(4)
C00D C00K 1.375(4)
C00E C00H 1.389(4)
C00E C00N 1.385(4)
C00F H00F 0.9300
C00H H00H 0.9300
C00H C00P 1.387(5)
C00I H00I 0.9300
C00I C00O 1.375(5)
C00J H00J 0.9300
C00J C00L 1.384(4)
C00K C00T 1.383(5)
C00L H00L 0.9300
C00L C00U 1.356(6)
C00M H00M 0.9300
C00M C00Q 1.392(6)
C00N H00N 0.9300
C00N C00V 1.358(6)
C00O H00O 0.9300
C00O C00S 1.337(6)
C00P H00P 0.9300
C00P C00R 1.366(7)
C00Q H00Q 0.9300
C00Q C00S 1.410(7)
C00R H00R 0.9300
C00R C00V 1.360(7)
C00S H00S 0.9300
C00T H00T 0.9300
C00T C00U 1.381(6)
C00U H00U 0.9300
C00V H00V 0.9300
C00W H00A 0.9600
C00W H00B 0.9600
C00W H00C 0.9600
loop_
_geom_torsion_atom_site_label_1
_geom_torsion_atom_site_label_2
_geom_torsion_atom_site_label_3
_geom_torsion_atom_site_label_4
_geom_torsion
S001 N002 C006 C005 -178.59(19)
S001 N002 C006 C00D 1.1(3)
S001 C00K C00T C00U 176.7(3)
N002 S001 C00K C00D -2.6(2)
N002 S001 C00K C00T 180.0(4)
N002 C006 C00D C00J 176.5(3)
N002 C006 C00D C00K -3.2(4)
O004 S001 N002 C006 -113.5(3)
O004 S001 C00K C00D 110.1(2)
O004 S001 C00K C00T -67.3(4)
C005 C006 C00D C00J -3.8(4)
C005 C006 C00D C00K 176.5(2)
C005 C007 C00B C00F -14.1(3)
C005 C007 C00B C00G 172.3(3)
C005 C007 C00C C00I -72.7(3)
C005 C007 C00C C00M 105.4(3)
C005 C008 C00E C00H 49.7(3)
C005 C008 C00E C00N -131.4(3)
C005 C008 C00F C00B 13.0(3)
C006 C005 C007 C00B 146.9(2)
C006 C005 C007 C00C -88.3(3)
C006 C005 C008 C00E 88.2(3)
C006 C005 C008 C00F -148.2(2)
C006 C00D C00J C00L 179.6(3)
C006 C00D C00K S001 3.4(3)
C006 C00D C00K C00T -178.9(3)
C007 C005 C006 N002 -14.3(4)
C007 C005 C006 C00D 166.0(2)
C007 C005 C008 C00E -144.5(2)
C007 C005 C008 C00F -20.9(3)
C007 C00B C00F C008 0.5(3)
C007 C00B C00G O003 -175.7(3)
C007 C00B C00G O00A 9.0(5)
C007 C00C C00I C00O 177.9(3)
C007 C00C C00M C00Q -178.8(3)
C008 C005 C006 N002 107.7(3)
C008 C005 C006 C00D -72.0(3)
C008 C005 C007 C00B 20.9(2)
C008 C005 C007 C00C 145.7(2)
C008 C00E C00H C00P -179.4(3)
C008 C00E C00N C00V -178.8(3)
O009 S001 N002 C006 116.6(3)
O009 S001 C00K C00D -115.6(2)
O009 S001 C00K C00T 66.9(4)
C00B C007 C00C C00I 43.2(3)
C00B C007 C00C C00M -138.7(3)
C00C C007 C00B C00F -135.7(3)
C00C C007 C00B C00G 50.6(3)
C00C C00I C00O C00S 0.6(5)
C00C C00M C00Q C00S 1.2(5)
C00D C00J C00L C00U -0.7(6)
C00D C00K C00T C00U -0.4(6)
C00E C008 C00F C00B 139.0(3)
C00E C00H C00P C00R -1.7(5)
C00E C00N C00V C00R -1.8(6)
C00F C008 C00E C00H -67.8(3)
C00F C008 C00E C00N 111.1(3)
C00F C00B C00G O003 11.4(5)
C00F C00B C00G O00A -163.9(4)
C00G C00B C00F C008 173.9(3)
C00H C00E C00N C00V 0.1(5)
C00H C00P C00R C00V 0.0(6)
C00I C00C C00M C00Q -0.6(4)
C00I C00O C00S C00Q 0.0(5)
C00J C00D C00K S001 -176.3(2)
C00J C00D C00K C00T 1.4(5)
C00J C00L C00U C00T 1.8(7)
C00K S001 N002 C006 0.9(2)
C00K C00D C00J C00L -0.8(5)
C00K C00T C00U C00L -1.2(7)
C00M C00C C00I C00O -0.3(4)
C00M C00Q C00S C00O -0.9(6)
C00N C00E C00H C00P 1.7(4)
C00P C00R C00V C00N 1.8(7)
C00W O003 C00G O00A -7.0(7)
C00W O003 C00G C00B 177.7(4)
