#------------------------------------------------------------------------------
#$Date: 2016-02-04 07:50:11 +0200 (Thu, 04 Feb 2016) $
#$Revision: 175739 $
#$URL: svn://www.crystallography.net/cod/cif/1/54/23/1542378.cif $
#------------------------------------------------------------------------------
#
# This file is available in the Crystallography Open Database (COD),
# http://www.crystallography.net/
#
# All data on this site have been placed in the public domain by the
# contributors.
#
data_1542378
loop_
_publ_author_name
'He, Qun'
'Wu, Liang'
'Kou, Xuezhen'
'Butt, Nicholas'
'Yang, Guoqiang'
'Zhang, Wanbin'
_publ_section_title
;
 Pd(II)-Catalyzed Asymmetric Addition of Arylboronic Acids to
 Isatin-Derived Ketimines.
;
_journal_issue                   2
_journal_name_full               'Organic letters'
_journal_page_first              288
_journal_page_last               291
_journal_paper_doi               10.1021/acs.orglett.5b03458
_journal_volume                  18
_journal_year                    2016
_chemical_formula_moiety         'C19 H18 Cl2 N2 O3 S'
_chemical_formula_sum            'C19 H18 Cl2 N2 O3 S'
_chemical_formula_weight         425.31
_chemical_name_systematic
;
 ?
;
_space_group_crystal_system      monoclinic
_space_group_IT_number           14
_space_group_name_Hall           '-P 2ybc'
_space_group_name_H-M_alt        'P 1 21/c 1'
_symmetry_space_group_name_Hall  '-P 2ybc'
_symmetry_space_group_name_H-M   'P 1 21/c 1'
_atom_sites_solution_hydrogens   geom
_audit_creation_method           SHELXL-2014
_cell_angle_alpha                90
_cell_angle_beta                 107.0650(10)
_cell_angle_gamma                90
_cell_formula_units_Z            4
_cell_length_a                   15.0536(5)
_cell_length_b                   11.1765(4)
_cell_length_c                   11.8469(4)
_cell_measurement_reflns_used    9880
_cell_measurement_temperature    150(2)
_cell_measurement_theta_max      68.19
_cell_measurement_theta_min      3.07
_cell_volume                     1905.44(11)
_computing_structure_refinement  'SHELXL-2014 (Sheldrick, 2014)'
_diffrn_ambient_temperature      150(2)
_diffrn_measured_fraction_theta_full 0.999
_diffrn_measured_fraction_theta_max 0.997
_diffrn_measurement_device_type  'D8 VENTURE'
_diffrn_radiation_type           CuK\a
_diffrn_radiation_wavelength     1.54178
_diffrn_reflns_av_R_equivalents  0.0308
_diffrn_reflns_av_unetI/netI     0.0228
_diffrn_reflns_laue_measured_fraction_full 0.999
_diffrn_reflns_laue_measured_fraction_max 0.997
_diffrn_reflns_limit_h_max       17
_diffrn_reflns_limit_h_min       -18
_diffrn_reflns_limit_k_max       13
_diffrn_reflns_limit_k_min       -13
_diffrn_reflns_limit_l_max       14
_diffrn_reflns_limit_l_min       -14
_diffrn_reflns_number            18101
_diffrn_reflns_point_group_measured_fraction_full 0.999
_diffrn_reflns_point_group_measured_fraction_max 0.997
_diffrn_reflns_theta_full        67.679
_diffrn_reflns_theta_max         68.326
_diffrn_reflns_theta_min         3.071
_exptl_absorpt_coefficient_mu    4.288
_exptl_crystal_colour            red
_exptl_crystal_density_diffrn    1.483
_exptl_crystal_description       block
_exptl_crystal_F_000             880
_exptl_crystal_size_max          0.200
_exptl_crystal_size_mid          0.100
_exptl_crystal_size_min          0.080
_refine_diff_density_max         0.386
_refine_diff_density_min         -0.403
_refine_diff_density_rms         0.054
_refine_ls_extinction_method     none
_refine_ls_goodness_of_fit_ref   1.062
_refine_ls_hydrogen_treatment    constr
_refine_ls_matrix_type           full
_refine_ls_number_parameters     244
_refine_ls_number_reflns         3496
_refine_ls_number_restraints     0
_refine_ls_restrained_S_all      1.062
_refine_ls_R_factor_all          0.0335
_refine_ls_R_factor_gt           0.0312
_refine_ls_shift/su_max          0.001
_refine_ls_shift/su_mean         0.000
_refine_ls_structure_factor_coef Fsqd
_refine_ls_weighting_details
'w=1/[\s^2^(Fo^2^)+(0.1000P)^2^] where P=(Fo^2^+2Fc^2^)/3'
_refine_ls_weighting_scheme      calc
_refine_ls_wR_factor_gt          0.1133
_refine_ls_wR_factor_ref         0.1182
_reflns_Friedel_coverage         0.000
_reflns_number_gt                3266
_reflns_number_total             3507
_reflns_threshold_expression     'I > 2\s(I)'
_cod_data_source_file            ol5b03458_si_002.cif
_cod_data_source_block           t
_cod_database_code               1542378
_shelx_space_group_comment
;
The symmetry employed for this shelxl refinement is uniquely defined
by the following loop, which should always be used as a source of
symmetry information in preference to the above space-group names.
They are only intended as comments.
;
_shelx_estimated_absorpt_t_min   0.214
_shelx_estimated_absorpt_t_max   0.470
_shelxl_version_number           2014-3
_shelx_res_file
;

TITL DCM2_0ma_a.res in P2(1)/c
REM Old TITL DCM2_0ma in P2(1)/c

REM SHELXT solution in P2(1)/c
REM R1 0.095,  Rweak 0.003,  Alpha 0.024,  Orientation as input
REM Formula found by SHELXT:  C19 N2 O3 S Cl2

CELL  1.54178  15.0536  11.1765  11.8469   90.000  107.065   90.000
ZERR   18.000   0.0005   0.0004   0.0004    0.000    0.001    0.000
LATT  1
SYMM -X, 1/2+Y, 1/2-Z
SFAC C H N O S CL
UNIT 18 18 18 18 18 18
TEMP -123.150
L.S. 10
BOND $H
acta
size 0.2 0.10 0.08
conf
LIST 6
FMAP 2
PLAN 5
WGHT    0.100000
FVAR       0.57757
CL2   6    0.283791    0.955193    0.440813    11.00000    0.02334    0.03065 =
         0.03266   -0.00166    0.01096   -0.00094
CL1   6    0.615054    0.738968    0.479356    11.00000    0.02307    0.03231 =
         0.04781   -0.00223    0.00299    0.00288
S1    5    0.125283    0.407780    0.309564    11.00000    0.01954    0.02045 =
         0.01872   -0.00305    0.00506   -0.00473
O3    4    0.407333    0.583237    0.388233    11.00000    0.02162    0.02799 =
         0.03188   -0.00555    0.00981   -0.00270
O2    4    0.058089    0.502822    0.283706    11.00000    0.02123    0.03113 =
         0.03366   -0.00889    0.00320    0.00161
O1    4    0.121931    0.323123    0.399552    11.00000    0.04101    0.03141 =
         0.02253    0.00034    0.01000   -0.01251
N2    3    0.358208    0.694466    0.522434    11.00000    0.02157    0.02136 =
         0.01918   -0.00335    0.00397   -0.00734
N1    3    0.231892    0.467442    0.342973    11.00000    0.01883    0.01862 =
         0.02055   -0.00335    0.00407   -0.00269
C13   1    0.221644    0.596192    0.517367    11.00000    0.02035    0.01771 =
         0.01612    0.00098    0.00129    0.00076
C14   1    0.259283    0.542374    0.429069    11.00000    0.01681    0.01615 =
         0.02017    0.00136    0.00134    0.00016
C8    1    0.282881    0.688940    0.570426    11.00000    0.02195    0.01882 =
         0.01768    0.00145    0.00283   -0.00121
C6    1    0.447643    0.848341    0.452242    11.00000    0.02100    0.01997 =
         0.02121   -0.00472    0.00179   -0.00839
C12   1    0.144400    0.571948    0.555695    11.00000    0.01897    0.02411 =
         0.02052    0.00015    0.00289   -0.00117
AFIX  43
H12A  2    0.103225    0.508657    0.521277    11.00000   -1.20000
AFIX   0
C1    1    0.381057    0.931534    0.393417    11.00000    0.01894    0.02261 =
         0.02456   -0.00667    0.00602   -0.00697
C7    1    0.437042    0.777682    0.556267    11.00000    0.02255    0.02623 =
         0.02214   -0.00198   -0.00096   -0.01037
AFIX  23
H7A   2    0.494810    0.731974    0.591940    11.00000   -1.20000
H7B   2    0.428101    0.833774    0.616691    11.00000   -1.20000
AFIX   0
C2    1    0.388575    0.997825    0.297625    11.00000    0.02471    0.02219 =
         0.02683   -0.00067    0.00292   -0.00438
AFIX  43
H2B   2    0.341326    1.053050    0.259469    11.00000   -1.20000
AFIX   0
C4    1    0.534993    0.902849    0.315419    11.00000    0.02299    0.02976 =
         0.03038   -0.00838    0.00879   -0.00966
AFIX  43
H4A   2    0.588700    0.893466    0.289666    11.00000   -1.20000
AFIX   0
C16   1    0.121667    0.329654    0.175098    11.00000    0.02473    0.02156 =
         0.01874   -0.00426    0.00471   -0.00479
C11   1    0.128463    0.641320    0.644593    11.00000    0.02489    0.03260 =
         0.02181   -0.00086    0.00723    0.00099
AFIX  43
H11A  2    0.076700    0.624813    0.672557    11.00000   -1.20000
AFIX   0
C9    1    0.266686    0.760522    0.657564    11.00000    0.03669    0.02327 =
         0.01911   -0.00449    0.00676   -0.00536
AFIX  43
H9A   2    0.307392    0.824310    0.691821    11.00000   -1.20000
AFIX   0
C5    1    0.525241    0.836752    0.410688    11.00000    0.01806    0.02276 =
         0.02932   -0.00523    0.00177   -0.00383
C10   1    0.188270    0.735324    0.693088    11.00000    0.03751    0.02782 =
         0.02143   -0.00393    0.01025    0.00043
AFIX  43
H10A  2    0.175189    0.783726    0.752185    11.00000   -1.20000
AFIX   0
C3    1    0.465749    0.982430    0.258456    11.00000    0.03212    0.02736 =
         0.02411   -0.00394    0.00885   -0.01234
AFIX  43
H3A   2    0.471328    1.026523    0.192315    11.00000   -1.20000
AFIX   0
C19   1    0.197395    0.234643    0.203430    11.00000    0.03583    0.02636 =
         0.03391   -0.00784    0.00488    0.00229
AFIX  33
H19A  2    0.186063    0.177855    0.260712    11.00000   -1.50000
H19B  2    0.196873    0.191992    0.130962    11.00000   -1.50000
H19C  2    0.258023    0.272889    0.236864    11.00000   -1.50000
AFIX   0
C18   1    0.025138    0.273204    0.132501    11.00000    0.03201    0.03895 =
         0.03062   -0.01215    0.00560   -0.01478
AFIX  33
H18A  2    0.017811    0.215143    0.191115    11.00000   -1.50000
H18B  2   -0.022221    0.335753    0.122001    11.00000   -1.50000
H18C  2    0.017903    0.232503    0.057061    11.00000   -1.50000
AFIX   0
C17   1    0.135803    0.420690    0.086143    11.00000    0.04342    0.03254 =
         0.02168   -0.00066    0.01139   -0.00811
AFIX  33
H17A  2    0.198096    0.455523    0.115467    11.00000   -1.50000
H17B  2    0.129263    0.380918    0.010410    11.00000   -1.50000
H17C  2    0.089139    0.484167    0.075350    11.00000   -1.50000
AFIX   0
C15   1    0.352192    0.605273    0.441776    11.00000    0.01897    0.01885 =
         0.02008    0.00035    0.00125   -0.00142

HKLF 4

REM  DCM2_0ma_a.res in P2(1)/c
REM R1 =  0.0312 for    3266 Fo > 4sig(Fo)  and  0.0335 for all    3496 data
REM    244 parameters refined using      0 restraints

END

WGHT      0.0503      1.0088

REM Highest difference peak  0.386,  deepest hole -0.403,  1-sigma level  0.054
Q1    1   0.2780  0.4065  0.4419  11.00000  0.05    0.39
Q2    1   0.3360  0.9472  0.4225  11.00000  0.05    0.29
Q3    1   0.1822  0.5925  0.5242  11.00000  0.05    0.29
Q4    1   0.1921  0.4249  0.3294  11.00000  0.05    0.29
Q5    1   0.3237  0.6920  0.5511  11.00000  0.05    0.27
;
_shelx_res_checksum              89453
_shelx_hkl_file
;
   0   0   1   -2.20    0.30
   0   0  -1   -2.70    0.20
   0   0  -2 1845.42   68.99
   0   0   2 1861.11   69.09
   0   0   3    0.00    1.30
   0   0  -3    1.10    0.70
   0   0   4   -1.10    1.00
   0   0  -4    0.30    1.00
   0   0   5    0.60    1.10
   0   0  -5    1.10    1.20
   0   0  -6    3.40    1.70
   0   0  -7    1.70    2.40
   0   0   7    1.70    2.00
   0   0   7    2.00    1.60
   0   0  -7   -4.00    3.10
   0   0  -8 1832.82   73.09
   0   0   8 1958.80   72.69
   0   0   8 1985.10   72.29
   0   0  -9   -0.60    1.80
   0   0  -9    4.90    2.00
   0   0   9    3.40    2.50
   0   0   9    0.00    1.90
   0   0 -10   36.10    3.40
   0   0  10   42.90    5.10
   0   0  10   40.00    3.50
   0   0 -10   37.60    3.40
   0   0  11    0.30    3.70
   0   0 -11    2.50    1.40
   0   0 -11    1.70    1.20
   0   0 -12   11.10    1.80
   0   0  12   13.70    2.10
   0   0 -13   -1.10    0.90
   0   0  13   -2.60    2.20
   0   0 -13   -0.60    0.80
   0   1   0    0.50    0.20
   0  -1   0    0.10    0.10
   0  -1   0    0.20    0.10
   0   1   1  311.37   12.00
   0   1  -1  317.67   12.10
   0   1   1  304.57   11.90
   0   1   1  330.07   12.10
   0  -1   1  305.77   12.10
   0  -1  -1  329.17   12.00
   0  -1  -1  307.87   11.90
   0   1   2   57.89    2.60
   0   1   2   54.19    2.90
   0   1  -2   58.79    2.70
   0  -1  -2   54.19    2.40
   0  -1  -2   60.69    2.50
   0  -1   2   53.19    3.00
   0   1   3  459.85   18.20
   0   1  -3  482.25   18.30
   0  -1  -3  488.25   18.00
   0  -1  -3  455.55   18.00
   0   1   4  624.44   23.70
   0   1  -4  626.14   24.00
   0   1   4  585.94   24.30
   0  -1  -4  637.54   23.80
   0  -1   4  626.24   23.80
   0  -1  -4  637.44   23.80
   0   1   5  602.74   23.90
   0   1  -5  637.84   24.40
   0  -1  -5  643.84   24.10
   0  -1   5  603.04   24.00
   0  -1  -5  637.04   24.00
   0   1  -6   17.20    3.10
   0   1   6   14.70    2.20
   0  -1  -6   24.00    2.80
   0  -1   6   15.90    2.60
   0  -1  -6   17.70    2.40
   0   1   7  145.19    7.10
   0   1  -7  151.18    7.90
   0   1   7  148.79    6.80
   0  -1   7  146.29    7.00
   0  -1   7  147.09    6.90
   0  -1  -7  138.79    7.80
   0   1   8   -0.70    1.90
   0   1   8    0.20    1.80
   0   1  -8    0.20    3.20
   0  -1   8    1.50    1.80
   0  -1   8    0.00    2.20
   0  -1  -8   -3.00    2.90
   0   1   9   37.20    3.60
   0   1   9   39.00    4.20
   0   1  -9   30.20    3.50
   0   1  -9   38.00    3.60
   0  -1  -9   40.90    3.30
   0  -1  -9   29.40    3.60
   0  -1   9   38.20    3.60
   0  -1   9   44.30    5.00
   0   1 -10   93.39    6.80
   0   1  10   97.89    5.30
   0   1  10  111.49    6.60
   0  -1  10  101.59    5.50
   0  -1  10  105.99    7.10
   0  -1 -10   96.39    5.80
   0   1 -11   35.70    2.90
   0   1 -11   32.20    2.50
   0   1  11   31.30    5.40
   0  -1 -11   32.80    2.60
   0  -1  11   32.30    3.80
   0  -1 -11   29.80    2.60
   0   1  12    0.80    1.80
   0   1 -12   -0.20    1.60
   0   1 -12   -0.50    1.00
   0  -1 -12   -0.50    1.20
   0  -1 -12   -0.40    1.00
   0  -1  12    0.40    2.20
   0   1 -13   11.30    1.60
   0   1 -13   10.00    1.40
   0   1  13   14.90    1.90
   0  -1 -13    9.70    1.60
   0  -1 -13   11.70    1.40
   0   2   0    3.90    0.90
   0   2   0    4.50    0.70
   0   2   0    5.40    0.70
   0   2   0    6.50    0.70
   0  -2   0    7.40    0.70
   0   2  -1 6418.86  243.78
   0  -2   1 6739.43  243.88
   0   2  -2 1542.75   55.39
   0   2   2 1460.45   54.99
   0  -2  -2 1429.96   55.09
   0   2   3 1579.24   57.39
   0   2  -3 1559.84   57.69
   0   2  -3 1565.84   57.59
   0   2   3 1519.35   57.59
   0  -2  -3 1516.85   57.39
   0  -2  -3 1468.45   57.09
   0   2  -4   23.80    2.70
   0   2   4   25.50    1.90
   0   2   4   22.00    3.20
   0   2  -4   26.90    2.40
   0  -2   4   22.00    2.60
   0  -2  -4   25.10    1.70
   0  -2  -4   27.20    1.90
   0   2  -5   18.10    3.10
   0   2  -5   15.10    2.60
   0   2   5   17.70    2.00
   0  -2  -5   16.70    1.90
   0  -2   5   16.60    2.60
   0  -2  -5   18.50    1.90
   0   2  -6 1173.98   43.30
   0   2   6 1094.79   42.40
   0  -2   6 1079.29   42.60
   0  -2  -6 1141.29   42.70
   0   2   7  793.22   29.90
   0   2   7  773.92   29.90
   0   2  -7  813.22   31.00
   0  -2   7  703.93   29.90
   0  -2   7  788.92   30.10
   0  -2   7  749.53   29.70
   0  -2  -7  817.02   30.40
   0   2  -8  421.26   18.40
   0   2   8  417.36   16.60
   0   2   8  401.06   16.70
   0  -2   8  419.06   16.90
   0  -2  -8  401.46   17.50
   0  -2   8  403.86   16.40
   0  -2   8  425.96   17.10
   0   2  -9  272.47   11.30
   0   2   9  278.37   11.60
   0   2  -9  267.97   11.50
   0   2   9  272.67   11.90
   0  -2   9  294.77   12.80
   0  -2   9  271.87   11.50
   0  -2  -9  283.47   11.20
   0  -2  -9  259.47   11.10
   0  -2   9  276.97   12.30
   0   2  10   18.30    3.00
   0   2  10   16.40    2.30
   0   2 -10   18.10    2.80
   0   2 -10   17.00    2.90
   0  -2  10   23.30    2.70
   0  -2 -10   19.20    2.40
   0  -2 -10   15.30    2.40
   0   2 -11    6.00    1.40
   0   2  11    8.40    2.10
   0   2  11   10.90    3.10
   0   2 -11    7.70    1.60
   0  -2 -11    8.00    1.30
   0  -2  11    5.60    2.50
   0  -2 -11    6.60    1.40
   0   2  12    1.90    1.70
   0   2 -12    2.90    1.30
   0   2 -12    1.60    1.30
   0  -2 -12    3.20    1.60
   0  -2 -12    3.10    1.20
   0   2 -13   45.40    2.30
   0   2  13   45.20    3.10
   0   2 -13   48.00    2.40
   0  -2 -13   42.20    2.40
   0   3   0   -2.80    0.50
   0   3   0   -3.10    0.50
   0   3   0   -1.90    0.60
   0  -3   0   -3.10    0.40
   0  -3   0   -2.70    0.40
   0   3   1  924.21   31.20
   0   3  -1  770.12   31.00
   0  -3   1  847.12   30.80
   0  -3  -1  768.32   31.20
   0  -3  -1  810.12   31.00
   0   3  -2 1405.86   49.50
   0   3  -2 1248.78   49.40
   0  -3  -2 1295.97   49.30
   0   3   3  460.35   17.60
   0   3  -3  478.65   18.10
   0   3  -3  474.45   18.10
   0   3   3  421.96   17.40
   0  -3  -3  435.16   17.30
   0  -3  -3  495.95   17.80
   0   3  -4 2803.12  105.29
   0   3   4 2747.82  104.49
   0   3  -4 2822.92  105.19
   0  -3  -4 2875.61  104.89
   0   3   5   23.20    2.20
   0   3  -5   21.00    3.10
   0   3  -5   26.00    3.10
   0  -3   5   22.10    3.60
   0  -3  -5   30.40    2.40
   0   3  -6  154.78    8.30
   0   3  -6  184.68    8.60
   0   3   6  170.68    7.40
   0  -3  -6  178.98    7.80
   0  -3   6  161.78    8.40
   0   3   7   39.30    4.80
   0   3  -7   37.60    5.20
   0   3  -7   35.30    4.40
   0   3   7   35.80    3.20
   0  -3   7   32.00    4.20
   0  -3  -7   37.80    4.20
   0  -3   7   35.00    4.10
   0   3   8  414.86   16.50
   0   3  -8  407.16   16.30
   0   3  -8  424.46   20.20
   0   3  -8  393.96   16.70
   0   3   8  418.26   16.60
   0  -3   8  401.16   16.60
   0  -3  -8  412.76   16.10
   0  -3  -8  412.46   17.90
   0   3  -9   18.70    2.50
   0   3  -9   20.20    2.90
   0   3   9   24.30    3.60
   0   3   9   14.00    2.60
   0  -3  -9   18.10    2.40
   0  -3   9   24.00    3.30
   0  -3  -9   21.90    2.70
   0  -3   9   19.20    3.00
   0   3 -10  223.48    9.60
   0   3 -10  225.78    9.50
   0   3  10  237.18   10.40
   0   3  10  223.48    9.70
   0  -3 -10  237.68    9.30
   0  -3 -10  206.98    9.10
   0  -3  10  232.58   10.40
   0   3  11    1.20    2.70
   0   3 -11    1.50    1.30
   0   3 -11    1.10    1.40
   0   3  11    0.90    1.80
   0  -3 -11    0.20    1.10
   0  -3 -11    3.00    1.30
   0   3  12  329.17   12.70
   0   3 -12  333.67   12.50
   0   3 -12  319.77   12.50
   0  -3 -12  317.97   12.50
   0  -3 -12  300.37   12.30
   0   3 -13   11.10    1.50
   0   3  13    8.30    1.60
   0   3 -13    7.70    1.30
   0  -3 -13    6.00    0.90
   0   4   0 2059.49   79.39
   0   4   0 2264.67   79.39
   0  -4   0 2034.60   79.79
   0  -4   0 2190.68   79.59
   0   4  -1  437.86   16.60
   0   4  -1  410.96   16.60
   0   4  -1  408.56   16.70
   0  -4  -1  425.96   16.70
   0  -4  -1  446.06   16.70
   0  -4   1  453.75   16.40
   0   4  -2   33.80    2.50
   0   4  -2   37.10    2.60
   0  -4  -2   36.30    2.30
   0  -4   2   37.00    2.00
   0   4  -3  202.78    9.20
   0   4  -3  220.38    9.30
   0  -4  -3  225.08    9.00
   0   4   4 1146.09   44.80
   0   4  -4 1195.28   45.70
   0   4  -4 1222.78   45.70
   0  -4  -4 1228.18   45.40
   0   4  -5  130.79    6.70
   0   4   5  130.69    5.80
   0  -4  -5  137.09    6.40
   0   4  -6    6.50    2.50
   0   4  -6    5.60    2.30
   0   4   6    6.40    1.50
   0   4  -6    4.80    2.40
   0  -4   6    5.50    2.10
   0  -4  -6    7.30    2.20
   0   4  -7  629.74   25.50
   0   4   7  643.24   25.00
   0   4  -7  643.94   26.60
   0   4  -7  634.24   26.10
   0  -4   7  648.84   25.10
   0  -4  -7  667.83   26.00
   0   4   8   40.40    4.60
   0   4  -8   42.70    4.40
   0   4   8   40.70    3.70
   0   4  -8   38.40    3.40
   0  -4  -8   36.50    3.30
   0  -4  -8   34.80    3.00
   0  -4   8   38.00    3.90
   0   4  -9   45.10    4.00
   0   4   9   37.70    4.10
   0   4   9   45.40    4.20
   0   4  -9   39.50    3.40
   0  -4  -9   41.00    3.00
   0  -4  -9   37.80    3.00
   0  -4   9   39.60    4.20
   0   4 -10   67.29    4.10
   0   4  10   62.59    5.10
   0   4 -10   65.59    3.80
   0   4  10   64.89    4.40
   0  -4 -10   64.19    3.50
   0  -4  10   58.29    5.10
   0  -4 -10   68.59    3.60
   0   4  11    4.50    1.90
   0   4  11    8.30    2.90
   0   4 -11    4.20    1.40
   0   4 -11    1.30    1.40
   0  -4 -11    2.70    1.20
   0  -4  11    6.50    3.10
   0  -4 -11    4.40    1.30
   0   4  12    2.90    1.70
   0   4 -12    4.60    1.10
   0   4 -12    4.30    1.10
   0  -4 -12    3.70    1.00
   0   4 -13   25.40    1.70
   0   4  13   29.40    2.70
   0  -4 -13   26.40    1.50
   0   5   0    0.50    0.90
   0   5   0    1.10    0.90
   0  -5   0    1.20    1.10
   0  -5   0    0.40    0.90
   0   5  -1   25.80    2.20
   0   5   1   25.40    1.70
   0   5  -1   27.00    2.30
   0  -5  -1   25.10    2.30
   0  -5   1   25.10    2.00
   0  -5  -1   24.00    2.10
   0   5  -2  621.24   25.00
   0   5  -2  653.63   25.10
   0  -5  -2  645.74   25.00
   0  -5   2  669.43   24.60
   0   5  -3  263.37   11.60
   0   5  -3  287.47   11.70
   0  -5  -3  282.17   11.50
   0  -5   3  279.57   11.00
   0   5  -4 1609.14   59.59
   0   5  -4 1509.45   60.39
   0   5   4 1522.15   58.49
   0  -5  -4 1634.44   59.39
   0  -5   4 1573.24   58.89
   0   5  -5   29.70    4.00
   0   5  -5   32.90    4.20
   0   5  -5   39.90    3.80
   0   5   5   35.10    2.70
   0  -5  -5   37.00    3.50
   0  -5   5   29.70    3.60
   0  -5   5   28.70    3.20
   0   5  -6   18.60    3.00
   0   5  -6   17.80    2.80
   0   5   6   16.90    2.00
   0   5  -6   17.10    3.40
   0  -5  -6   17.00    2.90
   0  -5   6   15.20    2.30
   0   5   7   23.40    3.10
   0   5  -7   20.60    3.10
   0   5  -7   22.40    3.20
   0   5  -7   23.40    3.80
   0  -5  -7   21.80    3.00
   0  -5  -7   33.90    7.20
   0   5  -8   45.20    4.40
   0   5  -8   39.80    5.20
   0   5   8   56.99    4.90
   0   5   8   44.60    3.90
   0   5  -8   45.50    3.30
   0  -5  -8   42.10    3.30
   0  -5  -8   42.30    3.10
   0  -5   8   37.30    3.90
   0   5  -9  149.59    6.60
   0   5   9  144.79    7.20
   0   5  -9  145.79    7.00
   0   5   9  141.59    7.00
   0  -5  -9  148.89    6.50
   0  -5   9  143.09    7.10
   0  -5  -9  139.89    6.20
   0   5  10  137.79    6.90
   0   5 -10  135.09    6.10
   0   5  10  136.19    6.50
   0   5 -10  131.19    6.20
   0  -5 -10  139.99    6.00
   0  -5  10  132.19    6.90
   0  -5 -10  135.19    5.80
   0   5  11    1.50    1.80
   0   5  11    3.30    3.60
   0   5 -11    3.30    1.30
   0   5 -11    2.00    1.40
   0  -5  11    0.30    2.50
   0  -5 -11    1.30    1.30
   0   5 -12    1.60    1.10
   0   5  12    4.50    1.60
   0   5 -12    1.20    1.00
   0  -5 -12    3.70    0.80
   0   6   0 1919.81   69.09
   0   6   0 1717.13   68.89
   0  -6   0 1903.11   69.29
   0   6  -1   22.80    2.60
   0   6  -1   24.80    2.60
   0  -6   1   24.70    2.80
   0  -6  -1   24.80    2.70
   0  -6  -1   26.20    2.90
   0   6  -2  322.17   13.60
   0   6  -2  341.77   13.80
   0  -6  -2  341.37   14.10
   0   6  -3  548.45   21.30
   0   6   3  494.65   20.00
   0   6  -3  525.05   21.20
   0  -6  -3  560.84   21.30
   0   6  -4   24.20    3.20
   0   6  -4   30.60    3.90
   0   6  -4   26.30    3.50
   0   6   4   22.60    2.20
   0  -6   4   25.00    3.00
   0  -6  -4   26.30    3.40
   0   6  -5  134.89    7.30
   0   6  -5  138.69    7.20
   0   6  -5  135.59    8.00
   0   6   5  132.69    5.90
   0  -6  -5  137.29    7.50
   0  -6   5  137.79    6.50
   0   6  -6  430.96   18.40
   0   6   6  405.16   17.20
   0   6  -6  430.36   18.40
   0  -6  -6  464.15   19.60
   0  -6   6  444.86   18.30
   0   6   7   28.40    3.20
   0   6  -7   25.50    2.90
   0   6  -7   24.00    3.40
   0   6  -7   18.40    2.90
   0   6  -7   17.50    3.70
   0  -6  -7   24.00    2.90
   0  -6   7   22.40    3.10
   0  -6  -7   21.00    2.80
   0  -6   7   26.50    2.30
   0   6  -8  124.59    7.30
   0   6   8  136.59    6.50
   0   6  -8  118.39    7.60
   0  -6   8  127.19    5.60
   0  -6  -8  131.39    5.70
   0  -6   8  134.39    6.50
   0   6   9    1.80    2.20
   0   6   9   -0.80    3.40
   0   6  -9    0.20    1.30
   0   6  -9   -1.50    2.00
   0  -6   9    0.90    2.00
   0  -6  -9   -1.40    1.40
   0  -6  -9   -0.20    1.20
   0   6  10  109.79    6.40
   0   6 -10  111.99    5.60
   0   6 -10  120.59    5.40
   0   6  10  124.79    5.90
   0  -6 -10  120.49    5.10
   0  -6  10  119.39    6.20
   0   6 -11   59.39    3.30
   0   6 -11   64.09    3.20
   0   6  11   56.29    3.80
   0  -6  11   69.79    4.60
   0  -6 -11   59.39    2.90
   0   6 -12   28.60    1.90
   0   6  12   25.00    2.90
   0  -6 -12   29.10    1.60
   0   7   0    0.60    1.50
   0  -7   0    0.40    2.10
   0   7  -1  294.27   12.10
   0   7   1  306.47   11.50
   0   7  -1  277.77   11.80
   0  -7  -1  283.07   12.50
   0  -7  -1  281.67   12.50
   0   7  -2   50.29    7.00
   0   7   2   54.99    3.00
   0   7  -2   50.99    4.30
   0   7  -2   55.69    4.10
   0  -7   2   54.39    4.00
   0  -7  -2   55.39    5.30
   0  -7  -2   50.19    4.30
   0   7   3   48.20    3.20
   0   7  -3   44.20    4.60
   0   7  -3   43.70    4.20
   0   7  -3   48.30    5.10
   0  -7  -3   52.29    4.60
   0  -7   3   52.99    3.60
   0   7   4   82.99    4.10
   0   7  -4   85.69    6.40
   0   7  -4   80.39    5.70
   0  -7  -4   93.19    6.20
   0  -7   4   83.99    4.70
   0   7  -5  493.15   20.10
   0   7   5  420.66   19.10
   0   7  -5  490.85   19.70
   0  -7   5  489.15   18.30
   0  -7   5  495.85   18.60
   0  -7   5  490.75   19.60
   0   7  -6  223.98   10.60
   0   7  -6  226.58   11.20
   0   7   6  229.38    9.40
   0  -7  -6  230.48    9.40
   0  -7   6  237.58    9.10
   0  -7   6  227.28    9.90
   0   7  -7   30.10    4.20
   0   7  -7   32.90    5.70
   0   7  -7   29.20    3.00
   0   7   7   32.00    3.50
   0  -7  -7   36.80    2.80
   0  -7   7   32.20    2.30
   0  -7   7   36.50    3.40
   0   7  -8   14.30    2.20
   0   7  -8   13.10    3.00
   0  -7   8   17.90    1.80
   0  -7  -8   20.50    2.20
   0  -7   8   18.00    2.50
   0   7  -9    5.70    1.40
   0   7   9    8.30    2.60
   0   7   9    4.60    2.50
   0  -7  -9    8.60    1.20
   0  -7   9    7.60    2.00
   0   7  10  281.47   11.60
   0   7 -10  296.77   11.80
   0  -7 -10  283.57   11.20
   0  -7  10  288.87   11.90
   0   7 -11   77.99    3.60
   0   7  11   78.49    4.50
   0  -7  11   77.19    4.60
   0  -7 -11   75.99    3.40
   0   8   0    2.70    2.00
   0   8   1   15.20    2.30
   0   8  -1   14.80    2.60
   0  -8   1   15.90    3.00
   0  -8  -1   13.30    2.60
   0   8  -2  468.05   19.10
   0   8  -2  465.55   19.20
   0   8   2  484.95   18.10
   0  -8  -2  463.25   18.90
   0  -8   2  439.56   18.40
   0  -8  -2  456.45   20.40
   0   8  -3  752.72   29.00
   0   8  -3  721.03   30.70
   0   8   3  710.63   28.30
   0   8  -3  740.23   29.20
   0  -8   3  725.53   27.60
   0  -8   3  713.63   27.70
   0  -8   3  745.03   28.30
   0  -8  -3  752.22   28.90
   0   8  -4  402.86   16.30
   0   8  -4  392.26   16.70
   0   8   4  353.26   14.90
   0  -8   4  382.06   14.90
   0  -8   4  392.06   15.60
   0   8  -5  200.08   10.00
   0   8   5  176.88    8.50
   0   8  -5  191.68    9.40
   0  -8   5  206.28    7.80
   0  -8   5  183.98    8.60
   0  -8   5  200.28    8.00
   0   8  -6  572.94   22.60
   0   8  -6  557.04   23.30
   0   8   6  495.15   21.90
   0  -8   6  581.44   22.00
   0  -8   6  578.44   22.20
   0   8  -7   14.20    6.10
   0   8  -7   17.90    2.50
   0   8   7   18.70    5.10
   0   8  -7   17.10    2.90
   0  -8   7   16.80    1.70
   0  -8  -7   19.20    2.10
   0  -8   7   24.00    3.30
   0   8   8   61.39    6.60
   0   8  -8   77.09    5.50
   0   8  -8   72.39    3.80
   0  -8   8   77.39    3.40
   0  -8  -8   73.79    3.60
   0  -8   8   77.29    4.60
   0   8  -9  240.68    9.70
   0  -8   9  241.88   10.20
   0  -8   9  232.58    9.20
   0   8  10    2.60    2.70
   0   8 -10    1.10    1.00
   0  -8  10    0.40    2.40
   0   9   0   -1.90    2.40
   0  -9   0   -0.40    1.10
   0  -9   0    2.90    1.20
   0   9   1  487.95   18.80
   0   9  -1  459.95   19.10
   0  -9   1  443.56   17.60
   0  -9   1  458.25   17.70
   0  -9  -1  451.15   17.70
   0   9   2   85.19    5.40
   0   9  -2   76.49    5.80
   0   9  -2   84.89    6.30
   0  -9   2   74.19    3.80
   0  -9   2   70.79    5.20
   0  -9   2   74.99    3.60
   0  -9  -2   75.99    3.90
   0   9  -3   36.40    4.80
   0   9  -3   43.40    4.90
   0   9   3   39.50    4.30
   0  -9   3   38.00    3.80
   0  -9   3   42.30    2.30
   0  -9  -3   36.60    3.00
   0  -9   3   36.90    2.60
   0   9  -4  251.27   11.40
   0   9  -4  241.08   11.90
   0  -9   4  242.68    9.80
   0  -9   4  253.27    9.90
   0  -9   4  254.17   10.70
   0   9  -5  240.68   11.90
   0   9  -5  241.98   11.10
   0  -9   5  239.88    9.50
   0  -9   5  239.48    9.60
   0  -9   5  244.18   10.50
   0   9  -6 1121.39   43.90
   0   9  -6 1094.19   44.60
   0  -9   6 1164.18   43.40
   0  -9   6 1146.49   42.60
   0  -9   6 1160.08   42.60
   0   9  -7   67.79    3.70
   0   9  -7   69.69    4.90
   0   9  -7   64.99    7.20
   0  -9   7   73.99    3.20
   0  -9   7   65.09    4.40
   0   9  -8   11.30    2.60
   0   9  -8    9.80    1.60
   0  -9   8    9.00    1.00
   0  -9   8    9.80    2.10
   0   9  -9    2.40    1.10
   0  -9   9    0.60    1.90
   0  -9   9    3.40    0.80
   0   9 -10    7.40    1.00
   0  -9  10    5.30    1.90
   0  10   0    2.80    3.00
   0  10  -1   96.59    7.10
   0  10  -1  101.29    6.70
   0  10   1  101.79    6.70
   0 -10  -1   94.29    4.40
   0 -10   1   96.99    4.40
   0 -10   1   95.59    4.50
   0  10  -2  525.75   21.50
   0  10  -2  525.05   21.20
   0  10   2  541.15   21.00
   0 -10  -2  504.55   19.70
   0 -10   2  513.25   19.70
   0 -10   2  511.35   19.60
   0 -10   2  485.65   21.40
   0  10  -3  148.29    8.30
   0  10  -3  144.79    7.80
   0 -10  -3  133.59    6.00
   0 -10   3  140.79    5.90
   0 -10   3  129.29    7.40
   0 -10   3  145.59    5.80
   0  10  -4   38.70    4.50
   0  10  -4   39.60    5.40
   0 -10   4   38.40    2.30
   0 -10   4   36.60    4.40
   0 -10   4   37.40    2.20
   0  10  -5  153.28    7.70
   0  10  -5  145.09    8.60
   0 -10   5  145.89    7.10
   0 -10   5  144.89    6.10
   0 -10   5  143.49    6.00
   0  10  -6   25.60    3.80
   0  10  -6   25.70    2.40
   0  10  -6   28.10    4.30
   0 -10   6   28.80    1.70
   0 -10   6   23.50    3.40
   0 -10   6   29.80    2.10
   0  10  -7   85.49    4.20
   0  10  -7   90.79    5.30
   0 -10   7   92.09    5.10
   0 -10   7   88.39    4.00
   0 -10   7   87.09    3.80
   0  10  -8   -0.20    2.30
   0  10  -8    3.60    1.00
   0 -10   8    1.70    0.60
   0 -10   8    3.60    2.60
   0  10  -9  100.99    4.20
   0 -10   9   90.79    3.90
   0 -10   9  102.09    5.10
   0  11   0    3.50    3.30
   0 -11   0   -1.20    0.90
   0 -11   0    0.00    1.00
   0  11   1  252.57   12.00
   0  11  -1  258.87   12.00
   0  11  -1  261.77   12.20
   0 -11   1  263.37   10.10
   0 -11   1  260.97   10.20
   0 -11  -1  252.97   10.20
   0  11  -2   72.29    6.20
   0  11  -2   85.09    5.90
   0 -11  -2   72.19    3.60
   0 -11   2   74.79    3.40
   0 -11   2   72.69    3.50
   0  11  -3    5.60    3.10
   0  11  -3    2.90    2.50
   0 -11   3   -3.90    3.10
   0 -11   3    2.80    0.80
   0 -11   3    0.90    0.90
   0 -11  -3    2.60    1.30
   0  11  -4   40.70    5.70
   0  11  -4   45.40    4.40
   0 -11   4   46.70    2.30
   0 -11   4   46.70    2.50
   0 -11   4   42.40    4.70
   0  11  -5   14.10    2.50
   0  11  -5   17.90    2.00
   0 -11   5   15.80    1.70
   0 -11   5   16.20    1.60
   0 -11   5   17.60    2.90
   0  11  -6    2.40    1.10
   0  11  -6    1.50    2.00
   0 -11   6    4.70    0.70
   0 -11   6    2.40    0.90
   0 -11   6    1.40    2.30
   0  11  -7  113.89    4.70
   0  11  -7  104.99    5.80
   0 -11   7  113.89    5.80
   0 -11   7  108.69    4.40
   0  12   0  513.65   21.30
   0  12  -1   92.79    6.30
   0 -12  -1   91.59    4.00
   0 -12   1   91.59    3.90
   0  12  -2  136.79    7.20
   0 -12  -2  131.09    5.60
   0 -12   2  137.59    5.50
   0 -12   2  136.99    5.60
   0  12  -3   36.70    4.20
   0 -12   3   40.40    2.00
   0 -12   3   39.90    2.10
   0  12  -4    7.10    1.30
   0  12  -4    1.60    2.00
   0 -12   4    6.20    0.90
   0 -12   4    6.20    0.70
   0  12  -5    1.30    1.00
   0  12  -5    0.60    1.90
   0 -12   5   -2.60    3.70
   0 -12   5    0.20    0.70
   0 -12   5    0.00    0.50
   0  12  -6   90.39    3.80
   0  12  -6   82.39    4.80
   0 -12   6   86.69    3.50
   0 -12   6   81.19    3.50
   0 -13   0    1.30    0.70
   0  13  -1    6.70    2.60
   0 -13  -1    3.50    0.80
   0 -13   1    3.60    0.70
   0  13  -2   22.20    2.80
   0 -13   2   26.10    1.50
   0 -13  -2   24.60    1.70
   0 -13   2   25.50    2.00
   0  13  -3    6.30    2.10
   0  13  -3    4.70    1.50
   0 -13   3    4.70    0.70
   0 -13   3    4.70    0.90
  -1   0  13   -1.00    1.90
   1   0 -13   -2.20    1.10
   1   0 -13    0.10    0.80
  -1   0  12   69.69    7.20
   1   0 -12   51.79    3.30
  -1   0  12   55.09    3.70
   1   0 -12   57.29    3.10
   1   0 -11    0.90    1.20
   1   0 -11    1.00    1.60
  -1   0  11    3.50    2.00
  -1   0  11    4.10    3.70
  -1   0  10  714.63   27.30
  -1   0  10  690.43   26.60
   1   0 -10  663.13   26.30
   1   0 -10  672.83   26.30
  -1   0   9    0.40    1.90
   1   0  -9    0.70    2.20
  -1   0   9    0.20    2.30
   1   0  -9    0.40    1.90
  -1   0   8  263.37   11.30
   1   0  -8  257.27   11.60
  -1   0   8  254.17   10.90
   1   0  -7   -1.50    2.50
   1   0  -7    0.70    1.80
  -1   0   7    0.50    1.50
  -1   0   7    1.50    2.10
  -1   0   6  424.36   16.90
   1   0  -6  424.06   16.90
   1   0  -6  433.36   17.30
   1   0  -5    0.90    1.30
  -1   0   5   -1.10    1.10
   1   0  -4 1879.01   69.39
  -1   0   4 1822.72   69.09
   1   0  -3   -0.80    0.70
  -1   0   3   -0.30    1.10
   1   0   0  946.21   34.40
  -1   0   0  902.71   34.30
  -1   0  -1   -4.20    0.30
   1   0   1   -4.70    0.40
  -1   0  -2 2980.20  108.59
   1   0   2 2870.01  108.79
   1   0   3    1.30    0.90
  -1   0  -3   -0.40    0.60
   1   0   4  296.57   11.80
  -1   0  -4  301.27   12.00
  -1   0  -5    0.20    1.10
   1   0   5   -1.20    1.20
  -1   0  -6  194.18    8.60
   1   0   6  189.98    8.20
   1   0   7    1.90    1.60
  -1   0  -7   -3.30    2.00
  -1   0  -7   -0.10    2.40
   1   0   7    1.10    1.80
  -1   0  -8  885.01   37.30
   1   0   8  985.80   36.60
   1   0   8  971.70   36.10
   1   0   9   -1.10    1.90
   1   0   9   -3.10    2.50
  -1   0  -9    1.10    1.70
  -1   0  -9   -2.10    1.70
  -1   0 -10   28.30    2.90
   1   0  10   19.80    3.20
  -1   0 -10   28.00    2.70
   1   0  10   27.20    3.90
  -1   0 -11    0.50    1.10
  -1   0 -11   -0.30    1.30
   1   0  11   -3.00    1.90
   1   0  11   -3.60    4.10
  -1   0 -12   58.89    3.10
  -1   0 -12   61.49    3.10
   1   0  12   63.09    4.00
  -1   0 -13    1.40    0.80
  -1   0 -13   -1.50    0.80
   1   1 -13  194.68    7.80
   1   1 -13  209.28    7.90
   1  -1 -13  178.28    7.80
   1  -1 -13  210.18    7.90
   1   1 -12  156.58    6.60
   1   1 -12  151.58    6.50
  -1   1  12  158.18    6.90
  -1   1  12  157.78    8.60
   1  -1 -12  144.19    6.90
   1  -1 -12  155.48    6.50
  -1  -1  12  150.98    6.90
  -1   1  11   11.30    3.40
   1   1 -11    6.20    1.80
  -1   1  11    4.50    1.90
   1   1 -11    7.40    1.50
  -1  -1  11    6.00    2.20
   1  -1 -11    9.80    1.50
   1  -1 -11    8.20    1.60
  -1  -1  11   11.80    4.40
  -1   1  10  399.16   16.20
   1   1 -10  398.26   16.00
  -1   1  10  414.16   16.90
   1   1 -10  395.26   16.00
  -1  -1  10  417.86   17.20
   1  -1 -10  404.56   15.90
   1  -1 -10  391.56   15.80
  -1  -1  10  406.16   16.10
  -1   1   9  194.08    8.80
   1   1  -9  194.88    8.70
  -1   1   9  196.68    9.30
   1   1  -9  197.68    8.80
   1  -1  -9  200.38    8.50
   1  -1  -9  190.48    8.70
  -1  -1   9  201.38    9.60
  -1  -1   9  198.28    8.80
   1   1  -8   33.10    5.20
  -1   1   8   34.90    3.60
   1   1  -8   34.80    5.10
  -1   1   8   38.90    3.90
  -1  -1   8   31.70    4.00
   1  -1  -8   32.20    4.60
  -1  -1   8   40.60    5.80
  -1  -1   8   31.60    3.60
   1   1  -7  322.27   13.80
  -1   1   7  299.17   12.80
  -1  -1   7  305.27   12.90
  -1  -1   7  298.97   12.70
   1  -1  -7  333.37   13.00
  -1   1   6  526.65   21.40
   1   1  -6  569.64   22.10
   1  -1  -6  560.64   21.70
  -1  -1   6  532.55   21.50
   1  -1  -6  569.44   21.50
   1   1  -5 4835.42  180.18
  -1   1   5 4804.92  179.68
   1  -1  -5 4824.22  179.68
  -1  -1   5 4743.33  179.78
   1  -1  -5 4973.00  179.88
   1   1  -4  340.87   13.60
  -1   1   4  333.87   13.20
  -1   1   4  316.07   13.60
   1  -1  -4  360.16   13.10
   1  -1  -4  342.27   13.30
   1   1  -3  379.66   14.60
  -1   1   3  354.76   14.40
   1  -1  -3  381.86   14.20
   1  -1  -3  379.16   14.40
  -1   1   2  -13.70    0.40
   1   1  -2  -12.40    0.60
  -1   1   2  -13.40    0.70
  -1   1   2  -13.90    0.50
   1  -1  -2  -13.30    0.30
   1  -1  -2  -13.80    0.50
   1  -1  -2  -12.70    0.50
   1   1  -1   57.09    2.30
   1   1  -1   56.19    2.50
   1   1  -1   54.49    2.50
  -1   1   1   54.19    2.30
  -1  -1   1   52.89    2.30
   1  -1  -1   56.29    2.20
   1  -1  -1   56.69    2.30
   1  -1  -1   49.10    2.30
   1  -1  -1   55.29    2.40
  -1   1   0  340.37   11.50
   1   1   0  307.57   11.50
   1   1   0  309.37   11.50
  -1   1   0  284.97   11.40
  -1  -1   0  306.47   11.50
  -1  -1   0  302.07   11.50
   1  -1   0  290.57   11.50
   1  -1   0  302.77   11.50
  -1   1  -1 2722.53   99.49
   1   1   1 2715.53   99.59
   1   1   1 2505.75   99.39
   1  -1   1 2727.93   99.59
   1   1   2 2849.31  109.59
  -1   1  -2 3114.59  109.69
  -1  -1  -2 2896.11  109.49
  -1  -1  -2 2930.41  109.59
  -1   1  -3 2343.87   87.09
   1   1   3 2392.26   86.59
   1   1   3 2282.37   86.89
  -1  -1  -3 2268.37   86.69
  -1  -1  -3 2349.76   86.59
   1   1   4    1.10    0.90
  -1   1  -4    0.90    0.90
  -1  -1  -4    0.00    0.80
   1  -1   4    1.50    1.20
  -1  -1  -4    0.90    0.80
  -1   1  -5   16.90    2.40
   1   1   5   18.30    2.10
  -1  -1  -5   15.60    2.00
  -1  -1  -5   16.90    2.00
   1  -1   5   16.60    2.30
   1   1   6   -1.10    1.20
  -1   1  -6    0.10    1.70
  -1  -1  -6    0.20    1.50
  -1  -1  -6    3.00    1.60
   1  -1   6    0.00    1.50
   1   1   7  682.63   26.90
  -1   1  -7  706.03   27.80
   1   1   7  708.53   27.10
  -1  -1  -7  678.83   27.60
   1  -1   7  728.43   27.20
   1  -1   7  694.03   26.80
  -1   1  -8   63.09    6.50
   1   1   8   60.49    4.30
   1   1   8   64.29    4.50
  -1  -1  -8   71.19    6.30
   1  -1   8   69.89    5.20
   1  -1   8   72.49    4.30
  -1   1  -9  223.58    9.90
   1   1   9  239.18   10.60
   1   1   9  251.37   10.00
  -1   1  -9  229.18    9.80
   1  -1   9  237.18   10.90
  -1  -1  -9  232.38    9.70
  -1  -1  -9  225.88    9.70
   1  -1   9  237.88   10.00
   1   1  10  264.57   12.00
   1   1  10  260.77   11.10
  -1   1 -10  258.57   10.80
  -1  -1 -10  265.77   10.80
   1  -1  10  271.27   12.50
  -1  -1 -10  267.77   10.70
   1  -1  10  272.17   11.10
  -1   1 -11   14.00    2.10
  -1   1 -11   18.40    2.30
   1   1  11   15.60    2.20
   1   1  11   15.10    3.60
   1  -1  11   14.90    2.40
  -1  -1 -11   15.50    2.00
  -1  -1 -11   14.70    2.00
  -1   1 -12  107.49    4.70
  -1   1 -12  110.79    4.70
   1   1  12  108.49    5.30
   1  -1  12  106.79    6.00
  -1  -1 -12  108.69    4.80
  -1  -1 -12  103.79    4.60
  -1   1 -13    2.70    0.80
   1   1  13   -1.40    2.40
  -1   1 -13    4.30    0.90
  -1  -1 -13    2.80    0.80
  -1  -1 -13    2.40    0.90
  -1   2  13   69.49    4.80
   1   2 -13   83.19    3.70
   1   2 -13   83.39    3.60
   1  -2 -13   81.59    3.60
  -1   2  12   14.40    3.60
   1   2 -12    9.90    1.70
   1   2 -12    9.10    1.40
  -1   2  12    7.20    1.80
   1  -2 -12    8.80    1.50
   1  -2 -12    7.40    1.30
   1   2 -11   54.69    3.50
   1   2 -11   49.50    3.30
  -1   2  11   47.50    4.00
  -1   2  11   50.79    5.40
   1  -2 -11   54.19    3.10
  -1  -2  11   45.30    4.40
   1  -2 -11   49.20    3.20
  -1   2  10   56.09    4.10
  -1   2  10   51.59    4.80
   1   2 -10   51.59    3.80
   1   2 -10   49.40    4.00
   1  -2 -10   60.09    3.60
   1  -2 -10   41.20    3.90
  -1  -2  10   57.39    8.50
  -1  -2  10   48.10    4.20
  -1   2   9   79.39    5.00
   1   2  -9   78.09    4.70
   1   2  -9   77.39    4.90
  -1   2   9   82.39    5.30
  -1  -2   9   74.29    6.30
  -1  -2   9   80.59    5.70
   1  -2  -9   66.39    4.70
  -1  -2   9   81.79    4.80
   1  -2  -9   80.49    4.40
   1   2  -8  309.47   14.80
  -1   2   8  317.77   13.20
  -1   2   8  323.07   13.00
  -1  -2   8  292.47   13.30
  -1  -2   8  311.07   13.50
  -1  -2   8  318.57   12.80
   1   2  -7   21.50    3.40
  -1   2   7   24.50    2.80
   1  -2  -7   27.50    3.40
  -1  -2   7   23.70    3.80
  -1  -2   7   29.10    3.60
  -1  -2   7   21.80    3.70
  -1   2   6  917.41   35.90
   1   2  -6  961.70   36.80
   1  -2  -6  989.30   36.00
  -1  -2   6  911.01   36.10
   1   2  -5  148.89    7.00
   1   2  -5  132.89    7.00
  -1   2   5  153.58    6.30
   1  -2  -5  158.58    6.30
   1  -2  -5  144.79    6.30
  -1  -2   5  137.59    6.60
   1   2  -4 1759.42   66.19
  -1   2   4 1752.12   65.99
   1   2  -4 1803.32   66.39
  -1   2   4 1790.12   65.69
   1  -2  -4 1753.02   65.69
   1  -2  -4 1821.32   65.79
  -1  -2   4 1654.53   65.89
   1   2  -3   69.49    3.90
   1   2  -3   75.29    3.80
   1  -2  -3   75.79    3.30
   1   2  -2 1388.76   52.19
   1  -2  -2 1361.76   52.09
   1  -2  -2 1423.36   51.89
   1   2  -1  122.29    4.90
   1   2  -1  122.19    5.00
   1   2  -1  123.89    5.00
  -1   2   1  117.39    4.90
  -1   2   1  117.69    4.90
   1  -2  -1  122.59    4.90
   1  -2  -1  122.69    4.80
  -1  -2   1  118.39    4.80
  -1   2   0  134.69    5.20
  -1   2   0  139.49    5.30
   1   2   0  131.99    5.20
   1  -2   0  142.29    5.30
  -1  -2   0  135.19    5.30
   1  -2   0  128.19    5.30
  -1  -2   0  129.59    5.30
   1   2   1 2449.05   88.69
  -1   2  -1 2453.65   88.69
  -1  -2  -1 2345.07   88.69
  -1  -2  -1 2299.97   88.49
   1   2   3 1052.59   39.10
   1   2   3  991.70   39.40
  -1   2  -3 1055.09   39.50
  -1  -2  -3 1078.99   39.10
  -1  -2  -3 1052.19   39.40
   1   2   4  837.02   31.50
   1   2   4  754.72   32.10
  -1   2  -4  858.81   32.00
  -1   2  -4  856.11   32.00
  -1  -2  -4  860.81   31.50
   1  -2   4  812.42   31.70
  -1  -2  -4  865.91   31.90
  -1   2  -5  540.55   21.00
  -1   2  -5  543.95   21.10
   1   2   5  523.55   20.40
  -1  -2  -5  529.55   20.80
  -1  -2  -5  538.85   20.40
   1  -2   5  515.55   20.60
  -1   2  -6 2548.05   93.99
   1   2   6 2462.65   93.19
  -1  -2  -6 2530.95   93.69
   1  -2   6 2441.56   93.29
   1   2   7  127.69    6.20
   1   2   7  132.89    6.50
  -1   2  -7  131.69    7.40
   1  -2   7  134.09    6.80
   1  -2   7  125.09    6.20
   1  -2   7  119.99    6.80
  -1  -2  -7  128.29    7.00
  -1   2  -8   19.90    3.20
  -1   2  -8   21.70    4.40
  -1   2  -8   30.20    4.30
   1   2   8   26.20    3.30
   1   2   8   22.40    3.40
   1  -2   8   21.30    3.60
  -1  -2  -8   21.90    3.00
  -1  -2  -8   20.50    2.80
  -1  -2  -8   21.90    3.90
   1  -2   8   23.90    3.60
   1  -2   8   27.10    3.70
   1   2   9   22.70    3.20
   1   2   9   20.90    2.80
  -1   2  -9   18.10    2.80
  -1   2  -9   23.40    3.30
   1  -2   9   20.40    2.70
  -1  -2  -9   22.00    2.50
  -1  -2  -9   22.30    2.60
  -1   2 -10   22.80    2.80
  -1   2 -10   28.40    2.80
   1   2  10   24.20    3.20
   1   2  10   23.30    3.20
  -1  -2 -10   22.00    2.30
   1  -2  10   22.80    3.80
  -1  -2 -10   19.30    2.40
  -1   2 -11    0.20    1.30
  -1   2 -11    2.30    1.20
   1   2  11   -2.80    3.10
   1   2  11    1.10    1.80
  -1  -2 -11    0.10    1.10
  -1  -2 -11    3.70    1.20
  -1   2 -12   11.10    1.70
  -1   2 -12    8.10    1.20
   1   2  12    9.40    1.90
  -1  -2 -12    9.60    1.60
   1   2  13   67.69    4.10
  -1   2 -13   67.69    3.20
  -1   2 -13   74.89    3.10
  -1  -2 -13   67.89    3.10
  -1  -2 -13   69.29    3.10
  -1   3  13   -1.60    1.40
   1   3 -13   -0.50    0.80
   1   3 -13   -1.50    1.00
   1  -3 -13    0.90    0.80
   1   3 -12   43.40    2.90
   1   3 -12   41.00    3.00
  -1   3  12   41.90    3.20
  -1   3  11   47.30    3.70
  -1   3  11   51.59    4.90
   1   3 -11   48.30    3.30
   1   3 -11   48.40    3.30
   1  -3 -11   50.89    3.00
  -1  -3  11   48.80    5.50
   1  -3 -11   46.30    3.10
  -1   3  10    5.00    2.10
   1   3 -10    4.60    1.70
  -1   3  10    7.10    2.60
   1   3 -10    4.40    1.70
  -1  -3  10    3.10    2.60
   1  -3 -10    4.50    1.70
  -1  -3  10    9.40    2.90
   1  -3 -10    3.60    1.40
   1   3  -9   25.70    3.20
  -1   3   9   22.70    2.90
  -1   3   9   25.60    3.80
   1   3  -9   23.00    3.50
  -1  -3   9   23.10    3.00
  -1  -3   9   23.10    4.00
   1  -3  -9   21.30    2.60
   1  -3  -9   20.60    2.20
  -1   3   8  171.08    7.90
   1   3  -8  156.58   10.60
  -1   3   8  167.58    8.10
  -1  -3   8  165.68    8.00
  -1  -3   8  167.38    7.80
   1   3  -7   11.80    3.20
  -1   3   7   13.40    2.00
  -1   3   7   13.20    3.70
  -1  -3   7   10.30    2.80
  -1  -3   7    9.20    2.50
   1  -3  -7   14.80    2.50
  -1  -3   7   12.50    2.70
   1   3  -6  944.81   38.70
  -1   3   6  989.50   37.50
   1   3  -6 1006.10   38.90
   1  -3  -6 1040.20   37.90
  -1  -3   6  969.80   37.90
  -1   3   5 1150.68   45.50
   1   3  -5 1217.28   46.10
   1   3  -5 1227.18   46.40
   1  -3  -5 1297.37   45.80
  -1  -3   5 1154.58   45.70
  -1   3   4  859.21   34.00
  -1   3   4  925.71   33.90
   1   3  -4  894.01   34.70
   1   3  -4  917.81   34.60
   1  -3  -4  857.81   33.70
   1  -3  -4  966.30   34.30
   1   3  -3   37.30    2.80
   1   3  -3   34.60    2.60
   1  -3  -3   34.70    2.10
   1   3  -2   65.59    3.30
   1   3  -2   54.59    3.10
   1  -3  -2   54.09    4.00
   1   3  -1    0.90    0.80
   1   3  -1    1.30    0.90
   1   3  -1    1.90    0.90
  -1  -3   1    0.70    0.60
   1  -3  -1    0.50    0.60
   1  -3  -1    1.20    0.60
   1   3   0 1484.75   55.89
  -1   3   0 1471.75   55.89
   1   3   0 1537.45   56.09
   1  -3   0 1528.85   56.19
  -1  -3   0 1448.85   56.09
   1  -3   0 1546.55   55.99
  -1   3  -1   82.09    4.00
   1   3   1   90.19    3.90
  -1   3  -1   85.49    3.90
   1  -3   1   93.69    3.70
  -1  -3  -1   85.29    3.80
   1   3   3   12.10    1.60
  -1   3  -3   14.10    1.90
   1   3   3   12.90    2.20
  -1  -3  -3   14.20    1.60
  -1  -3  -3   15.50    1.20
  -1   3  -4   13.60    2.20
   1   3   4    9.80    1.70
  -1   3  -4   11.10    1.80
  -1  -3  -4    6.60    1.10
  -1  -3  -4   10.50    1.70
   1   3   5  389.46   15.60
  -1   3  -5  405.86   16.30
  -1   3  -5  398.76   16.40
  -1  -3  -5  411.46   16.10
   1   3   6  186.38    7.90
  -1   3  -6  183.08    8.90
  -1   3  -6  188.08    9.00
  -1  -3  -6  186.48    8.60
   1   3   7    5.10    1.70
   1   3   7    5.20    2.30
  -1   3  -7    0.50    2.90
  -1   3  -7    6.70    3.30
   1  -3   7    4.50    2.30
   1  -3   7    3.60    2.80
  -1  -3  -7    3.40    2.50
   1   3   8   14.10    2.20
  -1   3  -8   15.40    2.80
   1   3   8   12.40    2.30
  -1   3  -8   14.90    2.20
   1  -3   8   16.20    3.10
   1  -3   8   17.00    3.00
  -1  -3  -8   14.40    1.90
  -1  -3  -8   17.60    2.60
   1   3   9  217.08    9.90
  -1   3  -9  215.78    9.50
   1   3   9  234.18    9.50
  -1   3  -9  222.88    9.30
  -1  -3  -9  225.08    9.10
   1  -3   9  212.98   10.10
  -1  -3  -9  213.28    9.00
   1   3  10  339.67   13.60
  -1   3 -10  338.77   13.40
  -1   3 -10  335.77   13.40
  -1  -3 -10  343.97   13.30
  -1  -3 -10  319.87   13.10
   1   3  11   11.90    3.20
  -1   3 -11   13.20    2.20
  -1   3 -11    8.30    1.50
   1   3  11   10.20    2.00
  -1  -3 -11   11.80    1.40
  -1  -3 -11   11.10    1.80
   1   3  12   33.30    2.80
  -1   3 -12   32.10    2.20
  -1   3 -12   32.40    2.20
  -1  -3 -12   30.50    2.10
  -1  -3 -12   27.80    2.00
  -1   3 -13   11.60    1.30
  -1   3 -13    8.50    1.00
   1   3  13   11.40    2.00
  -1  -3 -13   11.80    1.10
  -1  -3 -13    8.10    1.10
   1   4 -13   18.40    1.90
  -1   4  13   18.80    2.20
   1   4 -13   19.50    1.80
   1  -4 -13   15.70    1.30
   1   4 -12   70.19    3.50
  -1   4  12   72.09    4.00
   1   4 -12   74.59    3.60
   1  -4 -12   68.09    3.40
  -1   4  11   19.40    3.00
   1   4 -11   14.50    2.30
   1   4 -11   13.90    2.30
  -1   4  11   16.00    3.00
   1  -4 -11   11.70    1.50
  -1  -4  11   18.70    2.80
  -1   4  10    1.70    2.50
   1   4 -10    2.00    1.50
   1   4 -10    1.40    1.70
  -1   4  10    1.30    2.20
   1  -4 -10    2.90    1.30
  -1  -4  10    3.60    2.40
  -1   4   9  585.24   23.40
   1   4  -9  576.74   23.10
  -1   4   9  595.14   23.20
   1   4  -9  594.44   22.90
   1  -4  -9  610.64   22.80
  -1  -4   9  585.04   23.30
  -1   4   8    8.60    2.10
  -1   4   8    8.30    3.00
   1   4  -8    8.20    1.80
   1   4  -8   10.80    2.60
   1  -4  -8    8.90    1.90
  -1  -4   8    5.50    2.20
   1   4  -7    1.00    3.40
   1   4  -7    1.10    3.10
   1   4  -7    3.80    2.70
  -1   4   7    0.70    1.70
   1  -4  -7    2.00    2.70
  -1  -4   7    0.00    1.90
  -1   4   6   14.30    2.40
   1   4  -6   17.00    2.70
   1   4  -6   18.50    2.90
   1   4  -6   16.50    2.90
  -1  -4   6   17.60    2.40
   1   4  -5  667.23   27.80
  -1   4   5  694.43   26.90
   1   4  -5  726.03   28.20
   1  -4  -5  752.62   27.50
   1   4  -4  763.42   30.50
   1   4  -4  772.82   30.30
   1  -4  -4  814.02   30.00
   1   4  -3   94.59    4.90
   1   4  -3   95.79    5.00
   1  -4  -3   98.99    4.50
   1   4  -2   33.80    2.50
   1   4  -2   33.80    2.50
   1  -4  -2   34.20    2.40
   1  -4  -2   31.30    2.10
  -1  -4   2   34.70    1.70
   1   4  -1   57.29    3.30
   1   4  -1   61.79    3.20
   1   4  -1   62.39    3.10
   1  -4  -1   58.89    3.10
   1  -4  -1   63.19    3.10
  -1  -4   1   58.29    3.10
   1   4   0  314.07   12.00
  -1   4   0  275.07   12.00
  -1   4   0  335.07   11.80
  -1   4   0  273.27   12.00
   1   4   0  311.57   11.80
   1   4   0  302.67   11.80
   1  -4   0  341.37   12.00
  -1  -4   0  303.37   12.10
   1   4   1   35.80    2.20
  -1   4  -1   41.70    2.60
   1   4   1   37.00    1.90
  -1   4  -1   44.40    2.30
  -1  -4  -1   35.70    2.30
  -1   4  -2  404.66   16.00
  -1   4  -2  439.76   16.20
   1   4   2  379.06   15.40
   1   4   2  366.46   15.50
  -1  -4  -2  416.66   16.00
   1  -4   2  428.96   15.70
  -1  -4  -2  425.36   15.60
  -1   4  -3  405.96   16.30
   1   4   3  396.76   15.60
  -1  -4  -3  416.76   16.20
   1  -4   3  418.36   15.90
   1   4   4  110.09    4.80
  -1   4  -4  109.39    5.70
  -1   4  -4  104.29    5.60
  -1  -4  -4  114.79    5.40
  -1   4  -5   48.10    4.20
  -1   4  -5   55.29    4.00
   1   4   5   51.09    3.10
  -1  -4  -5   54.99    4.40
   1   4   6  501.05   19.50
  -1   4  -6  506.45   20.60
  -1   4  -6  510.85   20.40
  -1   4  -6  491.75   20.10
   1  -4   6  478.15   19.70
  -1  -4  -6  518.45   20.40
  -1   4  -7  172.28    9.80
   1   4   7  171.98    8.40
  -1   4  -7  177.18    8.80
   1   4   7  179.08    7.90
   1  -4   7  178.58    8.10
  -1  -4  -7  179.48    9.50
  -1   4  -8    8.10    2.60
   1   4   8   10.10    2.40
   1   4   8    9.00    2.10
  -1   4  -8    8.10    1.80
   1  -4   8   11.20    2.50
  -1  -4  -8   12.30    1.70
  -1  -4  -8    7.20    1.70
   1   4   9   53.99    4.20
   1   4   9   45.50    3.90
  -1   4  -9   40.40    3.80
  -1  -4  -9   43.60    4.20
   1  -4   9   45.70    4.50
   1   4  10   14.40    2.90
  -1   4 -10   16.50    2.40
  -1   4 -10   11.80    1.90
   1  -4  10   18.50    3.20
  -1  -4 -10   14.50    2.10
  -1  -4 -10   10.40    1.40
   1   4  11    6.30    3.10
  -1   4 -11    2.30    1.30
   1   4  11    7.90    1.80
  -1   4 -11    5.00    1.70
  -1  -4 -11    4.70    1.70
  -1  -4 -11    5.50    1.20
  -1   4 -12  263.87   10.50
  -1   4 -12  283.07   10.60
   1   4  12  275.17   11.10
  -1  -4 -12  267.37   10.50
  -1  -4 -12  260.37   10.40
  -1   5  12   58.59    4.40
   1   5 -12   49.90    2.80
   1   5 -12   53.59    2.90
  -1  -5  12   48.10    4.60
   1  -5 -12   49.20    2.60
  -1   5  11   19.00    3.00
  -1   5  11    6.70    2.90
   1   5 -11   11.80    1.60
   1   5 -11   10.70    1.70
   1  -5 -11   10.90    1.90
  -1  -5  11   11.50    2.50
   1   5 -10  127.59    6.10
  -1   5  10  130.79    6.80
  -1   5  10  124.39    6.40
   1   5 -10  131.89    5.90
   1  -5 -10  126.39    5.70
  -1  -5  10  123.89    7.80
   1   5  -9   25.40    2.90
   1   5  -9   25.30    3.80
  -1   5   9   25.50    4.00
  -1   5   9   27.60    3.20
  -1  -5   9   30.00    3.60
   1  -5  -9   28.30    3.30
   1   5  -8  482.55   19.00
  -1   5   8  500.15   19.30
   1   5  -8  468.15   19.90
   1   5  -8  482.75   19.40
   1  -5  -8  498.45   18.90
  -1  -5   8  486.95   19.40
  -1   5   7    1.30    1.80
   1   5  -7    5.50    2.60
   1   5  -7    4.00    3.10
   1   5  -7    1.10    1.70
   1  -5  -7   -0.90    3.50
  -1  -5   7   -0.60    1.80
   1   5  -6 1402.46   55.09
  -1   5   6 1408.06   53.99
   1   5  -6 1445.26   55.69
   1   5  -6 1439.46   54.79
   1  -5  -6 1512.75   54.99
  -1  -5   6 1423.16   54.39
   1   5  -5  106.39    6.20
  -1   5   5  100.59    4.80
   1   5  -5  104.49    6.00
   1   5  -5  111.19    6.50
  -1  -5   5   95.59    5.50
   1  -5  -5  118.49    5.90
   1   5  -4   51.59    4.00
   1   5  -4   53.29    5.20
  -1  -5   4   54.29    3.10
   1  -5  -4   62.29    3.70
   1   5  -3    0.20    1.40
   1   5  -3    0.60    1.60
   1  -5  -3    1.50    1.20
  -1  -5   3    2.30    0.90
   1   5  -2  203.18    8.80
   1   5  -2  210.28    9.00
   1  -5  -2  208.48    8.80
   1  -5  -2  210.58    9.00
   1   5  -1  289.17   11.60
   1   5  -1  277.37   11.80
  -1  -5   1  282.77   11.80
   1  -5  -1  300.77   11.90
   1  -5  -1  310.77   12.00
  -1   5   0  303.27   12.30
  -1   5   0  304.67   12.50
   1   5   0  347.47   12.50
  -1   5   0  348.17   12.60
   1   5   0  313.47   12.70
   1  -5   0  329.47   12.80
  -1  -5   0  310.77   12.90
  -1   5  -1  382.86   14.40
   1   5   1  339.17   13.90
  -1   5  -1  363.96   14.20
   1   5   1  349.67   14.00
   1  -5   1  379.86   14.20
  -1  -5  -1  364.26   14.50
  -1   5  -2   79.99    4.30
  -1   5  -2   83.19    4.40
   1   5   2   79.99    3.40
   1  -5   2   83.99    3.90
  -1  -5  -2   83.59    4.30
  -1   5  -3   15.00    2.50
  -1   5  -3   13.30    2.40
   1   5   3   12.40    2.00
  -1  -5  -3   13.00    2.20
   1  -5   3   14.00    2.00
  -1   5  -4  347.77   14.30
  -1   5  -4  338.47   14.30
   1   5   4  328.27   13.20
   1  -5   4  346.87   13.70
  -1  -5  -4  353.46   14.20
  -1   5  -5  968.80   37.60
   1   5   5  960.70   36.80
  -1   5  -5  987.40   37.90
  -1   5  -5  994.20   38.00
   1  -5   5  937.51   37.10
  -1  -5  -5 1010.40   37.80
  -1   5  -6   99.79    6.80
  -1   5  -6   96.19    6.00
   1   5   6   94.99    4.90
  -1   5  -6   99.39    6.30
  -1  -5  -6  102.59    6.60
   1  -5   6   99.99    5.30
  -1   5  -7  658.73   25.80
   1   5   7  660.33   25.20
  -1   5  -7  682.83   26.60
  -1   5  -7  663.43   25.10
   1   5   7  633.34   25.30
  -1  -5  -7  652.63   25.00
  -1  -5  -7  609.74   24.70
   1  -5   7  659.03   25.40
  -1   5  -8  109.19    5.30
   1   5   8  108.29    5.60
  -1   5  -8   98.49    6.80
   1   5   8  106.89    5.80
  -1   5  -8  102.29    6.20
  -1  -5  -8  110.19    5.20
  -1  -5  -8  103.29    4.90
   1  -5   8  103.69    5.70
   1   5   9  458.25   18.00
  -1   5  -9  452.55   17.70
   1   5   9  443.86   17.80
  -1   5  -9  434.36   17.80
  -1  -5  -9  436.36   17.20
  -1  -5  -9  453.85   17.50
   1  -5   9  470.65   18.20
   1   5  10   12.20    2.20
   1   5  10   12.20    2.70
  -1   5 -10   15.00    1.80
  -1   5 -10   15.20    2.00
   1  -5  10   15.70    2.80
  -1  -5 -10   15.70    2.00
  -1  -5 -10   14.30    2.00
   1   5  11  229.18    9.30
  -1   5 -11  225.98    9.10
  -1   5 -11  228.78    9.00
  -1  -5 -11  226.68    8.90
   1  -5  11  224.58   10.40
  -1  -5 -11  217.88    8.80
   1   5  12   90.19    4.60
  -1   5 -12   95.59    4.10
  -1  -5 -12   90.09    3.80
   1   6 -12    3.10    1.10
   1   6 -12    2.50    1.10
  -1   6  12    4.20    1.60
  -1  -6  12    3.40    2.50
   1  -6 -12    2.60    0.80
   1   6 -11   58.09    3.20
  -1   6  11   55.19    3.90
   1   6 -11   53.49    3.20
  -1  -6  11   61.69    4.10
   1  -6 -11   54.29    2.80
   1   6 -10  107.69    5.10
   1   6 -10  105.09    5.30
  -1   6  10  112.69    6.00
  -1   6  10  106.59    5.80
  -1  -6  10  102.89    5.60
   1  -6 -10  108.29    4.80
  -1   6   9   46.40    4.80
   1   6  -9   45.70    3.20
   1   6  -9   47.10    3.80
   1  -6  -9   47.90    3.10
  -1  -6   9   45.90    3.90
   1   6  -8  107.09    6.60
   1   6  -8  103.99    5.10
   1   6  -8  100.09    5.80
  -1   6   8   96.29    5.60
  -1  -6   8  105.99    5.70
   1  -6  -8  102.39    5.10
  -1  -6   8  104.09    4.70
   1   6  -7   18.00    3.00
  -1   6   7   21.00    3.20
   1   6  -7   18.70    3.70
   1   6  -7   21.80    3.00
  -1  -6   7   19.30    2.20
   1  -6  -7   19.90    3.10
  -1  -6   7   18.00    3.10
   1   6  -6   31.00    4.10
  -1   6   6   27.70    3.10
  -1  -6   6   27.70    3.10
   1  -6  -6   28.70    5.50
   1   6  -5   19.00    2.80
   1   6  -5   22.30    3.70
  -1   6   5   18.20    2.60
   1   6  -5   17.50    2.80
  -1  -6   5   17.70    2.90
   1  -6  -5   24.00    4.00
   1   6  -4   59.29    5.00
   1   6  -4   57.29    4.40
   1   6  -4   57.79    5.00
   1  -6  -4   65.99    4.40
  -1  -6   4   62.19    4.00
   1   6  -3   77.09    4.70
   1   6  -3   76.69    5.10
   1  -6  -3   75.29    4.60
   1   6  -2  155.68    7.10
   1   6  -2  149.88    7.30
   1  -6  -2  158.08    7.40
   1  -6  -2  149.39    7.20
   1   6  -1  361.96   14.60
   1   6  -1  336.07   14.70
  -1   6   1  404.16   14.10
   1  -6  -1  375.26   14.90
   1  -6  -1  357.66   14.90
  -1   6   0   70.99    3.80
   1   6   0   65.79    3.80
   1   6   0   75.69    3.60
   1  -6   0   68.79    4.20
  -1  -6   0   63.59    4.00
  -1   6  -1  701.13   27.40
  -1   6  -1  757.52   27.80
   1   6   1  697.83   27.20
   1  -6   1  743.33   27.70
  -1  -6  -1  704.03   28.00
  -1   6  -2  263.37   11.00
  -1   6  -2  259.97   10.80
   1   6   2  245.68   10.20
   1  -6   2  267.07   10.70
  -1  -6  -2  259.17   11.10
  -1   6  -3   50.99    4.00
   1   6   3   49.90    2.60
  -1   6  -3   44.30    3.80
   1  -6   3   53.99    3.80
   1  -6   3   48.20    3.70
  -1  -6  -3   51.89    3.90
  -1   6  -4    1.00    2.10
  -1   6  -4    2.40    1.90
   1   6   4    2.70    1.10
  -1   6  -4    0.60    2.30
   1  -6   4    3.40    1.60
  -1  -6  -4    4.30    2.10
  -1   6  -5    1.00    2.70
  -1   6  -5    0.00    2.10
  -1   6  -5    2.40    2.30
   1   6   5    2.00    1.30
   1  -6   5    1.70    1.70
  -1   6  -6   69.89    5.20
  -1   6  -6   63.29    4.30
   1   6   6   72.49    4.10
  -1   6  -6   72.19    5.70
  -1  -6  -6   71.29    4.00
   1  -6   6   74.19    3.70
  -1  -6  -6   82.09    4.20
   1  -6   6   73.59    4.50
  -1   6  -7    5.20    2.30
   1   6   7    2.70    1.80
  -1   6  -7    1.00    3.10
  -1   6  -7    2.10    1.50
   1  -6   7    2.30    1.90
  -1  -6  -7    2.50    1.40
  -1  -6  -7    2.70    1.40
   1  -6   7    2.70    1.20
   1   6   8  357.56   14.30
   1   6   8  350.96   14.20
  -1   6  -8  346.87   14.00
  -1   6  -8  331.07   14.90
  -1  -6  -8  375.66   13.90
   1  -6   8  354.66   14.50
  -1  -6  -8  344.07   13.70
   1   6   9   46.80    4.40
  -1   6  -9   54.99    3.40
   1   6   9   56.49    4.20
  -1  -6  -9   53.59    3.00
  -1  -6  -9   49.70    3.00
   1  -6   9   47.50    4.40
  -1   6 -10   64.79    3.50
   1   6  10   64.69    4.10
   1   6  10   58.99    5.30
  -1  -6 -10   60.19    3.30
  -1  -6 -10   63.89    3.10
   1  -6  10   65.69    4.70
   1   6  11   97.29    5.80
  -1   6 -11   96.99    4.30
   1  -6  11   90.59    5.80
  -1  -6 -11   92.79    4.60
  -1  -6 -11   94.09    4.00
   1   7 -11   53.19    2.90
   1   7 -11   50.49    3.10
  -1   7  11   58.69    3.60
   1  -7 -11   46.30    2.50
  -1  -7  11   52.99    3.90
  -1   7  10   -0.10    2.30
   1   7 -10    2.10    1.20
   1   7 -10    3.70    1.60
   1  -7 -10    0.20    1.00
  -1  -7  10    1.60    1.80
  -1   7   9   26.00    4.10
   1   7  -9   27.60    3.20
   1   7  -9   25.80    2.50
  -1  -7   9   28.90    2.10
   1  -7  -9   28.50    2.30
  -1  -7   9   27.10    3.20
  -1   7   8   38.60    4.10
   1   7  -8   41.50    4.90
   1   7  -8   42.10    3.10
   1   7  -8   43.40    4.00
  -1  -7   8   44.90    2.50
  -1  -7   8   44.40    3.70
   1  -7  -8   41.70    2.90
   1   7  -7   -1.10    2.30
   1   7  -7    5.10    2.50
  -1   7   7    4.50    2.00
   1   7  -7    0.20    3.30
  -1  -7   7    4.70    1.90
  -1  -7   7    4.10    1.10
   1  -7  -7    4.70    1.60
   1   7  -6   44.10    5.00
   1   7  -6   37.10    4.30
  -1   7   6   40.50    3.30
   1   7  -6   38.80    5.00
  -1  -7   6   45.70    2.60
  -1  -7   6   39.00    3.10
  -1  -7   6   41.20    3.40
   1  -7  -6   40.40    3.30
   1   7  -5  350.36   15.10
  -1  -7   5  334.17   14.20
  -1  -7   5  340.97   13.30
   1   7  -4   19.60    3.70
   1   7  -4   20.50    3.10
   1   7  -4   22.60    3.10
   1  -7  -4   23.80    3.40
  -1  -7   4   21.90    2.90
   1   7  -3   10.90    2.90
   1   7  -3   18.10    2.70
   1   7  -3   14.60    3.00
  -1  -7   3   12.30    2.10
   1   7  -2  630.74   24.60
   1   7  -2  606.74   24.70
   1   7  -2  604.24   24.60
  -1  -7   2  609.24   24.50
   1  -7  -2  727.73   27.10
  -1  -7   2  571.54   24.10
   1  -7  -2  621.64   24.80
   1   7  -1  335.77   14.20
  -1   7   1  368.96   13.80
   1   7  -1  345.17   14.30
  -1  -7   1  343.87   14.60
  -1   7   0  626.34   23.30
   1   7   0  589.84   23.20
  -1  -7   0  575.94   23.60
   1   7   1   94.89    4.50
  -1   7  -1   98.29    5.10
  -1   7  -1   87.99    4.50
   1  -7   1   92.69    6.30
  -1  -7  -1   85.99    5.80
  -1  -7  -1   85.39    5.40
   1   7   2  147.39    6.50
  -1   7  -2  151.88    7.20
  -1   7  -2  157.58    8.90
  -1   7  -2  165.38    7.60
  -1  -7  -2  151.18    7.80
   1  -7   2  151.48    7.20
  -1  -7  -2  160.68    8.00
  -1   7  -3  122.79    6.50
  -1   7  -3  123.79    6.60
  -1   7  -3  125.59    7.20
   1   7   3  120.89    5.40
   1  -7   3  114.09    5.90
  -1  -7  -3  112.59    7.30
  -1  -7  -3  112.19    6.80
   1   7   4 1063.09   40.30
  -1   7  -4 1018.00   41.30
  -1   7  -4 1103.49   41.60
  -1   7  -4 1104.69   41.30
   1  -7   4 1066.59   40.70
  -1  -7  -4 1052.29   41.80
   1   7   5   95.19    4.80
  -1   7  -5  102.39    6.30
  -1   7  -5  105.99    6.10
  -1  -7  -5   89.49    4.60
   1  -7   5   91.89    4.70
  -1  -7  -5   88.79    4.70
   1  -7   5  101.59    4.30
   1  -7   5   92.09    5.20
  -1   7  -6  520.65   22.00
  -1   7  -6  519.55   21.40
  -1   7  -6  507.35   20.50
   1   7   6  521.75   20.40
   1  -7   6  533.85   20.10
  -1  -7  -6  531.95   20.20
  -1  -7  -6  558.54   20.30
   1  -7   6  530.25   20.90
   1   7   7   98.99    5.40
  -1   7  -7   91.29    4.90
  -1   7  -7   98.29    6.00
  -1   7  -7   86.89    7.20
   1  -7   7  105.89    5.00
   1  -7   7   95.89    5.40
  -1  -7  -7   96.29    4.80
   1   7   8  698.63   27.10
  -1   7  -8  669.43   27.90
  -1   7  -8  688.83   26.80
  -1  -7  -8  704.63   26.50
  -1  -7  -8  734.93   26.60
   1  -7   8  711.03   26.40
   1  -7   8  688.03   27.20
  -1   7  -9  244.48   10.10
   1   7   9  241.38   10.40
   1   7   9  237.98   11.30
  -1  -7  -9  256.17    9.80
   1  -7   9  257.77   10.70
  -1  -7  -9  250.47    9.80
  -1   7 -10    0.90    1.10
   1   7  10    4.80    2.20
   1  -7  10    3.10    2.20
  -1  -7 -10    3.20    0.90
   1   7  11   12.80    2.30
  -1   7 -11   12.90    1.50
   1  -7  11   10.00    2.70
   1   8 -11  105.49    4.40
  -1  -8  11  100.09    5.20
   1   8 -10    8.70    1.30
  -1  -8  10    7.00    1.90
   1   8  -9    3.10    1.30
   1   8  -9    3.50    5.30
  -1  -8   9    3.30    0.90
  -1  -8   9    4.10    1.90
  -1   8   8   32.30    4.00
   1   8  -8   41.80    2.90
   1   8  -8   34.70    4.40
   1   8  -8   39.40    4.60
  -1  -8   8   42.70    3.60
  -1  -8   8   41.40    2.30
   1  -8  -8   44.50    2.80
   1   8  -7   68.79    5.40
   1   8  -7   74.19    7.00
  -1   8   7   69.19    7.80
   1  -8  -7   77.29    4.60
  -1  -8   7   69.59    3.40
  -1  -8   7   72.29    4.60
   1   8  -6    8.10    2.50
   1   8  -6   11.60    3.40
  -1  -8   6    8.40    1.90
  -1  -8   6    7.60    1.10
  -1  -8   6   10.60    1.60
   1   8  -5  825.52   32.20
   1   8  -5  798.72   32.70
  -1  -8   5  820.82   31.50
  -1  -8   5  823.02   30.90
  -1  -8   5  819.32   30.80
   1   8  -4   16.00    3.10
   1   8  -4   18.70    3.00
  -1  -8   4   20.00    2.20
  -1  -8   4   26.00    3.10
  -1  -8   4   21.10    1.90
   1   8  -3    7.50    2.80
   1   8  -3   -0.50    3.80
   1   8  -3    2.00    2.40
  -1  -8   3    3.80    1.20
  -1  -8   3    3.40    1.40
  -1  -8   3    8.30    2.10
   1   8  -2   61.69    4.80
   1   8  -2   64.29    5.70
  -1   8   2   64.89    4.20
  -1  -8   2   50.79    4.60
  -1   8   1   20.40    3.40
   1   8  -1   16.50    2.80
  -1  -8   1   17.10    2.90
   1   8   0   28.60    3.50
  -1   8   0   28.70    3.60
  -1  -8   0   28.60    4.00
  -1   8  -1  834.02   34.50
   1   8   1  903.31   33.00
  -1  -8  -1  909.31   33.50
  -1  -8  -1  792.22   33.90
   1  -8   1  855.01   33.10
   1   8   2  430.46   17.20
  -1   8  -2  430.86   18.00
  -1   8  -2  438.86   18.20
   1  -8   2  410.16   17.30
   1  -8   2  411.86   16.70
  -1  -8  -2  437.16   17.90
   1  -8   2  471.55   17.00
   1   8   3  554.04   22.50
  -1   8  -3  608.64   23.80
  -1  -8  -3  595.24   23.60
   1  -8   3  601.14   24.10
   1  -8   3  592.84   22.30
  -1  -8  -3  575.74   22.40
   1  -8   3  574.04   22.20
  -1   8  -4  121.49    7.30
   1   8   4  119.39    5.90
  -1   8  -4  122.69    7.20
   1  -8   4  128.89    5.30
  -1  -8  -4  129.19    5.70
   1  -8   4  121.49    6.20
   1  -8   4  128.59    5.50
   1   8   5    0.70    2.00
  -1   8  -5    4.90    2.80
  -1   8  -5    0.80    2.30
   1  -8   5    3.30    1.40
  -1  -8  -5    0.70    1.40
   1  -8   5    3.50    1.90
   1  -8   5    3.40    1.00
   1   8   6    3.70    2.60
  -1   8  -6    7.20    2.50
  -1   8  -6    9.10    1.70
  -1   8  -6    4.50    3.00
   1  -8   6    4.90    1.90
   1  -8   6    7.70    1.70
  -1  -8  -6    5.80    1.40
   1  -8   6    5.20    0.90
  -1   8  -7   17.50    2.80
   1   8   7   18.00    3.30
  -1   8  -7   16.00    1.90
  -1   8  -7   16.90    4.10
   1  -8   7   14.30    2.40
  -1  -8  -7   21.20    2.30
   1  -8   7   18.70    1.70
  -1   8  -8    1.80    1.20
  -1   8  -8    3.90    2.60
   1   8   8    2.90    3.20
  -1  -8  -8    3.80    1.40
   1  -8   8    2.60    2.00
   1  -8   8    2.90    0.90
  -1   8  -9   33.20    2.50
  -1   8  -9   48.60    6.00
   1   8   9   35.40    4.80
   1  -8   9   34.20    3.50
   1  -8   9   35.10    2.10
   1   8  10    1.40    2.50
  -1   8 -10    1.10    0.90
   1  -8  10    4.20    2.20
   1   9 -10   21.40    1.80
  -1  -9  10   23.10    2.80
   1   9  -9    0.70    1.00
  -1  -9   9    0.50    1.70
  -1  -9   9    3.10    0.80
   1   9  -8  614.44   24.50
   1   9  -8  619.64   23.70
  -1  -9   8  601.74   23.40
  -1  -9   8  643.84   24.20
   1   9  -7  109.39    8.70
   1   9  -7  133.49    5.90
   1   9  -7  139.69    7.20
  -1  -9   7  137.59    5.50
  -1  -9   7  130.79    6.50
  -1  -9   7  137.59    5.70
   1   9  -6   55.39    5.00
   1   9  -6   57.89    6.40
  -1  -9   6   61.29    4.20
  -1  -9   6   64.49    3.20
  -1  -9   6   61.59    3.00
   1   9  -5  108.99    6.50
   1   9  -5  102.19    7.40
  -1  -9   5  109.19    4.80
  -1  -9   5  106.49    4.70
  -1  -9   5  115.39    5.80
   1   9  -4  470.15   20.30
   1   9  -4  476.25   19.80
  -1  -9   4  474.65   18.30
  -1  -9   4  482.35   18.30
  -1  -9   4  487.85   19.10
   1   9  -3  731.63   28.90
   1   9  -3  737.93   28.50
  -1  -9   3  694.03   27.70
   1  -9  -3  684.83   27.10
  -1  -9   3  729.23   27.10
   1   9  -2  128.39    7.40
  -1   9   2  140.59    6.90
   1   9  -2  115.19    7.20
  -1  -9   2  117.99    5.30
   1  -9  -2  121.49    5.30
  -1  -9   2  123.39    5.20
  -1  -9   2  106.09    8.50
   1   9  -1  213.68   10.20
  -1   9   1  230.88   10.00
   1   9  -1  213.48   10.60
  -1  -9   1  205.18    8.60
  -1  -9   1  209.98    8.50
   1  -9  -1  209.98    8.60
   1   9   0    6.00    2.60
  -1   9   0    3.40    2.60
  -1  -9   0    7.80    1.40
  -1  -9   0    6.30    1.20
   1  -9   0    6.00    1.20
   1  -9   0    8.00    1.30
  -1   9  -1   69.49    5.30
   1   9   1   67.09    5.10
   1  -9   1   50.79    5.60
   1  -9   1   70.19    3.40
  -1  -9  -1   73.39    5.30
   1  -9   1   66.19    3.50
  -1  -9  -1   71.59    3.60
  -1   9  -2  492.25   19.90
  -1   9  -2  490.95   19.90
   1   9   2  475.95   19.10
  -1  -9  -2  475.85   19.50
   1  -9   2  461.55   19.10
  -1  -9  -2  456.65   18.30
   1  -9   2  476.65   18.30
   1  -9   2  485.45   18.20
  -1   9  -3   61.69    5.30
  -1   9  -3   57.49    5.30
   1   9   3   59.39    4.70
   1  -9   3   57.59    3.20
   1  -9   3   61.39    4.40
  -1  -9  -3   58.89    5.70
   1  -9   3   60.09    3.00
  -1   9  -4   29.70    4.60
   1   9   4   29.10    4.20
  -1   9  -4   26.60    4.20
   1  -9   4   26.10    3.40
  -1  -9  -4   27.60    2.90
  -1   9  -5  643.54   25.30
   1   9   5  581.44   24.40
  -1   9  -5  636.94   25.90
   1  -9   5  637.74   23.80
   1  -9   5  635.54   23.90
   1  -9   5  628.24   24.70
  -1  -9  -5  639.04   24.00
  -1   9  -6    5.30    3.40
   1   9   6    0.00    2.50
  -1   9  -6    0.40    1.30
  -1   9  -6    2.10    3.80
  -1  -9  -6    0.90    1.40
   1  -9   6    2.10    0.80
   1  -9   6    2.50    1.30
  -1   9  -7   13.20    4.10
  -1   9  -7   12.30    2.50
  -1   9  -7   12.80    2.00
   1   9   7    4.10    3.50
   1  -9   7   10.60    1.40
   1  -9   7   13.50    2.20
  -1  -9  -7   12.20    1.70
  -1   9  -8   35.50    2.50
  -1   9  -8   35.60    4.20
   1  -9   8   33.60    2.00
   1  -9   8   41.60    3.50
  -1   9  -9   15.90    1.80
   1  -9   9   14.60    1.40
   1  -9   9   14.20    2.40
   1  10  -9    2.00    0.90
  -1 -10   9   -0.80    1.80
  -1 -10   9    1.50    0.70
   1  10  -8    6.30    1.10
   1  10  -8    8.00    2.60
  -1 -10   8    5.60    0.70
  -1 -10   8    8.50    2.00
   1  10  -7   24.10    3.60
   1  10  -7   21.70    3.20
  -1 -10   7   22.60    1.80
  -1 -10   7   23.20    1.90
  -1 -10   7   20.10    3.00
   1  10  -6    1.30    2.20
   1  10  -6   -0.30    3.70
  -1 -10   6    0.90    2.00
  -1 -10   6   -0.10    1.00
  -1 -10   6    1.20    0.70
   1  10  -5   10.90    3.40
   1  10  -5    7.00    2.50
  -1 -10   5   10.50    1.20
  -1 -10   5    9.90    1.30
  -1 -10   5    7.20    2.10
   1  10  -4 1065.59   41.40
   1  10  -4 1070.69   42.00
  -1 -10   4 1049.30   40.80
  -1 -10   4 1062.69   40.00
  -1 -10   4 1082.99   40.00
   1  10  -3  203.58   10.00
   1  10  -3  220.98   10.70
  -1 -10   3  199.38    9.60
   1 -10  -3  201.98    8.40
  -1 -10   3  211.68    8.30
  -1 -10   3  210.18    8.40
  -1  10   2   12.70    3.60
   1  10  -2   12.40    3.30
   1  10  -2   11.90    3.10
  -1 -10   2   10.00    1.30
   1 -10  -2   11.60    1.40
  -1 -10   2    9.80    1.10
  -1  10   1   37.70    5.10
   1  10  -1   47.20    5.30
   1  10  -1   41.20    5.60
  -1 -10   1   37.10    2.50
  -1 -10   1   41.20    2.50
   1 -10  -1   41.10    2.50
  -1  10   0  145.99    7.90
   1  10   0  144.79    8.10
   1 -10   0  135.79    6.60
   1 -10   0  136.09    5.90
  -1 -10   0  129.79    5.90
   1  10   1  391.36   16.60
  -1  10  -1  392.76   16.90
  -1  10  -1  375.36   16.60
  -1 -10  -1  387.46   15.10
   1 -10   1  393.26   15.10
   1 -10   1  397.16   15.00
  -1  10  -2   47.10    5.40
   1  10   2   47.20    5.60
  -1  10  -2   41.30    5.10
   1 -10   2   38.40    5.00
   1 -10   2   45.00    2.50
   1 -10   2   48.20    2.70
  -1 -10  -2   45.00    2.80
  -1  10  -3    2.00    2.90
  -1  10  -3   -1.30    2.60
   1 -10   3   -1.20    2.30
   1 -10   3    2.20    1.00
   1 -10   3    2.20    0.80
  -1  10  -4  419.36   18.20
   1 -10   4  427.86   16.20
   1 -10   4  425.76   16.30
  -1  10  -5    0.50    1.30
  -1  10  -5    1.50    3.10
  -1  10  -5    0.20    2.20
   1 -10   5    0.10    0.70
   1 -10   5    1.20    2.20
   1 -10   5    1.10    1.00
  -1  10  -6    1.30    1.20
  -1  10  -6    1.40    3.60
  -1  10  -6    2.60    2.10
   1 -10   6    2.90    2.10
   1 -10   6    3.30    0.80
   1 -10   6    4.40    1.90
  -1  10  -7    2.30    2.10
  -1  10  -7    2.60    1.10
   1 -10   7    1.50    0.70
   1 -10   7   -0.80    2.00
  -1  10  -8   32.50    4.00
  -1  10  -8   30.30    2.10
   1 -10   8   36.60    3.50
   1 -10   8   30.70    1.70
   1  11  -8    1.80    0.80
  -1 -11   8   -1.60    2.20
  -1 -11   8    0.40    0.80
   1  11  -7   77.29    3.70
   1  11  -7   87.19    5.00
  -1 -11   7   83.69    4.80
  -1 -11   7   80.29    3.40
  -1 -11   7   79.69    3.50
   1  11  -6    2.70    2.10
   1  11  -6    1.80    1.10
  -1 -11   6    0.50    2.30
  -1 -11   6    2.00    0.80
  -1 -11   6   -0.10    0.60
   1  11  -5   98.99    5.90
  -1 -11   5   97.89    4.20
  -1 -11   5  104.69    5.90
  -1 -11   5  104.69    5.00
   1  11  -4  471.65   19.20
   1  11  -4  450.85   19.90
  -1 -11   4  467.45   17.80
  -1 -11   4  459.55   18.90
  -1 -11   4  493.35   17.90
   1  11  -3   96.39    6.20
   1  11  -3  103.19    7.20
   1 -11  -3   88.49    4.40
  -1 -11   3  101.59    4.20
  -1 -11   3  106.69    4.40
   1  11  -2  241.68   10.90
   1  11  -2  220.98   11.30
  -1 -11   2  235.08    9.20
   1 -11  -2  231.78    9.20
  -1 -11   2  231.08    9.10
   1  11  -1  143.49    8.10
   1  11  -1  126.59    8.40
  -1  11   1  138.99    8.10
   1 -11  -1  147.19    5.90
  -1 -11   1  143.89    5.90
  -1 -11   1  144.59    5.80
   1  11   0   18.00    3.70
   1  11   0   25.10    4.00
  -1  11   0   20.30    3.60
  -1 -11   0   21.60    1.90
   1 -11   0   23.10    1.90
   1 -11   0   21.70    1.80
  -1 -11   0   24.20    1.90
   1  11   1  286.57   12.90
  -1  11  -1  285.97   12.70
  -1  11  -1  270.17   12.60
   1 -11   1  276.97   10.90
   1 -11   1  282.57   10.80
  -1 -11  -1  271.77   10.90
   1  11   2    8.80    3.80
  -1  11  -2    9.40    3.10
  -1  11  -2   16.90    3.10
  -1 -11  -2   11.20    1.30
   1 -11   2   13.40    1.50
   1 -11   2   11.10    1.40
  -1  11  -3   27.30    3.90
  -1  11  -3   36.00    4.40
   1 -11   3   32.90    2.10
   1 -11   3   33.40    1.90
   1 -11   3   43.00    5.00
  -1  11  -4    9.40    3.40
  -1  11  -4    6.70    2.40
   1 -11   4    3.60    1.00
   1 -11   4    5.20    0.80
   1 -11   4    3.60    2.70
  -1  11  -5  307.27   13.00
  -1  11  -5  307.27   12.10
   1 -11   5  306.67   11.80
   1 -11   5  315.07   13.00
   1 -11   5  297.17   11.80
  -1  11  -6   22.70    1.90
  -1  11  -6   20.30    3.30
   1 -11   6   18.80    1.60
   1 -11   6   16.30    1.30
   1 -11   6   15.70    3.50
  -1  11  -7   30.80    3.60
  -1  11  -7   39.20    2.20
   1 -11   7   39.30    3.80
   1 -11   7   35.30    1.80
   1  12  -6   46.40    2.40
   1  12  -6   40.90    3.60
  -1 -12   6   42.80    2.60
  -1 -12   6   46.00    2.00
   1  12  -5   16.90    1.70
   1  12  -5   14.70    2.40
  -1 -12   5   15.50    1.10
  -1 -12   5   16.20    1.30
   1  12  -4  218.38    9.70
  -1 -12   4  217.68    8.50
  -1 -12   4  215.98    8.40
   1  12  -3  188.48    8.60
  -1 -12   3  183.28    7.20
   1 -12  -3  175.38    7.30
  -1 -12   3  183.58    7.20
   1  12  -2    2.10    2.50
  -1 -12   2    0.50    0.70
  -1 -12   2    1.50    0.80
   1 -12  -2    1.20    0.90
   1  12  -1  123.79    7.10
   1 -12  -1  125.39    5.20
  -1 -12   1  123.19    5.00
   1  12   0    7.50    3.20
   1 -12   0   10.00    1.10
  -1 -12   0    9.60    1.10
  -1  12  -1  107.49    6.70
   1 -12   1  109.49    4.50
  -1 -12  -1  106.59    4.60
   1 -12   1  111.99    5.30
  -1  12  -2  188.58    8.80
   1 -12   2  185.78    7.20
   1 -12   2  183.48    7.20
  -1 -12  -2  170.08    7.20
  -1  12  -3  211.98    8.60
  -1  12  -3  213.78    9.60
   1 -12   3  213.08    8.30
   1 -12   3  211.38    8.30
  -1  12  -4  146.99    6.10
   1 -12   4  144.29    5.80
   1 -12   4  141.69    5.90
   1 -12   4  159.28   10.10
  -1  12  -5    6.50    1.90
   1 -12   5    8.30    0.90
   1 -12   5    9.70    1.20
   1 -12   5   15.20    3.10
   1  13  -3   60.09    4.20
   1  13  -3   59.49    2.80
  -1 -13   3   49.40    2.80
  -1 -13   3   56.29    2.50
   1  13  -2   44.80    4.10
  -1 -13   2   45.80    2.20
  -1 -13   2   43.50    2.20
   1  13  -1   11.10    2.60
   1 -13  -1    8.80    1.00
  -1 -13   1   10.60    1.10
   1  13   0  215.88   10.00
   1 -13   0  221.28    8.50
  -1 -13   0  219.68    8.50
  -1  13  -1    3.40    2.60
   1 -13   1    2.00    0.70
  -1 -13  -1    1.50    0.80
  -1  13  -2   52.09    4.40
   1 -13   2   60.19    2.60
   1 -13   2   58.89    2.70
  -1  13  -3    4.30    2.10
   1 -13   3    1.20    0.60
   1 -13   3    1.80    0.80
   2   0 -14  268.87   10.30
   2   0 -13   -0.10    0.90
  -2   0  13    2.00    1.80
   2   0 -13    1.60    1.30
  -2   0  12  816.22   29.80
   2   0 -12  702.13   29.40
  -2   0  12  790.72   30.90
   2   0 -12  809.12   29.60
   2   0 -11    3.40    1.80
  -2   0  11   -1.70    1.80
   2   0 -11   -0.20    1.40
  -2   0  11    0.80    3.70
   2   0 -10   43.20    3.40
  -2   0  10   40.20    3.70
   2   0 -10   33.30    3.90
  -2   0  10   41.30    5.20
   2   0  -9   -2.40    2.00
  -2   0   9    1.70    2.00
  -2   0   9    0.70    2.20
  -2   0   8  273.07   11.90
  -2   0   8  277.27   11.60
   2   0  -7   -0.40    1.70
  -2   0   7    0.70    1.50
   2   0  -7   -0.10    2.70
  -2   0   6  813.82   31.90
   2   0  -6  847.22   31.80
   2   0  -6  843.62   32.40
  -2   0   5   -1.40    1.10
   2   0  -4  533.35   20.20
  -2   0   4  507.05   19.90
   2   0  -3   -7.00    0.70
   2   0  -2    3.00    0.80
   2   0  -2    2.50    0.50
   2   0  -2    4.40    0.90
   2   0  -1   -1.60    0.30
  -2   0   1   -2.30    0.30
  -2   0   1   -1.80    0.30
  -2   0   0  720.53   27.20
   2   0   0  732.13   27.30
  -2   0  -1    0.00    0.30
   2   0   1   -0.10    0.60
  -2   0  -2 3513.25  130.39
   2   0   3   -0.10    0.90
  -2   0  -3    1.30    0.70
   2   0   4  408.06   15.80
  -2   0  -4  408.76   15.90
   2   0   5   -2.20    1.20
  -2   0  -5   -0.60    1.20
  -2   0  -6  192.18   10.00
  -2   0  -6  227.38    9.40
   2   0   6  214.88    9.00
   2   0   7   -0.20    1.70
  -2   0  -7    1.90    2.50
   2   0   7    0.30    1.70
  -2   0  -7    2.20    2.40
  -2   0  -8  807.42   31.70
  -2   0  -8  837.12   31.70
   2   0   8  849.02   32.20
   2   0   9    0.50    1.90
  -2   0  -9   -0.40    1.50
   2   0   9    3.60    2.80
  -2   0  -9    1.40    1.60
   2   0  10  310.97   13.60
  -2   0 -10  300.47   12.20
  -2   0 -10  300.07   12.10
   2   0  10  309.37   12.50
  -2   0 -11    1.30    1.10
  -2   0 -11    0.80    1.10
   2   0  11   -2.70    2.00
  -2   0 -12  206.98    8.50
  -2   0 -12  217.08    8.40
  -2   0 -13    1.60    1.00
   2   1 -13   68.79    3.20
   2   1 -13   55.29    3.30
  -2   1  13   64.59    3.70
   2  -1 -13   66.49    3.20
  -2  -1  13   80.19    4.40
   2   1 -12   36.80    2.50
   2   1 -12   35.20    3.00
  -2   1  12   35.50    3.20
  -2   1  12   40.60    5.90
  -2  -1  12   35.50    3.30
   2  -1 -12   32.90    2.40
   2  -1 -12   29.70    2.80
  -2   1  11  215.78    9.30
   2   1 -11  221.58    9.00
   2   1 -11  201.68    9.00
  -2  -1  11  227.48    9.20
   2  -1 -11  218.68    8.90
   2  -1 -11  189.88    8.80
   2   1 -10   30.90    3.30
   2   1 -10   25.20    3.70
  -2   1  10   24.10    2.70
  -2   1  10   28.50    4.50
  -2  -1  10   25.60    3.90
   2  -1 -10   26.30    2.90
   2  -1 -10   24.00    2.70
  -2  -1  10   24.70    3.40
  -2   1   9  459.75   18.10
   2   1  -9  423.26   17.80
  -2   1   9  457.35   18.50
   2   1  -9  458.65   18.00
  -2  -1   9  462.95   18.60
  -2  -1   9  445.76   18.70
   2  -1  -9  453.25   17.80
  -2  -1   9  448.76   18.00
  -2   1   8  766.12   29.90
  -2   1   8  788.02   30.30
  -2  -1   8  781.22   29.90
  -2  -1   8  787.72   30.40
  -2  -1   8  763.72   30.30
  -2   1   7  541.95   21.10
   2   1  -7  551.44   22.10
  -2  -1   7  521.55   21.20
   2  -1  -7  570.74   21.10
  -2  -1   7  501.95   21.00
   2   1  -6  303.17   12.50
  -2   1   6  275.27   11.70
   2  -1  -6  298.47   11.50
   2  -1  -6  291.87   12.10
  -2  -1   6  265.97   11.70
  -2   1   5  275.67   11.30
   2   1  -5  292.17   11.90
   2  -1  -5  295.27   11.10
  -2  -1   5  276.87   11.50
   2  -1  -5  273.97   11.50
  -2   1   4  608.64   23.50
   2   1  -4  639.74   24.30
  -2  -1   4  581.34   23.70
   2  -1  -4  648.34   23.40
   2  -1  -4  629.14   23.80
   2   1  -3  713.33   27.70
   2  -1  -3  739.93   27.20
   2  -1  -3  728.33   27.50
   2  -1  -3  729.53   27.60
  -2   1   2 2437.86   98.89
   2   1  -2 2615.64   99.29
   2   1  -2 2709.83   98.99
   2   1  -2 2948.91   99.59
   2  -1  -2 2519.55   99.19
  -2  -1   2 2644.74   99.09
   2  -1  -2 2738.13   98.99
   2  -1  -2 2748.12   98.89
   2  -1  -2 2650.93   99.09
   2   1  -1 5304.37  196.68
   2   1   0 3027.10  102.89
   2   1   0 2682.83  102.79
  -2  -1   0 2831.82  102.79
   2  -1   0 2749.12  102.79
   2  -1   0 2563.14  102.79
  -2   1  -1 1380.66   47.80
   2   1   1 1131.99   47.80
  -2  -1  -1 1321.17   47.80
  -2  -1  -1 1285.07   47.90
   2   1   2  706.33   28.60
  -2   1  -2  780.52   28.50
  -2  -1  -2  775.72   28.40
  -2   1  -3   66.89    3.80
   2   1   3   61.29    3.10
  -2   1  -3   69.29    3.20
  -2  -1  -3   69.89    3.00
   2  -1   3   59.09    3.30
  -2  -1  -3   60.59    3.20
   2   1   4 1313.67   48.70
  -2   1  -4 1301.97   49.00
  -2   1  -4 1328.07   49.00
   2  -1   4 1346.87   48.80
  -2  -1  -4 1273.17   49.10
  -2  -1  -4 1236.18   49.10
   2   1   5    3.50    1.20
  -2   1  -5    2.20    1.30
  -2  -1  -5    4.20    1.20
  -2  -1  -5    1.80    1.30
   2  -1   5    3.70    1.50
  -2   1  -6  448.26   17.40
   2   1   6  414.66   16.90
   2  -1   6  430.86   17.00
  -2  -1  -6  436.56   17.10
  -2  -1  -6  418.86   17.50
   2   1   7    0.60    1.60
   2   1   7    2.50    1.90
  -2   1  -7    0.10    2.50
   2  -1   7    3.10    1.90
   2  -1   7    0.90    2.00
  -2  -1  -7    5.70    2.40
   2   1   8  107.29    5.70
  -2   1  -8  119.99    5.70
   2   1   8  115.69    6.00
  -2   1  -8  105.79    5.80
  -2  -1  -8  115.59    5.60
   2  -1   8  104.49    6.90
  -2  -1  -8  108.99    5.40
   2   1   9  323.57   13.00
  -2   1  -9  308.67   12.90
   2   1   9  330.57   13.70
  -2   1  -9  321.47   12.90
  -2  -1  -9  319.57   12.80
   2  -1   9  320.07   14.00
   2  -1   9  317.77   13.00
  -2  -1  -9  321.67   12.80
   2   1  10   40.70    3.60
  -2   1 -10   44.00    3.00
  -2   1 -10   40.00    3.10
   2   1  10   45.20    5.40
  -2  -1 -10   40.80    2.90
   2  -1  10   44.30    4.00
  -2  -1 -10   38.60    2.80
   2   1  11    9.90    4.10
  -2   1 -11    3.80    1.20
  -2   1 -11    5.00    1.30
   2   1  11    3.70    2.00
  -2  -1 -11    5.40    1.30
   2  -1  11   10.40    2.70
  -2  -1 -11    4.30    1.10
   2   1  12    9.90    2.30
  -2   1 -12    5.70    1.10
  -2   1 -12    4.90    1.00
  -2  -1 -12    7.00    1.10
  -2  -1 -12    7.10    1.00
  -2   1 -13    1.60    0.80
  -2   1 -13    3.40    0.90
  -2  -1 -13    1.20    0.70
  -2  -1 -13    2.80    0.80
   2   2 -13   90.69    4.00
  -2   2  13   88.89    4.40
   2   2 -13   83.69    4.10
   2  -2 -13   95.59    4.00
   2   2 -12    5.60    1.60
  -2   2  12    3.80    1.80
  -2   2  12    3.20    3.30
   2   2 -12    3.90    1.30
   2  -2 -12    2.30    1.10
  -2  -2  12    6.60    2.40
  -2   2  11  217.08   10.30
  -2   2  11  218.18    9.40
   2   2 -11  210.88    9.00
   2   2 -11  209.28    9.10
   2  -2 -11  216.78    8.90
  -2  -2  11  213.28    9.30
  -2   2  10  711.93   27.80
  -2   2  10  713.93   27.30
   2   2 -10  680.53   27.00
   2   2 -10  699.23   27.10
   2  -2 -10  698.93   26.90
  -2  -2  10  685.63   27.40
  -2  -2  10  728.23   28.20
  -2  -2  10  691.63   27.00
   2   2  -9    8.80    2.10
  -2   2   9   11.00    2.30
   2   2  -9   11.50    2.30
  -2   2   9   11.60    2.40
  -2  -2   9   12.60    2.20
   2  -2  -9    8.80    2.00
  -2  -2   9   10.50    4.10
  -2  -2   9   10.90    3.30
  -2   2   8  318.97   13.30
   2   2  -8  322.57   15.10
  -2   2   8  318.27   13.20
  -2  -2   8  321.57   13.00
  -2  -2   8  316.87   13.60
  -2  -2   8  303.67   13.50
  -2   2   7  265.77   11.30
  -2  -2   7  289.77   13.30
   2  -2  -7  281.37   11.40
  -2  -2   7  258.17   11.30
  -2  -2   7  262.97   11.60
   2   2  -6  339.37   14.90
  -2   2   6  344.47   13.90
   2  -2  -6  370.16   13.90
  -2  -2   6  344.77   14.20
   2   2  -5    0.40    1.50
   2   2  -5   -0.60    2.10
  -2   2   5   -0.90    1.00
   2  -2  -5   -1.10    1.30
  -2  -2   5   -0.30    1.40
   2   2  -4 9999.00  363.56
  -2   2   4 9992.90  362.76
   2   2  -4 9811.42  363.36
  -2  -2   4 9342.37  363.06
   2  -2  -4 9823.22  362.86
   2   2  -3 1450.55   53.79
   2   2  -3 1460.35   53.99
  -2  -2   3 1342.97   53.39
   2  -2  -3 1477.25   53.29
   2  -2  -3 1403.96   53.59
  -2   2   2 1396.36   54.09
   2   2  -2 1490.95   54.09
   2   2  -2 1422.76   54.39
   2  -2  -2 1488.95   54.09
   2  -2  -2 1443.06   54.29
   2   2  -1   14.60    1.30
  -2   2   1   12.30    1.20
   2   2  -1   16.10    1.30
  -2   2   1   12.00    0.80
  -2  -2   1   15.60    1.30
  -2  -2   1   13.40    1.00
   2  -2  -1   12.20    1.20
   2  -2  -1   13.40    1.00
   2  -2  -1   15.00    1.10
   2   2   0  288.87   11.30
  -2   2   0  272.67   11.20
  -2  -2   0  297.87   11.40
   2  -2   0  332.27   11.60
  -2  -2   0  291.37   11.40
   2  -2   0  290.67   11.40
  -2   2  -1  148.49    5.80
  -2  -2  -1  138.19    5.80
  -2  -2  -1  140.79    5.60
   2   2   2 8527.45  340.17
  -2   2  -2 9830.62  340.37
  -2   2  -3   67.59    3.30
   2   2   3   52.19    3.90
  -2   2  -3   61.49    3.50
   2   2   3   59.49    2.90
  -2  -2  -3   58.89    3.10
  -2  -2  -3   66.49    2.90
  -2   2  -4 2582.24   99.19
   2   2   4 2636.64   98.79
  -2   2  -4 2769.32   99.29
  -2  -2  -4 2695.63   98.79
   2  -2   4 2682.43   98.89
  -2  -2  -4 2556.64   99.19
  -2   2  -5  283.27   12.00
   2   2   5  283.37   11.40
  -2   2  -5  282.57   12.00
  -2  -2  -5  305.47   11.60
   2  -2   5  278.97   11.70
  -2  -2  -5  288.47   12.00
   2   2   6    2.20    1.30
  -2   2  -6   -0.40    1.90
   2   2   6   -0.60    2.90
   2  -2   6    1.30    2.10
  -2  -2  -6    0.40    1.80
   2   2   7   19.10    2.90
   2   2   7   14.90    2.20
  -2   2  -7   19.10    3.10
   2  -2   7   18.10    4.80
  -2  -2  -7   13.00    2.90
   2  -2   7   15.40    2.50
   2  -2   7   19.90    2.90
  -2   2  -8    4.30    2.20
   2   2   8    5.00    1.90
   2   2   8    1.40    1.90
  -2   2  -8    4.80    1.80
  -2  -2  -8    2.20    1.60
  -2  -2  -8    2.60    1.60
  -2   2  -9  110.09    5.70
   2   2   9  116.79    6.40
  -2   2  -9  112.29    5.60
   2   2   9  118.49    5.80
  -2  -2  -9  112.79    5.30
   2  -2   9  120.79    6.10
  -2  -2  -9  117.19    5.40
   2   2  10   10.10    3.50
  -2   2 -10   14.90    2.40
   2   2  10   13.10    2.20
  -2   2 -10   12.40    1.80
  -2  -2 -10   15.30    2.20
  -2  -2 -10   16.60    2.10
   2  -2  10   16.90    3.00
  -2   2 -11  117.69    5.30
   2   2  11  115.69    5.60
   2   2  11  113.69    7.60
  -2   2 -11  118.19    5.20
  -2  -2 -11  117.59    5.00
  -2  -2 -11  122.39    5.30
   2   2  12   -0.70    1.90
  -2   2 -12    1.90    1.00
  -2   2 -12    0.00    0.90
  -2  -2 -12    0.60    0.90
  -2  -2 -12    1.10    0.90
   2   3 -13   84.99    3.70
   2   3 -13   81.59    3.80
  -2   3  13   78.19    4.90
   2  -3 -13   83.09    3.70
  -2   3  12  132.99    7.50
   2   3 -12  132.69    5.80
  -2   3  12  132.79    6.10
   2  -3 -12  127.99    5.60
  -2   3  11    0.60    2.30
   2   3 -11    1.40    1.40
  -2   3  11   -0.90    2.60
   2   3 -11    3.50    1.60
   2  -3 -11    1.70    1.20
  -2  -3  11    0.20    2.60
   2   3 -10  102.49    5.70
  -2   3  10   96.99    6.10
  -2   3  10   94.19    5.50
   2  -3 -10   95.09    5.60
  -2  -3  10   82.39    5.60
  -2  -3  10   91.49    5.80
  -2   3   9    6.70    2.50
   2   3  -9   10.10    2.10
   2   3  -9    6.60    2.00
  -2   3   9    7.70    2.30
  -2  -3   9    7.80    2.50
  -2  -3   9   10.20    2.50
   2  -3  -9    9.10    1.80
  -2   3   8   39.90    4.80
   2   3  -8   45.10    7.50
  -2   3   8   44.40    4.30
  -2  -3   8   51.99    6.60
  -2  -3   8   44.50    4.30
  -2  -3   8   45.60    4.30
  -2   3   7  230.28    9.90
   2   3  -7  239.18   11.60
   2  -3  -7  258.77   10.40
  -2  -3   7  229.18   10.30
  -2  -3   7  217.38   10.60
   2   3  -6   49.10    4.70
  -2   3   6   43.00    3.00
   2   3  -6   45.70    4.60
   2  -3  -6   47.90    3.30
  -2  -3   6   38.30    4.50
   2   3  -5   24.50    3.40
   2   3  -5   24.00    3.40
  -2   3   5   23.50    2.20
   2  -3  -5   29.90    2.20
  -2  -3   5   23.70    3.60
   2   3  -4  524.25   21.20
  -2   3   4  513.95   20.10
   2   3  -4  533.65   21.10
   2  -3  -4  569.64   20.60
  -2  -3   4  536.35   21.30
   2   3  -3 1236.98   46.60
   2   3  -3 1212.28   46.40
   2  -3  -3 1278.07   46.10
   2  -3  -3 1187.48   46.40
   2   3  -2  905.41   35.30
   2   3  -2  955.60   35.20
   2  -3  -2  941.71   35.00
   2  -3  -2  920.21   35.20
   2   3  -1  345.77   13.50
   2   3  -1  352.46   13.50
   2   3  -1  350.66   13.60
  -2  -3   1  329.67   13.40
   2  -3  -1  367.66   13.50
   2  -3  -1  343.87   13.50
   2   3   0 4282.97  165.98
   2  -3   0 4728.93  166.18
  -2  -3   0 4417.66  166.18
  -2   3  -1 3832.62  134.19
   2   3   1 3430.76  133.69
  -2   3  -1 3672.23  133.99
   2   3   1 3720.43  133.99
  -2  -3  -1 3456.05  134.09
   2  -3   1 3462.55  133.99
  -2  -3  -1 3683.93  133.89
   2   3   2    4.20    1.10
   2   3   2    4.10    0.70
  -2   3  -2    5.00    1.20
  -2   3  -2    3.80    0.90
  -2  -3  -2    3.10    0.80
  -2  -3  -2    3.90    0.70
  -2   3  -3   37.40    2.80
  -2   3  -3   36.70    2.60
   2   3   3   36.70    2.20
  -2  -3  -3   38.40    2.50
  -2  -3  -3   34.90    2.10
   2   3   4  279.37   11.10
  -2   3  -4  287.07   11.70
  -2  -3  -4  290.47   11.60
  -2  -3  -4  273.67   11.10
  -2   3  -5   18.00    3.10
   2   3   5   17.40    2.10
  -2   3  -5   15.60    2.80
  -2  -3  -5   19.10    2.60
  -2   3  -6    1.40    2.00
   2   3   6    6.60    2.40
  -2   3  -6    7.20    2.80
   2   3   6    3.40    1.40
  -2   3  -6    6.80    2.40
   2  -3   6    2.50    2.30
  -2  -3  -6    4.30    2.00
  -2   3  -7  524.15   22.10
   2   3   7  540.55   20.80
  -2   3  -7  551.54   22.10
   2   3   7  516.55   21.50
  -2  -3  -7  529.85   22.10
   2  -3   7  541.15   21.00
   2   3   8  149.88    7.10
  -2   3  -8  142.19    7.20
   2   3   8  138.99    6.80
  -2  -3  -8  153.78    6.50
  -2  -3  -8  144.19    6.40
   2  -3   8  146.19    7.60
  -2   3  -9   32.10    4.20
   2   3   9   31.00    3.30
   2   3   9   42.90    4.10
   2   3  10  651.63   24.80
  -2   3 -10  590.64   23.40
   2   3  10  619.04   24.20
  -2   3 -10  606.64   23.50
  -2  -3 -10  608.64   23.50
  -2  -3 -10  598.04   23.20
   2   3  11   56.39    5.90
  -2   3 -11   63.59    3.80
   2   3  11   67.69    3.90
  -2   3 -11   66.19    3.50
  -2  -3 -11   61.39    3.10
  -2  -3 -11   64.09    3.30
  -2   3 -12   55.79    2.80
  -2   3 -12   58.09    2.90
  -2  -3 -12   56.89    2.80
  -2  -3 -12   58.89    2.70
   2   4 -13   34.80    2.00
   2   4 -13   33.50    2.30
  -2   4  13   35.90    2.60
   2  -4 -13   34.40    2.00
  -2   4  12   24.40    2.90
   2   4 -12   26.90    2.20
   2   4 -12   25.00    2.40
   2  -4 -12   27.90    2.20
  -2  -4  12   24.90    4.00
  -2   4  11   39.10    4.80
  -2   4  11   47.70    3.70
   2   4 -11   45.70    3.20
   2   4 -11   42.20    3.10
   2  -4 -11   41.30    2.80
  -2  -4  11   48.60    4.20
  -2   4  10  167.78    8.10
   2   4 -10  166.88    7.70
   2   4 -10  175.98    7.70
  -2   4  10  176.88    8.50
   2  -4 -10  177.48    7.40
  -2  -4  10  169.98    8.20
   2   4  -9  155.98    7.60
  -2   4   9  164.58    8.00
  -2   4   9  158.08    8.10
   2   4  -9  166.78    7.30
  -2  -4   9  158.18    7.80
   2  -4  -9  158.78    7.00
   2   4  -8   10.90    2.10
  -2   4   8   13.90    2.30
   2   4  -8    9.20    2.40
   2  -4  -8   11.80    2.10
  -2  -4   8   10.80    2.60
   2   4  -7   20.80    4.20
  -2   4   7   23.90    3.00
   2   4  -7   24.10    3.40
  -2  -4   7   22.40    3.30
   2   4  -6    8.90    2.50
  -2   4   6    8.80    1.60
   2   4  -6    5.50    2.80
   2   4  -6    5.90    2.60
   2  -4  -6    5.70    1.90
  -2  -4   6    6.00    2.20
   2   4  -5 1092.29   44.20
  -2   4   5 1156.48   43.30
   2   4  -5 1166.18   44.70
   2  -4  -5 1201.98   43.80
   2   4  -4  305.57   13.40
   2   4  -4  316.17   13.20
   2  -4  -4  333.67   12.80
   2   4  -3 3510.15  129.39
   2   4  -3 3447.66  129.19
   2  -4  -3 3357.26  129.19
   2  -4  -3 3530.25  128.89
   2   4  -2   49.90    3.30
   2   4  -2   55.09    3.20
   2  -4  -2   55.39    2.90
   2  -4  -2   53.69    3.10
   2   4  -1 1108.99   40.00
   2   4  -1 1010.00   40.00
   2   4  -1 1059.69   40.20
   2  -4  -1 1127.59   40.20
  -2  -4   1  994.10   40.10
   2  -4  -1 1081.69   40.10
   2   4   0  331.67   13.20
  -2   4   0  331.67   13.00
  -2   4   0  362.16   13.30
  -2  -4   0  335.27   13.50
   2  -4   0  361.76   13.50
  -2  -4   0  344.67   13.50
  -2   4  -1    3.30    1.20
  -2   4  -1    3.40    0.80
   2   4   1    2.50    0.90
   2   4   1   -0.50    1.20
   2   4   1    1.90    0.90
  -2  -4  -1    2.20    0.80
   2  -4   1    1.90    0.80
  -2  -4  -1    2.20    1.00
   2   4   2   53.29    2.60
  -2   4  -2   58.99    3.20
  -2   4  -2   56.39    3.40
   2  -4   2   59.99    3.00
  -2  -4  -2   58.79    3.20
  -2  -4  -2   56.29    3.00
  -2   4  -3   78.59    4.10
  -2   4  -3   73.69    4.30
  -2  -4  -3   79.89    4.10
   2  -4   3   76.99    3.90
  -2   4  -4 3150.18  116.09
   2   4   4 3084.79  115.29
  -2   4  -4 3110.09  115.99
  -2  -4  -4 3056.59  115.99
   2   4   5  919.91   34.10
  -2   4  -5  897.41   34.90
  -2   4  -5  893.41   34.90
  -2   4  -5  921.71   34.80
  -2  -4  -5  919.51   34.90
   2  -4   5  851.21   34.30
  -2   4  -6   23.80    4.00
   2   4   6   27.00    2.70
  -2   4  -6   28.30    4.20
  -2   4  -6   22.60    4.00
   2   4   6   29.80    4.10
   2  -4   6   28.30    3.40
  -2  -4  -6   25.50    4.10
   2   4   7   88.09    4.90
  -2   4  -7   89.19    5.00
   2   4   7   91.79    5.20
  -2   4  -7   87.19    6.00
   2  -4   7   93.79    5.40
  -2  -4  -7   89.29    4.60
  -2  -4  -7   99.09    4.70
  -2   4  -8 1158.48   43.30
   2   4   8 1145.99   43.50
  -2   4  -8 1095.99   43.40
   2   4   8 1152.98   43.30
  -2  -4  -8 1173.68   43.20
  -2  -4  -8 1152.28   42.90
   2  -4   8 1126.59   43.60
   2   4   9    2.90    1.90
  -2   4  -9   -0.10    1.40
  -2   4  -9    6.30    2.10
   2   4   9    2.90    2.30
  -2  -4  -9    1.60    1.30
   2  -4   9   -0.60    2.80
   2   4  10  238.28   10.00
  -2   4 -10  237.48    9.80
   2   4  10  247.38   10.60
  -2   4 -10  237.38    9.80
  -2  -4 -10  232.78    9.40
  -2  -4 -10  235.88    9.70
  -2   4 -11    9.10    1.50
   2   4  11   11.50    1.90
  -2   4 -11   10.60    1.70
  -2  -4 -11   11.80    1.60
  -2  -4 -11   12.10    2.10
  -2   4 -12   95.39    4.10
   2   4  12   95.69    4.90
  -2  -4 -12   96.09    4.00
  -2  -4 -12   94.09    4.00
  -2   5  13    2.60    1.50
   2   5 -13    0.70    0.80
   2   5 -13    3.00    1.10
   2  -5 -13    2.20    0.70
   2   5 -12   74.09    3.60
  -2   5  12   76.29    4.20
   2   5 -12   82.79    3.80
   2  -5 -12   73.39    3.50
  -2  -5  12   72.29    4.80
  -2   5  11   -1.00    1.90
   2   5 -11    3.60    1.50
   2   5 -11    0.80    1.40
  -2  -5  11   -0.40    2.00
   2   5 -10  136.19    6.00
  -2   5  10  125.39    7.00
   2   5 -10  126.69    6.20
  -2  -5  10  129.99    6.70
   2  -5 -10  124.79    5.80
   2   5  -9  294.57   13.30
  -2   5   9  304.97   13.00
   2   5  -9  274.97   13.30
  -2   5   9  302.57   12.70
   2  -5  -9  320.17   12.70
  -2  -5   9  299.07   12.60
   2   5  -8  188.48    8.70
  -2   5   8  192.98    8.70
   2   5  -8  171.98    9.50
   2   5  -8  198.68    8.30
  -2  -5   8  192.08    8.70
   2  -5  -8  189.28    8.20
   2   5  -7   21.50    3.70
   2   5  -7   21.40    3.10
  -2  -5   7   21.20    3.20
   2   5  -6   53.29    6.20
  -2   5   6   59.89    3.70
   2   5  -6   64.89    5.00
   2   5  -6   70.39    5.20
   2  -5  -6   64.39    4.90
  -2  -5   6   60.49    4.30
   2   5  -5   -0.40    1.90
   2   5  -5   -1.20    2.40
  -2   5   5   -2.30    1.40
   2   5  -5    0.50    2.30
  -2  -5   5   -1.40    1.90
   2  -5  -5    1.00    1.70
   2   5  -4  173.78    8.40
   2   5  -4  177.98    9.90
   2  -5  -4  190.88    8.10
   2   5  -3  180.68    8.60
   2   5  -3  179.78    8.20
   2  -5  -3  186.68    8.40
   2  -5  -3  192.68    8.10
   2   5  -2  135.79    6.50
   2   5  -2  129.29    6.20
   2  -5  -2  137.19    6.40
   2  -5  -2  137.49    6.20
   2   5  -1  327.47   13.50
  -2  -5   1  325.27   13.40
   2  -5  -1  352.66   13.50
  -2   5   0   10.20    1.00
  -2   5   0    7.60    1.40
   2   5   0   10.00    1.60
   2   5   0    9.40    1.60
  -2  -5   0    8.00    1.60
   2  -5   0    9.50    1.40
   2   5   1   47.90    2.60
  -2   5  -1   50.09    2.70
   2   5   1   52.49    3.10
  -2   5  -1   50.19    3.40
  -2  -5  -1   45.50    3.00
   2  -5   1   55.69    3.10
   2   5   2  905.21   34.20
  -2   5  -2  917.41   34.90
  -2   5  -2  911.61   34.70
   2  -5   2  923.71   34.60
  -2  -5  -2  900.91   34.90
   2   5   3  537.75   21.20
  -2   5  -3  568.34   22.10
  -2   5  -3  556.34   21.90
   2  -5   3  565.54   21.70
  -2  -5  -3  577.24   22.20
  -2   5  -4 4272.97  157.78
  -2   5  -4 4309.97  157.98
  -2   5  -4 4193.68  157.78
   2   5   4 4109.39  156.98
   2  -5   4 4107.79  157.28
   2  -5   4 4329.17  157.48
  -2  -5  -4 4275.87  157.98
  -2   5  -5  863.31   34.60
  -2   5  -5  896.01   34.70
   2   5   5  887.41   33.70
  -2   5  -5  929.71   34.60
   2  -5   5  853.01   34.00
  -2  -5  -5  927.71   34.90
   2  -5   5  879.31   34.30
   2   5   6 1029.10   38.60
  -2   5  -6 1051.69   39.40
   2   5   6  992.70   38.70
  -2   5  -6 1072.99   39.80
  -2  -5  -6  985.60   40.00
   2  -5   6  997.10   39.50
   2  -5   6 1007.30   38.90
  -2   5  -7    9.20    1.80
   2   5   7    8.00    2.50
  -2   5  -7    9.40    2.60
  -2   5  -7    4.20    3.30
   2   5   7    9.10    1.90
   2  -5   7    7.00    2.20
  -2  -5  -7    9.00    1.40
  -2  -5  -7   10.40    1.70
   2   5   8    8.90    2.20
   2   5   8   15.60    2.30
  -2   5  -8    6.50    1.70
  -2   5  -8    8.40    3.20
  -2  -5  -8   10.70    1.70
   2  -5   8   13.00    2.50
  -2  -5  -8   13.90    2.00
   2   5   9  305.97   12.80
  -2   5  -9  304.87   12.30
   2   5   9  299.97   12.50
  -2  -5  -9  292.07   11.90
   2  -5   9  312.37   13.00
  -2  -5  -9  315.27   12.20
   2   5  10   71.39    4.30
   2   5  10   64.89    5.60
  -2   5 -10   70.99    3.70
  -2  -5 -10   65.19    3.40
   2  -5  10   75.89    5.50
  -2  -5 -10   73.69    3.50
   2   5  11    4.30    1.90
  -2   5 -11    1.50    1.00
  -2  -5 -11    1.50    0.80
  -2  -5 -11    1.10    1.00
  -2   5 -12   29.30    1.80
  -2  -5 -12   26.40    1.90
  -2  -5 -12   30.80    1.60
   2   6 -12   70.79    3.40
   2   6 -12   77.79    3.50
  -2   6  12   71.69    3.80
   2  -6 -12   68.29    3.10
  -2  -6  12   68.19    4.40
   2   6 -11   58.39    3.30
  -2   6  11   56.79    4.10
   2   6 -11   55.09    3.30
   2  -6 -11   58.19    2.90
  -2  -6  11   60.59    4.00
  -2   6  10   10.00    2.50
  -2   6  10    8.40    2.70
   2   6 -10    4.70    1.60
   2   6 -10    3.70    1.40
   2  -6 -10    4.00    1.30
  -2  -6  10    6.70    2.00
  -2   6   9  145.79    7.20
   2   6  -9  136.49    6.70
   2   6  -9  138.99    6.40
   2  -6  -9  139.29    6.30
  -2  -6   9  143.69    6.90
   2   6  -8  301.97   12.40
  -2   6   8  304.37   12.70
   2   6  -8  305.87   12.80
   2   6  -8  301.87   13.50
  -2  -6   8  315.17   12.00
  -2  -6   8  308.27   12.80
   2  -6  -8  306.87   12.40
   2   6  -7   11.80    3.50
   2   6  -7   10.70    2.50
  -2   6   7   13.50    2.30
   2   6  -7   13.30    2.90
   2  -6  -7   10.20    2.30
  -2  -6   7    8.50    2.00
  -2  -6   7   11.60    1.40
   2   6  -6  404.66   16.80
   2   6  -6  398.66   17.30
  -2   6   6  400.06   15.70
  -2  -6   6  396.36   16.20
   2  -6  -6  406.16   17.30
   2   6  -5  330.37   14.20
   2   6  -5  337.87   14.60
   2   6  -5  329.07   15.20
   2  -6  -5  356.16   14.30
  -2  -6   5  320.57   13.70
   2   6  -4  455.25   18.60
   2   6  -4  455.55   18.80
   2   6  -4  465.85   19.20
   2  -6  -4  477.05   18.60
  -2  -6   4  435.36   18.10
   2   6  -3  494.25   19.80
   2   6  -3  479.15   20.10
   2  -6  -3  503.95   20.10
   2   6  -2  251.27   10.90
   2   6  -2  250.57   11.20
   2  -6  -2  265.07   11.00
   2  -6  -2  260.17   11.20
   2   6  -1  642.24   24.50
   2   6  -1  617.84   24.70
   2  -6  -1  671.53   24.90
  -2  -6   1  597.24   24.60
   2   6   0  525.05   20.20
   2   6   0  498.35   20.40
  -2   6   0  550.04   20.30
   2  -6   0  538.45   20.60
  -2  -6   0  493.85   20.60
  -2   6  -1   22.80    2.70
  -2   6  -1   21.80    2.10
   2   6   1   18.90    1.90
   2   6   1   24.00    2.80
  -2  -6  -1   19.50    3.20
   2  -6   1   21.90    2.90
  -2   6  -2   11.00    1.80
  -2   6  -2   11.50    1.90
   2   6   2   12.20    1.90
   2  -6   2   10.50    1.90
  -2  -6  -2    8.10    1.70
  -2   6  -3  346.77   14.40
  -2   6  -3  344.67   14.70
  -2   6  -3  340.67   14.10
   2   6   3  342.87   13.50
   2  -6   3  347.17   13.90
  -2  -6  -3  339.67   14.50
   2  -6   3  352.96   14.20
  -2   6  -4 1829.02   68.29
  -2   6  -4 1774.72   68.09
   2   6   4 1780.62   67.09
  -2   6  -4 1882.71   68.19
   2  -6   4 1764.82   67.59
  -2  -6  -4 1786.32   68.49
   2  -6   4 1776.02   67.79
  -2   6  -5   57.29    5.40
  -2   6  -5   54.79    4.70
  -2  -6  -5   59.49    5.60
   2  -6   5   57.69    3.90
  -2   6  -6  635.54   25.90
   2   6   6  667.33   24.60
  -2   6  -6  642.34   25.50
  -2   6  -6  618.44   24.60
   2  -6   6  621.34   24.90
  -2  -6  -6  624.34   24.30
  -2  -6  -6  672.33   24.50
   2  -6   6  639.74   24.20
  -2   6  -7  599.34   23.20
  -2   6  -7  601.94   24.80
  -2   6  -7  580.84   24.00
   2   6   7  597.04   23.30
   2   6   7  590.34   23.30
  -2  -6  -7  640.84   23.00
   2  -6   7  621.04   22.80
   2  -6   7  590.44   23.60
  -2  -6  -7  584.54   22.80
  -2   6  -8  454.95   17.70
  -2   6  -8  433.46   18.50
   2   6   8  446.06   17.70
   2   6   8  450.95   17.90
   2  -6   8  459.85   18.20
  -2  -6  -8  433.96   17.30
  -2  -6  -8  469.85   17.40
  -2   6  -9    5.60    1.40
   2   6   9    7.70    2.70
   2   6   9    5.00    2.10
  -2  -6  -9    5.40    1.10
  -2  -6  -9    7.10    1.20
   2  -6   9    3.50    2.40
   2   6  10   15.40    2.30
   2  -6  10   15.80    3.00
  -2  -6 -10   16.60    1.80
   2   6  11   75.49    4.60
  -2   6 -11   77.29    3.60
  -2  -6 -11   77.49    3.40
  -2  -6 -11   77.19    3.30
   2   7 -12   13.80    1.70
   2   7 -12   17.20    2.10
   2   7 -11   20.70    2.10
  -2   7  11   18.40    2.30
   2   7 -11   20.40    2.20
  -2  -7  11   16.80    2.90
   2  -7 -11   20.90    1.70
   2   7 -10   38.00    4.00
   2   7 -10   40.70    2.80
   2  -7 -10   39.40    2.50
  -2  -7  10   42.40    3.40
  -2   7   9   30.10    4.10
   2   7  -9   24.80    2.50
   2   7  -9   18.30    3.00
  -2  -7   9   26.10    2.00
   2  -7  -9   25.30    2.40
  -2  -7   9   26.60    3.10
   2   7  -8  246.68   10.80
   2   7  -8  249.78   11.50
  -2   7   8  257.47   10.70
   2   7  -8  247.68   10.40
  -2  -7   8  246.68   10.80
  -2  -7   8  259.47    9.90
   2  -7  -8  256.67   10.20
   2   7  -7    4.80    3.60
   2   7  -7    5.10    2.50
   2   7  -7    4.50    2.30
  -2   7   7    8.60    2.30
  -2  -7   7    4.70    1.10
  -2  -7   7    4.50    1.90
   2   7  -6  109.29    6.60
   2   7  -6  111.59    7.30
   2   7  -6  112.69    6.60
  -2  -7   6  112.79    5.80
  -2  -7   6  116.09    4.90
  -2  -7   6  108.39    5.20
   2   7  -5    7.50    2.70
   2   7  -5    8.50    4.50
  -2  -7   5    5.00    1.20
  -2  -7   5    5.70    1.80
   2  -7  -5    4.40    3.60
  -2  -7   5    7.90    1.80
   2   7  -4  419.86   18.00
   2   7  -4  440.26   17.80
   2   7  -4  421.66   18.60
   2  -7  -4  443.56   18.20
  -2  -7   4  419.86   17.10
   2   7  -3   15.80    3.20
   2   7  -3   12.20    2.40
   2   7  -3   17.30    2.90
  -2  -7   3   15.90    2.30
  -2  -7   3   10.10    2.20
   2  -7  -3   13.30    2.70
   2   7  -2 1384.96   52.49
   2   7  -2 1356.76   52.19
   2   7  -2 1392.26   52.39
   2  -7  -2 1315.17   53.39
  -2  -7   2 1418.86   52.29
   2   7  -1    4.40    2.50
   2   7  -1    9.30    1.90
  -2   7   1    8.70    1.80
   2  -7  -1    7.40    2.60
  -2  -7   1   12.30    2.50
   2   7   0  503.05   20.50
  -2   7   0  549.35   20.60
   2   7   0  520.85   20.50
  -2  -7   0  489.95   21.00
   2  -7   0  549.35   21.20
  -2   7  -1    3.20    1.40
   2   7   1    2.60    1.40
  -2   7  -1    1.50    1.70
   2  -7   1    2.90    2.00
  -2  -7  -1    1.80    2.30
  -2  -7  -1    0.00    1.90
  -2   7  -2  316.87   12.80
  -2   7  -2  333.87   14.10
   2   7   2  289.97   12.40
  -2   7  -2  331.37   13.40
  -2  -7  -2  315.27   13.50
   2  -7   2  324.57   13.00
  -2  -7  -2  300.57   13.60
   2   7   3  125.19    5.90
  -2   7  -3  144.09    7.50
  -2   7  -3  124.89    6.80
  -2   7  -3  143.99    7.00
  -2  -7  -3  125.89    7.60
   2  -7   3  129.69    6.40
  -2  -7  -3  128.09    7.50
  -2   7  -4    8.00    2.60
   2   7   4    8.60    2.00
  -2   7  -4    9.30    2.50
   2  -7   4   10.50    1.30
   2  -7   4    8.30    2.00
  -2   7  -5  204.48    9.60
  -2   7  -5  201.98    9.90
   2   7   5  199.88    8.90
   2  -7   5  197.28    8.00
  -2  -7  -5  208.08    8.30
   2  -7   5  197.68    8.90
  -2  -7  -5  193.68    8.20
   2   7   6    7.50    2.40
  -2   7  -6    6.90    1.80
  -2   7  -6    7.90    2.40
  -2   7  -6    7.30    3.00
   2  -7   6    8.40    1.20
   2  -7   6    8.90    2.00
  -2  -7  -6   10.10    1.50
  -2  -7  -6    9.20    1.40
  -2   7  -7   18.90    2.90
  -2   7  -7   22.00    2.70
  -2   7  -7   20.70    4.00
   2   7   7   25.70    4.20
   2   7   7   30.00    4.50
  -2  -7  -7   23.90    2.20
   2  -7   7   25.90    3.60
   2  -7   7   20.50    2.00
  -2  -7  -7   19.90    2.20
  -2   7  -8    7.50    2.80
   2   7   8   14.80    3.30
   2   7   8   14.70    2.40
  -2   7  -8   14.40    2.30
  -2  -7  -8   12.60    2.00
   2  -7   8   11.20    2.40
  -2  -7  -8   14.70    1.80
   2  -7   8   14.80    1.90
  -2   7  -9   12.60    1.60
   2   7   9   17.10    2.50
  -2   7  -9   12.60    3.70
   2   7   9    9.40    3.80
  -2  -7  -9   19.00    1.70
   2  -7   9   20.50    3.40
  -2   7 -10    2.60    1.10
  -2  -7 -10    2.60    1.10
  -2  -7 -10    2.70    0.80
  -2   7 -11   14.70    1.50
   2   8 -11   13.80    1.70
  -2  -8  11   12.40    1.90
   2   8 -10   84.69    4.00
   2   8 -10   79.09    4.20
  -2  -8  10   86.39    4.60
   2   8  -9   73.59    3.70
   2   8  -9   55.49    8.50
  -2  -8   9   66.09    3.10
  -2  -8   9   67.39    4.20
   2   8  -8  114.89    6.00
   2   8  -8  126.59    5.70
   2   8  -8  126.59    7.20
  -2  -8   8  123.69    6.20
  -2  -8   8  123.09    5.10
   2   8  -7   16.80    4.30
   2   8  -7   12.60    2.50
   2   8  -7   17.50    3.10
  -2  -8   7   18.10    2.40
  -2  -8   7   18.30    1.70
  -2  -8   7   16.90    2.30
   2   8  -6  206.08    9.70
   2   8  -6  203.38    9.40
   2   8  -6  209.18   10.70
  -2  -8   6  193.38    8.80
  -2  -8   6  199.48    8.00
  -2  -8   6  194.58    8.20
   2   8  -5    9.20    3.00
   2   8  -5    7.60    2.80
   2   8  -5    9.60    2.60
  -2  -8   5    7.90    1.10
  -2  -8   5    7.70    2.00
  -2  -8   5    8.00    1.40
   2   8  -4   15.30    2.90
   2   8  -4   14.70    3.00
   2   8  -4   12.40    3.30
  -2  -8   4   14.30    2.10
  -2  -8   4   17.00    1.70
  -2  -8   4   15.30    1.80
   2   8  -3  627.24   25.40
   2   8  -3  656.53   25.20
  -2  -8   3  625.44   23.80
  -2  -8   3  606.84   24.40
  -2  -8   3  620.44   23.80
   2   8  -2   44.40    4.40
   2   8  -2   43.70    5.20
  -2   8   2   43.30    4.10
   2   8  -2   38.90    6.20
  -2  -8   2   37.80    4.20
  -2  -8   2   48.30    4.30
  -2   8   1   88.39    5.10
   2   8  -1   65.29    7.10
   2   8  -1   84.19    6.30
  -2  -8   1   86.59    5.40
  -2   8   0  355.06   14.70
   2  -8   0  340.57   15.00
  -2  -8   0  366.26   14.90
  -2   8  -1   -0.40    2.00
  -2  -8  -1    2.90    2.40
   2  -8   1    0.60    2.20
   2   8   2  164.48    7.50
  -2   8  -2  166.58    8.30
  -2   8  -2  178.38    9.20
   2  -8   2  166.28    6.80
  -2  -8  -2  159.78    8.30
   2  -8   2  164.18    6.90
  -2  -8  -2  162.68    7.00
   2  -8   2  162.88    7.80
  -2   8  -3  458.25   18.90
   2   8   3  410.46   17.70
  -2   8  -3  482.65   18.90
  -2  -8  -3  445.36   17.50
   2  -8   3  473.25   18.20
   2  -8   3  451.15   17.30
   2  -8   3  448.26   17.40
  -2   8  -4  295.67   13.30
  -2   8  -4  296.57   13.00
   2   8   4  280.67   11.90
  -2  -8  -4  290.97   11.60
   2  -8   4  291.07   11.50
   2  -8   4  300.17   11.40
   2  -8   4  296.17   12.30
   2   8   5  545.45   21.60
  -2   8  -5  563.24   22.50
  -2   8  -5  561.54   23.00
   2  -8   5  558.24   21.10
  -2  -8  -5  551.44   21.20
   2  -8   5  542.95   21.20
   2  -8   5  557.34   21.90
   2   8   6   63.39    4.90
  -2   8  -6   49.10    5.90
  -2   8  -6   60.99    3.80
  -2   8  -6   68.99    5.00
   2  -8   6   62.79    3.10
  -2  -8  -6   68.09    3.40
   2   8   7  189.88    9.20
  -2   8  -7  187.18   10.60
  -2   8  -7  194.68    8.30
  -2   8  -7  199.98    9.40
  -2  -8  -7  201.48    8.00
   2  -8   7  197.78    9.20
   2  -8   7  204.38    7.90
  -2   8  -8    1.50    1.30
   2   8   8    9.70    3.10
  -2   8  -8    3.70    2.50
   2   8   8    2.10    3.00
  -2  -8  -8    2.90    1.20
   2  -8   8    2.10    2.00
   2  -8   8    3.50    1.00
   2   8   9   53.19    7.40
  -2   8  -9   66.69    3.40
  -2   8  -9   75.69    5.90
  -2  -8  -9   62.79    3.20
   2  -8   9   64.89    4.60
  -2   8 -10   33.70    2.10
   2   8  10   32.50    3.40
   2  -8  10   30.30    3.70
   2   9 -10  364.46   13.60
  -2  -9  10  337.17   13.90
   2   9  -9    4.70    1.10
  -2  -9   9    5.90    0.80
   2   9  -8   23.00    3.20
   2   9  -8   24.20    3.30
   2   9  -8   27.30    2.40
  -2  -9   8   31.40    3.10
  -2  -9   8   26.50    1.70
   2   9  -7   -0.60    2.30
   2   9  -7    0.70    2.10
   2   9  -7    8.30    4.10
  -2  -9   7    2.20    1.80
  -2  -9   7   -0.20    0.70
  -2  -9   7   -0.30    1.10
   2   9  -6    9.90    3.90
   2   9  -6    4.80    2.50
   2   9  -6    7.10    2.40
  -2  -9   6    3.70    1.90
  -2  -9   6    4.80    0.90
  -2  -9   6    2.70    1.10
   2   9  -5    1.00    3.20
   2   9  -5    1.90    2.60
   2   9  -5    2.50    2.40
  -2  -9   5    3.00    1.80
  -2  -9   5    1.20    1.00
  -2  -9   5    2.50    0.80
   2   9  -4  241.18   11.20
   2   9  -4  235.38   11.80
   2   9  -4  246.78   11.00
  -2  -9   4  240.68    9.50
   2  -9  -4  242.48   10.00
  -2  -9   4  244.58   10.50
  -2  -9   4  237.78    9.60
   2   9  -3  172.28    8.60
   2   9  -3  163.58    8.90
  -2  -9   3  159.98    6.70
  -2  -9   3  159.78    7.80
   2  -9  -3  160.78    6.80
  -2  -9   3  160.58    6.60
   2   9  -2   -1.60    2.60
  -2   9   2   -0.30    2.70
   2   9  -2    1.40    2.60
  -2  -9   2    2.20    1.00
   2  -9  -2    0.90    1.20
  -2  -9   2   -0.90    1.10
   2   9  -1   50.89    4.90
  -2   9   1   54.49    4.70
   2   9  -1   50.19    5.60
  -2  -9   1   42.50    4.50
   2  -9  -1   51.89    2.90
  -2  -9   1   50.49    2.80
   2  -9  -1   45.00    3.00
  -2  -9   1   47.50    2.80
  -2   9   0 1176.78   44.50
   2   9   0 1190.78   44.70
  -2  -9   0 1144.19   44.60
   2  -9   0 1154.58   43.40
   2  -9   0 1192.08   43.40
  -2  -9   0 1095.99   43.50
  -2  -9   0 1149.58   43.40
  -2   9  -1   26.60    4.10
   2   9   1   30.80    4.10
   2  -9   1   33.80    2.30
  -2  -9  -1   28.30    4.30
  -2  -9  -1   27.80    2.50
   2  -9   1   32.40    2.10
   2  -9   1   33.70    4.70
  -2   9  -2   52.19    5.60
   2   9   2   52.29    4.50
  -2   9  -2   45.00    4.70
   2  -9   2   43.50    2.70
  -2  -9  -2   54.99    4.80
  -2  -9  -2   39.70    3.20
   2  -9   2   47.20    2.60
   2  -9   2   48.40    4.40
  -2   9  -3  320.47   13.60
   2   9   3  293.87   12.90
  -2   9  -3  298.97   13.60
   2  -9   3  300.37   12.90
   2  -9   3  307.67   11.90
   2  -9   3  301.37   11.80
  -2  -9  -3  307.97   13.40
  -2   9  -4  186.38    9.80
  -2   9  -4  194.68    9.50
   2   9   4  185.68    9.00
   2  -9   4  190.38    7.80
   2  -9   4  207.08    9.10
   2  -9   4  195.18    8.00
  -2  -9  -4  204.48    8.10
   2   9   5   33.60    5.20
  -2   9  -5   34.70    4.40
  -2   9  -5   39.50    3.10
   2  -9   5   34.50    2.10
  -2  -9  -5   39.30    2.70
   2  -9   5   36.40    2.50
   2  -9   5   35.80    3.90
  -2   9  -6  252.67   12.40
  -2   9  -6  253.07   11.50
  -2   9  -6  260.67   10.50
   2   9   6  228.18   11.10
   2  -9   6  274.77   11.30
   2  -9   6  257.67   10.20
  -2  -9  -6  267.07   10.30
   2  -9   6  266.87   10.10
  -2   9  -7   39.30    2.80
  -2   9  -7   43.50    6.80
   2   9   7   35.80    6.30
  -2   9  -7   45.10    4.10
   2  -9   7   39.60    2.20
   2  -9   7   39.50    3.80
  -2   9  -8   25.00    2.10
   2   9   8   23.50    4.20
  -2   9  -8   19.60    2.90
  -2  -9  -8   25.10    2.10
   2  -9   8   21.80    1.60
   2  -9   8   22.30    3.30
   2   9   9   20.30    2.60
  -2   9  -9   21.60    1.80
   2  -9   9   18.80    2.50
   2  10  -9    5.50    1.00
  -2 -10   9    4.50    0.70
  -2 -10   9    4.20    1.80
   2  10  -8   63.29    3.30
  -2 -10   8   69.09    4.10
  -2 -10   8   61.49    2.80
   2  10  -7   42.00    4.10
   2  10  -7   32.90    2.80
  -2 -10   7   38.40    2.20
  -2 -10   7   36.10    2.00
  -2 -10   7   32.80    3.40
   2  10  -6  123.49    6.70
   2  10  -6   98.09    8.20
  -2 -10   6  111.59    4.90
  -2 -10   6  123.19    6.00
  -2 -10   6  114.59    4.80
   2  10  -5   48.50    6.10
   2  10  -5   60.29    5.00
  -2 -10   5   55.39    2.70
  -2 -10   5   64.79    4.40
  -2 -10   5   56.69    2.90
   2  10  -4   89.69    6.20
   2  10  -4   89.89    7.10
  -2 -10   4   98.49    6.10
   2 -10  -4   93.59    4.40
  -2 -10   4   95.29    4.20
   2  10  -3   10.40    2.80
   2  10  -3    6.90    3.30
   2 -10  -3    8.80    1.40
  -2 -10   3    7.30    1.10
  -2 -10   3    5.30    0.90
   2  10  -2  441.86   18.30
   2  10  -2  438.96   18.80
  -2 -10   2  437.96   16.80
  -2 -10   2  423.46   16.70
   2 -10  -2  442.06   16.80
   2  10  -1  137.39    7.80
  -2  10   1  128.89    7.40
   2  10  -1  129.19    7.90
   2 -10  -1  130.99    5.60
   2 -10  -1  130.99    5.60
  -2 -10   1  128.39    5.50
  -2 -10   1  132.39    5.70
   2  10   0  197.18   10.10
   2  10   0  199.88   10.20
  -2  10   0  205.98    9.80
  -2 -10   0  202.48    8.20
   2 -10   0  207.08    8.10
   2 -10   0  204.58    8.20
  -2  10  -1  179.08    9.40
   2  10   1  174.18    9.00
  -2  10  -1  170.48    8.80
   2 -10   1  156.38    9.10
   2 -10   1  167.88    7.00
   2 -10   1  172.58    6.90
  -2 -10  -1  162.18    7.00
   2  10   2   18.50    3.40
  -2  10  -2   15.80    3.10
  -2  10  -2   15.90    3.30
   2 -10   2   14.20    3.10
   2 -10   2   15.00    1.50
   2 -10   2   16.10    1.70
  -2 -10  -2   13.20    1.60
  -2  10  -3    0.20    2.80
  -2  10  -3   -2.20    2.50
   2  10   3   -0.10    3.20
   2 -10   3    1.30    1.00
   2 -10   3    1.30    0.80
   2 -10   3    0.10    2.50
  -2  10  -4  202.18   10.10
   2  10   4  196.28   10.00
  -2  10  -4  200.08    9.60
   2 -10   4  200.58    8.00
   2 -10   4  202.48    8.00
   2 -10   4  198.38    9.40
   2  10   5   26.80    4.10
  -2  10  -5   35.00    5.20
  -2  10  -5   36.20    4.00
  -2  10  -5   31.20    2.70
   2 -10   5   32.80    2.20
   2 -10   5   34.90    3.90
   2 -10   5   31.20    1.90
  -2  10  -6   39.20    2.70
  -2  10  -6   35.60    3.90
   2 -10   6   38.20    2.40
   2 -10   6   37.80    3.90
   2 -10   6   34.60    2.00
  -2  10  -7   16.70    2.40
  -2  10  -7   13.50    1.90
   2 -10   7   18.20    2.60
   2 -10   7   15.50    1.30
  -2  10  -8  106.29    4.50
  -2  10  -8  107.09    5.80
  -2  10  -8  105.49    6.10
   2 -10   8   99.89    4.20
   2 -10   8  105.29    5.50
   2  11  -8    2.90    0.80
  -2 -11   8    1.70    0.50
  -2 -11   8    5.90    2.20
   2  11  -7   16.60    1.70
   2  11  -7   15.10    2.50
  -2 -11   7   17.70    2.50
  -2 -11   7   13.40    1.10
  -2 -11   7   17.10    1.50
   2  11  -6   21.30    3.60
  -2 -11   6   27.00    4.00
  -2 -11   6   23.90    1.50
  -2 -11   6   26.60    1.70
   2  11  -5   69.59    5.00
  -2 -11   5   73.09    3.20
  -2 -11   5   73.09    5.30
   2  11  -4  288.27   13.80
   2  11  -4  307.37   12.80
   2 -11  -4  256.47   12.00
  -2 -11   4  299.17   11.30
  -2 -11   4  299.47   11.20
   2  11  -3   11.00    2.80
   2  11  -3    3.10    3.30
   2 -11  -3    8.60    1.30
  -2 -11   3   10.80    1.20
  -2 -11   3    7.80    0.90
   2  11  -2  157.68    8.20
   2  11  -2  146.69    8.90
  -2 -11   2  151.98    6.20
  -2 -11   2  158.48    6.40
   2 -11  -2  157.08    6.40
  -2  11   1  644.14   26.30
   2  11  -1  697.33   26.80
   2  11  -1  653.73   27.10
  -2 -11   1  666.53   25.30
   2 -11  -1  680.33   25.30
  -2 -11   1  673.33   25.20
   2  11   0   57.19    6.30
  -2  11   0   63.39    5.60
   2  11   0   72.09    6.00
   2 -11   0   59.89    3.00
  -2 -11   0   62.79    3.10
   2 -11   0   67.09    3.20
   2  11   1  102.99    7.60
  -2  11  -1  113.39    7.10
  -2  11  -1  100.09    6.70
  -2 -11  -1  104.49    4.60
   2 -11   1  109.29    4.60
   2 -11   1  109.69    4.70
  -2  11  -2   48.30    5.20
   2  11   2   40.20    6.50
  -2  11  -2   54.19    5.10
   2 -11   2   49.70    2.50
   2 -11   2   48.20    2.60
   2 -11   2   46.30    5.50
  -2 -11  -2   45.60    2.70
  -2  11  -3  473.95   18.80
  -2  11  -3  455.15   19.20
   2  11   3  417.26   19.30
   2 -11   3  469.75   18.80
   2 -11   3  462.35   17.40
   2 -11   3  465.45   17.50
  -2  11  -4   22.00    4.00
  -2  11  -4   23.70    2.40
  -2  11  -4   21.40    2.80
   2 -11   4   23.80    3.20
   2 -11   4   21.50    1.50
  -2  11  -5   68.29    3.40
  -2  11  -5   63.79    4.50
   2 -11   5   66.19    3.00
   2 -11   5   60.09    4.90
   2 -11   5   62.79    2.90
  -2  11  -6   16.40    1.90
  -2  11  -6   13.80    3.80
   2 -11   6   16.70    1.20
   2 -11   6   14.50    1.70
   2 -11   6   13.70    2.70
  -2  11  -7   40.10    3.80
  -2  11  -7   44.80    2.50
   2 -11   7   46.30    3.80
   2 -11   7   43.10    2.00
   2  12  -6  252.27   10.40
   2  12  -6  245.78    9.60
  -2 -12   6  241.98    9.30
  -2 -12   6  241.48    9.40
   2  12  -5   60.09    4.40
  -2 -12   5   63.29    2.80
  -2 -12   5   60.89    2.70
   2  12  -4    5.90    2.20
  -2 -12   4    2.60    0.80
  -2 -12   4    3.50    0.60
   2  12  -3    7.90    2.60
   2 -12  -3    8.30    1.20
  -2 -12   3   13.30    1.30
  -2 -12   3    9.60    1.10
   2  12  -2   12.90    2.70
  -2 -12   2   10.30    1.20
   2 -12  -2    8.70    1.10
  -2 -12   2   10.20    1.30
   2  12  -1  442.06   17.80
  -2 -12   1  424.26   16.40
  -2 -12   1  437.96   16.50
   2 -12  -1  427.96   16.50
   2  12   0  261.17   11.70
   2 -12   0  259.17   10.00
  -2 -12   0  250.47    9.90
   2 -12   0  251.97    9.90
   2  12   1  685.13   26.70
  -2  12  -1  622.54   24.70
   2 -12   1  621.84   23.60
   2 -12   1  627.14   23.70
  -2 -12  -1  584.64   23.60
  -2  12  -2   65.69    5.10
   2 -12   2   64.89    2.90
   2 -12   2   63.69    3.00
  -2 -12  -2   60.99    3.10
  -2  12  -3   19.70    2.70
   2 -12   3   18.60    1.40
   2 -12   3   17.30    1.30
  -2  12  -4   12.30    2.30
   2 -12   4    9.70    3.00
   2 -12   4   14.30    1.30
   2 -12   4   11.20    1.00
  -2  12  -5   -1.00    1.80
   2 -12   5    1.00    0.50
   2 -12   5   -0.50    2.70
   2  13  -3    3.20    2.00
  -2 -13   3    1.10    0.60
   2 -13  -3    1.30    1.00
  -2 -13   3    2.00    0.60
   2  13  -2  421.76   16.90
  -2 -13   2  417.46   15.90
  -2 -13   2  426.36   16.00
   2 -13  -2  428.46   16.10
   2  13  -1   25.70    4.10
   2 -13  -1   29.20    1.70
  -2 -13   1   25.00    1.60
   2  13   0   70.99    5.30
  -2 -13   0   63.29    2.90
   2 -13   0   67.79    3.00
  -2  13  -1    0.80    2.70
  -2 -13  -1   -0.20    0.80
   2 -13   1    1.10    0.60
  -2  13  -2   25.40    3.80
   2 -13   2   24.40    1.50
   3   0 -14  231.28    9.00
   3   0 -13    0.20    0.90
  -3   0  13   -0.90    1.80
  -3   0  12  590.44   24.00
   3   0 -12  606.54   22.60
  -3   0  12  569.64   22.80
   3   0 -11   -4.60    2.30
   3   0 -11   -1.20    1.50
  -3   0  11   -0.60    3.30
  -3   0  11    0.10    1.90
   3   0 -10  615.04   23.50
  -3   0  10  602.24   24.40
  -3   0  10  595.64   23.70
  -3   0   9    0.20    2.20
   3   0  -9    0.80    2.10
  -3   0   8 2765.02  105.09
  -3   0   8 2828.02  104.79
  -3   0   8 2811.32  105.09
   3   0  -7    0.10    2.80
  -3   0   7   -1.00    1.40
  -3   0   6   10.30    1.60
   3   0  -6    7.80    2.20
   3   0  -6   12.60    1.80
   3   0  -5   -0.60    0.70
   3   0  -5    0.70    1.70
  -3   0   5    0.30    1.10
   3   0  -4 5685.33  206.68
   3   0  -4 5628.44  205.98
  -3   0   4 5367.76  206.28
   3   0  -3   -1.60    0.80
  -3   0   3   -1.10    0.80
   3   0  -3   -2.50    0.60
  -3   0   2 3944.01  148.39
  -3   0   2 4068.19  148.39
   3   0  -2 3983.10  148.39
   3   0  -1   -0.20    0.40
  -3   0   1   -0.10    0.40
   3   0  -1    0.00    0.50
  -3   0   1    0.30    0.40
  -3   0   0 1005.70   37.30
   3   0   0  992.10   37.30
  -3   0  -2 3090.79  114.69
   3   0   2 3085.09  114.59
  -3   0  -3   -0.50    0.60
   3   0   3   -1.10    0.90
  -3   0  -4 1040.90   39.00
   3   0   4 1024.80   38.90
   3   0   5   -0.70    1.20
  -3   0  -5    1.50    1.20
  -3   0  -6  187.58    8.50
  -3   0  -6  192.48    9.00
   3   0   6  194.68    8.20
   3   0   6  181.48    8.10
   3   0   7   -2.70    1.90
  -3   0  -7    0.00    2.80
   3   0   7    1.40    1.70
   3   0   8  257.17   10.90
  -3   0  -8  245.28   10.30
  -3   0  -8  240.78   10.20
   3   0   8  248.88   10.30
  -3   0  -9    2.10    1.50
   3   0   9   -2.20    3.10
  -3   0  -9    0.10    1.50
   3   0   9    1.70    2.00
  -3   0 -10   57.99    3.30
   3   0  10   56.49    7.00
   3   0  10   60.29    4.50
  -3   0 -10   55.89    3.30
   3   0  11    2.70    2.70
  -3   0 -11    1.00    1.10
  -3   0 -11    0.70    1.00
  -3   0 -12   89.69    4.10
  -3   0 -12   93.69    3.90
  -3   1  14   38.10    3.00
   3   1 -14   41.50    2.10
   3  -1 -14   41.30    2.10
   3   1 -13   99.89    4.30
  -3   1  13   93.29    4.70
   3  -1 -13   99.69    4.30
  -3  -1  13   91.99    5.80
   3   1 -12   33.20    3.30
  -3   1  12   37.00    5.60
   3   1 -12   42.30    2.90
  -3   1  12   38.70    3.30
  -3  -1  12   41.80    3.40
   3  -1 -12   41.30    2.70
  -3  -1  12   29.90    7.30
   3   1 -11   55.89    3.50
   3   1 -11   46.90    4.00
  -3   1  11   51.89    4.10
  -3   1  11   57.59    5.60
   3  -1 -11   57.59    3.50
  -3  -1  11   54.19    4.00
  -3  -1  11   56.89    6.60
   3   1 -10   41.90    3.60
  -3   1  10   43.90    4.80
   3   1 -10   38.00    4.20
  -3   1  10   36.50    3.80
  -3  -1  10   41.60    5.60
  -3  -1  10   34.20    3.70
  -3  -1  10   43.70    5.60
   3  -1 -10   39.60    3.40
  -3   1   9  730.93   28.30
   3   1  -9  705.93   27.70
  -3   1   9  694.13   28.70
  -3  -1   9  709.63   27.80
   3  -1  -9  707.13   27.60
  -3  -1   9  727.33   28.40
  -3  -1   9  736.13   28.20
  -3   1   8  182.48    8.70
  -3   1   8  196.68    8.80
  -3  -1   8  193.28    8.50
  -3  -1   8  187.08    9.40
  -3  -1   8  195.68    9.00
  -3   1   7   43.40    3.30
   3   1  -7   37.30    5.10
  -3  -1   7   42.50    3.50
  -3  -1   7   40.20    3.80
  -3   1   6  294.97   12.10
   3   1  -6  294.37   13.00
   3  -1  -6  319.47   11.80
  -3  -1   6  288.17   12.30
   3  -1  -6  296.67   12.70
  -3   1   5  626.74   24.50
   3   1  -5  636.54   25.20
   3  -1  -5  681.93   24.30
   3  -1  -5  657.13   25.00
  -3  -1   5  607.04   24.70
   3   1  -4    2.90    0.90
   3   1  -4    2.10    1.30
  -3   1   4    0.80    0.80
   3  -1  -4    1.60    0.50
   3  -1  -4    1.30    1.10
  -3  -1   4    0.10    1.10
   3   1  -3    8.90    1.60
   3   1  -3   11.10    0.90
  -3   1   3   11.10    1.10
   3  -1  -3   10.50    0.70
  -3  -1   3    9.70    1.30
   3  -1  -3    9.40    1.40
   3  -1  -3   10.30    1.40
  -3   1   2  199.48    8.20
  -3   1   2  211.88    8.00
   3   1  -2  204.48    8.20
   3   1  -2  229.48    8.00
   3  -1  -2  206.68    8.40
  -3  -1   2  199.18    8.40
  -3  -1   2  216.68    8.10
   3   1  -1 1775.32   65.39
   3   1  -1 1850.61   65.49
  -3   1   1 1535.05   65.39
   3   1  -1 1856.51   65.69
  -3  -1   1 1734.03   65.39
   3  -1  -1 1752.52   65.59
  -3  -1   1 1827.42   65.59
  -3   1   0 2710.03   99.39
   3   1   0 2723.73   99.49
  -3  -1   0 2750.72   99.49
   3  -1   0 2531.25   99.39
  -3  -1   0 2671.93   99.49
  -3   1  -1  111.29    4.50
  -3  -1  -1  112.19    4.50
  -3  -1  -1  103.79    4.60
  -3   1  -2 1187.48   45.30
   3   1   2 1223.28   45.00
  -3   1  -2 1240.38   45.20
  -3  -1  -2 1191.78   45.10
  -3  -1  -2 1187.28   45.30
  -3   1  -3  657.33   24.40
  -3   1  -3  642.64   24.50
   3   1   3  659.73   24.20
  -3  -1  -3  610.04   24.40
  -3  -1  -3  630.04   24.60
   3  -1   3  635.74   24.20
  -3   1  -4  149.39    6.80
  -3   1  -4  146.19    6.40
   3  -1   4  143.19    6.30
  -3  -1  -4  150.68    6.70
  -3  -1  -4  150.68    6.30
   3   1   5   50.39    3.10
  -3   1  -5   55.99    3.50
  -3  -1  -5   49.20    3.60
   3  -1   5   45.90    3.40
  -3  -1  -5   53.39    3.20
  -3   1  -6  329.67   13.50
   3   1   6  330.47   13.00
   3   1   6  311.37   12.90
   3  -1   6  312.57   12.90
  -3  -1  -6  330.97   13.40
  -3  -1  -6  314.87   13.80
   3  -1   6  321.07   13.00
  -3   1  -7   71.19    5.40
   3   1   7   69.39    4.20
   3   1   7   70.19    4.40
   3  -1   7   62.69    4.30
   3  -1   7   63.49    4.80
  -3  -1  -7   69.09    5.80
  -3   1  -8    1.50    1.80
  -3   1  -8    4.80    1.80
   3   1   8    4.10    1.90
   3   1   8    3.70    2.20
  -3  -1  -8    8.00    1.70
   3  -1   8    4.60    2.90
  -3  -1  -8    4.30    1.60
   3  -1   8    2.60    2.00
  -3   1  -9   86.39    4.50
   3   1   9   78.19    4.60
  -3   1  -9   84.89    4.90
   3   1   9   84.49    5.80
  -3  -1  -9   89.29    4.70
  -3  -1  -9   70.79    4.40
   3  -1   9   81.99    4.80
  -3   1 -10  210.18    8.70
   3   1  10  209.58    9.60
  -3   1 -10  219.48    8.70
   3   1  10  214.08   10.40
  -3  -1 -10  209.28    8.60
  -3  -1 -10  209.28    8.70
   3  -1  10  202.68   10.00
   3   1  11   22.30    3.50
  -3   1 -11   28.50    2.20
  -3   1 -11   22.50    2.90
  -3  -1 -11   25.40    2.10
  -3  -1 -11   24.60    2.00
  -3   1 -12  118.39    4.80
  -3   1 -12  109.49    4.90
   3   1  12  120.09    6.20
  -3  -1 -12  115.69    4.90
  -3  -1 -12  117.29    4.80
   3   2 -13  154.78    6.40
  -3   2  13  152.28    6.70
   3  -2 -13  152.68    6.30
  -3   2  12  569.14   22.90
  -3   2  12  576.14   22.10
   3   2 -12  592.34   21.90
   3   2 -12  504.65   21.80
  -3  -2  12  581.74   21.90
   3  -2 -12  584.74   21.80
   3   2 -11   49.10    3.40
  -3   2  11   47.20    3.90
   3   2 -11   41.60    3.70
  -3  -2  11   46.10    3.90
   3  -2 -11   45.30    3.10
  -3  -2  11   32.60    5.10
  -3   2  10  493.75   19.40
   3   2 -10  463.05   19.00
   3   2 -10  487.15   19.20
  -3   2  10  482.85   19.90
  -3  -2  10  478.95   19.20
  -3  -2  10  482.85   20.40
   3  -2 -10  493.95   18.90
  -3  -2  10  496.95   19.60
   3   2  -9  460.35   18.70
  -3   2   9  471.85   18.90
   3   2  -9  465.85   18.80
  -3   2   9  493.05   19.30
  -3  -2   9  484.55   19.70
  -3  -2   9  484.85   18.80
   3  -2  -9  490.25   18.60
  -3  -2   9  432.06   20.30
  -3   2   8  231.08   10.30
   3   2  -8  218.08   12.20
  -3   2   8  229.08   10.10
  -3  -2   8  230.58   10.40
  -3  -2   8  242.58   10.60
  -3  -2   8  232.48    9.90
   3   2  -7  498.95   20.80
  -3   2   7  504.35   19.10
  -3  -2   7  478.45   19.40
  -3  -2   7  467.15   19.00
  -3  -2   7  467.15   19.40
   3   2  -6 1278.67   50.69
  -3   2   6 1231.68   49.70
   3  -2  -6 1325.57   49.60
  -3  -2   6 1444.66   50.09
   3   2  -5  296.47   13.00
   3   2  -5  316.07   13.10
  -3   2   5  308.27   12.10
   3  -2  -5  299.47   12.40
  -3  -2   5  313.97   12.50
   3   2  -4   20.10    3.20
   3   2  -4   26.40    2.70
  -3   2   4   22.60    1.60
   3  -2  -4   26.00    2.30
   3  -2  -4   27.20    1.60
   3  -2  -4   25.50    2.30
  -3  -2   4   17.80    2.60
   3   2  -3   18.80    2.50
   3   2  -3   20.80    2.10
  -3   2   3   16.70    1.70
   3  -2  -3   20.50    1.20
   3  -2  -3   18.50    1.70
  -3  -2   3   17.70    1.80
   3   2  -2  125.59    4.90
  -3   2   2  111.09    4.80
  -3   2   2  108.49    4.60
   3  -2  -2  124.69    4.70
  -3  -2   2  111.39    5.10
   3  -2  -2  118.79    5.10
  -3  -2   2  114.89    4.70
  -3   2   1 2477.35   95.29
  -3  -2   1 2552.64   95.19
  -3  -2   1 2660.53   95.39
   3   2   0    5.10    0.80
  -3   2   0    5.70    0.70
   3   2   0    5.00    1.00
  -3  -2   0    5.20    0.80
  -3  -2   0    6.20    0.90
   3  -2   0    6.10    1.00
   3   2   1 1657.63   67.49
  -3   2  -1 1819.52   67.39
   3   2   1 1816.22   67.29
  -3   2  -1 1885.21   67.59
  -3  -2  -1 1781.72   67.39
   3  -2   1 1970.40   67.49
  -3  -2  -1 1741.13   67.49
  -3   2  -2  806.42   30.50
   3   2   2  778.72   30.10
  -3   2  -2  829.72   30.40
  -3  -2  -2  789.52   30.50
  -3  -2  -2  810.92   30.20
   3   2   3  481.95   18.40
  -3   2  -3  488.65   18.80
  -3   2  -3  492.35   18.70
  -3  -2  -3  471.15   18.80
  -3  -2  -3  482.15   18.50
   3   2   4  799.22   30.50
  -3   2  -4  796.42   31.00
  -3   2  -4  827.02   30.90
   3  -2   4  805.12   30.60
  -3  -2  -4  791.52   31.10
  -3  -2  -4  824.82   30.70
   3   2   5   48.70    3.10
  -3   2  -5   59.19    3.70
   3  -2   5   50.19    4.00
  -3  -2  -5   56.39    3.50
   3   2   6  108.99    5.50
  -3   2  -6  109.39    6.00
   3   2   6  109.29    5.30
  -3   2  -6  112.39    7.90
  -3  -2  -6  104.59    6.20
   3  -2   6  109.99    5.70
   3  -2   6  106.09    6.10
   3   2   7   31.40    3.30
  -3   2  -7   35.70    5.00
   3   2   7   27.40    3.50
  -3   2  -7   32.00    4.10
  -3  -2  -7   28.70    5.00
   3  -2   7   39.00    3.80
   3   2   8  241.78   10.30
  -3   2  -8  242.98    9.90
   3   2   8  233.28    9.90
  -3   2  -8  222.28    9.90
  -3  -2  -8  233.98    9.70
   3  -2   8  234.88   10.10
  -3  -2  -8  237.18    9.60
  -3   2  -9   46.10    4.50
  -3   2  -9   45.10    3.30
   3   2   9   50.59    4.60
   3   2   9   42.20    3.60
  -3  -2  -9   41.30    2.90
   3  -2   9   39.30    4.80
  -3  -2  -9   45.60    3.10
  -3   2 -10  557.04   21.90
   3   2  10  590.74   22.90
  -3   2 -10  568.54   22.00
   3   2  10  571.84   22.20
  -3  -2 -10  575.44   21.80
  -3  -2 -10  569.54   22.00
  -3   2 -11   80.49    3.90
  -3   2 -11   81.99    3.90
   3   2  11   80.99    4.60
  -3  -2 -11   79.99    3.80
  -3  -2 -11   78.29    3.90
  -3   2 -12  114.19    5.00
  -3   2 -12  119.39    4.90
   3   2  12  110.69    5.90
  -3  -2 -12  124.29    4.80
  -3  -2 -12  116.89    4.90
   3   3 -13   59.39    3.00
  -3   3  13   58.19    3.50
   3  -3 -13   58.29    3.00
  -3   3  12    0.40    3.20
   3   3 -12    1.40    1.30
  -3   3  12    2.00    1.80
   3  -3 -12    1.10    1.20
  -3  -3  12    0.20    2.70
  -3   3  11   -1.80    2.70
  -3   3  11   -0.70    2.80
   3   3 -11    4.00    1.90
   3   3 -11    1.50    1.50
  -3  -3  11    2.90    2.90
   3  -3 -11    3.70    1.30
   3   3 -10  189.28    8.70
  -3   3  10  194.18    9.20
  -3   3  10  195.48    8.70
   3  -3 -10  164.88    8.70
  -3  -3  10  194.48    8.90
  -3  -3  10  190.38    8.50
   3   3  -9   23.10    3.50
  -3   3   9   24.90    4.10
  -3   3   9   22.40    3.80
   3   3  -9   19.40    3.30
  -3  -3   9   25.40    4.00
  -3  -3   9   22.60    2.80
   3  -3  -9   24.90    3.00
   3   3  -8 1222.18   48.60
  -3   3   8 1250.27   46.80
  -3  -3   8 1206.58   47.20
  -3  -3   8 1228.48   46.90
  -3  -3   8 1236.28   46.50
   3   3  -7    2.90    3.10
  -3   3   7    1.20    1.50
  -3  -3   7   -3.00    2.50
  -3  -3   7    2.80    2.40
  -3  -3   7   -0.10    2.30
  -3   3   6  668.43   26.00
   3   3  -6  708.23   27.50
   3   3  -6  633.34   26.80
  -3  -3   6  676.83   27.20
   3  -3  -6  709.43   26.10
   3   3  -5  377.46   15.80
  -3   3   5  362.16   14.60
   3   3  -5  379.26   15.50
  -3  -3   5  366.86   15.20
   3  -3  -5  393.96   14.70
   3   3  -4  323.17   13.30
   3   3  -4  307.37   13.50
   3  -3  -4  338.47   12.60
   3   3  -3  515.15   21.00
   3   3  -3  545.35   21.00
   3  -3  -3  552.74   20.50
   3  -3  -3  531.15   20.90
   3   3  -2  907.41   35.00
   3   3  -2  905.11   35.10
   3  -3  -2  971.70   34.70
   3  -3  -2  899.31   34.90
   3   3  -1   53.59    3.00
  -3  -3   1   53.59    2.80
   3  -3  -1   60.39    2.90
  -3  -3   1   60.39    3.00
  -3   3   0   77.59    3.20
  -3   3   0   79.89    3.60
   3   3   0   74.19    3.50
   3   3   0   72.49    3.50
  -3  -3   0   77.59    3.50
  -3  -3   0   78.89    3.60
   3  -3   0   82.19    3.60
   3   3   1 2464.85   99.29
   3   3   1 2715.63   99.19
  -3   3  -1 2648.24   99.19
   3   3   1 2679.33   99.29
  -3   3  -1 2777.82   99.39
  -3  -3  -1 2582.54   99.39
   3  -3   1 2783.42   99.29
  -3  -3  -1 2691.73   99.29
   3   3   2   46.60    2.40
  -3   3  -2   57.09    3.10
  -3   3  -2   47.80    2.70
  -3  -3  -2   46.30    2.50
  -3  -3  -2   45.10    2.70
   3  -3   2   51.49    2.80
   3   3   3  740.33   29.90
  -3   3  -3  815.52   30.00
  -3   3  -3  754.12   30.30
  -3  -3  -3  796.22   30.10
  -3  -3  -3  816.02   29.70
  -3   3  -4  334.97   13.60
   3   3   4  336.17   13.10
  -3   3  -4  350.86   13.70
  -3  -3  -4  323.17   13.90
  -3  -3  -4  327.87   13.70
  -3   3  -5  114.59    6.00
   3   3   5  115.99    5.30
  -3   3  -5  124.39    6.20
  -3  -3  -5  120.29    6.20
   3   3   6   47.20    3.40
   3   3   6   50.29    4.00
  -3   3  -6   48.60    4.80
  -3   3  -6   51.99    4.80
  -3   3  -6   49.40    4.40
   3  -3   6   54.79    4.40
  -3  -3  -6   54.09    4.70
   3   3   7  171.48    7.50
  -3   3  -7  169.28    7.50
   3   3   7  162.18    7.40
  -3   3  -7  165.58    9.00
  -3  -3  -7  167.38    7.10
   3  -3   7  152.88    8.00
  -3  -3  -7  163.78    7.20
  -3   3  -8  797.02   32.20
  -3   3  -8  856.91   31.90
   3   3   8  834.82   31.90
   3   3   8  831.02   32.10
  -3  -3  -8  861.41   31.60
   3  -3   8  810.52   32.30
  -3  -3  -8  845.62   31.70
  -3   3  -9  554.14   22.00
   3   3   9  572.64   22.10
   3   3   9  586.04   22.60
  -3   3  -9  572.54   22.10
  -3  -3  -9  580.34   21.70
  -3  -3  -9  553.64   21.90
   3   3  10   15.00    2.20
  -3   3 -10   12.40    1.90
   3   3  10   19.80    3.30
  -3   3 -10   16.90    2.30
  -3  -3 -10   17.70    1.90
  -3  -3 -10   14.40    2.10
   3   3  11    3.60    2.00
  -3   3 -11    1.60    1.30
  -3   3 -11    3.30    1.10
  -3  -3 -11    2.00    1.00
  -3  -3 -11    4.60    1.00
  -3   3 -12   11.60    1.40
   3   3  12   13.30    2.30
  -3  -3 -12   15.80    1.40
  -3  -3 -12   13.10    1.20
  -3   4  13   15.40    2.40
   3   4 -13   14.20    1.60
   3   4 -13   14.20    2.00
   3  -4 -13   14.80    1.50
   3   4 -12   39.50    2.80
  -3   4  12   34.20    3.10
   3   4 -12   37.30    2.90
  -3  -4  12   33.90    3.70
   3  -4 -12   31.60    2.50
  -3   4  11   48.40    4.00
   3   4 -11   50.19    3.50
  -3   4  11   52.69    4.90
   3   4 -11   47.00    3.30
  -3  -4  11   44.40    4.20
   3  -4 -11   46.40    3.00
   3   4 -10   31.50    3.40
   3   4 -10   34.00    3.40
  -3   4  10   32.80    4.20
  -3   4  10   35.30    4.50
  -3  -4  10   38.30    3.90
   3  -4 -10   36.00    2.90
  -3   4   9   85.79    5.60
   3   4  -9   92.09    5.00
  -3   4   9   90.29    6.00
   3   4  -9   82.59    5.10
  -3  -4   9   89.09    5.30
   3  -4  -9   93.59    4.70
   3   4  -8  153.98    7.50
  -3   4   8  166.78    7.40
   3   4  -8  149.59    7.10
  -3  -4   8  124.29    9.30
   3   4  -7   10.10    4.00
  -3   4   7    8.40    1.90
   3   4  -7    5.30    3.10
  -3  -4   7   11.00    2.30
  -3   4   6  751.12   27.80
   3   4  -6  699.73   28.80
   3   4  -6  719.63   29.40
   3   4  -6  708.23   28.50
   3  -4  -6  756.52   28.20
   3   4  -5  509.65   20.70
  -3   4   5  497.65   19.10
   3   4  -5  477.85   20.20
   3  -4  -5  520.35   19.60
   3   4  -4 2498.35   93.59
   3   4  -4 2458.85   93.29
   3  -4  -4 2548.45   92.79
   3  -4  -4 2426.86   93.29
   3   4  -3   31.00    3.00
   3   4  -3   31.60    2.90
   3  -4  -3   31.40    2.70
   3  -4  -3   28.80    2.20
   3   4  -2 1149.29   42.30
   3   4  -2 1116.59   42.50
   3  -4  -2 1188.78   42.10
  -3  -4   2 1039.60   42.00
   3  -4  -2 1085.69   42.30
   3   4  -1 2137.79   80.59
   3   4  -1 2152.88   80.29
  -3   4   1 2238.28   79.89
   3  -4  -1 2197.38   80.49
  -3  -4   1 2024.00   80.29
  -3   4   0 2099.19   80.99
  -3   4   0 2397.16   81.39
   3   4   0 1934.91   81.19
   3   4   0 2066.09   81.29
   3  -4   0 2274.67   81.59
  -3  -4   0 2308.57   81.59
  -3  -4   0 2194.18   81.59
   3   4   1  296.37   12.30
  -3   4  -1  312.17   12.20
  -3   4  -1  329.97   12.50
  -3  -4  -1  313.87   12.60
  -3  -4  -1  317.97   12.50
   3  -4   1  321.87   12.50
  -3   4  -2    0.10    1.20
  -3   4  -2    0.70    0.90
  -3  -4  -2    1.00    1.00
  -3  -4  -2    0.10    1.10
  -3   4  -3  830.12   30.80
   3   4   3  774.92   30.20
  -3   4  -3  805.92   30.90
  -3  -4  -3  789.82   30.90
   3  -4   3  817.22   30.70
   3   4   4 1438.46   53.89
  -3   4  -4 1435.86   54.59
  -3   4  -4 1436.16   54.49
  -3  -4  -4 1448.26   54.79
  -3   4  -5  634.14   24.60
  -3   4  -5  613.34   24.40
   3   4   5  598.64   23.80
   3   4   5  632.14   23.70
  -3   4  -5  601.24   24.40
   3  -4   5  615.44   24.00
  -3  -4  -5  634.04   24.80
  -3   4  -6   11.50    2.70
  -3   4  -6   17.20    2.90
   3   4   6   15.00    2.30
  -3   4  -6   13.90    2.70
   3  -4   6   15.30    2.50
  -3  -4  -6   10.50    3.30
  -3   4  -7  343.47   13.50
   3   4   7  335.37   13.50
   3   4   7  344.87   13.60
  -3   4  -7  317.57   14.20
  -3  -4  -7  335.87   13.10
   3  -4   7  330.47   13.90
  -3  -4  -7  331.27   13.30
   3   4   8  318.07   12.90
  -3   4  -8  317.97   14.20
  -3   4  -8  318.57   12.90
   3   4   8  323.37   13.20
  -3  -4  -8  320.57   12.50
   3  -4   8  312.67   13.40
  -3  -4  -8  313.57   12.70
   3   4   9   46.30    7.40
   3   4   9   53.39    4.00
  -3   4  -9   56.89    3.60
   3  -4   9   60.69    5.90
  -3  -4  -9   56.29    3.30
  -3  -4  -9   58.39    3.00
   3   4  10   12.00    2.10
   3   4  10   10.70    3.40
  -3   4 -10   10.10    1.50
  -3  -4 -10   10.60    1.60
  -3  -4 -10   12.30    1.70
   3   4  11  158.28    7.10
  -3   4 -11  155.38    6.50
  -3  -4 -11  161.18    6.30
  -3  -4 -11  152.98    6.40
  -3   4 -12   32.70    1.80
   3   4  12   30.70    3.20
  -3  -4 -12   30.80    1.70
  -3  -4 -12   28.10    1.80
   3   5 -13   26.10    2.20
  -3   5  13   32.00    2.60
   3   5 -13   34.50    1.90
   3  -5 -13   30.30    1.80
   3   5 -12   16.00    2.00
   3   5 -12   19.00    2.30
  -3   5  12   17.90    2.90
  -3  -5  12   17.70    2.50
   3  -5 -12   17.80    1.80
   3   5 -11  211.98    9.00
  -3   5  11  214.48    9.30
   3   5 -11  214.38    8.90
  -3   5  11  209.98    9.90
   3  -5 -11  219.18    8.80
  -3  -5  11  207.88    9.30
  -3   5  10   36.10    4.50
  -3   5  10   26.70    4.60
   3   5 -10   32.60    3.10
   3   5 -10   27.80    3.10
  -3  -5  10   27.10    3.70
   3  -5 -10   33.80    2.90
   3   5  -9    1.30    1.90
   3   5  -9    4.50    1.70
  -3   5   9    2.90    2.30
   3  -5  -9    3.20    1.80
  -3  -5   9    3.50    2.00
   3   5  -8  488.65   19.20
  -3   5   8  516.15   19.50
   3   5  -8  488.75   20.20
   3   5  -8  491.45   19.50
  -3  -5   8  495.95   18.80
   3  -5  -8  477.65   19.00
  -3  -5   8  469.85   19.50
  -3   5   7  289.27   11.10
   3   5  -7  248.78   12.60
   3   5  -7  257.17   11.90
  -3  -5   7  255.77   11.30
   3   5  -6  171.08    8.60
   3   5  -6  183.18   10.10
  -3   5   6  184.58    7.60
   3   5  -6  171.38    9.00
  -3  -5   6  158.98    8.00
   3  -5  -6  194.58   10.60
   3   5  -5  193.88    9.20
   3   5  -5  187.18    9.70
   3   5  -5  187.18    9.10
  -3  -5   5  177.78    8.60
   3  -5  -5  207.68    8.70
   3   5  -4    8.90    2.50
   3   5  -4   11.70    2.10
   3  -5  -4   16.50    3.10
   3  -5  -4   13.70    2.40
   3   5  -3    1.10    1.80
   3   5  -3    0.30    1.50
   3  -5  -3    0.60    1.20
   3  -5  -3    2.50    1.60
   3   5  -2   27.30    3.10
   3   5  -2   29.10    2.80
   3  -5  -2   28.00    2.90
   3   5  -1  639.94   24.70
  -3   5   1  670.53   24.30
   3   5  -1  633.74   25.00
  -3  -5   1  623.14   24.80
   3  -5  -1  644.04   24.90
   3   5   0  855.11   31.80
  -3   5   0  837.82   31.40
  -3   5   0  802.22   31.00
   3  -5   0  855.31   31.70
  -3  -5   0  788.82   31.70
   3   5   1   24.20    2.00
  -3   5  -1   27.10    1.90
  -3   5  -1   24.40    2.40
  -3  -5  -1   24.90    2.40
   3  -5   1   25.20    2.50
   3   5   2 2881.51  111.39
  -3   5  -2 3069.29  111.59
  -3   5  -2 3037.50  111.89
   3  -5   2 3040.70  111.79
  -3  -5  -2 2937.81  111.99
   3   5   3  295.77   11.60
  -3   5  -3  297.17   12.40
  -3   5  -3  301.27   12.20
  -3  -5  -3  292.37   12.50
   3  -5   3  299.17   12.20
   3   5   4 1437.26   53.59
  -3   5  -4 1373.86   54.29
  -3   5  -4 1456.55   54.49
  -3   5  -4 1488.15   54.59
  -3  -5  -4 1446.56   54.79
   3  -5   4 1442.96   54.19
   3  -5   4 1379.56   53.99
  -3   5  -5  735.53   28.70
   3   5   5  750.62   27.60
  -3   5  -5  689.23   28.40
  -3   5  -5  721.43   28.40
   3   5   5  701.63   27.80
  -3  -5  -5  714.43   29.00
   3  -5   5  732.03   28.40
   3  -5   5  749.73   28.00
  -3   5  -6  651.93   25.10
   3   5   6  670.83   25.10
  -3   5  -6  669.03   26.30
  -3   5  -6  585.84   26.30
   3   5   6  693.83   25.10
  -3  -5  -6  657.33   24.90
  -3  -5  -6  632.44   24.70
  -3   5  -7  211.38    9.00
  -3   5  -7  218.38   10.90
   3   5   7  213.28    9.10
   3   5   7  205.98    9.10
  -3   5  -7  211.38    9.90
  -3  -5  -7  204.98    8.50
   3  -5   7  203.08    9.40
  -3  -5  -7  211.28    8.70
  -3   5  -8    1.30    3.10
  -3   5  -8    1.20    1.60
   3   5   8    4.60    2.30
  -3   5  -8   -0.20    3.30
   3   5   8    1.70    2.00
  -3  -5  -8    3.10    1.20
  -3  -5  -8    5.10    1.40
   3  -5   8    1.70    2.40
   3   5   9    8.20    2.10
  -3   5  -9    0.30    1.30
   3   5   9    2.90    2.70
  -3  -5  -9    2.50    1.10
   3  -5   9    6.40    2.90
  -3  -5  -9    2.90    1.10
  -3   5 -10  107.19    5.00
   3   5  10  105.39    7.90
   3   5  10  110.09    5.60
  -3  -5 -10  108.09    4.70
   3  -5  10  117.49    8.20
  -3   5 -11   26.00    1.90
  -3  -5 -11   25.60    1.70
  -3  -5 -11   24.40    1.60
   3   6 -12   10.30    1.50
  -3   6  12   16.70    2.70
   3   6 -12   15.70    1.80
   3  -6 -12   14.60    1.50
  -3  -6  12   16.10    2.10
  -3   6  11    5.00    2.20
   3   6 -11    7.80    1.50
   3   6 -11    8.00    1.80
  -3  -6  11    7.10    2.00
   3  -6 -11    6.60    1.20
   3   6 -10   25.80    2.70
  -3   6  10   26.40    3.30
   3   6 -10   24.30    2.80
  -3   6  10   27.10    3.20
  -3  -6  10   25.80    3.30
   3  -6 -10   24.90    2.50
   3   6  -9   79.99    4.40
   3   6  -9   76.09    4.60
  -3   6   9   78.29    5.50
   3  -6  -9   76.09    4.40
  -3  -6   9   78.39    3.80
  -3  -6   9   79.89    4.80
   3   6  -8  396.66   16.90
   3   6  -8  406.96   15.90
  -3   6   8  398.06   16.10
   3   6  -8  398.76   16.20
  -3  -6   8  394.36   16.20
  -3  -6   8  401.56   15.40
  -3   6   7  128.49    6.30
   3   6  -7  130.09    6.80
   3   6  -7  129.29    7.20
   3   6  -7  122.69    8.30
  -3  -6   7  128.59    5.60
  -3  -6   7  126.39    6.40
   3   6  -6   42.40    5.30
   3   6  -6   43.30    4.60
  -3   6   6   43.60    3.60
  -3  -6   6   45.80    3.70
   3   6  -5    8.80    2.60
   3   6  -5   12.20    2.70
   3   6  -5   16.10    3.70
  -3  -6   5   13.80    2.20
   3  -6  -5   12.40    2.70
   3   6  -4  200.08    9.90
   3   6  -4  193.98    9.30
   3   6  -4  200.28    9.30
   3  -6  -4  190.28    9.70
  -3  -6   4  176.78    8.60
   3  -6  -4  205.78    9.10
  -3  -6   4  197.88    9.20
   3   6  -3  484.55   19.70
   3   6  -3  452.85   18.60
   3   6  -3  459.15   19.00
  -3  -6   3  433.86   18.40
   3   6  -2  174.18    8.00
   3  -6  -2  174.88    8.40
   3   6  -1   77.99    4.30
  -3   6   1   74.59    3.90
   3   6  -1   67.59    4.70
  -3  -6   1   68.29    4.40
   3  -6  -1   80.39    4.80
   3   6   0    4.30    1.90
  -3   6   0    2.40    0.80
  -3   6   0    0.40    1.30
   3   6   0    1.60    1.20
  -3  -6   0    5.20    2.10
   3  -6   0    3.70    1.80
   3   6   1  244.88   10.30
   3   6   1  217.78    9.60
  -3   6  -1  243.68   10.10
  -3   6  -1  237.88    9.50
  -3  -6  -1  233.18   10.40
   3  -6   1  256.67   10.40
   3   6   2  953.60   36.30
   3   6   2  956.90   35.90
  -3   6  -2  938.11   36.50
  -3   6  -2  969.30   36.10
  -3  -6  -2  911.21   36.80
   3  -6   2  980.00   36.60
   3  -6   2  949.60   36.20
  -3   6  -3  184.48    8.10
  -3   6  -3  178.18    8.40
  -3   6  -3  184.58    9.00
   3   6   3  172.08    7.80
   3  -6   3  175.48    8.50
   3  -6   3  179.48    8.10
  -3  -6  -3  182.38    8.80
  -3  -6  -3  196.38    9.10
  -3   6  -4 1089.29   40.40
   3   6   4 1070.19   39.70
  -3   6  -4 1014.90   40.50
  -3   6  -4 1012.60   40.20
   3  -6   4 1082.99   39.90
   3  -6   4 1021.30   40.30
  -3  -6  -4 1009.90   40.80
  -3  -6  -4 1078.39   40.40
   3   6   5  139.09    6.40
  -3   6  -5  142.39    7.50
  -3   6  -5  131.49    6.60
  -3   6  -5  135.89    8.40
  -3  -6  -5  138.89    6.00
   3  -6   5  132.19    5.80
   3  -6   5  139.69   10.20
  -3  -6  -5  130.39    5.90
   3   6   6  428.46   16.80
  -3   6  -6  424.36   18.00
  -3   6  -6  408.96   17.40
   3   6   6  420.46   16.70
  -3   6  -6  416.36   16.60
   3  -6   6  412.76   17.00
  -3  -6  -6  434.46   16.30
   3  -6   6  429.46   16.20
  -3  -6  -6  408.96   16.20
  -3   6  -7   78.69    5.50
  -3   6  -7   69.89    6.90
   3   6   7   78.19    5.00
   3   6   7   79.79    4.90
   3  -6   7   73.09    5.00
   3  -6   7   79.09    3.90
  -3   6  -8  402.96   17.60
   3   6   8  400.36   16.30
  -3   6  -8  411.86   16.30
   3   6   8  406.26   17.00
  -3   6  -8  387.06   17.50
  -3  -6  -8  418.36   15.90
   3  -6   8  433.36   16.90
  -3  -6  -8  440.76   16.00
  -3   6  -9   80.19    4.20
   3   6   9   65.69    6.90
   3   6   9   90.29    4.90
  -3   6  -9   82.29    6.50
   3  -6   9   84.99    5.70
  -3  -6  -9   81.89    3.80
  -3  -6  -9   85.69    3.80
  -3   6 -10  361.06   14.10
   3   6  10  355.46   14.60
  -3  -6 -10  368.16   13.90
   3  -6  10  383.46   17.30
  -3  -6 -10  352.06   13.90
   3   6  11    9.80    1.90
  -3   6 -11   12.80    1.60
  -3  -6 -11   14.80    2.20
  -3  -6 -11   13.90    1.20
   3   7 -12   82.59    3.80
   3   7 -12   80.39    3.50
  -3  -7  12   75.99    4.40
  -3   7  11    7.30    2.40
   3   7 -11    2.70    1.20
   3   7 -11    2.50    1.20
  -3  -7  11    3.30    1.80
   3   7 -10   12.70    1.80
   3   7 -10   11.10    1.60
  -3  -7  10    9.80    2.00
   3  -7 -10   12.20    2.00
  -3   7   9   83.29    5.70
   3   7  -9   95.79    4.60
   3   7  -9   84.99    4.80
  -3  -7   9   90.89    5.10
  -3  -7   9   88.79    4.00
  -3   7   8   34.30    4.50
   3   7  -8   38.20    5.00
   3   7  -8   33.60    3.60
   3   7  -8   39.50    3.10
  -3  -7   8   32.00    3.50
  -3  -7   8   30.70    2.20
   3   7  -7   25.90    3.80
   3   7  -7   19.20    4.20
  -3   7   7   28.60    4.10
   3   7  -7   18.30    3.10
  -3  -7   7   24.50    2.70
  -3  -7   7   22.90    2.00
  -3  -7   7   19.40    2.90
   3   7  -6  500.65   19.90
   3   7  -6  471.65   20.50
   3   7  -6  480.95   19.30
  -3  -7   6  486.65   18.40
  -3  -7   6  488.55   19.20
  -3  -7   6  459.55   18.50
   3   7  -5   28.80    3.40
   3   7  -5   23.60    3.50
  -3  -7   5   23.40    2.20
   3  -7  -5   26.00    6.40
  -3  -7   5   22.20    3.00
   3   7  -4  441.56   20.80
   3   7  -4  469.15   20.40
   3   7  -4  509.75   19.40
  -3  -7   4  457.75   18.60
   3   7  -3   37.30    4.80
   3   7  -3   38.30    5.50
   3   7  -3   39.90    4.10
   3  -7  -3   37.00    5.30
  -3  -7   3   39.80    3.70
  -3  -7   3   38.90    4.10
   3   7  -2  439.66   17.70
   3   7  -2  426.56   18.00
   3   7  -2  433.66   17.70
   3  -7  -2  426.26   18.20
  -3  -7   2  423.86   17.50
   3   7  -1  442.46   18.50
  -3   7   1  467.15   17.60
   3   7  -1  461.95   18.20
   3   7  -1  422.56   18.10
   3  -7  -1  411.06   18.60
   3  -7  -1  466.85   18.80
  -3  -7   1  467.65   18.30
  -3   7   0   86.29    4.70
   3   7   0   82.29    4.70
   3   7   0   80.39    5.80
   3  -7   0   84.49    5.60
   3  -7   0   89.69    6.20
  -3  -7   0   80.79    5.40
  -3  -7   0   82.09    5.40
   3   7   1   91.29    4.90
  -3   7  -1   95.89    5.30
   3  -7   1  100.99    6.80
  -3  -7  -1   92.69    6.00
  -3  -7  -1  104.09    6.00
   3  -7   1  105.49    5.60
   3   7   2   16.80    2.50
  -3   7  -2   16.60    3.50
  -3   7  -2   19.60    2.80
  -3   7  -2   13.90    2.30
  -3  -7  -2   14.50    2.90
   3  -7   2   19.20    2.40
  -3  -7  -2   17.10    2.70
  -3   7  -3  275.87   12.10
  -3   7  -3  266.07   11.80
  -3   7  -3  267.07   11.50
  -3  -7  -3  266.57   11.90
  -3  -7  -3  256.57   13.10
   3  -7   3  267.67   11.30
   3   7   4  131.39    6.20
  -3   7  -4  127.49    7.10
  -3   7  -4  118.49    6.90
  -3  -7  -4  128.99    7.70
   3  -7   4  126.59    5.40
  -3  -7  -4  127.99    5.50
  -3  -7  -4  121.39    5.50
   3  -7   4  120.39    5.70
   3  -7   4  130.89    6.40
  -3   7  -5   -0.20    1.90
   3   7   5    3.20    2.20
  -3   7  -5    1.90    2.50
  -3   7  -5    2.30    2.20
  -3  -7  -5    2.50    1.20
   3  -7   5    1.60    1.00
   3  -7   5    2.80    1.90
  -3  -7  -5    1.70    1.10
   3   7   6 2066.59   77.39
  -3   7  -6 2089.69   78.29
  -3   7  -6 2076.99   77.69
   3   7   6 1927.01   77.79
  -3   7  -6 2122.59   78.89
  -3  -7  -6 2075.79   77.49
  -3  -7  -6 2056.39   77.19
   3  -7   6 2063.39   77.89
   3  -7   6 2134.69   77.09
   3   7   7  271.47   11.50
  -3   7  -7  275.87   11.00
  -3   7  -7  265.57   12.00
  -3   7  -7  219.78   15.20
   3  -7   7  272.37   10.60
   3  -7   7  272.87   11.60
  -3  -7  -7  287.87   10.70
  -3  -7  -7  270.97   10.60
  -3   7  -8  323.47   12.50
  -3   7  -8  306.27   13.70
   3   7   8  311.07   12.90
   3   7   8  293.07   13.60
  -3   7  -8  297.27   13.30
   3  -7   8  319.37   13.20
  -3  -7  -8  326.97   12.30
   3  -7   8  315.47   12.40
  -3  -7  -8  320.17   12.20
   3   7   9   29.30    4.20
  -3   7  -9   30.30    2.60
  -3   7  -9   34.50    5.30
  -3  -7  -9   32.30    2.10
   3  -7   9   33.50    4.10
  -3  -7  -9   33.90    2.30
   3   7  10   61.99    4.20
  -3   7 -10   61.09    3.10
  -3  -7 -10   62.59    2.90
   3  -7  10   54.69    5.10
   3   8 -11    1.40    1.10
   3   8 -11    1.20    1.20
  -3  -8  11   -1.70    1.60
   3   8 -10  106.49    4.80
   3   8 -10  101.19    4.90
  -3  -8  10  101.89    4.30
  -3  -8  10  107.29    5.20
   3   8  -9   13.10    1.60
   3   8  -9    8.80    1.90
  -3  -8   9   11.90    1.40
  -3  -8   9   13.50    2.10
   3   8  -8    7.40    1.60
   3   8  -8    5.80    1.90
   3   8  -8    8.90    3.00
  -3  -8   8    6.20    0.90
  -3  -8   8    5.50    1.90
   3   8  -7  331.17   13.90
   3   8  -7  334.87   16.00
   3   8  -7  342.77   14.60
  -3  -8   7  331.17   13.00
  -3  -8   7  336.77   13.80
  -3  -8   7  339.07   13.10
   3   8  -6  153.28    9.40
   3   8  -6  158.98    8.30
   3   8  -6  158.38    7.70
  -3  -8   6  153.08    6.60
  -3  -8   6  153.28    7.30
  -3  -8   6  157.08    6.40
   3   8  -5  162.58    8.10
   3   8  -5  154.38    9.10
   3   8  -5  168.28    8.50
  -3  -8   5  171.68    6.90
  -3  -8   5  164.88    7.60
  -3  -8   5  159.68    6.70
   3   8  -4   66.09    5.30
   3   8  -4   68.09    5.50
  -3  -8   4   60.79    3.20
   3  -8  -4   54.29    3.70
  -3  -8   4   59.59    4.30
  -3  -8   4   61.69    3.30
   3   8  -3    1.40    3.00
   3   8  -3   -1.00    2.40
   3  -8  -3    0.10    1.40
  -3  -8   3    0.60    1.00
  -3  -8   3    0.80    2.20
  -3  -8   3    3.30    2.20
  -3  -8   3   -1.40    1.30
   3   8  -2    1.90    2.30
  -3   8   2    4.10    2.20
   3   8  -2    7.30    4.20
   3   8  -2    4.20    2.70
  -3  -8   2    1.30    2.20
   3  -8  -2    2.30    1.40
  -3  -8   2    1.60    1.30
  -3   8   1   58.99    4.40
   3   8  -1   61.39    4.80
   3   8  -1   58.29    5.50
  -3  -8   1   64.59    4.80
   3  -8  -1   61.19    6.30
   3   8   0    4.80    2.90
  -3   8   0    4.20    3.50
   3   8   0    5.00    2.10
   3  -8   0    6.90    1.40
   3  -8   0    7.70    2.80
  -3  -8   0    0.90    2.00
   3   8   1  404.16   17.10
  -3   8  -1  433.86   17.30
   3  -8   1  424.56   16.30
   3  -8   1  426.86   16.20
  -3  -8  -1  396.86   16.30
   3  -8   1  432.56   17.30
  -3  -8  -1  435.06   17.50
   3   8   2   20.70    3.10
  -3   8  -2   21.60    3.50
  -3  -8  -2   18.80    2.30
   3  -8   2   20.40    1.90
  -3  -8  -2   18.20    3.50
   3  -8   2   20.40    2.20
   3  -8   2   16.20    2.60
  -3   8  -3    1.70    2.60
  -3   8  -3    2.30    2.20
   3   8   3    1.90    1.70
   3  -8   3    4.30    2.00
  -3  -8  -3    3.80    2.70
   3  -8   3   -0.30    1.30
   3  -8   3    0.80    0.90
  -3  -8  -3    3.10    1.20
   3   8   4   35.60    3.60
  -3   8  -4   33.60    4.40
  -3   8  -4   37.50    4.40
   3  -8   4   37.10    3.70
   3  -8   4   34.00    2.20
  -3  -8  -4   35.90    4.10
  -3  -8  -4   35.10    2.60
   3  -8   4   32.00    2.70
  -3   8  -5  544.05   22.70
  -3   8  -5  555.94   22.30
   3   8   5  535.75   21.50
  -3   8  -5  583.34   21.80
  -3  -8  -5  517.45   21.00
   3  -8   5  552.14   21.60
   3  -8   5  556.24   21.90
  -3   8  -6  213.18    8.80
   3   8   6  211.08   10.10
  -3   8  -6  197.28   11.00
   3   8   6  195.48   10.50
  -3   8  -6  204.68    9.80
   3  -8   6  213.98    8.30
   3  -8   6  206.88    9.40
  -3  -8  -6  212.08    8.40
   3   8   7  251.47   11.00
  -3   8  -7  258.17   10.20
  -3   8  -7  246.68   11.20
  -3   8  -7  244.48   12.50
   3   8   7  244.28   11.10
   3  -8   7  254.17   11.00
  -3  -8  -7  242.88    9.90
   3  -8   7  252.17    9.80
  -3   8  -8    1.50    2.80
  -3   8  -8    1.50    2.40
   3   8   8    1.30    2.50
   3  -8   8    0.70    0.90
   3  -8   8    2.00    2.30
  -3  -8  -8    0.40    1.00
   3   8   9  297.17   12.20
  -3   8  -9  293.57   12.70
  -3   8  -9  310.07   11.80
  -3  -8  -9  300.97   11.60
   3   8  10    9.70    1.80
  -3  -8 -10   11.50    1.60
   3   9 -10   31.40    2.10
   3   9 -10   30.70    2.50
  -3  -9  10   26.20    2.80
  -3  -9  10   25.00    1.70
   3   9  -9    2.60    1.50
   3   9  -9   -0.40    1.00
  -3  -9   9    2.30    1.70
   3   9  -8    0.10    1.20
   3   9  -8    3.00    2.50
   3   9  -8    2.40    2.80
  -3  -9   8    1.70    1.20
  -3  -9   8    2.00    1.70
  -3  -9   8    0.30    0.70
   3   9  -7   16.40    4.60
   3   9  -7   19.20    3.10
   3   9  -7   17.80    3.10
  -3  -9   7   15.40    1.80
  -3  -9   7   13.50    1.40
  -3  -9   7   16.30    2.30
   3   9  -6   27.00    4.40
   3   9  -6   31.90    3.80
   3   9  -6   41.60    6.40
  -3  -9   6   36.50    2.10
  -3  -9   6   36.70    2.40
  -3  -9   6   36.80    3.50
   3   9  -5   13.00    3.60
   3   9  -5   12.40    2.60
   3   9  -5   10.70    2.70
  -3  -9   5   10.20    1.20
  -3  -9   5   14.90    2.30
  -3  -9   5   11.70    1.40
   3   9  -4   87.99    5.70
   3   9  -4   85.79    5.90
   3   9  -4   81.69    6.70
   3  -9  -4   81.69    4.20
  -3  -9   4   84.29    4.00
  -3  -9   4   84.09    3.90
  -3  -9   4   90.89    5.20
   3   9  -3  504.35   20.30
   3   9  -3  483.85   20.80
  -3  -9   3  487.45   18.80
   3  -9  -3  487.05   18.80
  -3  -9   3  495.05   18.80
   3   9  -2  463.05   19.80
   3   9  -2  492.05   19.50
  -3   9   2  455.05   18.70
  -3  -9   2  467.75   17.90
  -3  -9   2  480.05   19.20
  -3  -9   2  458.15   18.00
   3  -9  -2  467.45   18.00
   3   9  -1   18.70    3.10
   3   9  -1   17.60    3.20
  -3   9   1   18.30    2.80
  -3  -9   1   13.90    2.60
  -3  -9   1   19.00    2.00
  -3  -9   1   17.90    2.00
   3  -9  -1   25.90    2.10
   3  -9  -1   18.70    2.10
   3   9   0    1.50    2.40
  -3   9   0    1.70    2.30
   3   9   0    2.60    2.90
   3  -9   0    0.90    1.10
  -3  -9   0    0.20    2.20
   3  -9   0    5.10    3.20
  -3  -9   0    0.40    1.20
   3  -9   0    1.10    1.00
   3   9   1  130.19    7.30
  -3   9  -1  127.99    7.10
  -3   9  -1  130.19    9.80
  -3  -9  -1  132.39    5.80
   3  -9   1  138.09    7.50
   3  -9   1  135.19    5.60
   3  -9   1  134.29    5.70
  -3  -9  -1  137.29    7.40
   3   9   2  460.05   19.90
  -3   9  -2  467.75   20.10
  -3   9  -2  503.55   20.30
   3  -9   2  505.45   18.80
  -3  -9  -2  504.05   20.20
   3  -9   2  506.95   20.00
   3  -9   2  495.15   18.80
  -3   9  -3   69.89    5.40
   3   9   3   66.29    5.20
  -3   9  -3   66.69    5.50
  -3  -9  -3   70.99    5.70
   3  -9   3   68.89    5.00
  -3   9  -4  117.49    7.30
  -3   9  -4  130.29    7.00
   3   9   4  112.79    6.80
  -3   9  -4  120.09    5.90
  -3  -9  -4  120.69    5.40
   3  -9   4  122.19    5.30
   3  -9   4  120.09    6.60
  -3  -9  -4  117.89    7.70
  -3   9  -5  103.99    5.20
  -3   9  -5  112.99    7.20
  -3   9  -5  103.29    6.80
   3   9   5   98.69    6.40
   3  -9   5  110.29    6.90
   3  -9   5  117.09    4.90
   3  -9   5  108.99    4.60
  -3  -9  -5  110.49    4.90
   3   9   6   19.20    3.10
  -3   9  -6   24.80    4.00
   3   9   6   19.20    3.60
  -3   9  -6   22.80    3.70
  -3   9  -6   23.60    2.50
   3  -9   6   24.30    1.70
   3  -9   6   22.10    3.50
  -3  -9  -6   19.80    2.10
   3   9   7    3.50    2.40
  -3   9  -7    1.60    1.30
  -3   9  -7   -0.10    2.10
  -3  -9  -7    1.60    1.10
   3  -9   7    0.10    0.80
   3  -9   7    3.80    2.20
  -3   9  -8  193.08    8.90
  -3   9  -8  199.98    9.30
  -3   9  -8  207.28    8.10
   3   9   8  190.78    8.60
   3  -9   8  208.48    9.10
  -3  -9  -8  196.48    7.90
  -3   9  -9   24.50    3.00
   3  -9   9   26.70    3.70
   3  10  -9   65.19    3.10
  -3 -10   9   62.69    3.80
  -3 -10   9   56.89    2.60
   3  10  -8   21.50    1.90
  -3 -10   8   16.60    2.20
  -3 -10   8   17.60    1.70
  -3 -10   8   16.30    1.20
   3  10  -7   -0.10    2.30
   3  10  -7   -0.20    1.80
  -3 -10   7    1.80    0.60
  -3 -10   7   -0.40    1.80
  -3 -10   7    2.60    0.90
   3  10  -6  396.96   18.30
   3  10  -6  408.46   17.10
   3  10  -6  405.56   16.30
  -3 -10   6  406.26   15.60
  -3 -10   6  415.96   16.40
  -3 -10   6  418.96   15.70
   3  10  -5    3.90    3.50
   3  10  -5    0.70    2.40
   3  10  -5    5.80    2.20
  -3 -10   5    1.50    0.70
  -3 -10   5    2.60    2.10
  -3 -10   5    1.70    0.90
   3  10  -4   74.89    5.60
   3  10  -4   70.09    5.00
   3  10  -4   74.39    6.70
   3 -10  -4   72.49    3.70
  -3 -10   4   69.19    3.50
  -3 -10   4   74.09    3.30
   3  10  -3  339.47   14.30
   3  10  -3  309.37   15.00
   3 -10  -3  327.57   12.70
  -3 -10   3  320.67   12.60
  -3 -10   3  325.47   12.70
   3  10  -2  407.46   17.10
   3  10  -2  400.56   17.70
  -3 -10   2  398.06   15.40
   3 -10  -2  400.06   15.50
  -3 -10   2  405.96   15.50
  -3  10   1   72.69    5.40
   3  10  -1   65.49    6.10
   3  10  -1   59.99    5.70
  -3 -10   1   59.09    3.20
  -3 -10   1   69.59    3.40
   3 -10  -1   69.69    3.30
   3 -10  -1   65.79    3.40
   3  10   0   61.49    6.00
   3  10   0   66.69    5.70
  -3  10   0   70.59    5.30
  -3 -10   0   59.19    4.90
   3 -10   0   61.59    6.80
   3 -10   0   62.89    3.20
   3 -10   0   63.69    3.10
  -3 -10   0   60.89    3.30
   3  10   1   15.90    3.50
   3  10   1   18.00    3.50
  -3  10  -1   23.90    3.90
  -3  10  -1   17.60    3.10
   3 -10   1   20.00    1.70
  -3 -10  -1   18.90    2.90
   3 -10   1   16.80    3.50
  -3 -10  -1   15.70    2.10
   3 -10   1   15.70    1.90
  -3  10  -2  360.16   15.30
   3 -10   2  377.26   15.30
   3 -10   2  361.96   13.70
  -3 -10  -2  363.76   15.20
  -3 -10  -2  316.87   13.70
   3 -10   2  351.06   13.70
  -3  10  -3   53.39    3.90
   3  10   3   48.00    5.70
  -3  10  -3   41.80    5.00
  -3  10  -3   48.40    6.60
   3 -10   3   54.79    8.20
  -3 -10  -3   41.50    5.00
   3 -10   3   51.29    2.70
   3 -10   3   50.49    2.50
  -3  10  -4    1.10    1.70
  -3  10  -4    5.10    2.80
  -3  10  -4    2.60    2.30
   3  10   4    1.80    3.30
   3 -10   4    1.30    1.00
   3 -10   4    2.40    0.80
   3 -10   4   -0.80    2.30
   3  10   5    2.30    3.60
  -3  10  -5    5.00    2.20
  -3  10  -5   -0.60    3.20
   3 -10   5    4.70    2.30
   3 -10   5    1.60    1.30
   3 -10   5    0.20    0.70
  -3  10  -6   97.99    5.50
  -3  10  -6   87.89    4.40
   3 -10   6   89.49    3.90
   3 -10   6   87.99    5.50
  -3  10  -7    2.80    1.20
  -3  10  -7    3.60    2.10
   3 -10   7    3.90    3.00
   3 -10   7    3.40    0.70
  -3  10  -8    4.90    2.60
   3 -10   8    8.00    2.20
   3  11  -8    1.30    0.80
  -3 -11   8    0.60    0.50
  -3 -11   8   -1.50    2.20
   3  11  -7   61.69    4.70
   3  11  -7   65.89    3.20
  -3 -11   7   61.59    2.90
  -3 -11   7   62.09    2.70
  -3 -11   7   68.49    4.50
   3  11  -6   25.80    3.60
  -3 -11   6   18.60    1.30
  -3 -11   6   24.00    1.60
  -3 -11   6   24.40    5.10
   3  11  -5    6.80    2.30
   3  11  -4    2.30    3.70
   3  11  -4    7.70    2.50
  -3 -11   4    7.50    1.10
  -3 -11   4    6.00    0.80
   3  11  -3   10.80    3.80
   3  11  -3   18.70    2.90
  -3 -11   3   14.20    1.60
   3 -11  -3   12.80    1.40
  -3 -11   3   15.00    1.40
   3  11  -2    2.00    3.50
   3  11  -2    3.80    2.70
  -3 -11   2    2.90    0.90
  -3 -11   2    0.60    0.90
   3 -11  -2   -0.60    0.90
  -3  11   1   91.79    6.30
   3  11  -1   96.89    6.50
   3  11  -1   85.29    7.20
  -3 -11   1   93.99    4.10
   3 -11  -1   94.19    4.20
   3 -11  -1   95.29    4.20
  -3 -11   1   94.09    4.20
  -3  11   0   49.10    5.10
   3  11   0   43.70    6.20
   3  11   0   60.89    5.50
   3 -11   0   54.69    2.80
   3 -11   0   53.69    2.70
  -3 -11   0   52.79    2.80
   3  11   1  337.67   15.50
   3  11   1  346.97   14.90
  -3  11  -1  368.36   15.00
  -3  11  -1  331.97   14.70
   3 -11   1  351.16   15.00
  -3 -11  -1  335.07   13.40
   3 -11   1  355.86   13.30
   3 -11   1  348.37   13.40
   3  11   2   -2.70    3.80
  -3  11  -2   -0.40    2.90
   3  11   2    6.70    3.60
  -3  11  -2    1.20    2.60
  -3 -11  -2    7.80    1.80
   3 -11   2    1.60    3.00
   3 -11   2    4.60    1.00
  -3  11  -3    1.40    3.00
  -3  11  -3    3.30    2.40
   3 -11   3   -0.80    0.90
   3 -11   3    3.00    2.70
   3 -11   3    0.90    0.70
  -3  11  -4   48.40    4.10
   3 -11   4   43.20    2.40
   3 -11   4   43.00    4.60
   3 -11   4   41.20    2.20
  -3  11  -5  218.88    9.70
  -3  11  -5  230.98    8.80
   3 -11   5  206.28    8.50
   3 -11   5  213.38    8.50
   3 -11   5  223.78    9.80
  -3  11  -6   57.89    3.00
  -3  11  -6   49.20    4.00
   3 -11   6   51.99    4.20
   3 -11   6   50.99    2.40
   3  12  -6   20.00    1.70
   3  12  -6   17.90    2.40
  -3 -12   6   20.90    1.40
  -3 -12   6   21.60    1.20
   3  12  -5    3.20    2.10
  -3 -12   5    1.50    0.60
  -3 -12   5    2.10    0.70
   3  12  -4    9.70    2.30
   3 -12  -4   11.20    1.30
  -3 -12   4    9.60    1.10
  -3 -12   4    8.10    1.00
   3  12  -3   18.20    2.80
  -3 -12   3   19.00    1.40
   3 -12  -3   16.70    1.70
  -3 -12   3   19.50    1.30
   3  12  -2  348.97   14.60
  -3 -12   2  339.47   13.20
  -3 -12   2  344.77   13.30
   3 -12  -2  352.76   13.30
   3  12  -1  107.99    6.60
  -3 -12   1  113.29    4.70
   3 -12  -1  110.39    4.70
   3  12   0  231.88   10.70
  -3 -12   0  231.68    9.10
   3 -12   0  233.68    9.10
  -3  12  -1   33.30    4.40
  -3 -12  -1   35.30    2.10
   3 -12   1   33.70    1.90
   3 -12   1   35.90    2.00
   3  12   2  203.08   13.00
  -3  12  -2  219.48   11.40
   3 -12   2  208.68    8.30
   3 -12   2  218.08    8.30
  -3  12  -3  143.89    6.90
   3 -12   3  138.59    5.50
   3 -12   3  136.99    5.50
   3 -12   3  129.29    7.50
  -3  12  -4    2.30    1.90
   3 -12   4    1.40    0.80
   3 -12   4    1.20    0.60
   3 -12   4    0.80    2.70
  -3  12  -5   20.40    3.10
   3 -12   5   16.30    1.40
   3  13  -3  155.78    7.30
   3 -13  -3  152.88    6.10
  -3 -13   3  159.38    6.10
  -3 -13   3  155.28    6.00
   3  13  -2    0.20    2.10
  -3 -13   2   -0.10    0.60
   3 -13  -2    0.00    0.80
   3  13  -1    6.50    2.40
   3 -13  -1    1.10    0.70
  -3 -13   1    1.30    0.70
   3  13   0  143.99    7.60
   3 -13   0  162.48    6.10
   3 -13   1   19.30    1.40
   3 -13   2   -0.10    0.60
   4   0 -14  553.14   20.60
  -4   0  14  539.75   20.80
   4   0 -13    0.70    1.00
  -4   0  13    0.50    1.70
  -4   0  12  132.89    8.10
  -4   0  12  119.19    6.10
   4   0 -12  127.39    5.70
  -4   0  11   -1.40    3.10
   4   0 -11    0.30    1.50
  -4   0  11   -2.80    1.80
   4   0 -10  731.33   27.80
  -4   0  10  726.83   28.60
  -4   0  10  700.83   27.90
  -4   0   9    0.70    2.10
  -4   0   9   -2.00    3.30
   4   0  -9    0.10    2.20
  -4   0   9    5.10    2.60
  -4   0   8   19.70    3.50
  -4   0   8    8.70    2.10
  -4   0   8   10.40    2.20
  -4   0   7    0.20    1.50
   4   0  -7    0.90    3.20
  -4   0   6 4442.56  171.58
   4   0  -6 4781.32  172.28
   4   0  -5   -0.50    1.60
  -4   0   5   -0.80    1.00
   4   0  -4  502.85   19.40
  -4   0   4  486.55   19.00
  -4   0   3    0.10    0.80
  -4   0   3    0.90    0.80
   4   0  -3    2.70    0.80
   4   0  -2 1738.93   60.59
  -4   0   2 1505.85   60.39
   4   0  -1   -0.60    0.50
  -4   0   1    0.40    0.50
  -4   0   0 3163.98  116.19
   4   0   0 3082.09  116.09
  -4   0  -1    2.90    0.70
  -4   0  -2  100.29    4.90
  -4   0  -2  108.29    4.40
   4   0   2   98.89    4.40
  -4   0  -3   -1.20    0.70
   4   0   3    0.40    1.00
  -4   0  -3   -1.20    1.40
  -4   0  -4    0.30    1.00
   4   0   4    0.40    1.20
   4   0   5   -0.60    1.40
  -4   0  -5   -1.10    1.40
   4   0   6  161.88    7.20
  -4   0  -6  163.88    8.50
  -4   0  -6  162.28    7.90
  -4   0  -6  159.88    8.50
   4   0   6  168.48    7.40
   4   0   7    0.20    1.80
  -4   0  -7    0.60    1.90
   4   0   7   -2.40    3.30
  -4   0  -8   43.50    3.30
   4   0   8   41.30    4.80
  -4   0  -8   46.40    3.30
   4   0   8   41.50    3.60
  -4   0  -9    2.10    1.30
   4   0   9    0.40    2.10
  -4   0  -9    1.10    1.40
   4   0   9   -0.20    3.90
  -4   0 -10 1004.70   38.50
   4   0  10 1027.50   39.00
  -4   0 -10 1037.70   38.50
  -4   0 -11    1.30    0.90
   4   0  11    7.90    3.40
  -4   0 -11    1.70    1.20
  -4   0 -12   29.10    2.00
  -4   0 -12   28.90    1.70
  -4   1  14   39.80    3.20
   4   1 -14   45.00    2.30
   4  -1 -14   48.90    2.40
  -4   1  13  132.49    6.20
   4   1 -13  142.69    5.90
  -4  -1  13  139.49    6.30
   4  -1 -13  134.99    5.80
  -4   1  12   50.39    5.70
  -4   1  12   40.40    3.40
   4   1 -12   43.40    3.10
  -4  -1  12   43.60    5.40
   4  -1 -12   46.80    2.90
  -4  -1  12   47.50    3.50
  -4   1  11   19.20    3.40
   4   1 -11   15.40    2.10
  -4   1  11   18.70    2.40
  -4  -1  11   17.90    4.10
  -4  -1  11   15.80    2.30
   4  -1 -11   16.50    2.60
  -4  -1  11   21.40    3.50
  -4   1  10    7.70    2.10
   4   1 -10   13.00    2.20
  -4   1  10    7.00    2.60
  -4  -1  10   14.10    3.20
   4  -1 -10   11.10    2.00
  -4  -1  10   11.80    2.20
  -4  -1  10    9.70    3.20
   4   1  -9   21.60    3.70
  -4   1   9   21.60    3.70
  -4  -1   9   28.30    3.40
  -4  -1   9   29.40    4.80
  -4  -1   9   31.00    4.30
   4  -1  -9   23.50    3.80
  -4   1   8  383.76   16.00
  -4   1   8  380.76   16.80
  -4   1   8  392.76   15.80
  -4  -1   8  384.86   16.20
  -4  -1   8  402.06   16.20
  -4  -1   8  392.76   15.70
  -4   1   7  241.28   10.40
   4   1  -7  262.87   12.00
  -4  -1   7  236.38   10.60
  -4   1   6    1.90    1.20
   4   1  -6    3.50    2.20
  -4  -1   6   -0.70    1.40
   4  -1  -6   -1.20    2.40
   4   1  -5  217.08    9.50
  -4   1   5  195.08    8.60
  -4  -1   5  204.18    8.90
   4  -1  -5  211.08    9.20
   4  -1  -5  225.98    8.10
   4   1  -4   23.60    2.50
  -4   1   4   23.00    1.80
   4  -1  -4   22.80    2.40
  -4  -1   4   24.60    2.20
   4  -1  -4   22.50    2.20
  -4   1   3 1364.16   54.19
  -4   1   3 1433.26   54.49
   4   1  -3 1462.15   54.49
   4   1  -3 1467.55   55.59
   4  -1  -3 1500.85   54.69
  -4  -1   3 1475.05   54.69
  -4  -1   3 1486.95   54.49
   4   1  -2  289.17   10.60
  -4   1   2  283.77   10.30
  -4   1   2  240.08   10.40
  -4  -1   2  267.97   10.30
  -4  -1   2  282.77   10.40
  -4  -1   2  264.07   11.10
   4   1  -1  968.90   37.00
  -4   1   1  950.40   37.00
   4  -1  -1  952.40   37.20
  -4  -1   1 1076.59   37.30
  -4  -1   1  992.00   37.00
  -4   1   0   94.89    3.80
   4   1   0   93.29    3.70
  -4   1   0   84.99    3.90
  -4  -1   0   88.89    3.80
  -4  -1   0   90.19    3.90
   4   1   1  406.86   16.80
  -4   1  -1  442.26   16.90
  -4   1  -1  439.66   16.70
  -4  -1  -1  437.06   16.90
  -4  -1  -1  473.55   16.80
  -4   1  -2  150.68    6.40
   4   1   2  147.19    6.10
  -4   1  -2  159.48    6.20
  -4  -1  -2  144.79    6.10
  -4  -1  -2  147.09    6.40
   4   1   3  968.30   36.40
  -4   1  -3  962.70   36.60
  -4   1  -3  982.80   36.80
  -4  -1  -3  967.60   36.90
   4  -1   3 1004.10   36.50
  -4  -1  -3  931.01   36.50
   4   1   4  251.17    9.90
  -4   1  -4  243.58   10.40
  -4   1  -4  250.77   10.20
  -4  -1  -4  249.68   10.10
  -4  -1  -4  236.68   10.50
   4  -1   4  251.57   10.10
  -4   1  -5    7.70    1.70
   4   1   5    9.80    3.00
   4   1   5    7.60    1.40
  -4  -1  -5    6.20    1.60
   4  -1   5    6.90    1.80
  -4  -1  -5    6.60    1.90
   4   1   6   16.20    2.00
   4   1   6   16.20    2.10
  -4   1  -6   12.80    2.40
  -4   1  -6   14.70    3.20
  -4  -1  -6   12.20    2.60
   4  -1   6   15.00    2.40
   4  -1   6   15.40    2.20
  -4   1  -7   91.79    7.00
   4   1   7  101.29    5.60
  -4   1  -7   86.89    6.80
   4   1   7  107.29    6.30
  -4  -1  -7  101.39    5.40
   4  -1   7  102.19    5.30
   4  -1   7  102.99    6.10
  -4  -1  -7  101.49    5.10
  -4   1  -8   83.49    4.70
   4   1   8   85.69    5.50
  -4   1  -8   87.79    4.60
   4   1   8   83.59    4.70
  -4  -1  -8   86.39    4.50
   4  -1   8   87.59    5.10
  -4  -1  -8   85.49    4.40
  -4   1  -9  183.18    7.80
   4   1   9  182.48    8.10
  -4   1  -9  177.78    7.70
   4   1   9  182.98    9.20
  -4  -1  -9  180.88    7.60
  -4  -1  -9  180.48    7.70
   4  -1   9  180.38    8.50
  -4   1 -10   52.89    3.20
   4   1  10   55.59    4.30
   4   1  10   54.39    7.30
  -4   1 -10   54.99    3.10
  -4  -1 -10   56.09    3.00
   4  -1  10   54.79    5.90
  -4  -1 -10   52.49    3.20
  -4   1 -11   59.79    3.00
  -4   1 -11   55.99    3.10
   4   1  11   56.69    4.90
  -4  -1 -11   60.09    2.80
  -4  -1 -11   58.29    3.10
  -4   1 -12   18.90    1.70
  -4   1 -12   23.90    1.50
  -4  -1 -12   24.70    1.50
  -4  -1 -12   25.20    1.60
   4   2 -14    0.50    0.70
  -4   2  14    1.30    1.60
   4  -2 -14    0.10    1.10
   4   2 -13   79.29    3.70
  -4   2  13   73.69    4.10
   4  -2 -13   73.99    3.60
  -4   2  12  297.97   13.40
  -4   2  12  297.17   12.40
   4   2 -12  260.47   12.10
   4   2 -12  312.17   12.20
  -4  -2  12  323.77   14.80
  -4  -2  12  310.87   12.30
   4  -2 -12  316.87   12.00
  -4   2  11   10.80    2.20
   4   2 -11    4.70    2.30
   4   2 -11    8.00    1.80
  -4  -2  11    4.10    2.80
  -4  -2  11    9.50    2.30
   4  -2 -11    8.20    1.60
  -4   2  10   53.39    4.30
  -4   2  10   60.19    5.00
   4   2 -10   41.70    4.60
   4   2 -10   59.99    4.10
  -4  -2  10   59.29    6.60
  -4  -2  10   53.19    5.00
  -4  -2  10   54.59    4.20
   4  -2 -10   52.19    3.70
   4   2  -9  363.46   15.70
  -4   2   9  395.76   16.20
  -4   2   9  389.26   15.90
   4   2  -9  397.86   15.90
   4  -2  -9  388.86   15.60
  -4  -2   9  392.16   15.70
  -4  -2   9  390.36   16.60
  -4  -2   9  390.66   16.20
  -4   2   8   43.60    4.40
  -4   2   8   37.90    3.60
   4   2  -8   45.40    7.10
  -4  -2   8   34.20    4.30
  -4  -2   8   35.80    3.70
  -4  -2   8   44.30    4.40
  -4   2   7   92.89    4.90
   4   2  -7   89.59    8.50
  -4  -2   7   93.59    5.90
  -4  -2   7   84.29    5.30
  -4  -2   7  111.79    5.60
   4   2  -6    3.80    2.30
  -4   2   6    0.80    1.10
  -4  -2   6   -1.10    1.70
   4   2  -5  288.67   12.30
   4   2  -5  269.17   12.30
   4  -2  -5  297.17   10.90
  -4  -2   5  272.97   11.60
  -4   2   4  237.48    9.30
   4   2  -4  235.68   10.30
   4   2  -4  236.98   10.20
   4  -2  -4  258.17    9.20
   4  -2  -4  234.58    9.80
   4  -2  -4  223.88   10.00
  -4  -2   4  233.48    9.90
  -4   2   3    4.00    1.00
   4   2  -3    2.70    1.20
   4   2  -3    3.70    1.00
   4   2  -3    5.00    1.70
  -4   2   3    3.70    0.70
   4  -2  -3    2.30    0.90
  -4  -2   3    1.40    1.40
  -4  -2   3    3.20    0.90
   4  -2  -3    4.90    1.10
   4   2  -2 1450.85   53.29
   4   2  -2 1503.55   52.89
  -4   2   2 1356.76   52.79
  -4   2   2 1425.26   52.89
  -4   2   2 1273.57   52.99
  -4  -2   2 1391.96   52.79
  -4  -2   2 1465.25   53.29
   4  -2  -2 1473.25   53.29
  -4   2   1  347.37   13.30
  -4   2   1  305.97   13.20
   4  -2  -1  344.77   13.60
  -4  -2   1  369.16   13.60
  -4  -2   1  367.36   13.40
   4   2   0  535.05   19.50
  -4   2   0  490.15   19.40
  -4   2   0  531.05   19.50
  -4  -2   0  507.85   19.60
   4  -2   0  501.25   19.60
   4   2   1 1038.30   40.70
  -4   2  -1 1097.79   40.80
  -4   2  -1 1098.29   40.60
  -4  -2  -1 1048.20   40.80
   4  -2   1 1111.09   40.70
  -4  -2  -1 1107.79   40.70
  -4   2  -2 2163.38   80.39
   4   2   2 2159.38   80.19
  -4   2  -2 2184.78   80.59
  -4  -2  -2 2114.99   80.59
  -4   2  -3  306.07   12.00
   4   2   3  299.77   11.80
  -4   2  -3  294.77   12.20
  -4  -2  -3  305.17   11.90
  -4  -2  -3  303.37   12.30
  -4   2  -4 2026.00   76.19
  -4   2  -4 2075.79   76.29
   4   2   4 2059.19   75.79
  -4  -2  -4 2007.70   76.49
  -4  -2  -4 1986.90   75.99
  -4   2  -5  423.06   17.20
   4   2   5  414.46   16.50
   4   2   5  429.86   16.50
  -4   2  -5  431.36   17.00
  -4  -2  -5  414.26   17.40
  -4   2  -6  244.98   10.90
   4   2   6  253.17   10.10
  -4   2  -6  237.78   11.30
   4   2   6  252.47   10.20
  -4  -2  -6  232.98   11.40
  -4   2  -7   42.70    3.70
  -4   2  -7   44.40    5.50
   4   2   7   49.99    3.80
   4   2   7   46.80    3.50
   4  -2   7   49.10    4.80
  -4  -2  -7   40.70    3.30
  -4  -2  -7   37.30    3.10
   4   2   8   82.99    4.80
   4   2   8   94.89    5.50
  -4   2  -8   82.59    5.00
  -4   2  -8   86.99    4.70
  -4  -2  -8   91.79    4.40
   4  -2   8   88.29    6.60
  -4  -2  -8   87.59    4.50
  -4   2  -9  100.69    5.00
   4   2   9   99.79    6.40
  -4   2  -9   99.49    5.00
   4   2   9   97.49    5.30
  -4  -2  -9  100.29    4.60
  -4  -2  -9   99.79    4.80
   4   2  10  134.89    6.30
  -4   2 -10  128.19    5.60
  -4   2 -10  120.19    5.70
   4   2  10  123.19    8.50
  -4  -2 -10  122.59    5.60
  -4  -2 -10  130.19    5.40
  -4   2 -11  126.59    5.60
  -4   2 -11  134.69    5.50
   4   2  11  127.09    6.70
  -4  -2 -11  132.09    5.50
  -4  -2 -11  133.89    5.40
  -4   2 -12    5.80    0.90
   4   2  12    8.00    2.40
  -4  -2 -12    7.40    1.10
  -4  -2 -12    8.70    1.10
  -4   3  13   36.90    2.90
   4   3 -13   30.80    2.20
   4  -3 -13   25.30    2.10
  -4   3  12    2.30    3.00
  -4   3  12    7.70    1.90
   4   3 -12    3.10    1.40
  -4  -3  12    7.10    2.50
   4  -3 -12    5.80    1.40
   4   3 -11    3.30    1.60
  -4   3  11    4.90    2.80
   4   3 -11    2.80    2.10
  -4   3  11    3.10    2.50
  -4  -3  11    5.90    3.10
   4  -3 -11    5.60    1.50
   4   3 -10  436.16   17.80
   4   3 -10  420.76   19.30
  -4   3  10  464.95   18.40
  -4   3  10  447.36   17.90
  -4  -3  10  458.45   17.80
  -4  -3  10  453.55   18.10
   4  -3 -10  437.36   17.60
  -4   3   9  233.08   10.40
   4   3  -9  216.98   10.00
  -4   3   9  235.78   10.50
   4   3  -9  240.98   10.10
  -4  -3   9  233.08   10.20
  -4  -3   9  236.58   10.50
   4  -3  -9  229.08    9.80
  -4   3   8   35.00    5.00
  -4   3   8   34.40    5.60
   4   3  -8   55.19    8.10
  -4  -3   8   41.80    4.20
  -4  -3   8   38.10    3.90
  -4  -3   8   38.80    5.30
  -4   3   7  420.66   16.40
   4   3  -7  436.06   18.30
  -4  -3   7  387.76   16.30
  -4  -3   7  399.46   16.90
  -4  -3   7  404.36   16.70
   4   3  -6 1443.76   54.59
  -4   3   6 1418.96   52.99
   4   3  -6 1414.76   54.09
  -4  -3   6 1360.66   53.49
  -4   3   5   77.09    3.70
   4   3  -5   83.99    5.40
   4   3  -5   75.29    5.20
   4  -3  -5   87.29    3.90
   4  -3  -5   79.29    4.80
  -4  -3   5   71.19    4.80
   4   3  -4  444.16   17.20
  -4   3   4  381.26   15.90
  -4  -3   4  405.26   16.70
   4  -3  -4  416.26   16.90
   4  -3  -4  452.65   16.20
   4   3  -3   -0.30    1.30
  -4   3   3    0.40    0.70
   4   3  -3   -0.10    1.50
   4  -3  -3    0.00    1.00
   4   3  -2  100.29    4.80
  -4   3   2   90.29    3.90
  -4   3   2   97.59    4.00
  -4  -3   2   89.49    4.40
   4  -3  -2   99.99    4.60
  -4  -3   2   87.69    4.60
  -4   3   1  362.46   15.80
  -4   3   1  429.06   15.90
  -4  -3   1  428.56   16.40
  -4  -3   1  433.96   16.10
   4  -3  -1  436.56   16.30
  -4   3   0   58.29    2.90
  -4   3   0   51.29    2.50
   4   3   0   57.49    2.80
   4  -3   0   52.59    2.90
  -4  -3   0   52.09    2.80
  -4  -3   0   51.09    2.90
  -4   3  -1 1725.83   65.19
  -4   3  -1 1793.32   65.49
   4   3   1 1714.63   65.29
  -4  -3  -1 1700.93   65.49
   4  -3   1 1856.71   65.39
  -4  -3  -1 1699.13   65.39
  -4   3  -2  272.87   12.40
  -4   3  -2  319.97   12.00
   4  -3   2  321.07   12.10
  -4  -3  -2  289.37   12.20
  -4  -3  -2  306.67   11.90
  -4   3  -3 1025.40   38.60
  -4   3  -3 1014.10   38.70
   4   3   3 1018.20   38.20
  -4  -3  -3 1071.69   38.50
  -4  -3  -3  956.60   38.80
   4   3   4   15.30    1.90
  -4   3  -4   16.10    2.40
  -4   3  -4   19.10    2.60
  -4  -3  -4   18.00    2.70
  -4   3  -5    4.00    2.00
   4   3   5    4.60    1.30
   4   3   5    4.10    2.00
  -4   3  -5    2.20    1.60
  -4   3  -5   -1.80    2.30
   4  -3   5    4.90    2.60
  -4  -3  -5    3.20    2.10
  -4   3  -6 1669.23   64.79
  -4   3  -6 1735.33   64.89
  -4   3  -6 1714.03   66.49
  -4   3  -6 1734.53   64.59
   4   3   6 1789.52   63.99
  -4  -3  -6 1594.14   65.19
   4  -3   6 1708.93   64.29
   4   3   7    4.10    1.90
  -4   3  -7    8.60    1.90
   4   3   7    5.40    1.90
  -4   3  -7    7.40    3.10
  -4  -3  -7    8.00    1.60
  -4  -3  -7    5.70    1.40
  -4   3  -8  768.32   31.10
   4   3   8  821.72   30.80
   4   3   8  798.92   30.40
  -4  -3  -8  769.82   30.30
  -4  -3  -8  813.62   30.10
   4   3   9   17.70    3.00
  -4   3  -9   18.60    2.50
   4   3   9   18.50    3.40
  -4  -3  -9   21.00    2.10
  -4  -3  -9   19.90    2.30
   4   3  10   14.10    4.40
  -4   3 -10    7.90    1.40
   4   3  10   10.30    2.20
  -4  -3 -10   11.90    1.60
  -4  -3 -10    9.30    1.40
   4   3  11   23.50    3.60
  -4   3 -11   29.10    2.00
  -4  -3 -11   27.10    1.80
  -4  -3 -11   27.30    1.80
   4   3  12    7.80    2.20
  -4   3 -12   14.10    1.20
  -4  -3 -12   14.00    1.40
  -4   4  13    1.30    1.60
   4   4 -13   -0.70    0.90
   4  -4 -13   -0.80    1.00
   4   4 -12   15.10    2.80
  -4   4  12   18.80    3.00
   4   4 -12   10.40    1.90
   4  -4 -12   12.00    2.10
  -4  -4  12   16.50    2.50
  -4   4  11  110.99    6.80
   4   4 -11  124.29    5.70
   4   4 -11  102.69    5.70
  -4   4  11  123.49    6.20
   4  -4 -11  118.09    5.30
  -4  -4  11  113.69    6.10
  -4   4  10  114.19    6.60
   4   4 -10  110.59    5.80
   4   4 -10  110.69    5.80
  -4   4  10  114.09    6.40
  -4  -4  10  112.99    6.10
   4  -4 -10  113.69    5.40
  -4   4   9   75.59    5.80
  -4   4   9   81.59    5.20
   4   4  -9   74.09    4.70
   4   4  -9   78.29    4.90
   4  -4  -9   69.19    4.40
  -4  -4   9   76.69    5.00
  -4   4   8  112.39    6.00
   4   4  -8  120.19    6.20
   4   4  -8  106.89    6.00
  -4  -4   8  117.09    6.30
  -4   4   7   76.39    4.40
   4   4  -7   65.09    6.50
   4   4  -7   88.69    7.60
   4   4  -6  928.21   35.60
   4   4  -6  861.71   34.50
   4   4  -6  877.81   34.90
  -4   4   6  897.11   33.70
  -4  -4   6  883.91   34.30
  -4   4   5   92.79    4.30
   4   4  -5   97.49    6.00
   4  -4  -5   86.49    6.30
   4  -4  -5  108.69    4.90
   4   4  -4 1740.43   67.59
   4   4  -4 1795.72   67.29
   4  -4  -4 1689.63   67.29
   4  -4  -4 1886.91   66.69
   4   4  -3  445.86   18.50
   4   4  -3  472.05   18.50
   4  -4  -3  459.35   18.40
   4   4  -2 1827.02   68.29
   4   4  -2 1791.92   68.09
   4  -4  -2 1810.32   68.19
  -4  -4   2 1813.02   67.89
  -4   4   1 1883.71   65.99
   4  -4  -1 1828.52   66.59
  -4  -4   1 1719.33   66.29
  -4  -4   1 1645.54   66.89
  -4   4   0 1305.87   49.60
   4   4   0 1294.67   49.99
  -4   4   0 1352.16   49.80
   4  -4   0 1355.06   50.09
  -4  -4   0 1356.46   50.09
  -4  -4   0 1302.47   49.99
   4   4   1 1497.85   53.79
  -4   4  -1 1424.96   53.69
  -4   4  -1 1456.15   53.99
  -4  -4  -1 1434.56   53.99
   4  -4   1 1416.86   53.99
  -4  -4  -1 1379.86   54.09
  -4   4  -2  541.55   20.90
  -4   4  -2  539.25   20.60
   4   4   2  516.85   20.50
   4  -4   2  565.24   20.80
  -4  -4  -2  526.25   21.00
  -4  -4  -2  524.35   20.80
  -4   4  -3  178.18    7.80
   4   4   3  168.18    7.20
   4  -4   3  177.08    7.70
  -4   4  -4  799.72   30.80
  -4   4  -4  782.92   31.00
  -4   4  -4  803.72   31.00
   4   4   4  828.82   30.30
   4  -4   4  807.02   30.60
  -4  -4  -4  776.22   31.20
   4  -4   4  792.82   30.90
  -4   4  -5    1.00    2.00
   4   4   5    3.00    1.40
   4   4   5    2.90    2.10
  -4   4  -5    1.30    1.90
  -4   4  -5    2.50    2.30
  -4  -4  -5    2.30    3.40
   4  -4   5    0.00    2.40
   4  -4   5    1.70    2.10
  -4  -4  -5    2.80    2.50
   4   4   6  112.99    5.50
  -4   4  -6  101.09    5.70
  -4   4  -6  114.89    6.90
  -4   4  -6  115.69    6.40
   4   4   6  114.69    5.60
  -4  -4  -6  107.39    5.10
  -4  -4  -6  104.89    5.30
   4  -4   6  107.59    6.20
  -4   4  -7   83.69    6.40
   4   4   7   80.19    4.70
  -4   4  -7   88.29    4.70
   4   4   7   84.09    5.10
  -4   4  -7   83.49    5.80
   4  -4   7   74.49    5.40
  -4  -4  -7   81.29    4.00
  -4  -4  -7   83.99    4.30
  -4   4  -8  375.06   16.80
   4   4   8  408.46   16.40
   4   4   8  398.36   15.90
  -4   4  -8  404.96   15.80
   4  -4   8  391.56   16.60
  -4  -4  -8  414.86   15.50
  -4  -4  -8  404.26   15.70
   4   4   9  517.95   20.70
   4   4   9  543.05   21.50
  -4   4  -9  534.45   20.50
  -4  -4  -9  519.75   20.20
  -4  -4  -9  538.45   20.40
  -4   4 -10   46.30    2.90
   4   4  10   33.50    5.50
   4   4  10   50.59    4.00
  -4  -4 -10   52.89    2.60
  -4  -4 -10   52.59    2.70
  -4   4 -11    1.30    0.90
  -4  -4 -11    0.50    0.70
  -4  -4 -11   -0.60    0.80
   4   5 -13  129.99    5.10
  -4   5  13  120.09    5.50
   4  -5 -13  118.19    4.90
  -4   5  12  172.88    7.60
   4   5 -12  183.98    7.40
   4  -5 -12  171.08    7.10
  -4  -5  12  177.18    7.80
   4   5 -11    8.40    1.70
  -4   5  11   12.20    2.40
  -4   5  11   10.10    3.00
   4   5 -11    7.90    1.80
  -4  -5  11   10.30    2.20
   4  -5 -11   11.20    1.70
  -4   5  10  541.85   21.50
   4   5 -10  551.34   21.30
   4   5 -10  541.85   21.00
  -4   5  10  542.85   21.60
   4  -5 -10  534.15   20.80
  -4  -5  10  529.25   21.40
  -4   5   9  166.68    8.10
   4   5  -9  168.28    7.60
   4   5  -9  171.88    8.20
   4  -5  -9  160.38    7.40
  -4  -5   9  162.08    7.80
   4   5  -8  264.97   11.20
   4   5  -8  244.28   12.30
  -4   5   8  265.37   11.20
  -4  -5   8  260.47   11.30
  -4  -5   8  264.57   10.40
  -4   5   7  135.89    7.30
   4   5  -7  131.59    7.00
   4   5  -7  138.89    7.80
   4   5  -7  134.09    8.80
  -4  -5   7  130.79    6.80
  -4   5   6  583.44   22.40
   4   5  -6  595.44   23.50
   4   5  -6  582.94   24.80
   4   5  -6  594.24   24.00
  -4  -5   6  564.64   23.00
   4   5  -5 1032.00   41.00
   4   5  -5 1063.19   40.20
   4   5  -5 1054.29   40.50
   4  -5  -5 1101.59   39.80
   4  -5  -5 1009.70   40.60
  -4  -5   5  983.50   39.70
   4   5  -4   20.10    3.10
   4   5  -4   13.80    2.50
   4  -5  -4   20.90    3.60
   4  -5  -4   18.80    2.60
   4   5  -3  212.78   10.10
   4   5  -3  226.28    9.90
   4  -5  -3  219.78    9.90
   4   5  -2    1.50    1.50
   4   5  -2    2.90    1.80
  -4  -5   2    2.90    1.40
   4  -5  -2    2.50    1.50
  -4   5   1  733.03   29.60
   4   5  -1  791.72   29.90
   4   5  -1  694.73   29.50
  -4  -5   1  780.22   29.60
   4  -5  -1  848.22   29.90
  -4   5   0  148.69    6.30
   4   5   0  130.89    6.20
  -4   5   0  144.69    5.90
  -4  -5   0  146.99    7.50
  -4  -5   0  145.19    6.60
   4  -5   0  149.19    6.80
  -4   5  -1  308.57   11.80
   4   5   1  304.97   11.90
  -4   5  -1  296.97   12.20
  -4  -5  -1  289.47   12.40
   4  -5   1  299.57   12.40
   4   5   2  677.43   25.70
  -4   5  -2  655.93   26.10
  -4  -5  -2  660.13   26.30
   4  -5   2  696.43   26.10
   4   5   3 3782.92  141.49
  -4   5  -3 3858.71  141.79
  -4   5  -3 3897.81  141.99
  -4   5  -3 3650.53  141.89
   4  -5   3 3890.31  141.89
  -4  -5  -3 3639.04  142.19
   4  -5   3 3886.81  141.59
  -4   5  -4   47.80    3.90
   4   5   4   50.39    3.30
  -4   5  -4   45.00    4.30
   4   5   4   47.40    4.30
  -4   5  -4   53.19    3.90
  -4  -5  -4   46.60    5.60
   4  -5   4   49.60    4.30
  -4  -5  -4   42.80    4.70
   4  -5   4   46.40    3.80
   4   5   5   56.39    4.20
  -4   5  -5   53.99    4.60
   4   5   5   53.19    3.70
  -4  -5  -5   50.59    6.50
   4  -5   5   44.00    4.00
   4  -5   5   41.70    5.40
  -4   5  -6  226.08   10.00
   4   5   6  242.38   10.10
  -4   5  -6  239.48   11.30
  -4   5  -6  228.98   10.70
   4   5   6  231.88   10.00
   4  -5   6  230.88   10.30
  -4  -5  -6  247.68    9.60
  -4  -5  -6  239.08    9.50
   4   5   7  585.64   22.90
  -4   5  -7  594.34   22.90
  -4   5  -7  570.84   23.50
  -4   5  -7  574.84   23.90
   4   5   7  603.54   23.30
   4  -5   7  583.04   23.30
  -4  -5  -7  604.84   22.60
  -4  -5  -7  605.84   22.50
   4   5   8   -2.80    2.00
  -4   5  -8    0.90    1.50
  -4   5  -8    1.30    3.10
  -4  -5  -8    0.50    1.00
   4  -5   8    1.80    2.80
  -4  -5  -8    1.60    1.00
  -4   5  -9  328.47   12.90
   4   5   9  327.77   13.30
  -4   5  -9  304.07   14.40
   4   5   9  315.87   14.50
  -4  -5  -9  332.37   12.60
  -4  -5  -9  327.77   12.60
   4  -5   9  328.67   14.20
  -4   5 -10   43.40    2.60
   4   5  10   34.20    4.00
  -4  -5 -10   41.90    2.20
  -4  -5 -10   37.80    2.20
  -4   5 -11  151.38    6.00
   4   5  11  144.39    6.60
  -4  -5 -11  151.48    5.90
  -4  -5 -11  145.49    5.90
   4   6 -12    0.80    1.30
   4   6 -12    1.90    1.10
  -4   6  12    0.40    1.90
  -4  -6  12   -0.60    1.80
  -4   6  11   79.69    5.00
   4   6 -11   75.89    4.20
   4  -6 -11   78.79    3.80
  -4  -6  11   76.69    4.50
   4   6 -10   17.70    2.60
  -4   6  10   23.40    3.10
   4   6 -10   15.70    2.70
  -4  -6  10   15.80    2.30
   4   6  -9   47.30    3.80
  -4   6   9   45.40    4.90
   4   6  -9   48.40    3.50
  -4  -6   9   42.70    2.70
  -4  -6   9   45.90    3.80
  -4   6   8   -0.80    2.30
   4   6  -8    0.80    3.20
   4   6  -8   -0.10    1.90
  -4  -6   8    0.30    1.10
  -4  -6   8    1.40    1.80
   4   6  -7   11.90    2.40
   4   6  -7   10.20    3.00
   4   6  -7    8.40    4.00
  -4   6   7   10.10    2.30
  -4  -6   7   12.90    2.20
  -4  -6   7    8.80    1.40
   4   6  -6  309.87   13.30
  -4   6   6  312.17   12.30
   4   6  -6  294.47   16.80
   4   6  -6  303.27   13.40
  -4  -6   6  294.67   12.00
  -4  -6   6  304.27   12.80
   4   6  -5   72.79    5.80
   4   6  -5   80.69    7.20
   4   6  -5   71.39    5.50
  -4  -6   5   74.49    4.70
   4   6  -4  263.27   11.80
   4   6  -4  275.87   12.10
   4   6  -4  267.87   12.60
  -4  -6   4  253.87   11.20
   4  -6  -4  262.47   12.30
  -4  -6   4  265.37   11.70
   4   6  -3    9.40    2.80
   4   6  -3   12.30    2.40
   4   6  -3    9.10    2.80
   4  -6  -3   11.10    2.50
  -4  -6   3    5.80    2.20
   4   6  -2  407.16   15.60
   4   6  -2  381.46   15.90
  -4  -6   2  375.06   15.50
   4  -6  -2  332.67   16.30
  -4   6   1  149.29    6.40
   4   6  -1  140.19    6.90
   4   6  -1  143.19    7.50
  -4  -6   1  151.58    7.20
  -4  -6   1  141.69    7.30
   4  -6  -1  144.69    7.40
  -4   6   0  801.22   28.90
  -4   6   0  780.12   29.40
   4   6   0  652.43   29.40
  -4  -6   0  781.32   29.90
   4  -6   0  837.32   30.50
  -4  -6   0  756.52   29.90
   4   6   1  119.09    5.50
  -4   6  -1  119.69    5.80
   4   6   1  127.69    6.70
  -4  -6  -1  112.59    6.20
   4  -6   1  111.69    6.20
  -4  -6  -1  117.19    6.50
   4  -6   1  126.89    6.60
  -4   6  -2   46.80    3.20
   4   6   2   47.50    3.00
  -4   6  -2   45.50    5.40
  -4   6  -2   45.40    3.50
   4  -6   2   47.90    4.50
   4  -6   2   57.29    3.90
  -4  -6  -2   41.20    4.20
  -4  -6  -2   37.00    4.60
   4   6   3   57.59    3.70
  -4   6  -3   54.49    3.90
   4   6   3   41.30    5.50
  -4   6  -3   52.29    4.00
  -4   6  -3   57.99    4.90
   4  -6   3   48.80    3.90
   4  -6   3   51.29    5.00
  -4  -6  -3   59.09    5.10
  -4  -6  -3   49.00    4.90
   4   6   4    3.90    2.00
  -4   6  -4    3.90    2.30
  -4   6  -4    1.40    2.00
   4   6   4    9.30    2.60
   4  -6   4    1.60    3.20
  -4  -6  -4    8.90    2.90
   4  -6   4    0.80    1.80
  -4   6  -5    8.80    2.40
   4   6   5    6.30    2.40
  -4   6  -5    7.40    2.50
   4   6   5   11.90    2.60
  -4   6  -5   13.40    2.20
   4  -6   5   13.20    2.30
   4  -6   5   10.60    1.40
  -4  -6  -5   10.90    1.90
  -4  -6  -5    9.90    1.50
  -4   6  -6  689.93   28.00
  -4   6  -6  688.83   27.50
   4   6   6  691.23   26.70
   4   6   6  673.93   27.30
  -4   6  -6  702.13   26.70
   4  -6   6  685.23   27.10
  -4  -6  -6  723.83   26.40
  -4  -6  -6  700.93   26.30
   4  -6   6  693.73   26.30
  -4   6  -7  228.08   10.60
  -4   6  -7  226.28   11.90
   4   6   7  213.28   10.90
   4   6   7  231.88   10.00
  -4   6  -7  239.98    9.70
   4  -6   7  224.58   10.30
  -4  -6  -7  235.18    9.30
   4  -6   7  234.48    9.60
  -4  -6  -7  239.28    9.30
  -4   6  -8  228.68   11.20
  -4   6  -8  245.08    9.90
   4   6   8  225.58   11.40
  -4   6  -8  222.98   10.80
   4   6   8  241.68   10.40
  -4  -6  -8  255.47    9.60
  -4  -6  -8  245.98    9.50
   4  -6   8  249.58   10.90
   4   6   9  114.89    7.80
   4   6   9  107.59    6.20
  -4   6  -9  121.09    5.30
  -4   6  -9  113.99    7.00
  -4  -6  -9  115.59    4.90
   4  -6   9  119.39    7.00
  -4  -6  -9  114.89    4.90
  -4   6 -10  124.29    5.30
   4   6  10  119.49    6.20
  -4  -6 -10  123.69    5.10
  -4  -6 -10  126.19    5.10
   4   7 -12   22.00    2.60
  -4  -7  12   24.40    2.70
   4   7 -11   20.70    2.30
   4   7 -11   20.30    2.20
  -4  -7  11   24.90    2.80
   4   7 -10   64.89    3.70
   4   7 -10   58.09    3.80
  -4  -7  10   60.29    4.00
  -4  -7  10   61.99    2.90
  -4   7   9   18.50    3.10
   4   7  -9   17.10    2.50
   4   7  -9   16.80    2.80
  -4  -7   9   18.00    1.70
  -4  -7   9   14.80    2.30
   4   7  -8    9.40    2.20
   4   7  -8    9.40    3.30
  -4   7   8   12.60    3.00
  -4  -7   8    8.70    2.10
  -4  -7   8    8.80    1.10
   4   7  -7    9.60    4.20
   4   7  -7    0.90    2.10
   4   7  -7    1.70    2.70
  -4  -7   7    1.60    1.70
  -4  -7   7    1.60    1.00
  -4  -7   7    1.30    1.40
   4   7  -6    4.80    2.60
   4   7  -6    0.70    2.30
   4   7  -6    2.60    3.30
  -4  -7   6    5.50    1.90
  -4  -7   6    1.10    1.00
   4   7  -5  105.69    7.20
   4   7  -5  110.69    6.70
   4   7  -5  114.69    6.40
  -4  -7   5  101.59    4.80
   4   7  -4 1981.80   75.99
   4   7  -4 2076.29   75.39
   4   7  -4 1923.61   76.29
  -4  -7   4 1938.11   74.69
   4  -7  -4 2008.80   76.29
  -4  -7   4 2000.90   75.09
   4   7  -3   84.09    7.10
   4   7  -3   85.39    5.70
   4   7  -3   80.89    5.80
  -4  -7   3   80.99    5.30
   4  -7  -3   69.59    6.70
  -4  -7   3   74.39    5.00
   4   7  -2  604.34   25.20
   4   7  -2  600.94   24.50
   4   7  -2  635.34   24.90
  -4   7   2  634.04   23.70
   4  -7  -2  579.94   24.70
   4  -7  -2  647.24   25.30
  -4  -7   2  619.84   24.50
   4   7  -1    4.60    2.60
   4   7  -1    9.00    3.10
  -4   7   1    4.00    1.60
   4   7  -1    6.30    2.00
  -4  -7   1    5.60    2.40
  -4  -7   1    4.10    2.00
   4  -7  -1    8.40    3.10
   4  -7  -1    3.70    2.90
   4   7   0  194.08    9.60
   4   7   0  193.98    9.40
   4   7   0  216.88   10.30
  -4   7   0  219.48    9.20
   4  -7   0  232.08   10.60
  -4  -7   0  211.98   10.20
   4  -7   0  221.48    9.90
   4   7   1  526.55   20.70
   4   7   1  509.25   21.30
  -4   7  -1  530.15   20.90
   4   7   1  503.75   20.70
   4  -7   1  538.85   21.00
   4  -7   1  542.95   21.90
  -4  -7  -1  558.94   21.30
  -4  -7  -1  509.55   21.60
  -4   7  -2   10.20    2.40
  -4   7  -2    8.90    2.10
   4   7   2   10.00    3.20
  -4   7  -2    8.80    3.10
  -4  -7  -2   11.20    3.10
  -4  -7  -2   12.50    2.80
   4  -7   2   10.00    2.30
   4   7   3   -0.20    1.50
  -4   7  -3    1.70    1.90
   4   7   3   -2.40    3.10
  -4   7  -3    1.00    3.00
   4  -7   3   -0.10    1.00
  -4  -7  -3   -1.00    1.20
   4  -7   3    0.20    1.50
   4  -7   3   -2.90    2.40
  -4  -7  -3    1.30    2.80
  -4   7  -4 2397.66   93.69
  -4   7  -4 2433.26   92.69
   4   7   4 2590.24   92.89
   4   7   4 2445.16   92.89
  -4   7  -4 2555.14   93.59
  -4  -7  -4 2361.36   92.39
   4  -7   4 2540.65   93.19
   4  -7   4 2421.76   92.39
  -4  -7  -4 2629.94   93.59
   4  -7   4 2439.36   92.29
   4   7   5 1192.88   44.80
  -4   7  -5 1183.88   45.30
  -4   7  -5 1137.59   45.60
  -4   7  -5 1163.88   44.40
   4   7   5 1180.48   44.70
  -4  -7  -5 1153.58   44.10
   4  -7   5 1167.68   44.00
  -4  -7  -5 1208.88   44.20
   4  -7   5 1195.18   45.00
   4   7   6  178.38    8.50
  -4   7  -6  178.18    7.80
  -4   7  -6  172.48    8.70
   4   7   6  172.28    8.60
  -4   7  -6  175.58    9.50
  -4  -7  -6  183.98    7.30
   4  -7   6  171.18    8.30
   4  -7   6  179.68    7.20
  -4  -7  -6  177.88    7.30
   4   7   7    2.80    2.70
   4   7   7    6.50    2.80
  -4   7  -7    7.40    4.10
  -4   7  -7    2.10    2.70
  -4   7  -7    2.50    1.50
  -4  -7  -7    1.40    1.00
   4  -7   7    8.80    4.60
  -4  -7  -7    1.30    0.90
   4  -7   7    1.00    1.10
  -4   7  -8   58.69    3.50
   4   7   8   58.29    5.60
   4   7   8   50.09    4.80
  -4   7  -8   62.19    5.00
  -4   7  -8   56.69    5.30
  -4  -7  -8   56.19    2.90
   4  -7   8   55.49    4.80
  -4  -7  -8   58.79    2.90
  -4   7  -9   15.30    3.20
   4   7   9   16.00    2.40
  -4   7  -9   16.70    2.00
   4  -7   9   11.60    3.20
  -4  -7  -9   14.50    1.50
   4   7  10  193.58    8.10
  -4   7 -10  199.88    7.70
  -4  -7 -10  190.58    7.60
   4   8 -11   46.90    2.70
   4   8 -11   46.90    2.70
  -4  -8  11   43.50    3.20
   4   8 -10    3.00    1.30
   4   8 -10    4.80    1.40
  -4  -8  10    3.90    0.80
  -4  -8  10    3.90    1.60
   4   8  -9  328.77   13.40
   4   8  -9  349.17   13.30
  -4  -8   9  320.67   13.50
  -4  -8   9  329.27   12.70
   4   8  -8   81.99    4.70
   4   8  -8   89.99    6.40
  -4  -8   8   82.19    4.00
  -4  -8   8   83.39    3.70
  -4  -8   8   80.59    4.90
   4   8  -7    3.10    4.50
   4   8  -7    5.30    2.80
   4   8  -7    4.70    2.10
  -4  -8   7    3.70    1.90
  -4  -8   7    4.90    1.30
  -4  -8   7    3.30    0.90
   4   8  -6   44.50    6.50
   4   8  -6   46.50    4.80
   4   8  -6   42.20    5.40
  -4  -8   6   44.00    3.00
  -4  -8   6   40.00    3.60
  -4  -8   6   43.80    2.60
   4   8  -5   37.20    4.20
   4   8  -5   44.00    5.80
   4   8  -5   38.60    4.60
  -4  -8   5   32.00    2.30
  -4  -8   5   32.60    3.50
  -4  -8   5   36.60    2.50
   4   8  -4   16.40    3.50
   4   8  -4   18.70    3.20
  -4  -8   4   22.70    3.50
   4  -8  -4   23.30    2.50
  -4  -8   4   20.80    1.90
   4   8  -3    4.00    2.70
   4   8  -3    2.60    2.60
   4  -8  -3    1.80    1.40
  -4  -8   3    4.10    2.30
  -4  -8   3    4.70    1.10
   4   8  -2  226.68   10.60
  -4  -8   2  212.88    8.70
  -4  -8   2  227.58   10.10
   4  -8  -2  195.38   11.20
   4  -8  -2  223.58    8.80
   4   8  -1  326.37   14.40
   4   8  -1  306.77   14.10
  -4   8   1  331.87   13.60
   4  -8  -1  361.66   13.20
  -4  -8   1  322.27   12.90
   4  -8  -1  333.47   12.90
   4  -8  -1  325.17   14.40
  -4   8   0    5.10    2.00
   4   8   0    6.10    2.30
   4   8   0    6.30    2.60
   4  -8   0    8.30    2.90
  -4  -8   0    7.20    2.50
   4  -8   0    6.40    1.40
  -4  -8   0    9.80    1.60
   4  -8   0    7.30    1.20
  -4   8  -1   65.59    6.60
   4   8   1   42.60    4.80
   4   8   1   47.20    4.20
  -4   8  -1   50.89    4.10
  -4  -8  -1   49.10    3.30
   4  -8   1   59.09    4.80
  -4  -8  -1   52.09    4.60
   4  -8   1   51.69    2.80
   4  -8   1   54.59    3.00
  -4  -8  -1   46.30    3.10
   4   8   2  138.59    7.10
   4   8   2  130.79    7.00
  -4   8  -2  131.39    7.10
  -4   8  -2  145.79    7.90
   4  -8   2  141.59    5.90
  -4  -8  -2  133.29    6.00
   4  -8   2  144.49    5.80
   4  -8   2  139.19    7.20
  -4  -8  -2  140.79    7.60
  -4   8  -3  247.28   11.00
  -4   8  -3  231.68   10.90
   4   8   3  235.28   10.50
   4   8   3  237.08   10.40
   4  -8   3  237.58    9.60
   4  -8   3  242.38   10.70
   4  -8   3  237.38    9.40
  -4  -8  -3  243.08   11.10
  -4  -8  -3  233.58    9.60
  -4   8  -4  376.76   15.00
  -4   8  -4  367.76   16.10
   4   8   4  377.96   15.30
   4   8   4  380.86   15.30
  -4   8  -4  382.66   15.90
   4  -8   4  373.06   14.60
  -4  -8  -4  357.86   14.60
   4  -8   4  381.56   14.50
  -4  -8  -4  366.66   16.10
   4  -8   4  385.36   15.70
  -4   8  -5   39.10    3.50
  -4   8  -5   33.10    4.90
  -4   8  -5   42.10    4.30
   4   8   5   39.90    4.70
   4   8   5   41.90    4.20
   4  -8   5   43.70    4.20
   4  -8   5   36.40    2.30
  -4  -8  -5   36.80    2.60
   4   8   6    1.00    2.40
   4   8   6    1.50    2.50
  -4   8  -6    1.70    1.60
  -4   8  -6    3.90    3.30
  -4   8  -6   -1.50    2.90
  -4  -8  -6    1.90    1.10
   4  -8   6    2.50    0.90
  -4   8  -7  147.69   10.30
  -4   8  -7  185.88    7.40
   4   8   7  172.98    8.50
  -4   8  -7  167.48    8.30
   4   8   7  170.88    8.00
  -4  -8  -7  176.48    7.10
   4  -8   7  175.38    8.30
   4  -8   7  171.18    6.90
  -4   8  -8    5.50    2.50
   4   8   8    2.20    2.10
  -4   8  -8    2.90    2.60
  -4   8  -8    2.20    1.20
  -4  -8  -8    1.70    1.00
   4  -8   8    3.80    2.60
  -4   8  -9   80.09    5.50
  -4   8  -9   80.89    3.60
   4   8   9   75.69    4.20
   4  -8   9   77.19    5.40
  -4  -8  -9   79.09    3.50
   4   9 -10    6.40    1.20
   4   9 -10    3.70    1.40
  -4  -9  10    7.50    1.70
  -4  -9  10    3.50    0.90
   4   9  -9   20.00    2.40
   4   9  -9   23.00    2.10
  -4  -9   9   20.80    1.40
  -4  -9   9   19.40    2.70
   4   9  -8   92.99    4.50
   4   9  -8   88.39    6.40
   4   9  -8   85.19    6.10
  -4  -9   8   85.89    4.00
  -4  -9   8   91.19    4.80
  -4  -9   8   85.99    3.80
   4   9  -7   91.89    6.30
   4   9  -7   83.29    8.90
   4   9  -7   90.49    5.00
  -4  -9   7   91.59    4.10
  -4  -9   7   96.99    4.00
  -4  -9   7   93.69    5.10
   4   9  -6  158.78    7.30
   4   9  -6  143.99    8.20
   4   9  -6  140.19    9.70
  -4  -9   6  149.29    6.20
  -4  -9   6  151.98    7.20
  -4  -9   6  147.39    6.10
   4   9  -5  306.97   13.10
   4   9  -5  319.97   14.90
   4   9  -5  321.77   13.90
  -4  -9   5  304.67   12.90
   4  -9  -5  291.77   12.30
  -4  -9   5  314.97   12.10
  -4  -9   5  309.67   12.10
   4   9  -4  281.87   13.40
   4   9  -4  283.87   12.60
  -4  -9   4  255.77   11.60
   4   9  -3   55.39    5.90
   4   9  -3   54.69    5.30
  -4  -9   3   57.79    3.00
  -4  -9   3   59.09    3.20
   4  -9  -3   58.29    3.20
   4   9  -2   10.70    3.10
  -4   9   2    7.50    2.50
   4   9  -2    7.00    2.70
  -4  -9   2    9.60    1.40
   4  -9  -2    9.90    1.40
  -4  -9   2   14.50    2.70
  -4  -9   2   10.30    1.20
   4  -9  -2    6.90    1.50
   4   9  -1  275.97   12.80
   4   9  -1  286.67   13.30
  -4   9   1  292.87   12.20
  -4  -9   1  283.47   11.30
   4  -9  -1  299.27   11.30
  -4  -9   1  290.07   12.70
   4  -9  -1  287.47   13.10
  -4  -9   1  285.47   11.30
   4  -9  -1  284.97   11.20
  -4   9   0   34.60    3.90
   4   9   0   29.70    4.70
   4   9   0   32.10    4.70
  -4  -9   0   30.30    4.20
   4  -9   0   35.90    2.40
   4  -9   0   38.20    5.10
   4  -9   0   32.10    2.30
  -4  -9   0   31.30    2.40
  -4   9  -1   42.90    4.30
  -4   9  -1   47.30    6.00
   4   9   1   50.89    4.90
   4   9   1   51.19    5.00
   4  -9   1   51.79    5.10
  -4  -9  -1   41.80    3.10
  -4  -9  -1   56.89    4.60
   4  -9   1   49.30    2.70
   4  -9   1   48.60    2.90
  -4   9  -2   53.49    4.60
   4   9   2   44.60    4.90
   4   9   2   48.20    5.10
  -4   9  -2   61.69    5.40
   4  -9   2   54.39    2.90
   4  -9   2   52.69    4.90
  -4  -9  -2   58.09    4.90
   4   9   3   70.79    5.10
  -4   9  -3   73.99    5.50
   4   9   3   65.49    5.50
  -4   9  -3   72.79    5.50
  -4  -9  -3   70.19    5.70
   4  -9   3   79.39    5.50
   4  -9   3   70.69    3.40
  -4  -9  -3   70.59    3.70
   4  -9   3   68.09    3.50
   4   9   4  388.66   15.70
  -4   9  -4  394.56   16.20
  -4   9  -4  393.46   15.30
  -4   9  -4  370.06   16.80
   4   9   4  364.86   16.20
   4  -9   4  387.06   14.80
   4  -9   4  392.26   16.10
  -4  -9  -4  379.86   15.00
   4  -9   4  383.06   14.90
  -4  -9  -4  389.66   16.50
  -4   9  -5    6.90    1.80
  -4   9  -5    7.90    2.50
   4   9   5    8.40    2.50
  -4   9  -5   10.00    3.00
   4   9   5    5.00    2.70
   4  -9   5    7.20    2.50
   4  -9   5    7.40    1.00
   4  -9   5    9.40    1.50
  -4  -9  -5    8.80    1.30
  -4   9  -6  170.88    9.90
  -4   9  -6  184.78    8.60
   4   9   6  182.68    8.20
   4   9   6  167.88    9.00
  -4   9  -6  192.18    8.40
  -4  -9  -6  178.98    7.30
   4  -9   6  176.38    8.50
   4  -9   6  180.38    7.20
  -4   9  -7   76.69    3.70
  -4   9  -7   78.79    5.20
  -4   9  -7   68.29    4.80
   4   9   7   67.89    4.60
  -4  -9  -7   68.29    3.30
   4  -9   7   63.49    3.10
   4  -9   7   68.89    4.80
  -4   9  -8  127.99    6.50
  -4   9  -8  115.39    6.60
  -4   9  -8  137.59    5.50
   4   9   8  130.79    6.00
   4  -9   8  134.59    6.80
  -4  -9  -8  128.09    5.30
   4  10  -9   26.00    2.00
   4  10  -9   25.20    2.40
  -4 -10   9   23.40    1.40
  -4 -10   9   22.00    2.80
   4  10  -8  310.77   11.90
   4  10  -8  310.37   13.10
   4  10  -8  298.07   12.00
  -4 -10   8  286.77   12.40
  -4 -10   8  298.07   11.50
  -4 -10   8  303.17   11.50
   4  10  -7   60.29    3.80
   4  10  -7   54.89    5.00
  -4 -10   7   60.29    4.00
  -4 -10   7   62.99    2.90
  -4 -10   7   52.49    2.90
   4  10  -6   45.60    3.60
   4  10  -6   38.40    5.60
   4  10  -6   42.80    4.50
  -4 -10   6   41.60    2.20
  -4 -10   6   44.40    3.90
  -4 -10   6   41.80    2.30
   4  10  -5   13.60    3.90
   4  10  -5   18.40    3.20
   4  10  -5   13.70    3.00
  -4 -10   5   20.00    1.70
  -4 -10   5   20.10    2.80
  -4 -10   5   16.20    1.50
   4 -10  -5   15.90    1.90
   4  10  -4  226.28   11.60
   4  10  -4  212.58    9.70
  -4 -10   4  217.28    8.60
   4 -10  -4  213.78    8.70
  -4 -10   4  217.28    8.70
   4  10  -3   40.20    6.50
   4  10  -3   45.50    5.10
  -4 -10   3   43.90    2.50
  -4 -10   3   40.90    2.40
   4 -10  -3   45.40    2.60
   4  10  -2  140.29    7.90
   4  10  -2  137.69    8.70
  -4 -10   2  143.89    5.90
  -4 -10   2  140.39    6.00
   4 -10  -2  145.59    6.00
   4  10  -1   32.70    4.80
   4  10  -1   33.60    5.50
  -4  10   1   38.30    4.50
  -4 -10   1   35.80    4.10
   4 -10  -1   37.40    2.50
   4 -10  -1   42.50    2.50
  -4 -10   1   37.60    2.40
  -4 -10   1   39.70    2.50
   4  10   0  336.47   14.90
  -4  10   0  337.57   14.80
   4  10   0  336.07   15.60
   4 -10   0  366.56   13.40
   4 -10   0  349.27   15.10
   4 -10   0  351.56   13.50
  -4 -10   0  359.46   14.90
  -4 -10   0  339.87   13.50
   4  10   1  395.56   17.10
  -4  10  -1  425.76   17.40
  -4  10  -1  367.26   17.90
   4  10   1  403.86   20.50
  -4 -10  -1  401.46   15.80
   4 -10   1  421.26   15.80
   4 -10   1  436.46   17.40
  -4 -10  -1  421.36   17.30
   4 -10   1  421.86   15.80
   4  10   2    1.90    3.20
   4  10   2    0.80    2.90
  -4  10  -2    4.20    4.80
  -4  10  -2    4.40    2.60
   4 -10   2    2.80    1.00
   4 -10   2    4.10    0.90
   4  10   3   11.20    2.90
  -4  10  -3   15.00    2.80
  -4  10  -3   16.40    3.00
   4  10   3   15.90    3.50
  -4 -10  -3   14.80    3.10
   4 -10   3   15.40    3.10
   4 -10   3   12.10    1.40
   4 -10   3   13.30    1.80
   4  10   4    5.80    3.60
  -4  10  -4    6.90    2.40
  -4  10  -4    7.40    2.90
   4  10   4    7.00    2.70
   4 -10   4    4.20    0.80
   4 -10   4    3.70    1.10
   4 -10   4    3.20    2.60
  -4  10  -5   11.30    1.90
  -4  10  -5   12.40    2.50
   4  10   5   14.90    2.80
   4 -10   5   15.30    2.80
   4 -10   5   11.10    1.30
   4 -10   5   14.20    1.90
  -4  10  -6    3.10    2.00
  -4  10  -6    1.60    1.40
   4  10   6    3.00    2.40
   4 -10   6    1.30    2.40
   4 -10   6    0.70    0.70
  -4  10  -7   27.10    3.70
  -4  10  -7   31.70    2.50
   4  10   7   26.30    4.00
  -4  10  -7   34.20    3.40
   4 -10   7   33.60    3.80
   4  11  -8    3.60    0.90
  -4 -11   8    4.30    0.60
  -4 -11   8    4.80    0.90
   4  11  -7   18.70    2.80
   4  11  -7   21.50    1.90
  -4 -11   7   17.80    1.20
  -4 -11   7   18.20    1.40
  -4 -11   7   25.00    2.90
   4  11  -6   -0.80    2.20
   4  11  -6   -1.90    1.70
  -4 -11   6    1.90    0.60
  -4 -11   6    0.90    0.70
   4  11  -5  110.89    6.70
   4  11  -5  122.69    5.90
  -4 -11   5  126.09    5.30
  -4 -11   5  124.69    5.30
   4  11  -4   17.80    2.40
   4  11  -4   16.70    2.80
   4  11  -4   16.70    4.30
  -4 -11   4   18.90    1.40
   4 -11  -4   18.50    2.50
  -4 -11   4   15.80    1.60
   4  11  -3  151.58    9.50
   4  11  -3  153.88    7.30
   4  11  -3  150.18    8.10
  -4 -11   3  157.38    6.40
   4 -11  -3  157.88    6.40
  -4 -11   3  156.08    6.20
   4  11  -2   26.80    3.40
   4  11  -2   22.60    4.20
   4 -11  -2   25.10    1.90
  -4 -11   2   26.60    1.80
  -4 -11   2   25.80    1.90
   4  11  -1   31.60    4.50
   4  11  -1   32.20    4.70
  -4 -11   1   28.00    2.00
   4 -11  -1   32.50    2.10
  -4 -11   1   32.00    2.10
  -4  11   0   39.20    4.80
   4  11   0   24.90    4.20
   4  11   0   28.80    3.70
   4 -11   0   30.70    2.00
  -4 -11   0   30.00    2.10
   4 -11   0   33.20    2.10
   4  11   1   28.50    4.60
   4  11   1   21.30    4.30
  -4  11  -1   22.70    3.30
  -4  11  -1   22.70    3.40
  -4 -11  -1   22.20    2.00
   4 -11   1   23.90    1.80
   4 -11   1   24.10    1.70
   4 -11   1   22.30    3.60
   4  11   2    1.50    4.00
  -4  11  -2    2.10    2.50
   4  11   2    1.50    2.90
  -4  11  -2    4.80    2.90
   4 -11   2    1.70    0.80
   4 -11   2   -0.90    2.70
   4 -11   2    0.00    0.90
  -4  11  -3  242.98   10.30
   4  11   3  223.48   10.50
   4 -11   3  222.58    9.20
   4 -11   3  222.98    9.00
   4 -11   3  232.88   10.40
  -4  11  -4    1.30    2.00
   4  11   4   -0.90    2.90
   4 -11   4    3.30    2.40
   4 -11   4    0.70    0.70
   4 -11   4    2.10    1.00
   4  11   5   44.90    4.90
   4 -11   5   44.10    2.10
   4 -11   5   47.00    4.10
   4 -11   5   42.40    2.50
  -4  11  -6    2.70    2.20
  -4  11  -6   -0.70    1.80
   4 -11   6   -0.90    2.10
   4  12  -6    1.70    0.90
   4  12  -6   -0.30    2.10
  -4 -12   6    0.20    0.50
  -4 -12   6    0.80    0.60
   4  12  -5    5.00    2.20
  -4 -12   5    1.80    0.60
  -4 -12   5    2.10    0.70
   4  12  -4   90.99    5.80
   4 -12  -4   92.79    4.10
  -4 -12   4   92.89    3.80
  -4 -12   4   94.89    3.90
   4  12  -3   26.30    3.80
  -4 -12   3   22.60    1.60
  -4 -12   3   21.50    1.50
   4 -12  -3   27.10    1.80
   4  12  -2    0.80    2.30
   4 -12  -2    0.70    0.80
  -4 -12   2   -0.30    0.70
  -4 -12   2    1.10    0.70
   4  12  -1   -1.60    2.00
   4  12  -1   -1.70    2.40
   4 -12  -1    0.80    0.80
  -4 -12   1    0.80    0.80
   4  12   0  668.03   26.40
  -4 -12   0  648.54   25.20
   4 -12   0  693.93   25.30
   4  12   1   -3.90    2.60
  -4  12  -1    3.90    2.70
   4 -12   1    1.20    0.80
  -4 -12  -1    2.60    1.00
  -4  12  -2   20.70    2.80
   4  12   2   17.70    3.00
   4 -12   2   20.40    1.50
  -4  12  -3    2.40    2.00
   4  12   3   -0.40    3.00
   4 -12   3    1.50    0.80
  -4  12  -4   35.30    3.40
   4 -12   4   29.80    4.10
   4  13  -2   -0.20    2.20
  -4 -13   2    3.80    0.70
   4  13  -1  193.78    9.00
   4 -13  -1  208.58    7.80
   4  13   0    0.70    2.50
   4 -13   0    2.50    0.70
  -4 -13   0    2.80    0.80
   5   0 -14   98.59    4.20
  -5   0  14   96.59    4.90
   5   0 -13   -2.10    1.00
  -5   0  13   -1.90    1.70
  -5   0  12   21.90    3.00
   5   0 -12   24.80    2.40
  -5   0  12   20.10    4.20
   5   0 -11   -0.70    1.60
  -5   0  11   -1.60    3.10
  -5   0  11   -0.30    1.90
   5   0 -10   -0.30    1.90
  -5   0  10   -3.70    3.20
  -5   0  10    2.30    1.90
  -5   0  10   -0.10    2.50
  -5   0   9    1.80    3.10
  -5   0   9   -0.40    1.80
   5   0  -9   -3.20    2.20
  -5   0   8  728.13   28.40
  -5   0   8  729.43   28.00
  -5   0   8  711.43   28.50
  -5   0   7    0.50    2.00
  -5   0   7   -0.10    1.50
  -5   0   6   74.89    4.30
   5   0  -6   86.59    5.80
   5   0  -5    0.90    1.80
  -5   0   5    0.30    1.00
  -5   0   4   89.39    4.20
   5   0  -4   92.19    4.50
   5   0  -4   84.49    4.80
  -5   0   3   -0.10    0.70
  -5   0   3    2.00    0.90
   5   0  -3    1.10    0.90
  -5   0   2   98.09    4.60
  -5   0   2  117.79    4.90
   5   0  -2  113.69    5.10
  -5   0   1    0.30    0.50
  -5   0   1   -0.10    0.70
   5   0  -1    0.90    0.70
  -5   0   1    0.70    0.70
  -5   0   0   19.00    1.40
  -5   0   0   20.70    1.70
   5   0   0   22.70    1.60
  -5   0  -1   -0.50    0.90
   5   0   1   -0.50    1.30
  -5   0  -2  190.38    7.70
  -5   0  -2  186.48    7.80
   5   0   2  181.98    7.90
   5   0   3    0.30    1.40
  -5   0  -3   -1.40    0.90
  -5   0  -3    1.00    1.50
  -5   0  -4 1499.15   57.49
   5   0   4 1552.14   57.29
  -5   0  -5    1.50    2.00
   5   0   5    0.80    1.70
   5   0   5   -0.10    1.90
  -5   0  -5    1.80    2.80
  -5   0  -5    1.20    1.70
  -5   0  -6 1170.38   45.20
   5   0   6 1230.68   44.70
  -5   0  -6 1132.69   45.70
  -5   0  -6 1166.08   44.90
   5   0   6 1176.28   44.30
  -5   0  -7    0.40    1.60
  -5   0  -7   -0.90    1.80
   5   0   7    1.70    2.10
   5   0   7    3.30    2.70
   5   0   8 1735.23   65.49
  -5   0  -8 1697.13   64.59
  -5   0  -8 1783.22   64.59
   5   0   8 1686.43   64.79
  -5   0  -9    0.80    1.40
   5   0   9    3.40    2.90
  -5   0  -9    0.30    1.20
   5   0  10  319.17   13.10
  -5   0 -10  313.17   12.10
  -5   0 -10  294.37   12.20
  -5   0 -11   -0.40    1.00
  -5   0 -11    0.50    0.80
  -5   1  14    3.10    1.70
   5   1 -14    8.30    1.30
   5  -1 -14    8.20    1.30
  -5   1  13  114.89    5.50
   5   1 -13  114.39    5.10
   5  -1 -13  114.19    5.00
  -5  -1  13  118.29    5.60
   5   1 -12  112.59    5.20
  -5   1  12  101.09    5.40
  -5   1  12  104.59    7.20
   5  -1 -12  107.49    5.00
  -5  -1  12  100.89    8.70
  -5  -1  12  103.69    5.50
  -5   1  11   91.19    5.40
  -5   1  11   94.59    6.60
   5   1 -11   99.09    5.10
   5  -1 -11   91.99    4.80
  -5  -1  11  103.89    7.50
  -5  -1  11   87.99    5.30
  -5  -1  11   96.49    6.40
  -5   1  10  184.88    8.80
  -5   1  10  197.38    9.70
   5   1 -10  204.78    8.80
  -5  -1  10  193.38    9.90
  -5  -1  10  201.28    9.50
   5  -1 -10  201.08    8.70
  -5  -1  10  195.28    8.80
   5   1  -9  338.47   13.60
  -5   1   9  309.37   13.80
  -5   1   9  339.17   14.60
  -5   1   9  329.67   13.60
   5  -1  -9  317.17   13.40
  -5  -1   9  323.87   13.50
  -5  -1   9  323.67   14.10
  -5   1   8  128.89    6.50
  -5   1   8  124.29    6.50
  -5   1   8  126.69    7.80
  -5  -1   8  121.29    6.30
  -5  -1   8  122.69    7.00
   5   1  -7  125.99    7.90
  -5   1   7  117.69    5.80
  -5   1   7  122.89    7.60
  -5  -1   7  112.99    6.10
  -5  -1   7  117.29    6.90
  -5  -1   7  119.39    6.10
  -5   1   6   34.00    2.70
   5   1  -6   40.50    4.40
  -5  -1   6   31.60    3.00
  -5   1   5   10.20    1.70
   5   1  -5    7.00    2.00
   5  -1  -5   10.40    2.30
   5  -1  -5    9.10    1.70
  -5  -1   5    7.50    1.50
  -5   1   4   38.70    2.30
   5   1  -4   36.60    3.10
   5  -1  -4   36.60    3.00
   5  -1  -4   38.20    2.80
  -5  -1   4   38.40    2.60
  -5   1   3  945.01   35.90
  -5   1   3  852.41   35.60
   5   1  -3  953.20   35.80
   5  -1  -3  999.90   36.10
  -5  -1   3  978.10   36.10
  -5  -1   3  964.80   35.90
  -5   1   2 2142.39   80.79
   5   1  -2 2215.28   80.69
  -5   1   2 2132.49   80.39
  -5   1   2 1983.40   80.59
  -5  -1   2 2248.08   80.99
  -5  -1   2 2191.98   80.79
  -5  -1   2 2216.98   80.39
   5  -1  -2 2198.18   80.99
  -5   1   1  212.18    8.50
  -5   1   1  221.08    8.50
  -5  -1   1  207.18    8.70
  -5  -1   1  213.68    8.40
  -5   1   0  883.31   33.80
  -5   1   0  895.41   33.80
   5   1   0  907.01   33.70
   5   1   0  905.81   33.80
   5  -1   0  913.21   33.80
  -5  -1   0  888.21   33.90
   5   1   1  799.02   31.00
  -5   1  -1  827.62   31.00
  -5   1  -1  795.32   30.90
   5  -1   1  831.52   31.00
  -5  -1  -1  835.72   30.90
  -5  -1  -1  830.42   31.10
  -5   1  -2  285.37   11.00
   5   1   2  276.37   11.10
  -5   1  -2  282.27   11.20
  -5  -1  -2  283.27   11.30
  -5  -1  -2  286.37   11.00
   5  -1   2  241.28   11.40
   5   1   3  359.26   13.90
  -5   1  -3  345.77   14.20
  -5   1  -3  358.06   14.00
  -5  -1  -3  360.16   14.40
   5  -1   3  362.76   14.20
  -5  -1  -3  342.37   14.00
  -5   1  -4   27.40    2.60
   5   1   4   25.40    2.50
  -5   1  -4   26.00    3.30
  -5  -1  -4   26.40    2.60
  -5  -1  -4   28.60    3.50
   5   1   5  636.54   23.30
  -5   1  -5  614.14   23.70
   5   1   5  596.94   23.10
  -5   1  -5  605.64   23.90
  -5  -1  -5  613.94   24.30
  -5  -1  -5  586.54   23.70
  -5  -1  -5  574.74   23.80
   5  -1   5  614.84   23.50
   5  -1   5  579.14   23.20
  -5   1  -6    3.30    2.70
  -5   1  -6    5.40    2.60
   5   1   6    4.10    2.00
   5   1   6    5.40    1.90
  -5  -1  -6    4.30    2.90
   5  -1   6    6.70    2.40
  -5  -1  -6    2.30    2.90
   5  -1   6    1.70    2.70
   5   1   7   14.70    2.20
   5   1   7   17.80    2.70
  -5   1  -7   16.70    3.20
  -5   1  -7   18.00    2.80
   5  -1   7   14.80    2.70
  -5  -1  -7   20.40    2.60
  -5  -1  -7   17.40    2.80
   5   1   8  139.29    7.50
   5   1   8  120.79    6.20
  -5   1  -8  121.09    5.80
  -5   1  -8  122.29    5.90
  -5  -1  -8  122.09    5.80
   5  -1   8  128.79    7.00
  -5  -1  -8  130.29    5.70
   5   1   9    4.40    2.50
   5   1   9    3.50    4.80
  -5   1  -9    4.60    1.60
  -5   1  -9    2.40    1.30
  -5  -1  -9    2.70    1.40
  -5  -1  -9    4.30    1.20
   5   1  10   52.19    4.80
  -5   1 -10   49.70    2.80
  -5  -1 -10   44.70    3.00
  -5  -1 -10   48.00    2.60
  -5   1 -11   23.30    2.20
  -5   1 -11   24.30    1.70
   5   1  11   22.70    3.00
  -5  -1 -11   24.60    1.70
  -5  -1 -11   24.40    1.80
   5   2 -14   15.10    1.50
  -5   2  14   13.60    1.70
   5  -2 -14   11.90    1.50
   5   2 -13   96.19    4.40
  -5   2  13   94.09    4.80
   5  -2 -13   96.09    4.30
  -5   2  12  983.10   37.40
   5   2 -12 1005.80   37.30
  -5   2  12  972.30   38.10
  -5  -2  12  969.40   37.50
   5  -2 -12  997.80   37.00
  -5  -2  12  955.70   37.20
   5   2 -11  320.17   12.80
  -5   2  11  304.37   12.90
  -5  -2  11  310.37   12.80
  -5  -2  11  305.27   13.30
   5  -2 -11  296.57   12.40
  -5  -2  11  332.67   15.90
  -5   2  10  189.38    9.20
   5   2 -10  187.48    8.50
  -5   2  10  183.28    8.60
   5  -2 -10  181.88    8.20
  -5  -2  10  192.48    8.50
  -5  -2  10  197.58   10.10
  -5  -2  10  181.08    9.00
   5   2  -9    4.60    2.00
  -5   2   9    2.20    2.00
  -5   2   9    2.20    2.10
  -5  -2   9    1.30    1.90
  -5  -2   9    6.70    2.90
   5  -2  -9    1.70    2.30
  -5  -2   9   -3.10    2.30
   5   2  -8  689.83   29.20
  -5   2   8  699.73   27.10
  -5   2   8  704.33   27.20
  -5  -2   8  693.93   27.00
  -5  -2   8  682.23   27.50
  -5  -2   8  702.53   27.40
  -5   2   7   18.80    2.50
   5   2  -7   22.20    4.10
  -5  -2   7   18.80    2.50
  -5  -2   7   15.90    2.90
  -5  -2   7   22.40    3.50
   5   2  -6   -1.30    2.30
  -5   2   6    0.50    1.10
  -5  -2   6    1.00    1.70
   5   2  -5  130.79    6.70
  -5   2   5  127.19    5.50
  -5  -2   5  116.99    6.00
   5  -2  -5  124.69    6.30
   5   2  -4 4207.78  152.38
   5   2  -4 4076.89  152.38
   5  -2  -4 4185.58  151.88
  -5  -2   4 4104.69  151.98
   5  -2  -4 3822.02  152.18
  -5   2   3    2.90    0.90
  -5   2   3    1.90    1.00
   5   2  -3   -2.60    1.80
  -5   2   3    0.60    0.70
   5   2  -3    1.00    1.00
   5  -2  -3    1.60    1.10
  -5  -2   3   -0.80    1.30
  -5  -2   3    1.10    1.10
  -5   2   2 2895.01  110.09
   5   2  -2 2765.12  110.59
  -5   2   2 2964.40  110.09
  -5   2   2 2848.71  110.19
  -5  -2   2 3150.28  110.69
   5  -2  -2 2972.80  110.59
  -5  -2   2 3094.49  110.49
  -5  -2   2 3015.10  110.09
   5   2  -1  661.43   27.90
  -5   2   1  761.32   27.80
  -5   2   1  744.13   27.70
  -5  -2   1  803.42   28.20
  -5  -2   1  770.62   27.80
   5  -2  -1  668.13   28.00
   5   2   0 2157.68   75.99
  -5   2   0 2008.30   75.89
   5   2   0 2153.38   75.79
  -5   2   0 2068.09   75.99
  -5  -2   0 1826.62   75.99
   5  -2   0 2029.90   76.09
  -5  -2   0 2022.00   76.19
  -5   2  -1 2911.91  107.29
   5   2   1 2964.40  107.19
  -5   2  -1 2787.02  107.19
   5  -2   1 3086.29  107.39
  -5  -2  -1 2902.11  107.29
  -5  -2  -1 2633.14  107.29
  -5   2  -2  121.49    5.20
  -5   2  -2  113.09    5.40
   5  -2   2  117.29    5.40
  -5  -2  -2  117.49    5.10
  -5  -2  -2  113.79    5.40
   5   2   3 1731.33   64.19
  -5   2  -3 1690.03   64.59
  -5   2  -3 1758.02   64.49
  -5  -2  -3 1682.03   64.39
  -5  -2  -3 1724.73   64.79
  -5   2  -4  366.96   14.80
  -5   2  -4  369.46   14.90
   5   2   4  374.46   14.40
  -5  -2  -4  349.87   14.60
  -5  -2  -4  369.76   15.20
   5   2   5   15.20    2.00
  -5   2  -5   12.90    2.70
  -5   2  -5   16.50    2.30
  -5   2  -5   10.20    2.50
  -5   2  -5   14.10    3.00
   5   2   5   20.50    2.70
  -5  -2  -5    9.80    2.40
  -5  -2  -5    8.70    2.90
  -5   2  -6   85.19    6.00
  -5   2  -6   85.29    6.10
   5   2   6   91.39    5.50
   5   2   6   87.59    4.70
  -5  -2  -6   80.69    6.40
   5   2   7   69.89    4.80
   5   2   7   57.19    4.00
  -5   2  -7   61.29    4.00
  -5   2  -7   61.79    5.50
  -5  -2  -7   62.49    3.50
  -5  -2  -7   61.49    3.70
   5   2   8   -0.50    2.90
   5   2   8    4.00    2.10
  -5   2  -8    4.60    2.10
  -5   2  -8    2.50    3.10
  -5  -2  -8    0.90    1.50
  -5  -2  -8    2.70    2.20
  -5   2  -9  786.72   29.10
   5   2   9  763.02   30.50
  -5  -2  -9  762.92   28.90
  -5  -2  -9  746.63   29.10
   5   2  10   38.90    4.20
  -5   2 -10   33.30    2.40
  -5  -2 -10   33.00    2.10
  -5  -2 -10   34.20    2.40
  -5   2 -11  323.97   12.50
   5   2  11  327.57   13.10
  -5  -2 -11  325.17   12.40
  -5  -2 -11  321.17   12.40
   5   3 -13   37.90    2.50
  -5   3  13   34.50    3.10
   5  -3 -13   38.50    2.40
  -5   3  12  117.39    7.30
  -5   3  12  119.49    5.90
   5   3 -12  118.99    5.60
  -5  -3  12  113.39    6.30
   5  -3 -12  120.49    5.30
  -5   3  11   66.29    6.20
  -5   3  11   61.99    5.50
   5   3 -11   72.49    4.20
   5   3 -11   63.99    4.60
   5  -3 -11   72.19    3.80
  -5  -3  11   57.69    5.20
  -5   3  10   58.49    4.90
  -5   3  10   50.29    4.40
   5   3 -10   48.90    4.80
   5  -3 -10   41.30    5.40
  -5  -3  10   36.60    4.20
  -5  -3  10   49.50    4.50
   5   3  -9    1.90    2.00
  -5   3   9    2.80    2.10
   5   3  -9   -3.00    2.60
  -5   3   9    2.90    2.30
  -5  -3   9    2.80    2.30
   5  -3  -9   -2.30    2.20
  -5  -3   9    0.10    2.10
   5   3  -8  590.44   22.90
  -5   3   8  535.05   21.70
  -5   3   8  554.64   21.70
   5   3  -8  523.85   24.20
  -5  -3   8  548.15   21.50
  -5  -3   8  543.65   21.80
  -5  -3   8  532.35   22.30
   5   3  -7   80.99    7.10
  -5   3   7   75.79    4.30
  -5  -3   7   67.89    5.50
  -5  -3   7   72.49    4.90
  -5   3   6  618.34   23.10
   5   3  -6  611.94   24.80
  -5  -3   6  597.34   23.70
  -5  -3   6  567.44   23.60
   5   3  -5  675.83   27.20
  -5   3   5  668.63   25.70
   5   3  -5  701.23   27.00
  -5  -3   5  683.83   26.50
   5  -3  -5  661.53   26.80
   5   3  -4  604.34   24.50
   5   3  -4  637.74   24.50
  -5  -3   4  616.64   24.10
   5  -3  -4  606.14   24.30
   5   3  -3   26.70    3.20
  -5   3   3   24.30    1.80
   5   3  -3   23.30    2.90
  -5   3   3   25.60    1.70
   5  -3  -3   25.10    2.60
  -5  -3   3   22.00    3.60
  -5   3   2  271.87   11.10
  -5   3   2  294.87   11.10
   5   3  -2  241.08   11.70
   5  -3  -2  303.67   11.80
  -5  -3   2  293.97   11.30
  -5  -3   2  294.37   11.80
   5   3  -1   14.30    2.10
  -5   3   1   12.90    1.30
  -5   3   1   14.10    1.50
  -5  -3   1   13.00    2.00
   5  -3  -1   12.70    1.90
  -5  -3   1   14.30    1.50
   5   3   0   18.50    1.90
  -5   3   0   16.20    1.80
  -5   3   0   20.60    1.40
   5  -3   0   15.10    2.00
  -5  -3   0   16.70    1.70
  -5  -3   0   22.20    2.20
   5   3   1  699.43   26.50
  -5   3  -1  707.13   26.60
  -5   3  -1  705.33   26.30
  -5  -3  -1  656.73   26.60
   5  -3   1  714.23   26.60
  -5  -3  -1  680.93   26.60
  -5   3  -2   50.69    3.20
  -5   3  -2   57.59    3.00
   5   3   2   48.40    3.20
  -5  -3  -2   52.29    3.10
  -5  -3  -2   50.39    3.30
   5  -3   2   52.49    3.20
   5   3   3    0.20    1.20
  -5   3  -3    2.10    1.40
  -5  -3  -3    1.40    1.40
   5  -3   3    0.60    1.50
  -5  -3  -3    1.70    1.60
   5   3   4 1058.39   40.10
   5   3   4 1109.89   40.20
  -5   3  -4 1037.70   40.70
  -5   3  -4 1112.59   40.60
  -5   3  -4 1034.20   40.70
  -5  -3  -4 1021.70   40.90
   5   3   5  488.75   18.40
   5   3   5  475.05   18.20
  -5   3  -5  472.15   19.00
  -5   3  -5  468.25   19.20
  -5   3  -5  480.05   18.90
  -5   3  -5  464.15   18.90
  -5  -3  -5  435.06   18.90
   5  -3   5  456.65   18.70
  -5  -3  -5  466.35   19.50
  -5   3  -6   84.09    5.10
  -5   3  -6   83.79    5.70
   5   3   6   93.49    5.00
   5   3   6   78.89    6.30
  -5   3  -6   88.69    6.20
  -5  -3  -6   86.99    4.20
  -5  -3  -6   75.99    6.50
   5  -3   6   79.39    6.50
  -5  -3  -6   84.09    4.50
   5   3   7   -0.30    2.30
   5   3   7   -0.10    1.90
  -5   3  -7    1.40    2.80
  -5   3  -7   -0.80    1.70
  -5  -3  -7    3.00    1.20
  -5  -3  -7    2.00    1.50
   5   3   8   94.39    6.40
  -5   3  -8   79.09    4.50
   5   3   8   89.49    5.10
  -5   3  -8   75.19    6.20
  -5  -3  -8   88.19    4.10
  -5  -3  -8   89.19    4.40
   5   3   9  327.57   14.00
  -5   3  -9  347.87   13.50
   5   3   9  329.87   15.30
  -5  -3  -9  342.37   13.40
  -5  -3  -9  353.26   13.20
   5   3  10  262.17   11.10
  -5   3 -10  264.67   10.90
  -5  -3 -10  245.88   10.70
  -5  -3 -10  264.87   10.60
  -5   3 -11   30.30    1.90
   5   3  11   38.10    3.40
  -5  -3 -11   29.40    1.80
  -5  -3 -11   31.20    1.80
  -5   4  13  381.36   14.50
   5   4 -13  383.96   14.40
  -5  -4  13  363.36   14.70
   5  -4 -13  357.96   14.20
   5   4 -12  190.88    8.90
  -5   4  12  167.38    7.60
  -5  -4  12  162.48    7.80
   5  -4 -12  165.28    7.10
  -5   4  11   57.79    4.30
   5   4 -11   36.20    3.80
  -5   4  11   35.90    4.80
   5   4 -11   52.39    3.60
  -5  -4  11   50.89    4.10
   5  -4 -11   49.20    3.20
  -5   4  10  209.68    9.60
   5   4 -10  215.98    9.20
   5   4 -10  185.08    9.10
  -5   4  10  210.38    9.80
   5  -4 -10  213.68    8.80
  -5  -4  10  214.48    9.50
   5   4  -9   12.70    2.30
  -5   4   9    9.50    2.50
   5   4  -9    9.80    2.30
  -5   4   9   11.50    2.90
  -5  -4   9   11.60    2.40
   5   4  -8    4.30    2.50
   5   4  -8    2.20    2.10
  -5   4   8    5.20    2.00
  -5  -4   8    7.80    1.80
  -5  -4   8    3.90    2.10
   5   4  -7  438.06   19.70
   5   4  -7  411.56   18.10
  -5   4   7  443.16   17.10
  -5  -4   7  422.66   17.40
   5   4  -6    4.40    3.20
   5   4  -6    0.60    3.30
   5   4  -6    2.60    3.00
  -5   4   6    0.90    1.30
  -5  -4   6   -1.00    2.20
  -5   4   5 1176.48   45.00
   5   4  -5 1223.28   46.40
   5   4  -5 1194.98   46.70
   5  -4  -5 1204.18   46.40
   5   4  -4  245.88   10.50
   5   4  -4  239.28   10.60
  -5   4   4  192.08    8.90
   5  -4  -4  238.58   10.40
  -5   4   3  156.28    6.50
   5   4  -3  162.88    7.80
   5   4  -3  163.98    7.90
   5  -4  -3  167.38    7.80
  -5   4   2  472.15   18.30
   5   4  -2  410.06   19.10
  -5   4   2  514.15   18.40
  -5  -4   2  513.05   18.90
  -5  -4   2  484.85   19.30
   5  -4  -2  503.95   19.30
  -5   4   1    3.40    0.80
   5  -4  -1    2.40    1.30
  -5  -4   1    1.70    1.50
  -5  -4   1    3.30    1.10
  -5   4   0 1486.85   55.89
   5   4   0 1549.54   56.19
  -5   4   0 1559.14   56.19
  -5  -4   0 1488.75   56.59
  -5  -4   0 1426.76   56.39
   5  -4   0 1475.45   56.49
  -5   4  -1   30.10    2.50
   5   4   1   34.30    2.40
  -5   4  -1   34.60    2.20
  -5  -4  -1   37.00    3.10
   5  -4   1   33.70    2.80
  -5  -4  -1   31.70    2.70
  -5   4  -2    3.90    1.30
   5   4   2    4.20    1.30
   5  -4   2    3.50    1.30
  -5  -4  -2    4.70    1.50
   5   4   3   26.10    3.00
  -5   4  -3   24.90    2.80
  -5   4  -3   24.20    4.00
  -5   4  -3   31.20    2.60
   5  -4   3   28.70    3.80
   5  -4   3   28.50    3.10
  -5  -4  -3   23.10    3.10
   5   4   4    0.30    1.60
  -5   4  -4    1.90    1.80
  -5   4  -4    2.80    2.10
   5   4   4    2.50    2.00
  -5   4  -4    2.30    1.70
  -5  -4  -4    3.10    2.20
   5  -4   4    0.10    2.10
   5  -4   4    2.10    2.40
  -5  -4  -4    2.90    2.90
   5   4   5  314.07   12.30
  -5   4  -5  296.67   13.20
   5   4   5  321.37   12.60
  -5   4  -5  315.67   13.10
  -5   4  -5  295.37   13.20
   5  -4   5  301.17   13.50
   5  -4   5  312.17   12.90
  -5  -4  -5  285.57   13.40
  -5  -4  -5  300.07   14.10
  -5   4  -6 1779.52   68.39
  -5   4  -6 1757.92   67.89
  -5   4  -6 1788.22   67.29
   5   4   6 1823.22   67.29
  -5   4  -6 1743.83   68.19
   5   4   6 1878.31   67.69
  -5  -4  -6 1838.32   66.99
  -5  -4  -6 1779.02   67.09
   5  -4   6 1757.02   67.69
   5   4   7    1.50    2.00
   5   4   7    8.10    2.70
  -5   4  -7    3.70    2.80
  -5   4  -7    6.80    1.90
  -5   4  -7    3.40    2.90
  -5  -4  -7    6.00    1.30
  -5  -4  -7    3.30    1.20
   5  -4   7    7.80    3.20
   5   4   8  129.29    6.50
  -5   4  -8  119.49    5.90
  -5   4  -8  127.09    7.40
  -5  -4  -8  132.29    5.60
   5  -4   8  112.09   11.20
  -5  -4  -8  128.89    5.40
   5   4   9   51.29    7.10
  -5   4  -9   54.89    3.30
   5   4   9   44.80    4.40
  -5  -4  -9   55.19    2.90
  -5  -4  -9   53.89    2.80
   5   4  10  106.89    5.80
  -5   4 -10  111.89    4.90
  -5  -4 -10  115.89    4.70
  -5  -4 -10  111.09    4.70
   5   4  11   25.30    2.90
  -5   4 -11   29.30    1.80
  -5  -4 -11   30.70    1.70
  -5  -4 -11   27.30    1.60
   5   5 -13   13.10    1.50
  -5   5  13    9.70    1.80
  -5  -5  13    8.40    2.20
  -5   5  12  430.46   16.90
   5   5 -12  444.66   16.80
  -5  -5  12  433.26   17.00
   5  -5 -12  413.96   16.40
   5   5 -11   10.00    2.00
  -5   5  11   11.00    2.50
   5   5 -11   11.30    1.80
  -5   5  11   18.00    3.20
  -5  -5  11   18.20    3.00
   5  -5 -11   12.10    2.10
   5   5 -10   97.39    5.60
  -5   5  10  117.29    6.70
   5   5 -10  113.59    5.70
  -5  -5  10  113.79    5.90
  -5   5   9   25.90    4.10
   5   5  -9   24.50    3.50
  -5  -5   9   21.80    2.00
  -5  -5   9   25.70    3.50
  -5   5   8    1.60    2.20
   5   5  -8    0.20    2.00
  -5  -5   8    5.40    1.30
  -5  -5   8    1.00    1.90
   5   5  -7  407.26   16.90
  -5   5   7  426.16   16.40
   5   5  -7  417.06   17.50
  -5  -5   7  392.36   15.80
   5   5  -6  113.79    7.70
   5   5  -6  112.39    6.90
  -5   5   6  116.29    5.30
   5   5  -6  101.69    8.40
  -5  -5   6  108.59    6.00
   5   5  -5  273.37   12.20
   5   5  -5  275.17   13.00
   5   5  -5  291.07   12.60
  -5  -5   5  263.57   11.60
  -5  -5   5  252.67   12.20
   5   5  -4   18.10    3.20
   5   5  -4   17.30    2.80
   5   5  -4   19.70    3.20
   5  -5  -4   16.60    2.90
  -5   5   3   52.89    2.80
   5   5  -3   53.79    4.30
   5   5  -3   42.70    4.50
   5  -5  -3   54.79    4.70
   5   5  -2  143.39    7.20
   5   5  -2  137.29    7.70
  -5   5   2  154.78    6.30
   5  -5  -2  161.78    7.60
  -5  -5   2  148.79    7.00
  -5   5   1  411.26   15.90
  -5  -5   1  391.86   16.30
   5  -5  -1  425.16   16.70
  -5  -5   1  399.36   16.70
  -5   5   0  360.66   14.10
   5   5   0  359.66   14.20
  -5   5   0  355.06   13.70
   5  -5   0  361.36   14.70
  -5  -5   0  343.57   14.50
  -5   5  -1  237.38    9.60
  -5   5  -1  240.58    9.90
   5   5   1  248.88    9.70
   5  -5   1  224.78   10.70
  -5  -5  -1  228.68   10.30
  -5   5  -2  169.38    7.60
  -5   5  -2  175.08    7.40
   5   5   2  174.28    7.30
  -5   5  -2  168.88    8.40
   5  -5   2  177.08    8.00
  -5  -5  -2  160.28    8.00
  -5  -5  -2  169.18    8.40
   5  -5   2  157.38    7.90
  -5   5  -3   54.29    3.90
   5   5   3   66.09    4.80
   5   5   3   66.99    4.00
  -5   5  -3   63.79    3.90
  -5   5  -3   55.09    4.70
   5  -5   3   54.39    4.40
   5  -5   3   57.49    4.60
  -5  -5  -3   54.39    5.20
  -5  -5  -3   50.89    4.70
  -5   5  -4  385.96   15.60
   5   5   4  372.46   15.00
  -5   5  -4  373.46   15.50
  -5   5  -4  371.06   15.60
   5  -5   4  364.96   15.80
  -5  -5  -4  384.46   15.80
  -5  -5  -4  364.06   16.40
   5  -5   4  371.76   15.30
   5   5   5  526.15   20.80
  -5   5  -5  540.75   21.10
  -5   5  -5  507.05   20.30
  -5   5  -5  521.65   21.30
   5   5   5  512.25   20.30
   5  -5   5  513.75   19.80
  -5  -5  -5  514.15   19.80
  -5  -5  -5  520.85   19.90
   5  -5   5  515.75   20.70
  -5  -5  -5  526.95   21.30
   5   5   6    5.30    2.80
   5   5   6    6.60    2.20
  -5   5  -6    5.50    2.40
  -5   5  -6    5.00    3.00
  -5   5  -6    5.20    2.00
  -5  -5  -6    6.10    1.30
  -5  -5  -6    8.40    1.30
   5  -5   6   11.90    2.70
   5   5   7  243.38   11.50
  -5   5  -7  236.98   10.90
  -5   5  -7  241.08   10.10
   5   5   7  247.18   10.50
  -5   5  -7  225.08   11.30
  -5  -5  -7  250.37    9.80
   5  -5   7  233.48   11.10
  -5  -5  -7  254.37    9.70
   5   5   8   29.30    4.30
  -5   5  -8   37.20    2.90
  -5   5  -8   28.70    3.60
   5   5   8   38.30    4.20
   5  -5   8   42.40    5.40
  -5  -5  -8   32.40    2.20
  -5  -5  -8   34.20    2.30
  -5   5  -9   90.59    4.30
  -5   5  -9   76.19    6.20
   5   5   9   90.59    7.50
   5   5   9   90.49    5.40
  -5  -5  -9   91.49    3.90
  -5  -5  -9   88.29    4.00
  -5   5 -10  119.89    5.00
   5   5  10  113.49    5.70
  -5  -5 -10  112.39    4.80
  -5  -5 -10  117.89    4.80
   5   6 -12    6.80    1.50
  -5   6  12   12.90    2.00
   5   6 -12   11.20    1.80
  -5  -6  12   11.00    1.90
  -5   6  11   57.19    4.50
  -5  -6  11   49.30    3.70
   5   6 -10    6.70    1.80
  -5   6  10    5.50    2.90
   5   6 -10    6.50    1.70
  -5  -6  10    8.50    2.00
  -5   6   9   57.79    5.30
   5   6  -9   57.89    4.20
   5   6  -9   53.59    4.00
  -5  -6   9   55.19    4.30
  -5  -6   9   63.39    3.00
  -5   6   8  659.33   25.90
   5   6  -8  697.43   26.20
   5   6  -8  639.04   26.80
  -5  -6   8  665.33   26.10
  -5  -6   8  663.93   25.20
   5   6  -7   39.20    5.60
  -5   6   7   33.10    3.80
   5   6  -7   40.20    5.20
   5   6  -7   35.20    3.90
  -5  -6   7   31.70    3.60
  -5  -6   7   33.00    2.40
   5   6  -6   60.49    5.10
   5   6  -6   52.09    6.40
  -5   6   6   61.59    3.90
  -5  -6   6   62.59    3.30
   5   6  -5  225.58   12.30
   5   6  -5  221.18   10.70
   5   6  -5  240.18   11.40
  -5  -6   5  218.38    9.90
   5  -6  -5  224.68   11.80
  -5  -6   5  222.38   10.50
   5   6  -4  967.00   36.90
   5   6  -4  922.51   37.30
   5   6  -4  949.31   36.40
  -5  -6   4  904.81   35.80
   5  -6  -4  926.71   37.00
  -5  -6   4  924.71   36.00
   5   6  -3  385.86   16.90
   5   6  -3  351.06   16.10
   5   6  -3  408.86   16.70
  -5  -6   3  387.26   16.00
   5  -6  -3  407.86   16.90
   5   6  -2 1397.06   55.99
  -5   6   2 1518.85   54.99
   5   6  -2 1474.05   56.29
  -5  -6   2 1434.66   55.89
   5  -6  -2 1425.86   55.69
  -5  -6   2 1485.25   55.59
   5  -6  -2 1527.45   56.39
   5   6  -1   59.39    5.10
   5   6  -1   49.20    4.00
  -5   6   1   62.89    3.50
   5   6  -1   43.40    4.60
  -5  -6   1   64.49    4.70
   5  -6  -1   57.59    5.10
  -5  -6   1   58.99    4.50
   5  -6  -1   56.79    5.10
  -5   6   0  963.80   34.80
   5   6   0  870.31   35.50
   5   6   0  927.11   35.30
   5   6   0  924.11   36.10
  -5   6   0  935.81   35.30
   5  -6   0  957.40   36.20
  -5  -6   0  872.31   35.80
   5  -6   0  933.31   35.70
  -5  -6   0  948.51   35.70
   5   6   1   25.30    3.60
  -5   6  -1   17.70    2.50
  -5   6  -1   21.30    2.60
  -5   6  -1   17.30    3.70
   5   6   1   22.90    2.70
  -5  -6  -1   28.90    3.50
  -5  -6  -1   18.70    2.60
   5  -6   1   23.60    3.70
   5  -6   1   21.00    3.10
   5   6   2   83.79    4.40
  -5   6  -2   84.89    5.90
  -5   6  -2   76.29    4.80
  -5   6  -2   81.49    4.60
   5   6   2   98.39    5.20
  -5  -6  -2   79.29    5.80
   5  -6   2   79.09    5.10
   5  -6   2   84.29    6.00
  -5  -6  -2   83.29    5.60
  -5   6  -3   98.69    5.90
   5   6   3   93.19    6.10
   5   6   3  103.19    5.10
  -5   6  -3   99.49    5.60
  -5   6  -3   97.29    5.50
   5  -6   3   99.49    5.70
  -5  -6  -3   90.39    6.80
   5  -6   3   88.39    7.00
  -5  -6  -3   92.49    6.30
   5   6   4  690.13   26.00
  -5   6  -4  665.63   26.60
  -5   6  -4  661.83   26.50
  -5  -6  -4  663.23   28.00
   5  -6   4  659.63   25.30
  -5  -6  -4  671.03   25.40
  -5  -6  -4  654.93   25.30
   5  -6   4  680.93   26.20
  -5   6  -5 1457.65   57.19
   5   6   5 1491.55   56.29
   5   6   5 1525.25   56.59
  -5   6  -5 1508.75   56.09
  -5   6  -5 1510.05   56.99
  -5  -6  -5 1437.46   56.89
  -5  -6  -5 1494.75   55.79
   5  -6   5 1469.85   55.69
  -5  -6  -5 1517.75   55.79
   5  -6   5 1496.55   56.59
  -5   6  -6  248.38   11.10
  -5   6  -6  246.88   11.90
   5   6   6  246.08   11.20
   5   6   6  249.28   10.90
   5  -6   6  235.58   11.00
  -5  -6  -6  253.27   10.10
  -5  -6  -6  251.77   10.20
   5  -6   6  236.68   10.50
  -5   6  -7   14.30    3.00
   5   6   7   14.90    3.30
  -5   6  -7   10.90    1.80
  -5   6  -7   12.30    2.80
   5   6   7   13.40    2.80
   5  -6   7   14.60    3.10
  -5  -6  -7   14.10    1.80
  -5  -6  -7   14.50    1.80
   5   6   8   64.39    5.90
   5   6   8   64.89    5.00
  -5   6  -8   71.59    5.40
  -5   6  -8   69.29    3.80
   5  -6   8   57.69    5.80
  -5  -6  -8   67.39    3.20
  -5  -6  -8   67.59    3.30
  -5   6  -9   43.30    5.00
   5   6   9   44.80    3.90
  -5   6  -9   41.70    2.70
  -5  -6  -9   41.20    2.30
   5  -6   9   42.90    5.60
  -5  -6  -9   41.50    2.30
   5   6  10   10.80    1.70
  -5   6 -10   10.10    1.20
  -5  -6 -10   10.40    1.30
   5   7 -12   -2.80    1.20
   5   7 -12    0.20    0.90
  -5  -7  12   -1.00    1.60
   5   7 -11    4.00    1.30
   5   7 -11    1.70    1.40
  -5  -7  11    1.10    1.60
   5   7 -10   38.40    3.10
   5   7 -10   43.70    3.20
  -5  -7  10   46.00    2.30
  -5  -7  10   42.40    3.40
   5   7  -9   74.79    4.60
   5   7  -9   75.79    4.20
  -5   7   9   82.79    7.70
  -5  -7   9   76.79    3.40
  -5  -7   9   65.79    4.50
   5   7  -8  275.87   13.40
   5   7  -8  303.77   12.40
  -5  -7   8  294.47   11.30
  -5  -7   8  288.17   12.20
  -5  -7   8  288.27   11.40
   5   7  -7    0.20    2.00
   5   7  -7    3.10    4.80
   5   7  -7   -2.20    2.80
  -5  -7   7   -3.50    1.70
  -5  -7   7   -0.20    0.90
   5   7  -6 1834.42   70.89
   5   7  -6 1861.11   69.99
   5   7  -6 1900.41   69.49
  -5  -7   6 1806.42   68.49
  -5  -7   6 1775.52   69.19
   5   7  -5    0.00    2.50
   5   7  -5    2.50    3.10
  -5  -7   5   -0.70    2.00
  -5  -7   5    1.30    1.10
  -5  -7   5    1.60    2.50
   5  -7  -5   -1.30    1.80
   5   7  -4   45.40    5.30
   5   7  -4   38.10    5.20
   5  -7  -4   44.10    8.20
  -5  -7   4   38.50    4.50
  -5  -7   4   40.80    2.60
  -5  -7   4   33.10    4.00
   5   7  -3   29.00    4.60
   5   7  -3   25.70    3.90
   5   7  -3   34.50    5.00
   5  -7  -3   25.90    4.30
  -5  -7   3   25.20    3.10
   5   7  -2  411.46   18.70
   5   7  -2  438.56   18.20
   5   7  -2  380.56   17.50
  -5   7   2  451.55   16.80
  -5  -7   2  439.86   17.60
   5  -7  -2  425.46   17.80
   5  -7  -2  445.26   19.00
  -5   7   1  280.57   10.80
   5   7  -1  237.58   11.50
   5   7  -1  223.78   11.20
   5   7  -1  258.27   12.50
   5  -7  -1  282.97   12.80
  -5  -7   1  249.58   12.10
   5  -7  -1  271.07   11.60
   5   7   0    3.70    2.20
   5   7   0    3.30    3.60
  -5   7   0    2.20    1.70
   5   7   0    2.90    2.10
   5  -7   0    0.10    3.30
   5  -7   0    1.60    2.50
  -5  -7   0    2.40    2.30
  -5  -7   0    0.00    2.80
   5   7   1   55.59    4.10
  -5   7  -1   45.40    5.80
   5   7   1   50.39    4.10
  -5   7  -1   55.29    3.90
   5   7   1   49.10    7.00
  -5  -7  -1   53.69    4.90
  -5  -7  -1   43.60    5.40
   5  -7   1   59.49    6.90
   5  -7   1   47.60    4.60
   5   7   2  567.44   20.80
  -5   7  -2  541.75   21.50
  -5   7  -2  498.95   21.00
  -5   7  -2  526.35   21.30
   5   7   2  560.14   21.00
   5  -7   2  541.55   20.20
   5  -7   2  517.95   20.30
  -5  -7  -2  549.54   21.90
  -5  -7  -2  503.05   20.30
   5  -7   2  511.55   22.60
   5   7   3  299.67   12.30
   5   7   3  309.77   12.30
  -5   7  -3  277.07   12.70
  -5   7  -3  294.97   12.80
  -5  -7  -3  284.47   11.60
  -5  -7  -3  307.37   13.10
   5  -7   3  299.97   12.70
   5  -7   3  292.17   11.50
   5  -7   3  291.27   11.70
  -5   7  -4   10.70    2.60
  -5   7  -4    8.60    2.60
   5   7   4   10.40    2.40
   5   7   4    9.60    2.10
  -5  -7  -4    9.90    1.30
  -5  -7  -4    9.70    3.10
   5  -7   4    8.70    1.20
   5  -7   4   11.20    2.50
   5   7   5  206.88    9.30
  -5   7  -5  195.58    9.60
  -5   7  -5  198.68   10.10
   5   7   5  207.38    9.30
   5  -7   5  196.58    9.50
  -5  -7  -5  220.98    9.00
  -5  -7  -5  197.78   10.50
  -5   7  -6   24.60    4.00
  -5   7  -6   21.60    3.00
  -5   7  -6   21.30    4.00
   5  -7   6   25.80    4.10
   5  -7   6   23.10    2.00
  -5  -7  -6   26.10    2.10
   5   7   7   11.00    2.50
  -5   7  -7   12.10    1.80
  -5   7  -7   13.40    2.60
  -5   7  -7   10.60    2.90
   5   7   7   11.00    2.80
  -5  -7  -7   12.20    1.70
   5  -7   7   12.60    2.90
  -5   7  -8   11.00    2.70
   5   7   8    9.40    2.20
  -5   7  -8    6.90    1.50
   5  -7   8    0.60    3.00
  -5   7  -9  199.18    7.60
   5   7   9  179.58    8.40
  -5   7  -9  179.08    8.70
   5  -7   9  180.48    9.10
  -5  -7  -9  202.48    7.50
   5   8 -11  125.39    5.10
   5   8 -11   98.59    5.00
  -5  -8  11  121.79    5.40
   5   8 -10   15.50    2.30
   5   8 -10   21.60    2.40
  -5  -8  10   24.00    1.50
  -5  -8  10   21.50    2.70
   5   8  -9   69.19    4.20
   5   8  -9   68.29    3.90
  -5  -8   9   68.39    3.10
  -5  -8   9   71.49    4.20
   5   8  -8   41.00    3.50
   5   8  -8   40.70    5.60
  -5  -8   8   39.80    3.50
  -5  -8   8   39.60    2.20
  -5  -8   8   43.20    2.50
   5   8  -7  155.08    8.80
   5   8  -7  168.58    7.80
  -5  -8   7  160.58    6.70
  -5  -8   7  157.38    7.60
  -5  -8   7  164.38    6.60
   5   8  -6   18.40    3.20
   5   8  -6   19.20    2.80
   5   8  -6   16.60    4.60
  -5  -8   6   20.70    3.20
  -5  -8   6   15.40    1.60
  -5  -8   6   17.10    1.70
   5   8  -5  177.38    9.90
   5   8  -5  163.18    8.70
   5   8  -5  167.68    8.10
   5  -8  -5  151.58    6.90
  -5  -8   5  150.98    7.60
  -5  -8   5  167.08    6.70
   5   8  -4  351.76   15.60
   5   8  -4  331.37   14.80
  -5  -8   4  331.97   14.00
  -5  -8   4  345.27   13.10
   5  -8  -4  331.77   13.20
  -5  -8   4  330.47   14.40
   5   8  -3  663.43   27.30
   5   8  -3  662.13   26.70
  -5  -8   3  673.63   26.40
  -5  -8   3  671.73   25.20
   5  -8  -3  649.93   25.20
   5   8  -2  251.97   12.10
   5   8  -2  290.97   12.90
  -5   8   2  286.37   11.30
  -5  -8   2  277.67   10.70
   5  -8  -2  231.88   15.00
   5  -8  -2  276.27   10.70
   5  -8  -2  279.97   10.80
  -5  -8   2  264.07   12.00
   5   8  -1  190.88    9.70
  -5   8   1  203.88    8.60
   5   8  -1  165.98    9.10
  -5  -8   1  184.78    7.80
  -5  -8   1  202.78    9.30
   5  -8  -1  196.58    7.90
   5  -8  -1  195.88    7.80
   5  -8  -1  189.58    9.40
   5   8   0  615.94   25.80
   5   8   0  574.94   26.20
  -5   8   0  677.33   25.80
   5  -8   0  687.73   25.00
  -5  -8   0  647.84   25.10
  -5  -8   0  691.63   26.30
   5  -8   0  694.53   26.30
   5  -8   0  682.83   25.00
   5   8   1    5.60    2.30
  -5   8  -1    0.70    2.00
   5   8   1    3.10    2.20
  -5   8  -1    0.00    3.10
   5  -8   1   -2.10    1.10
   5  -8   1    0.10    2.40
  -5  -8  -1    3.20    2.30
  -5  -8  -1    0.40    1.10
   5  -8   1    0.70    1.00
  -5  -8  -1    1.80    1.60
   5   8   2   55.39    4.30
  -5   8  -2   58.89    5.00
   5   8   2   50.49    4.50
  -5   8  -2   48.40    4.30
   5  -8   2   58.49    4.90
   5  -8   2   52.99    2.80
  -5  -8  -2   55.39    4.90
   5  -8   2   54.09    3.10
  -5  -8  -2   51.89    3.10
   5   8   3   21.00    3.50
  -5   8  -3   18.20    2.80
  -5   8  -3   17.40    2.80
   5   8   3   23.40    3.70
   5  -8   3   13.80    1.70
  -5  -8  -3   14.00    2.10
   5  -8   3   15.80    2.90
   5  -8   3   16.60    1.80
  -5  -8  -3   17.50    3.10
   5   8   4   18.00    2.50
   5   8   4   17.80    2.70
  -5   8  -4   18.70    3.00
  -5   8  -4   16.40    2.90
   5  -8   4   19.80    2.90
  -5  -8  -4   22.20    2.10
   5  -8   4   21.40    2.60
   5  -8   4   20.60    1.80
  -5  -8  -4   27.00    3.70
  -5   8  -5  529.45   21.60
  -5   8  -5  532.25   20.70
   5   8   5  528.75   21.30
  -5   8  -5  545.75   22.20
   5   8   5  528.25   20.90
   5  -8   5  534.45   21.50
   5  -8   5  526.65   20.30
  -5  -8  -5  537.15   20.40
   5   8   6    2.10    2.60
   5   8   6    9.80    2.20
  -5   8  -6   10.40    2.40
  -5   8  -6    8.20    3.60
  -5   8  -6    8.00    1.80
  -5  -8  -6   10.00    1.30
   5  -8   6    9.00    1.10
   5  -8   6   10.70    2.70
   5   8   7    4.90    5.00
  -5   8  -7    6.40    2.30
   5   8   7    5.80    2.00
  -5   8  -7    7.50    2.70
  -5   8  -7    4.30    1.50
  -5  -8  -7    5.70    1.50
   5  -8   7    6.50    2.80
  -5   8  -8  377.46   15.90
   5   8   8  363.26   16.40
  -5   8  -8  410.56   15.00
  -5  -8  -8  393.86   14.90
   5  -8   8  402.66   18.20
  -5   8  -9    8.90    1.20
   5   8   9   11.40    1.70
   5  -8   9   11.20    3.60
   5   9 -10    1.10    1.20
   5   9 -10    0.10    1.10
  -5  -9  10    0.10    0.70
  -5  -9  10    1.30    1.50
   5   9  -9   80.89    4.10
   5   9  -9   77.09    3.90
  -5  -9   9   79.79    4.30
  -5  -9   9   76.29    3.30
   5   9  -8  182.78    9.40
   5   9  -8  172.48    9.30
   5   9  -8  179.08    7.70
  -5  -9   8  182.38    7.20
  -5  -9   8  190.18    8.10
  -5  -9   8  177.18    7.20
   5   9  -7   16.10    5.80
   5   9  -7   30.00    3.20
   5   9  -7   29.60    4.70
  -5  -9   7   29.40    3.20
  -5  -9   7   25.40    2.00
  -5  -9   7   30.60    1.80
   5   9  -6   46.50    7.70
   5   9  -6   53.89    4.20
   5   9  -6   50.89    8.10
  -5  -9   6   49.80    2.70
  -5  -9   6   55.09    2.80
  -5  -9   6   56.29    6.20
   5   9  -5   -4.80    3.70
   5   9  -5    2.70    2.70
   5   9  -5   -0.60    2.00
  -5  -9   5    1.70    2.30
   5  -9  -5   -3.10    1.40
  -5  -9   5    0.50    0.80
  -5  -9   5   -0.10    1.00
   5   9  -4  203.38   10.20
   5   9  -4  212.28   11.30
   5  -9  -4  201.28    8.30
  -5  -9   4  202.78    8.30
  -5  -9   4  206.58    8.20
   5   9  -3   42.40    5.90
   5   9  -3   47.70    5.00
   5  -9  -3   47.30    3.50
  -5  -9   3   40.50    3.40
  -5  -9   3   36.60    4.30
  -5  -9   3   42.40    2.50
   5   9  -2    4.60    2.60
   5   9  -2    5.20    3.20
  -5   9   2    2.80    2.30
  -5  -9   2    4.70    1.30
  -5  -9   2    6.10    2.30
   5  -9  -2    2.80    1.20
  -5  -9   2    3.30    1.10
  -5   9   1   32.20    3.90
   5   9  -1   30.10    5.20
   5   9  -1   27.20    4.50
   5  -9  -1   31.90    2.30
  -5  -9   1   27.80    2.30
  -5  -9   1   29.40    3.90
   5  -9  -1   29.00    3.80
   5  -9  -1   28.40    2.30
  -5  -9   1   30.80    2.40
   5   9   0   13.40    3.20
   5   9   0   16.20    2.90
  -5   9   0   15.50    2.60
  -5  -9   0   13.10    2.60
  -5  -9   0   12.70    1.60
   5  -9   0   16.10    1.80
   5  -9   0    9.50    2.90
   5  -9   0   16.00    2.00
  -5   9  -1    3.00    2.90
   5   9   1    6.40    2.90
  -5   9  -1    3.50    2.30
   5   9   1    7.30    2.40
   5  -9   1    6.60    1.70
   5  -9   1    4.00    2.50
  -5  -9  -1    5.40    1.80
  -5  -9  -1    4.90    2.30
   5   9   2  838.12   32.10
   5   9   2  751.82   32.60
  -5   9  -2  833.52   32.50
  -5   9  -2  805.42   32.50
   5  -9   2  862.11   32.70
   5  -9   2  855.01   31.30
  -5  -9  -2  856.21   32.70
   5  -9   2  843.32   31.40
  -5   9  -3   68.39    5.10
   5   9   3   60.19    4.80
   5  -9   3   63.99    5.30
   5  -9   3   61.99    3.30
  -5  -9  -3   71.69    5.70
   5  -9   3   61.59    3.10
  -5  -9  -3   60.69    3.40
  -5   9  -4  129.49    7.20
   5   9   4  133.19    6.70
   5   9   4  141.79    7.60
  -5   9  -4  125.29    7.50
   5  -9   4  135.29    5.50
   5  -9   4  137.09    7.40
  -5  -9  -4  130.89    5.70
  -5  -9  -4  134.59    7.60
   5  -9   4  130.49    5.70
   5   9   5    9.80    3.10
  -5   9  -5    6.40    2.30
  -5   9  -5    6.20    3.10
   5   9   5    6.90    2.20
  -5  -9  -5    8.50    1.20
   5  -9   5    6.80    1.00
   5  -9   5    8.90    2.60
  -5   9  -6   37.50    3.90
   5   9   6   39.20    3.70
  -5   9  -6   34.50    3.00
  -5  -9  -6   34.30    2.40
   5  -9   6   32.90    4.20
  -5   9  -7  159.98    8.10
  -5   9  -7  174.58    6.90
   5   9   7  162.68    7.40
  -5   9  -7  151.78    9.70
  -5  -9  -7  165.38    6.70
   5  -9   7  174.18    8.00
   5   9   8   72.69    4.50
  -5   9  -8   84.79    3.70
  -5   9  -8   83.39    4.90
   5  -9   8   78.09    4.90
  -5  -9  -8   80.29    3.50
   5  10  -9  121.39    5.20
   5  10  -9  112.29    5.60
  -5 -10   9  126.59    4.80
  -5 -10   9  124.19    5.70
   5  10  -8   49.00    2.90
   5  10  -8   45.00    3.10
   5  10  -8   47.80    5.30
  -5 -10   8   49.20    2.20
  -5 -10   8   50.19    3.70
  -5 -10   8   49.10    2.40
   5  10  -7   28.20    4.40
   5  10  -7   20.90    2.70
  -5 -10   7   21.30    1.50
  -5 -10   7   17.60    1.60
  -5 -10   7   19.30    2.50
   5  10  -6   23.40    3.30
   5  10  -6   27.60    5.60
   5  10  -6   22.90    3.10
  -5 -10   6   30.10    3.70
  -5 -10   6   25.60    1.60
  -5 -10   6   27.30    1.90
   5  10  -5  136.49    6.70
   5  10  -5  140.59    7.70
   5  10  -5  128.09    9.40
  -5 -10   5  140.79    5.60
  -5 -10   5  137.89    5.70
   5 -10  -5  137.59    6.00
   5  10  -4    3.40    3.70
   5  10  -4    0.30    1.90
   5  10  -4    0.00    2.60
  -5 -10   4    2.60    1.00
  -5 -10   4    2.70    0.80
   5 -10  -4    3.40    1.20
   5  10  -3   74.69    7.20
   5  10  -3   65.69    5.90
  -5 -10   3   68.69    3.20
  -5 -10   3   69.99    3.40
   5 -10  -3   69.79    3.50
   5  10  -2  561.34   24.70
   5  10  -2  585.54   23.90
  -5 -10   2  593.74   23.60
  -5 -10   2  590.24   22.40
  -5 -10   2  599.54   22.30
   5 -10  -2  598.54   22.40
  -5  10   1  176.98    8.20
   5  10  -1  157.08    9.70
   5  10  -1  158.78    8.70
  -5 -10   1  179.78    8.60
   5 -10  -1  173.08    6.90
  -5 -10   1  157.58    6.80
  -5 -10   1  166.38    6.90
   5  10   0   -1.00    3.30
   5  10   0    1.30    2.70
  -5  10   0   -0.70    2.50
  -5 -10   0    2.30    1.10
   5 -10   0    1.60    1.00
  -5 -10   0    1.50    2.30
   5 -10   0    3.40    1.00
   5 -10   0    2.50    3.10
  -5  10  -1   30.00    4.80
   5  10   1   33.90    4.70
  -5  10  -1   36.10    4.30
   5  10   1   29.50    4.30
   5 -10   1   33.70    2.00
   5 -10   1   29.20    2.20
  -5 -10  -1   27.50    2.40
   5 -10   1   33.70    5.40
   5  10   2   49.00    4.80
  -5  10  -2   44.40    4.60
  -5  10  -2   46.50    4.80
   5  10   2   36.50    5.90
   5 -10   2   51.59    4.90
   5 -10   2   48.60    2.50
   5 -10   2   49.30    2.70
  -5 -10  -2   49.90    4.80
   5  10   3   96.19    5.80
  -5  10  -3   94.09    5.80
  -5  10  -3   94.49    6.10
   5  10   3   82.69    7.00
   5 -10   3   94.69    4.10
   5 -10   3   93.49    4.20
   5 -10   3  100.69    6.10
  -5 -10  -3   93.49    6.10
  -5  10  -4   74.39    6.20
   5  10   4   72.49    7.10
  -5  10  -4   87.99    5.40
   5  10   4   91.89    5.40
   5 -10   4   82.29    3.70
  -5 -10  -4   87.19    6.30
   5 -10   4   86.09    4.80
   5 -10   4   87.49    5.50
  -5  10  -5   63.49    4.50
   5  10   5   66.49    4.80
   5 -10   5   59.29    4.80
   5 -10   5   65.39    3.40
   5  10   6  514.95   19.80
  -5  10  -6  515.35   20.40
  -5  10  -6  492.15   21.50
  -5  10  -7    2.50    2.20
   5  10   7    0.60    2.20
  -5  10  -7    1.50    2.00
   5 -10   7    3.30    2.20
   5  11  -8    5.40    1.00
  -5 -11   8    6.00    0.80
  -5 -11   8    6.40    0.80
   5  11  -7  300.07   11.90
   5  11  -7  310.57   12.30
   5  11  -7  296.67   12.80
  -5 -11   7  312.37   11.70
  -5 -11   7  307.37   11.60
   5  11  -6   95.89    5.90
   5  11  -6   97.99    4.80
  -5 -11   6   95.69    4.00
  -5 -11   6   94.89    4.00
   5  11  -5  310.77   13.80
   5  11  -5  325.97   13.10
  -5 -11   5  325.57   12.40
   5 -11  -5  323.77   12.50
  -5 -11   5  330.87   12.50
   5  11  -4   22.50    3.00
   5  11  -4   14.20    2.80
   5  11  -4   23.60    6.70
  -5 -11   4   22.50    2.00
   5 -11  -4   23.00    2.00
  -5 -11   4   21.30    1.60
   5  11  -3   32.90    5.00
   5  11  -3   33.20    4.40
   5  11  -3   29.70    3.70
  -5 -11   3   34.90    2.10
  -5 -11   3   37.20    2.00
   5 -11  -3   38.40    2.30
   5  11  -2   94.79    8.10
   5  11  -2   94.29    6.40
   5 -11  -2  108.19    4.50
  -5 -11   2  104.19    4.40
  -5 -11   2   99.19    4.30
   5  11  -1    3.60    4.10
   5  11  -1    4.00    2.70
   5 -11  -1    4.30    1.00
  -5 -11   1    4.60    1.00
   5  11   0   20.90    4.20
   5  11   0   17.00    3.00
  -5  11   0   20.00    3.20
  -5 -11   0   19.00    1.80
   5 -11   0   21.30    1.80
  -5  11  -1  546.55   21.70
   5  11   1  521.85   21.70
  -5  11  -1  572.44   21.70
   5  11   1  494.35   22.60
   5 -11   1  551.04   20.60
  -5 -11  -1  514.25   20.50
   5 -11   1  586.74   21.80
   5  11   2   -0.60    2.60
  -5  11  -2    1.80    2.30
   5 -11   2    0.60    2.70
   5 -11   2    0.20    1.30
   5  11   3    4.00    2.60
  -5  11  -3    3.70    2.20
   5 -11   3    3.10    1.00
   5 -11   3    6.40    2.50
  -5  11  -4    3.00    2.10
   5  11   4    1.20    2.40
   5 -11   4    3.10    1.00
  -5  11  -5   30.30    3.60
   5  11   5   22.10    2.90
  -5  11  -5   30.30    3.20
   5 -11   5   36.40    3.60
   5  12  -6    6.20    2.30
   5  12  -6    4.70    0.90
  -5 -12   6    6.20    0.80
  -5 -12   6    7.90    0.80
   5  12  -5   10.20    2.30
  -5 -12   5   12.30    1.20
  -5 -12   5   14.50    1.00
   5  12  -4    9.20    2.40
   5  12  -4   10.60    2.20
  -5 -12   4    5.60    0.70
   5 -12  -4    5.80    1.10
  -5 -12   4    6.00    0.80
   5  12  -3   71.49    4.10
   5  12  -3   65.39    4.90
  -5 -12   3   70.19    3.00
  -5 -12   3   67.29    3.10
   5 -12  -3   69.99    3.20
   5  12  -2  421.96   16.60
   5  12  -2  416.06   17.30
  -5 -12   2  414.76   15.90
  -5 -12   2  424.46   16.10
   5 -12  -2  436.26   16.10
   5  12  -1   63.19    5.00
   5 -12  -1   65.39    3.00
  -5 -12   1   59.49    2.90
   5  12   0   20.00    5.30
   5 -12   0   25.30    1.70
  -5 -12   0   27.80    1.80
   5  12   1   -0.30    2.40
  -5  12  -1    3.60    2.50
   5 -12   1   -0.70    0.70
  -5  12  -2   29.60    3.60
   5  12   2   25.70    4.20
   5 -12   2   24.90    1.70
  -5  12  -3   10.10    2.10
   5  12   3   12.60    2.70
   5 -12   3   12.00    1.30
   6   0 -14  142.99    5.90
  -6   0  14  146.79    6.50
   6   0 -13    0.10    1.10
  -6   0  13    2.00    1.80
   6   0 -12  270.37   11.10
  -6   0  12  282.97   11.50
  -6   0  12  266.67   13.00
  -6   0  11   -0.50    3.30
   6   0 -11    2.40    1.70
  -6   0  11    1.10    1.90
  -6   0  11    0.80    3.10
  -6   0  10  235.18   10.90
  -6   0  10  228.38   10.00
  -6   0  10  219.08   10.60
   6   0 -10  224.58    9.90
  -6   0   9    2.90    3.00
   6   0  -9   -1.60    2.40
  -6   0   9    0.10    1.90
  -6   0   9   -0.50    2.10
  -6   0   8  207.98    9.30
  -6   0   8  203.48   10.00
  -6   0   8  214.08    9.60
  -6   0   7   -0.20    1.50
  -6   0   7    3.20    2.90
  -6   0   7   -2.60    1.90
  -6   0   6 1587.04   60.19
   6   0  -6 1605.84   61.09
  -6   0   5    0.30    1.10
   6   0  -5   -2.50    2.00
   6   0  -4  804.02   30.60
   6   0  -4  805.52   30.90
  -6   0   4  773.52   30.60
   6   0  -3    1.00    1.20
  -6   0   3   -1.30    1.10
  -6   0   3    2.20    1.00
  -6   0   2  264.17   10.20
  -6   0   2  275.47   10.60
   6   0  -2  249.78   10.80
  -6   0   2  271.57   10.90
  -6   0   1    0.90    0.80
  -6   0   1    0.30    0.70
   6   0  -1    0.30    0.90
  -6   0   1    1.70    0.80
  -6   0   0 1326.17   48.70
   6   0   0 1284.07   48.60
  -6   0   0 1264.17   48.60
   6   0   1    0.70    1.40
  -6   0  -1    1.90    0.80
   6   0   1    0.90    0.80
  -6   0  -1   -0.30    1.00
   6   0   2  129.79    6.30
  -6   0  -2  131.69    6.00
  -6   0  -2  141.09    5.90
   6   0   3    1.40    2.10
  -6   0  -3    0.20    1.20
  -6   0  -3   -1.30    1.80
   6   0   4  133.99    6.70
  -6   0  -4  137.69    6.60
  -6   0  -4  127.39    7.10
  -6   0  -4  136.09    7.00
   6   0   4  132.59    6.80
  -6   0  -5   -1.10    2.20
  -6   0  -5   -0.20    2.60
   6   0   5    0.40    2.30
   6   0   5    1.20    2.60
  -6   0  -5   -1.60    2.30
   6   0   6 1065.79   42.40
  -6   0  -6 1141.59   41.90
  -6   0  -6 1062.09   43.40
   6   0   6 1162.78   45.10
  -6   0  -6 1120.79   42.60
   6   0   7    1.00    2.60
   6   0   7    0.40    4.30
  -6   0  -7    1.20    1.90
  -6   0  -7   -2.20    1.40
  -6   0  -7   -0.80    2.80
   6   0   8  113.89    6.90
  -6   0  -8  124.39    5.30
  -6   0  -8  108.19    5.60
  -6   0  -9    0.20    1.10
   6   0   9   -6.60    3.00
  -6   0  -9   -1.00    1.50
  -6   0 -10   45.80    2.80
  -6   0 -10   49.40    2.80
  -6   0 -11    0.10    0.70
  -6   1  14  146.09    6.10
   6   1 -14  136.19    5.70
   6  -1 -14  136.99    5.70
  -6   1  13  242.78   10.10
   6   1 -13  232.68    9.70
  -6  -1  13  267.47   10.10
   6  -1 -13  227.48    9.60
   6   1 -12    4.50    1.50
  -6   1  12    4.90    2.00
  -6   1  12   -1.70    3.40
  -6  -1  12    8.70    3.00
  -6  -1  12    0.50    4.80
  -6  -1  12    3.60    2.00
   6  -1 -12    3.60    1.50
  -6   1  11  400.46   18.00
  -6   1  11  401.06   16.50
   6   1 -11  410.06   16.30
  -6  -1  11  417.26   16.50
  -6  -1  11  420.66   17.00
   6  -1 -11  401.76   16.10
  -6   1  10  387.86   15.80
   6   1 -10  394.96   15.70
  -6   1  10  395.96   16.50
  -6   1  10  388.46   16.60
  -6  -1  10  399.36   16.80
   6  -1 -10  383.26   15.50
  -6  -1  10  373.76   16.20
  -6  -1  10  376.06   15.70
   6   1  -9 1238.48   47.10
  -6   1   9 1260.97   47.10
  -6  -1   9 1248.98   47.50
   6  -1  -9 1182.88   46.90
  -6  -1   9 1254.07   47.10
  -6   1   8   67.19    4.70
  -6   1   8   64.59    4.60
  -6   1   8   69.79    6.10
  -6  -1   8   70.29    5.10
  -6  -1   8   73.59    4.60
  -6  -1   8   74.79    5.30
  -6   1   7    1.60    1.50
  -6   1   7    4.60    2.30
   6   1  -7    2.80    3.70
  -6  -1   7    2.60    1.70
  -6  -1   7    3.00    2.70
  -6  -1   7    1.90    1.90
  -6   1   6   86.09    4.50
   6   1  -6  100.29    6.50
  -6  -1   6   82.09    4.80
  -6   1   5  674.63   26.00
   6   1  -5  669.83   26.90
   6  -1  -5  685.03   26.70
  -6  -1   5  678.63   26.20
   6  -1  -5  685.83   26.70
  -6   1   4  385.36   15.30
  -6   1   4  376.76   15.70
   6   1  -4  392.16   16.20
   6   1  -4  392.16   15.60
   6  -1  -4  403.66   16.00
  -6  -1   4  400.66   15.60
   6  -1  -4  409.46   16.00
  -6   1   3    2.60    1.10
  -6   1   3    3.00    0.80
   6   1  -3    4.80    1.30
   6  -1  -3    3.00    1.20
  -6  -1   3    4.00    1.20
  -6  -1   3    4.80    1.40
   6   1  -2  460.05   19.40
   6   1  -2  468.55   18.40
  -6   1   2  446.86   18.00
  -6   1   2  498.85   18.20
  -6  -1   2  506.45   18.80
  -6  -1   2  504.05   18.50
  -6  -1   2  499.55   18.00
   6  -1  -2  426.96   18.60
   6   1  -1   -0.20    1.50
  -6   1   1    1.10    0.70
  -6  -1   1    0.10    0.90
   6  -1  -1    0.50    0.90
  -6  -1   1    2.00    0.70
  -6   1   0  107.49    4.70
   6   1   0  104.99    4.60
   6   1   0  107.99    4.90
  -6   1   0  103.09    4.60
  -6  -1   0  108.09    4.80
   6  -1   0  105.29    4.80
  -6  -1   0  114.59    4.90
  -6   1  -1  169.88    7.00
   6   1   1  166.48    7.00
   6   1   1  170.08    7.10
  -6   1  -1  171.88    7.20
  -6  -1  -1  157.58    7.30
  -6  -1  -1  179.48    7.10
  -6  -1  -1  171.08    7.30
   6  -1   1  171.78    7.10
  -6   1  -2 1222.18   45.80
  -6   1  -2 1180.98   45.80
  -6  -1  -2 1196.38   45.70
  -6  -1  -2 1239.98   46.10
   6  -1   2 1226.78   45.80
  -6   1  -3  763.82   29.50
  -6   1  -3  782.32   29.50
   6   1   3  752.32   29.50
  -6  -1  -3  771.22   29.40
  -6  -1  -3  769.32   29.90
   6   1   4  107.49    5.50
  -6   1  -4  101.79    5.40
   6   1   4   98.59    5.40
  -6   1  -4   99.09    5.90
  -6   1  -4   98.29    6.20
  -6  -1  -4   97.79    5.40
  -6  -1  -4  104.39    5.90
  -6  -1  -4  103.09    6.00
   6  -1   4   90.89    6.90
   6   1   5  680.93   26.00
  -6   1  -5  679.13   26.70
   6   1   5  739.63   26.50
  -6   1  -5  676.43   26.80
  -6  -1  -5  681.33   27.30
   6  -1   5  637.04   26.30
  -6  -1  -5  658.93   26.60
  -6  -1  -5  669.03   26.70
  -6   1  -6   34.80    3.50
   6   1   6   24.50    2.70
   6   1   6   27.60    4.60
  -6   1  -6   25.00    3.20
  -6  -1  -6   25.70    3.30
  -6  -1  -6   28.10    3.50
  -6  -1  -6   28.60    2.90
   6  -1   6   32.20    3.70
   6   1   7   87.29    7.20
  -6   1  -7   98.19    4.80
  -6   1  -7   98.79    6.20
   6   1   7   96.19    5.50
  -6  -1  -7   99.99    4.60
  -6  -1  -7   88.69    6.90
   6  -1   7   96.39    6.70
  -6  -1  -7   92.99    5.00
  -6   1  -8   15.20    2.30
   6   1   8   17.70    3.00
  -6   1  -8   10.40    3.30
   6   1   8   16.30    5.30
  -6  -1  -8   15.10    2.10
  -6  -1  -8   14.10    1.90
  -6   1  -9   89.29    4.10
   6   1   9   81.39    5.70
  -6  -1  -9   82.49    4.20
  -6  -1  -9   84.79    3.90
   6   1  10  600.24   22.70
  -6   1 -10  587.84   22.10
  -6  -1 -10  588.04   22.10
  -6  -1 -10  560.24   22.10
  -6   1 -11  531.15   20.00
  -6  -1 -11  531.85   20.00
  -6   2  14   99.09    4.70
   6   2 -14   96.09    4.10
   6  -2 -14   94.89    4.10
  -6   2  13  281.27   11.40
   6   2 -13  278.87   11.10
   6  -2 -13  278.17   10.90
  -6   2  12  183.58    8.30
   6   2 -12  185.58    8.00
  -6   2  12  179.08    9.40
  -6  -2  12  190.88    8.60
  -6  -2  12  186.28    8.20
   6  -2 -12  178.48    7.70
   6   2 -11   26.60    3.10
  -6   2  11   24.50    3.50
  -6   2  11   27.00    3.70
  -6  -2  11   24.20    3.70
  -6  -2  11   30.40    5.40
   6  -2 -11   21.20    2.70
  -6  -2  11   18.80    3.10
  -6   2  10 1040.20   39.40
   6   2 -10 1033.90   39.30
  -6   2  10 1009.50   39.80
  -6  -2  10 1025.00   39.20
  -6  -2  10 1025.70   39.60
  -6  -2  10 1041.20   40.30
   6  -2 -10 1007.90   38.90
   6   2  -9    1.30    2.20
  -6   2   9    3.40    4.10
  -6   2   9    0.30    2.20
  -6   2   9    0.90    2.20
  -6  -2   9    2.00    1.90
  -6  -2   9   -1.40    2.80
   6  -2  -9    3.80    2.50
  -6  -2   9    3.70    2.50
  -6   2   8   17.00    2.50
  -6   2   8   20.30    2.80
  -6   2   8   20.20    4.00
  -6  -2   8   17.80    2.50
  -6  -2   8   18.60    2.90
  -6  -2   8   20.40    3.00
   6   2  -7   12.80    3.90
  -6   2   7   11.20    1.90
  -6   2   7   11.50    2.70
  -6  -2   7   12.70    2.50
  -6  -2   7   11.40    2.20
  -6  -2   7   16.20    2.70
   6   2  -6    7.90    2.90
  -6   2   6    6.50    1.40
  -6  -2   6    8.40    2.80
  -6  -2   6    5.10    1.90
  -6   2   5  520.05   20.70
   6   2  -5  537.65   21.90
   6  -2  -5  543.45   21.70
  -6  -2   5  545.35   21.20
   6   2  -4  579.84   23.00
   6   2  -4  600.54   23.00
  -6   2   4  486.25   21.70
  -6  -2   4  586.84   22.30
   6  -2  -4  580.74   22.70
   6  -2  -4  592.84   22.50
  -6   2   3    2.80    1.10
  -6   2   3    3.10    0.80
   6   2  -3    3.50    2.20
  -6  -2   3    2.50    1.50
   6  -2  -3    3.00    1.40
  -6  -2   3    2.10    1.40
  -6   2   2    1.10    1.00
  -6   2   2   -0.20    0.70
   6   2  -2    0.10    1.80
   6  -2  -2    1.10    1.20
  -6  -2   2   -0.10    1.20
  -6  -2   2    1.50    0.90
  -6  -2   2   -0.10    1.50
  -6   2   1  121.09    5.10
  -6   2   1  120.69    5.10
   6   2  -1  122.99    5.60
  -6  -2   1  119.49    5.60
  -6  -2   1  116.39    5.60
  -6  -2   1  116.59    5.10
   6  -2  -1  106.19    5.40
   6   2   0  686.03   27.20
   6   2   0  769.12   27.30
  -6   2   0  721.63   27.10
  -6   2   0  720.13   27.30
  -6  -2   0  680.83   27.30
  -6  -2   0  709.93   27.50
   6  -2   0  731.83   27.40
  -6   2  -1  369.86   14.60
  -6   2  -1  361.46   14.40
   6  -2   1  367.46   14.60
  -6  -2  -1  363.46   14.70
  -6  -2  -1  385.96   14.60
  -6   2  -2  504.95   19.60
   6   2   2  481.45   19.60
  -6   2  -2  490.85   19.70
   6  -2   2  517.05   19.70
  -6  -2  -2  537.85   19.60
  -6  -2  -2  493.65   19.90
  -6   2  -3  306.97   12.50
  -6   2  -3  310.77   12.60
   6   2   3  303.97   12.60
  -6  -2  -3  305.57   13.00
  -6  -2  -3  305.17   12.50
   6  -2   3  310.07   12.70
  -6   2  -4   13.80    2.80
  -6   2  -4   15.90    2.70
  -6   2  -4   11.20    2.10
   6   2   4   13.50    2.20
  -6   2  -4   12.10    2.40
   6   2   4   14.90    2.20
  -6  -2  -4   16.80    2.90
  -6  -2  -4   15.50    2.50
  -6  -2  -4   17.10    2.40
  -6   2  -5  152.38    7.60
  -6   2  -5  141.39    7.50
   6   2   5  146.19    7.20
   6   2   5  151.38    6.70
  -6   2  -5  145.59    7.30
  -6  -2  -5  137.69    8.10
  -6  -2  -5  128.29    7.50
  -6   2  -6   15.80    2.30
   6   2   6    8.00    2.10
  -6   2  -6    9.50    2.70
   6   2   6   11.90    2.80
  -6  -2  -6   12.30    2.10
  -6  -2  -6   17.80    2.30
   6   2   7  258.07   12.00
  -6   2  -7  263.57   10.50
   6   2   7  254.87   10.80
  -6   2  -7  244.08   11.50
  -6  -2  -7  240.38   11.80
  -6  -2  -7  260.97   10.10
  -6  -2  -7  246.88   10.40
   6   2   8   15.90    4.90
  -6   2  -8    9.50    3.20
   6   2   8   11.90    2.80
  -6   2  -8   15.00    2.40
  -6  -2  -8   14.00    1.90
  -6  -2  -8   13.70    2.30
   6   2   9   14.10    2.90
   6   2   9    8.40    5.90
  -6   2  -9   13.50    2.00
  -6  -2  -9   14.10    1.70
  -6  -2  -9   13.40    1.90
  -6   2 -10  185.48    7.30
   6   2  10  186.18    8.20
  -6  -2 -10  170.88    7.20
  -6  -2 -10  181.38    7.20
  -6   2 -11    3.30    0.80
  -6  -2 -11    3.40    0.70
   6   3 -13  129.79    5.70
  -6   3  13  134.09    6.10
   6  -3 -13  133.59    5.60
  -6  -3  13  129.49    6.50
  -6   3  12   76.59    6.30
  -6   3  12   82.59    4.80
   6   3 -12   78.09    4.30
  -6  -3  12   80.49    5.10
   6  -3 -12   85.89    4.40
  -6   3  11    6.00    2.60
   6   3 -11    5.90    1.70
  -6   3  11    8.50    3.00
   6  -3 -11    7.30    1.70
  -6  -3  11    6.60    3.00
  -6  -3  11   11.50    2.60
  -6   3  10  954.30   35.90
  -6   3  10  888.81   36.20
   6   3 -10  944.01   35.90
  -6  -3  10  936.41   36.10
   6  -3 -10  957.40   36.00
  -6  -3  10  912.41   35.70
  -6   3   9   29.40    4.10
  -6   3   9   37.70    4.30
   6   3  -9   34.00    3.90
  -6  -3   9   32.40    4.00
  -6  -3   9   29.30    3.80
   6   3  -8   40.20    4.60
   6   3  -8   41.30    6.60
  -6   3   8   43.70    3.90
  -6   3   8   44.80    5.00
  -6  -3   8   45.30    5.70
  -6  -3   8   44.50    4.10
   6   3  -7   50.79    7.10
  -6   3   7   58.29    3.80
  -6  -3   7   48.40    4.30
  -6  -3   7   55.49    5.30
  -6  -3   7   55.69    4.40
  -6   3   6 1168.38   43.50
   6   3  -6 1169.58   45.30
  -6  -3   6 1148.59   44.10
  -6  -3   6 1102.59   43.60
  -6  -3   6 1159.08   44.00
   6   3  -5  600.14   23.80
  -6   3   5  547.55   22.20
   6   3  -5  588.04   23.70
   6  -3  -5  579.44   23.50
   6   3  -4   28.60    3.70
  -6   3   4   18.00    1.80
   6   3  -4   24.40    4.20
  -6  -3   4   22.20    2.80
   6  -3  -4   20.70    3.20
   6   3  -3    0.70    2.10
  -6   3   3    0.50    0.80
  -6   3   3    0.00    1.10
  -6  -3   3    4.00    1.80
   6  -3  -3    4.50    1.70
  -6  -3   3   -1.00    2.20
  -6   3   2  382.66   15.10
   6  -3  -2  390.56   15.90
  -6  -3   2  387.06   15.30
  -6  -3   2  405.76   16.00
  -6   3   1 1628.34   57.99
  -6   3   1 1602.64   57.89
  -6  -3   1 1610.44   58.59
  -6  -3   1 1487.65   58.09
   6  -3  -1 1413.86   58.39
  -6   3   0 2671.93  100.09
   6   3   0 2855.81  100.29
  -6   3   0 2711.33  100.29
  -6  -3   0 2691.73  100.69
   6  -3   0 2721.43  100.59
  -6  -3   0 2483.65  100.39
   6   3   1  679.83   25.40
  -6   3  -1  677.73   25.60
   6   3   1  643.94   25.20
  -6   3  -1  646.24   25.40
  -6  -3  -1  634.84   25.70
  -6  -3  -1  670.93   25.80
   6  -3   1  710.33   25.80
   6   3   2  146.59    6.40
  -6   3  -2  146.19    6.50
  -6  -3  -2  139.29    6.70
  -6  -3  -2  142.09    6.60
   6  -3   2  130.89    8.10
  -6   3  -3   49.00    3.30
  -6   3  -3   41.90    4.20
   6   3   3   47.90    4.10
   6   3   3   43.10    3.70
  -6   3  -3   42.60    3.30
  -6  -3  -3   47.70    3.90
   6  -3   3   49.50    3.80
  -6  -3  -3   48.40    3.80
  -6  -3  -3   45.80    4.70
  -6   3  -4  171.58    8.60
  -6   3  -4  176.58    7.90
  -6   3  -4  166.18    8.00
   6   3   4  171.68    7.60
   6   3   4  165.78    8.00
  -6   3  -4  180.48    8.10
   6  -3   4  157.68    8.70
  -6  -3  -4  159.38    8.40
   6  -3   4  168.88    8.20
  -6  -3  -4  161.78    8.40
   6   3   5   10.90    2.20
  -6   3  -5   12.50    2.80
   6   3   5   14.00    2.50
  -6   3  -5    8.30    2.80
  -6   3  -5   13.40    2.50
  -6  -3  -5   14.60    2.70
   6  -3   5   11.60    3.60
  -6  -3  -5    6.40    2.80
  -6   3  -6  214.68   10.20
   6   3   6  213.98   10.30
  -6   3  -6  219.98    9.90
   6   3   6  218.88    9.40
  -6   3  -6  217.08    9.30
  -6  -3  -6  221.38    8.80
  -6  -3  -6  207.18   10.40
  -6  -3  -6  215.38    9.00
   6   3   7   27.90    4.10
  -6   3  -7   30.30    3.60
  -6   3  -7   35.20    3.20
   6   3   7   27.70    3.90
  -6  -3  -7   34.50    3.10
  -6  -3  -7   30.90    2.70
   6   3   8   34.00    4.40
   6   3   8   31.20    5.10
  -6   3  -8   32.10    2.90
  -6   3  -8   34.00    5.20
  -6  -3  -8   33.50    2.30
  -6  -3  -8   32.00    2.40
  -6   3  -9    1.10    1.20
   6   3   9    0.00    2.40
   6   3   9    4.40    5.10
  -6  -3  -9    0.80    0.90
  -6  -3  -9    0.90    1.00
   6   3  10  266.67   11.00
  -6   3 -10  274.37   10.40
  -6  -3 -10  268.57   10.30
  -6  -3 -10  256.77   10.30
  -6   3 -11   13.90    1.40
  -6  -3 -11   16.10    1.30
  -6   4  13    2.60    1.70
   6   4 -13    2.10    1.10
  -6  -4  13   -0.60    2.00
  -6   4  12   57.99    4.00
   6   4 -12   52.99    4.80
  -6  -4  12   55.49    4.10
   6  -4 -12   50.59    3.30
  -6   4  11    0.10    2.20
   6   4 -11    3.30    1.60
  -6   4  11    5.40    2.80
   6   4 -11   -1.80    2.30
  -6  -4  11    5.80    2.10
   6  -4 -11    3.10    2.00
  -6   4  10  148.39    7.70
  -6   4  10  146.39    7.40
   6   4 -10  148.49    7.00
   6   4 -10  129.59    7.00
  -6  -4  10  140.19    7.20
  -6   4   9   37.30    4.90
  -6   4   9   41.70    4.30
   6   4  -9   34.90    3.90
  -6  -4   9   37.00    3.90
  -6   4   8  317.87   13.10
   6   4  -8  321.77   13.30
  -6  -4   8  299.77   12.20
  -6  -4   8  302.17   13.20
  -6   4   7   13.30    2.10
   6   4  -7   21.30    5.10
  -6  -4   7    9.60    2.40
  -6   4   6    5.20    1.50
   6   4  -6   11.10    3.80
   6   4  -6    6.70    3.90
   6   4  -6    6.30    3.30
  -6  -4   6    6.60    2.30
   6  -4  -6   13.80    3.30
   6   4  -5  339.97   14.80
   6   4  -5  339.87   14.90
   6   4  -5  305.87   14.30
   6  -4  -5  345.27   14.70
  -6  -4   5  315.07   13.80
  -6   4   4  407.86   16.60
   6   4  -4  440.46   18.20
   6   4  -4  426.26   18.30
   6  -4  -4  454.95   18.20
   6   4  -3    1.50    2.10
   6   4  -3    1.30    2.00
  -6   4   3    1.30    0.90
   6  -4  -3    1.00    1.80
  -6   4   2   13.50    1.60
  -6   4   2   11.20    1.90
   6   4  -2    9.00    2.00
  -6  -4   2   13.50    2.40
   6  -4  -2   16.40    3.00
  -6  -4   2   11.10    2.30
  -6   4   1  125.09    5.30
   6   4  -1  119.09    6.00
  -6   4   1  128.89    5.50
   6  -4  -1  122.29    6.30
  -6  -4   1  123.29    5.90
  -6  -4   1  123.79    6.40
  -6   4   0  417.96   15.90
   6   4   0  419.16   16.20
  -6   4   0  414.16   16.20
   6  -4   0  414.76   16.60
  -6  -4   0  416.36   16.80
  -6  -4   0  382.56   16.30
   6   4   1  103.49    4.80
  -6   4  -1  103.19    5.00
   6  -4   1  105.09    5.40
  -6  -4  -1  105.39    5.80
  -6  -4  -1   93.09    5.30
   6   4   2  286.17   12.00
  -6   4  -2  293.67   12.10
   6   4   2  299.47   11.80
  -6   4  -2  303.17   11.90
  -6   4  -2  288.77   12.50
   6  -4   2  306.87   12.30
  -6  -4  -2  284.17   12.40
   6  -4   2  282.57   12.40
  -6  -4  -2  281.57   12.50
   6   4   3   20.20    2.70
   6   4   3   17.60    3.10
  -6   4  -3   20.90    2.80
  -6   4  -3   19.10    2.60
  -6   4  -3   18.80    2.70
   6  -4   3   17.70    2.50
  -6  -4  -3   16.50    2.60
   6  -4   3   20.50    3.00
  -6  -4  -3   19.30    3.00
  -6   4  -4  682.43   26.70
  -6   4  -4  680.83   26.70
   6   4   4  693.93   26.30
  -6   4  -4  679.23   26.80
  -6  -4  -4  669.23   27.50
  -6  -4  -4  675.43   26.80
   6  -4   4  686.33   26.70
   6  -4   4  663.43   26.90
   6   4   5  275.87   11.10
  -6   4  -5  257.67   11.10
  -6   4  -5  259.07   11.50
   6   4   5  254.17   11.70
  -6   4  -5  254.47   11.80
  -6   4  -5  266.17   12.00
  -6  -4  -5  265.17   10.30
  -6  -4  -5  244.88   12.10
  -6  -4  -5  268.57   10.50
   6   4   6    8.10    3.20
  -6   4  -6   14.60    2.90
  -6   4  -6    7.10    2.00
  -6   4  -6    7.80    2.40
   6   4   6    9.90    2.40
   6  -4   6    6.20    3.40
  -6  -4  -6    7.90    1.20
  -6  -4  -6    6.60    1.40
  -6  -4  -6    8.40    3.50
   6   4   7  362.56   14.90
  -6   4  -7  360.96   15.40
  -6   4  -7  352.56   14.30
  -6  -4  -7  364.66   14.00
   6  -4   7  354.76   16.00
  -6  -4  -7  367.76   14.10
   6   4   8   -1.10    3.90
   6   4   8    1.10    2.60
  -6   4  -8    1.60    1.40
  -6   4  -8   -0.10    2.70
  -6  -4  -8    2.10    1.00
  -6  -4  -8    2.20    1.00
   6   4   9  210.48    9.20
  -6   4  -9  212.88    8.50
   6   4   9  202.38   14.00
  -6   4  -9  195.38    9.80
  -6  -4  -9  211.28    8.30
  -6  -4  -9  214.08    8.30
  -6   4 -10    2.00    1.00
  -6  -4 -10    1.80    0.70
  -6  -4 -10    1.50    0.80
   6   5 -13   37.40    2.20
  -6   5  13   32.60    3.10
  -6  -5  13   35.40    3.30
   6   5 -12   43.40    2.90
  -6   5  12   40.00    3.60
   6   5 -12   34.00    3.30
  -6  -5  12   41.90    3.60
  -6   5  11   17.30    3.30
  -6   5  11   23.50    3.80
   6   5 -11   22.70    2.80
   6   5 -11   13.50    2.40
  -6  -5  11   18.40    3.00
  -6   5  10  162.28    8.30
  -6   5  10  156.98    8.30
   6   5 -10  166.58    7.60
  -6  -5  10  160.78    8.00
   6   5  -9  257.87   10.90
  -6   5   9  235.98   11.00
  -6  -5   9  238.28    9.90
  -6  -5   9  258.87   11.00
  -6   5   8  203.78    9.10
   6   5  -8  198.68    9.20
  -6  -5   8  184.38    9.00
  -6  -5   8  199.38    8.00
   6   5  -7    2.90    2.40
   6   5  -7    6.20    3.60
  -6   5   7    5.50    2.00
  -6  -5   7    1.80    2.00
  -6  -5   7    3.80    1.30
   6   5  -6   21.80    4.30
   6   5  -6   18.00    3.30
  -6   5   6   21.70    2.70
   6   5  -6   18.30    5.00
  -6  -5   6   18.20    2.70
  -6   5   5   22.90    2.40
   6   5  -5   28.00    4.50
   6   5  -5   22.10    3.40
   6   5  -5   36.10    5.20
  -6  -5   5   23.00    3.80
  -6  -5   5   31.60    3.90
   6  -5  -5   28.80    5.20
  -6   5   4 1039.30   39.10
   6   5  -4 1044.90   41.10
   6   5  -4 1082.09   40.90
  -6  -5   4  983.00   39.90
   6  -5  -4 1064.59   40.90
  -6  -5   4 1037.60   40.00
   6   5  -3  257.77   11.80
  -6   5   3  253.17   10.00
   6   5  -3  236.28   11.50
   6  -5  -3  258.27   11.70
  -6  -5   3  250.07   11.80
   6   5  -2 1294.37   50.49
  -6   5   2 1334.67   49.10
  -6  -5   2 1288.87   49.80
   6  -5  -2 1313.07   50.29
  -6   5   1  262.77   10.10
   6   5  -1  223.18   10.50
  -6   5   1  221.88    9.70
   6   5  -1  265.87   11.40
  -6  -5   1  235.78   10.60
  -6  -5   1  242.78   11.30
  -6  -5   1  241.08   10.70
   6  -5  -1  252.57   11.20
   6  -5  -1  253.87   11.80
  -6   5   0 1873.01   68.09
   6   5   0 1922.11   68.19
   6   5   0 1779.62   67.89
  -6   5   0 1788.62   68.09
  -6  -5   0 1763.22   68.49
   6  -5   0 1733.13   68.29
  -6  -5   0 1810.32   68.29
   6  -5   0 1820.32   68.69
  -6   5  -1  417.56   18.30
  -6   5  -1  470.85   17.60
  -6   5  -1  452.15   17.90
   6   5   1  477.65   17.80
   6   5   1  444.06   17.60
  -6  -5  -1  456.75   18.30
  -6  -5  -1  418.86   18.20
   6  -5   1  467.75   18.50
   6  -5   1  446.06   18.20
  -6   5  -2  391.76   16.00
   6   5   2  376.86   15.40
  -6   5  -2  394.26   15.60
   6   5   2  406.66   15.50
  -6   5  -2  391.26   15.80
   6  -5   2  379.06   16.00
  -6  -5  -2  393.16   16.10
  -6  -5  -2  359.66   16.20
   6  -5   2  406.66   16.20
   6   5   3  244.28   10.60
  -6   5  -3  251.07   10.70
  -6   5  -3  248.58   10.90
  -6   5  -3  243.98   10.80
   6   5   3  251.67   10.60
  -6  -5  -3  234.68   11.60
   6  -5   3  242.28   10.80
   6  -5   3  245.18   11.30
  -6  -5  -3  246.18   11.10
  -6   5  -4   75.79    5.10
   6   5   4   70.59    4.90
  -6   5  -4   69.09    4.90
  -6  -5  -4   75.79    3.70
  -6  -5  -4   77.19    3.70
   6  -5   4   73.49    3.80
  -6  -5  -4   64.49    5.70
   6   5   5   10.80    2.60
   6   5   5   10.20    2.70
  -6   5  -5    8.00    2.70
  -6   5  -5    7.20    2.40
  -6   5  -5    9.70    2.50
   6  -5   5    7.50    2.80
  -6  -5  -5   12.40    1.80
  -6  -5  -5    9.50    1.30
   6  -5   5    9.40    1.60
  -6  -5  -5    8.80    3.30
   6   5   6   50.29    5.10
   6   5   6   35.10    4.40
  -6   5  -6   37.40    5.60
  -6   5  -6   38.90    4.10
  -6   5  -6   35.00    3.70
  -6   5  -6   31.90    4.90
  -6  -5  -6   29.60    4.30
   6  -5   6   32.20    4.70
  -6  -5  -6   40.40    3.20
   6   5   7   45.50    5.60
  -6   5  -7   49.80    4.80
   6   5   7   54.29    4.90
  -6   5  -7   47.30    5.00
  -6   5  -7   47.10    3.60
  -6  -5  -7   53.19    2.80
   6  -5   7   52.29    6.00
  -6  -5  -7   50.49    2.80
   6   5   8    3.40    2.40
   6   5   8   -1.70    3.40
  -6   5  -8    3.70    2.60
  -6   5  -8    3.20    1.40
   6  -5   8   -0.30    4.20
  -6  -5  -8    2.60    0.90
  -6  -5  -8    3.70    1.00
  -6   5  -9   47.80    6.50
   6   5   9   47.60    3.70
  -6   5  -9   48.60    2.80
  -6  -5  -9   45.40    2.40
  -6  -5  -9   48.10    2.40
   6   5  10   52.69    3.40
  -6   5 -10   53.69    2.60
  -6  -5 -10   53.39    2.50
  -6   6  12   65.19    4.10
   6   6 -12   62.99    3.70
   6   6 -12   71.59    3.50
  -6  -6  12   66.69    3.90
   6   6 -11  114.79    6.50
  -6   6  11  112.59    6.30
  -6  -6  11  115.89    5.70
  -6   6  10    1.60    3.00
   6   6 -10    2.30    1.70
   6   6 -10    0.30    1.70
  -6  -6  10    1.50    1.80
  -6  -6  10    0.90    1.10
   6   6  -9   55.19    4.10
  -6   6   9   52.89    6.40
  -6  -6   9   58.49    4.10
  -6  -6   9   52.59    2.90
  -6   6   8   49.70    4.70
  -6  -6   8   44.30    4.00
  -6  -6   8   43.30    2.90
  -6   6   7   46.90    4.20
   6   6  -7   45.30    5.80
   6   6  -7   53.69    4.50
  -6  -6   7   50.39    2.90
  -6  -6   7   52.99    4.20
   6   6  -6  571.44   24.30
   6   6  -6  603.94   23.90
   6   6  -6  618.54   25.50
  -6   6   6  601.84   23.10
  -6  -6   6  598.74   23.70
  -6  -6   6  597.94   22.80
   6   6  -5  312.57   15.20
   6   6  -5  333.07   16.30
  -6  -6   5  401.96   14.70
   6  -6  -5  389.56   18.40
  -6  -6   5  333.17   14.50
  -6  -6   5  345.87   15.00
   6   6  -4  835.82   32.80
   6   6  -4  717.33   31.90
   6   6  -4  834.42   33.30
  -6   6   4  805.32   30.70
   6  -6  -4  807.12   33.10
  -6  -6   4  858.81   31.80
  -6  -6   4  834.82   31.50
   6   6  -3   28.10    4.40
   6   6  -3   32.40    4.70
   6   6  -3   33.20    5.60
  -6   6   3   37.40    2.50
  -6  -6   3   30.80    4.30
   6  -6  -3   34.10    5.60
   6   6  -2    3.90    3.10
  -6   6   2    2.50    1.30
   6   6  -2    0.60    2.30
   6   6  -2    4.10    2.40
  -6  -6   2    3.60    2.20
   6  -6  -2    3.50    2.70
   6  -6  -2    1.40    2.80
   6   6  -1    6.00    2.10
   6   6  -1   12.20    3.20
   6   6  -1    4.80    2.10
  -6   6   1    6.10    1.60
  -6  -6   1    8.80    2.20
   6  -6  -1    9.10    2.80
   6  -6  -1    9.90    2.70
  -6  -6   1    8.20    2.50
   6   6   0    0.00    1.60
  -6   6   0    2.10    1.60
   6   6   0    3.40    1.90
  -6   6   0    1.60    1.50
   6  -6   0    3.70    2.90
  -6  -6   0    4.70    2.50
  -6  -6   0    1.00    1.90
   6  -6   0    0.10    2.30
  -6   6  -1   28.80    2.80
  -6   6  -1   30.70    3.00
   6   6   1   28.70    3.10
   6   6   1   28.40    3.20
  -6   6  -1   30.50    4.60
  -6  -6  -1   30.30    4.50
   6  -6   1   26.70    4.10
  -6  -6  -1   32.50    4.00
   6  -6   1   25.10    3.60
  -6   6  -2  573.44   22.70
  -6   6  -2  551.84   22.50
   6   6   2  575.64   22.20
   6   6   2  586.04   22.00
  -6   6  -2  561.54   22.30
   6  -6   2  588.84   22.70
   6  -6   2  572.14   23.50
  -6  -6  -2  582.74   22.80
  -6  -6  -2  513.05   23.30
  -6   6  -3   84.99    5.50
  -6   6  -3   79.39    5.10
   6   6   3   90.09    4.80
   6   6   3   77.29    5.90
  -6  -6  -3   84.59    4.00
   6  -6   3   80.89    3.90
   6  -6   3   82.69    5.40
   6   6   4  811.12   30.70
   6   6   4  813.12   30.90
  -6   6  -4  784.12   31.30
  -6   6  -4  765.32   31.40
   6  -6   4  800.72   31.20
   6  -6   4  811.42   30.10
  -6  -6  -4  797.52   30.10
  -6  -6  -4  798.52   31.40
   6   6   5    2.20    2.30
  -6   6  -5    1.60    2.20
   6   6   5    7.10    2.50
  -6   6  -5    3.70    2.20
  -6   6  -5    0.40    2.60
  -6  -6  -5    2.90    3.20
  -6  -6  -5    2.40    1.10
   6  -6   5    0.90    1.20
  -6  -6  -5    1.40    1.00
   6  -6   5    2.80    2.50
  -6   6  -6  600.74   23.30
  -6   6  -6  589.04   24.10
  -6   6  -6  585.84   24.80
   6   6   6  629.14   24.10
   6   6   6  628.14   23.80
  -6   6  -6  614.84   24.60
  -6  -6  -6  609.44   23.00
  -6  -6  -6  605.44   23.00
   6  -6   6  575.24   24.10
  -6   6  -7    0.20    2.40
  -6   6  -7   -0.30    1.50
  -6   6  -7   -1.70    2.30
   6   6   7    0.70    2.80
   6   6   7    3.90    2.30
   6  -6   7   -4.10    3.20
  -6  -6  -7   -0.70    0.90
  -6  -6  -7    1.30    0.90
   6   6   8  204.88   10.10
   6   6   8  209.08    9.00
  -6   6  -8  212.78    8.50
  -6   6  -8  210.18    9.60
   6  -6   8  201.98   10.20
  -6  -6  -8  204.58    8.20
  -6   6  -9    2.30    2.60
  -6   6  -9    1.20    1.10
   6   6   9   -0.20    1.60
  -6  -6  -9    1.80    0.80
   6   7 -12   61.99    3.00
   6   7 -12   54.79    3.00
  -6  -7  12   55.69    3.40
   6   7 -11   50.89    3.10
   6   7 -11   40.20    3.10
  -6  -7  11   54.29    3.40
   6   7 -10  112.79    5.50
  -6  -7  10  108.39    4.60
  -6  -7  10  110.49    5.60
   6   7  -9   17.40    2.20
   6   7  -9   23.60    3.10
  -6  -7   9   24.80    1.70
  -6  -7   9   25.90    3.00
   6   7  -8  620.64   23.60
  -6  -7   8  586.14   23.40
  -6  -7   8  574.04   22.50
   6   7  -7   15.90    3.50
   6   7  -7   13.40    5.60
   6   7  -7   12.10    3.20
  -6  -7   7   12.10    2.20
   6   7  -6   -0.70    2.10
   6   7  -6    3.90    4.30
   6   7  -6    5.30    2.90
  -6  -7   6    3.50    1.00
  -6  -7   6    0.70    2.10
   6   7  -5   26.90    3.70
   6   7  -5   32.40    4.80
  -6  -7   5   34.30    3.80
  -6  -7   5   32.00    2.30
  -6  -7   5   29.70    4.60
   6  -7  -5   23.20    2.70
   6   7  -4   59.89    5.60
   6   7  -4   74.79    6.40
  -6  -7   4   64.09    3.30
   6  -7  -4   55.79    3.50
  -6  -7   4   59.59    5.00
  -6  -7   4   65.19    5.20
  -6   7   3   57.59    3.60
   6   7  -3   54.09    5.80
   6  -7  -3   59.69    3.40
  -6  -7   3   53.69    3.20
  -6  -7   3   61.49    4.90
   6   7  -2   41.40    5.10
   6   7  -2   32.00    4.60
  -6   7   2   52.39    3.40
   6   7  -2   37.10    6.20
  -6  -7   2   48.40    4.40
   6  -7  -2   48.20    3.10
   6  -7  -2   58.89    7.50
   6  -7  -2   46.20    5.00
   6   7  -1  366.86   17.30
   6   7  -1  318.17   15.90
   6   7  -1  368.66   15.50
  -6   7   1  379.46   16.70
  -6  -7   1  403.66   15.80
   6  -7  -1  393.46   15.80
  -6  -7   1  366.66   16.70
   6  -7  -1  405.56   14.80
   6  -7  -1  379.66   17.40
   6   7   0  225.98   10.90
   6   7   0  231.58   12.80
   6   7   0  246.28   10.50
  -6   7   0  250.87   10.50
  -6  -7   0  224.28    9.80
  -6  -7   0  257.57   11.40
   6  -7   0  242.48   13.10
   6  -7   0  251.37   11.00
  -6  -7   0  222.08   13.40
   6  -7   0  255.97    9.60
   6  -7   0  248.88    9.80
   6   7   1  326.47   13.90
  -6   7  -1  330.37   13.80
  -6   7  -1  336.57   14.20
  -6  -7  -1  304.87   12.90
   6  -7   1  343.17   12.80
   6  -7   1  331.87   12.90
   6  -7   1  326.87   14.20
  -6  -7  -1  335.47   14.20
  -6   7  -2  112.69    6.60
   6   7   2  124.59    5.80
   6   7   2  122.49    6.30
  -6   7  -2  110.99    6.20
   6  -7   2  116.89    5.00
   6  -7   2  117.19    6.80
  -6  -7  -2  117.59    6.90
  -6  -7  -2  107.99    5.10
   6  -7   2  111.49    5.30
   6   7   3   63.79    4.40
   6   7   3   72.09    4.60
  -6   7  -3   68.89    4.80
  -6   7  -3   60.39    5.00
  -6  -7  -3   70.39    5.60
   6  -7   3   57.09    5.00
   6  -7   3   64.69    3.80
   6  -7   3   65.09    3.30
  -6  -7  -3   64.89    3.40
  -6   7  -4   69.19    5.00
   6   7   4   70.39    4.50
  -6   7  -4   61.19    5.00
   6   7   4   69.79    4.80
   6  -7   4   65.29    5.30
  -6  -7  -4   67.09    3.50
   6  -7   4   61.49    3.30
  -6  -7  -4   64.19    5.90
  -6   7  -5   -1.20    2.70
  -6   7  -5   -2.20    2.10
   6   7   5   -0.40    2.00
   6   7   5    1.50    2.30
   6  -7   5    2.70    2.70
   6  -7   5   -0.30    0.90
  -6  -7  -5    2.60    3.50
  -6  -7  -5    2.10    1.00
   6   7   6  172.08    8.30
  -6   7  -6  170.88    8.20
  -6   7  -6  159.88    8.70
  -6   7  -6  151.78    9.10
   6   7   6  169.68    7.70
  -6   7  -6  163.38    7.30
  -6  -7  -6  167.48    6.80
   6  -7   6  164.48    8.50
  -6   7  -7  166.98    8.00
   6   7   7  161.78    8.60
  -6   7  -7  175.08    8.30
   6   7   7  165.48    7.60
   6  -7   7  161.18    8.60
  -6  -7  -7  171.58    6.80
  -6   7  -8  519.35   19.50
   6   7   8  516.85   19.80
  -6   7  -8  495.55   20.30
   6  -7   8  506.55   20.80
  -6  -7  -8  518.05   19.40
   6   7   9   12.00    1.70
  -6   7  -9   15.50    1.80
  -6  -7  -9   12.80    1.30
   6   8 -11   59.39    3.80
   6   8 -11   78.09    3.60
  -6  -8  11   70.39    3.80
   6   8 -10    1.10    1.40
   6   8 -10    0.60    1.40
  -6  -8  10    0.20    0.70
  -6  -8  10    1.30    1.60
   6   8  -9   21.70    2.90
  -6  -8   9   20.80    2.00
  -6  -8   9   23.00    2.90
  -6  -8   9   20.80    1.60
   6   8  -8   -6.00    3.40
   6   8  -8    2.60    1.70
  -6  -8   8    0.80    1.10
  -6  -8   8   -1.40    1.70
  -6  -8   8    2.00    0.80
   6   8  -7    0.50    3.10
   6   8  -7    9.20    6.10
   6   8  -7    7.10    2.10
  -6  -8   7    5.60    1.20
  -6  -8   7    5.70    1.00
  -6  -8   7    4.40    2.00
   6   8  -6   55.69    5.80
   6   8  -6   67.49    8.50
   6   8  -6   73.79    5.10
  -6  -8   6   70.09    3.30
   6  -8  -6   67.49    4.80
  -6  -8   6   71.09    4.60
   6   8  -5  265.97   13.80
   6   8  -5  257.47   12.30
   6  -8  -5  256.37   10.40
  -6  -8   5  262.57   10.30
  -6  -8   5  263.77   11.20
   6   8  -4   32.00    4.60
   6   8  -4   26.00    3.80
  -6  -8   4   37.50    4.30
  -6  -8   4   32.80    2.20
   6  -8  -4   25.90    2.40
   6   8  -3  972.80   39.90
   6   8  -3  909.31   38.90
  -6   8   3 1017.10   37.80
   6  -8  -3 1036.40   37.60
  -6  -8   3 1058.39   37.60
  -6  -8   3  997.60   38.70
   6   8  -2    6.50    2.60
   6   8  -2    1.00    3.00
  -6   8   2    8.30    2.00
   6  -8  -2    5.30    1.30
  -6  -8   2    2.70    1.20
  -6  -8   2    0.00    2.20
   6   8  -1   95.19    6.40
   6   8  -1   95.19    7.10
  -6   8   1  109.59    5.70
  -6  -8   1  108.39    4.90
  -6  -8   1  110.59    6.40
   6  -8  -1  109.99    4.90
   6  -8  -1  113.99    4.80
   6  -8  -1  119.29    6.80
   6   8   0   10.20    2.90
   6   8   0   10.80    2.50
   6  -8   0   18.40    3.10
   6  -8   0   12.70    1.50
   6  -8   0   16.80    1.80
  -6  -8   0   15.70    2.70
  -6   8  -1   27.50    3.50
   6   8   1   25.30    3.60
  -6   8  -1   27.30    4.60
   6   8   1   28.80    4.30
   6  -8   1   27.60    2.40
   6  -8   1   27.60    4.40
  -6  -8  -1   27.70    2.40
   6  -8   1   30.70    2.20
  -6  -8  -1   36.40    4.30
  -6   8  -2    0.60    2.30
   6   8   2    2.70    2.40
  -6   8  -2    3.00    2.10
   6   8   2   -1.40    1.90
   6  -8   2    1.80    1.30
   6  -8   2    5.00    2.70
  -6  -8  -2   -0.80    2.40
  -6  -8  -2    0.80    1.10
   6  -8   2    1.00    0.90
  -6   8  -3  260.87   12.00
   6   8   3  261.17   11.20
  -6   8  -3  263.67   11.90
   6   8   3  282.67   12.00
   6  -8   3  259.87   10.70
  -6  -8  -3  270.17   12.20
   6  -8   3  266.57   12.10
   6  -8   3  276.47   10.60
  -6  -8  -3  270.37   10.70
  -6   8  -4  100.39    6.20
   6   8   4  105.39    5.60
  -6  -8  -4  115.39    7.20
   6  -8   4  101.79    4.50
  -6  -8  -4  105.09    4.70
   6  -8   4  106.09    6.60
   6  -8   4   97.49    5.00
   6   8   5   29.40    4.60
  -6   8  -5   27.50    4.90
   6   8   5   28.20    3.50
  -6   8  -5   25.60    3.90
  -6  -8  -5   28.60    4.20
   6  -8   5   28.80    2.00
  -6  -8  -5   27.40    2.10
   6  -8   5   35.10    4.60
   6   8   6   10.90    3.20
  -6   8  -6   11.10    2.90
   6   8   6   12.70    2.20
  -6   8  -6   10.70    3.90
  -6   8  -6   12.40    2.50
  -6  -8  -6   15.40    1.70
   6  -8   6   17.70    3.10
   6   8   7  107.79    5.50
  -6   8  -7  109.89    5.10
  -6   8  -7  107.59    5.90
  -6   8  -7  110.39    6.20
   6  -8   7  111.69    6.50
  -6  -8  -7  111.29    4.70
  -6   8  -8   21.30    2.20
  -6   8  -8   13.50    2.50
   6   8   8   19.40    2.80
  -6  -8  -8   20.70    1.60
   6  -8   8   20.80    3.00
   6   9 -10    1.40    1.10
   6   9 -10    1.70    1.20
  -6  -9  10    3.20    0.70
  -6  -9  10    3.80    1.60
   6   9  -9   18.20    2.20
   6   9  -9   20.10    2.40
  -6  -9   9   19.20    2.80
  -6  -9   9   18.30    1.80
  -6  -9   9   18.70    1.30
   6   9  -8   60.19    6.30
   6   9  -8   66.89    5.40
  -6  -9   8   79.19    4.40
  -6  -9   8   74.89    3.30
  -6  -9   8   69.39    3.20
   6   9  -7  325.07   15.10
   6   9  -7  365.56   14.40
  -6  -9   7  345.27   14.20
  -6  -9   7  358.86   13.40
  -6  -9   7  347.47   13.50
   6   9  -6  381.66   17.30
   6   9  -6  411.86   19.20
   6   9  -6  419.06   16.60
  -6  -9   6  415.56   15.70
   6  -9  -6  409.76   16.10
  -6  -9   6  403.36   15.60
  -6  -9   6  407.46   16.40
   6   9  -5   62.09    4.60
   6   9  -5   61.29    5.80
   6   9  -5   66.09    7.90
  -6  -9   5   64.59    3.10
   6  -9  -5   64.09    3.50
  -6  -9   5   61.79    5.40
  -6  -9   5   65.19    3.20
   6   9  -4  109.69    7.20
   6   9  -4  111.79    8.70
  -6  -9   4  113.59    5.00
   6  -9  -4  113.79    5.00
  -6  -9   4  112.99    4.80
   6   9  -3   10.50    3.80
   6   9  -3    6.60    2.90
   6  -9  -3    9.50    1.40
  -6  -9   3    5.00    2.40
  -6  -9   3    7.20    1.10
  -6  -9   3    6.70    1.20
   6   9  -2   13.40    3.90
  -6   9   2   12.50    2.50
   6   9  -2   12.60    2.90
   6  -9  -2   11.50    1.40
  -6  -9   2   13.60    2.60
  -6  -9   2   14.60    1.50
  -6  -9   2   15.00    1.90
  -6   9   1   58.69    4.50
   6   9  -1   50.69    5.10
   6   9  -1   46.20    6.10
  -6  -9   1   55.09    3.20
   6  -9  -1   55.79    5.40
   6  -9  -1   61.59    3.10
  -6  -9   1   57.29    4.80
  -6   9   0 2382.86   85.19
   6   9   0 2165.28   84.79
   6   9   0 1954.30   85.39
  -6   9   0 2309.77   84.79
  -6  -9   0 2299.37   85.09
   6  -9   0 2325.27   85.09
  -6  -9   0 2138.99   83.79
   6  -9   0 2393.36   83.89
   6  -9   0 2284.27   83.89
   6   9   1   18.80    3.60
  -6   9  -1   23.20    3.30
  -6   9  -1   30.00    3.80
   6   9   1   20.10    2.90
   6  -9   1   21.90    2.10
  -6  -9  -1   17.70    3.10
   6  -9   1   17.80    3.20
   6  -9   1   26.90    2.00
   6   9   2   58.89    4.60
  -6   9  -2   66.79    5.10
   6  -9   2   65.99    5.30
  -6  -9  -2   63.39    5.30
   6  -9   2   61.49    3.20
   6  -9   2   56.79    3.00
  -6   9  -3   62.29    5.10
   6   9   3   74.29    5.80
   6   9   3   64.19    4.70
  -6   9  -3   60.99    5.10
   6  -9   3   56.29    3.30
   6  -9   3   61.09    3.00
   6  -9   3   66.89    6.10
  -6  -9  -3   57.29    3.30
  -6  -9  -3   60.69    5.50
   6   9   4   -0.10    3.00
   6   9   4    3.30    2.10
  -6   9  -4    0.80    2.10
  -6   9  -4    6.20    2.70
   6  -9   4    0.20    2.40
  -6  -9  -4    2.80    2.90
   6  -9   4    1.90    0.80
  -6  -9  -4    4.50    1.10
   6  -9   4    4.10    1.40
  -6   9  -5  148.59    7.30
   6   9   5  150.28    6.90
   6   9   5  129.39    8.30
  -6   9  -5  136.29    8.70
   6  -9   5  143.79    7.50
  -6  -9  -5  148.99    6.00
   6   9   6   10.40    2.10
  -6   9  -6    4.70    2.40
  -6   9  -6    9.30    2.10
  -6  -9  -6   10.10    1.40
   6  -9   6   10.10    2.60
  -6   9  -7  683.33   26.30
   6   9   7  697.53   26.00
  -6   9  -7  653.53   26.10
   6  -9   7  670.43   26.40
  -6  -9  -7  697.03   25.60
   6  10  -9   74.19    3.60
  -6 -10   9   74.39    3.10
  -6 -10   9   80.89    4.40
   6  10  -8    8.10    1.50
   6  10  -8    6.70    1.30
   6  10  -8    5.10    3.40
  -6 -10   8   11.40    1.00
  -6 -10   8    9.20    1.00
  -6 -10   8    6.90    2.10
   6  10  -7  116.79    5.50
   6  10  -7  104.79    6.90
  -6 -10   7  116.59    4.80
  -6 -10   7  112.19    4.70
  -6 -10   7  119.49    6.20
   6  10  -6  174.18    9.10
   6  10  -6  167.18    8.80
  -6 -10   6  172.08    6.90
  -6 -10   6  177.98    7.00
   6  10  -5  171.08   11.30
   6  10  -5  171.28    9.00
   6  10  -5  174.98    8.10
   6 -10  -5  179.78    7.30
  -6 -10   5  176.38    7.10
  -6 -10   5  182.88    7.20
   6  10  -4  368.76   17.80
   6  10  -4  375.16   15.70
   6  10  -4  372.06   16.60
   6 -10  -4  400.86   15.00
  -6 -10   4  405.36   14.90
  -6 -10   4  394.76   14.90
   6  10  -3    5.70    3.90
   6  10  -3    2.80    2.70
  -6 -10   3    6.80    1.00
  -6 -10   3    5.90    1.10
   6 -10  -3    5.60    1.10
   6  10  -2   24.10    4.50
   6  10  -2   16.90    3.40
  -6 -10   2   24.30    1.90
   6 -10  -2   26.40    2.10
  -6 -10   2   25.90    3.90
  -6 -10   2   25.90    2.00
   6  10  -1    0.10    2.50
  -6  10   1   -2.20    2.30
   6  10  -1   -2.50    3.50
  -6 -10   1   -0.70    1.00
  -6 -10   1    3.00    1.20
  -6 -10   1    3.50    2.70
   6 -10  -1    3.80    1.10
   6  10   0   56.59    5.10
  -6  10   0   58.29    5.70
  -6  10   0   55.69    4.70
   6  10   0   54.59    6.40
  -6 -10   0   53.09    3.00
  -6 -10   0   48.30    4.80
   6 -10   0   59.29    5.30
   6 -10   0   55.99    2.90
   6  10   1    3.30    3.50
   6  10   1    0.40    2.30
  -6  10  -1    3.30    2.50
  -6  10  -1   -3.00    2.50
  -6 -10  -1    0.70    2.40
   6 -10   1   -0.20    1.00
  -6 -10  -1    0.10    2.20
   6  10   2  121.59    8.70
  -6  10  -2  163.48    7.70
   6  10   2  150.98    7.50
  -6  10  -2  145.89    7.70
   6 -10   2  154.38    7.80
  -6 -10  -2  144.59    7.80
   6 -10   2  147.09    6.10
   6  10   3   10.80    2.50
  -6  10  -3    5.40    2.40
   6  10   3    5.90    3.90
  -6  10  -3   10.70    2.90
  -6 -10  -3    8.80    2.90
   6 -10   3    9.80    2.60
   6 -10   3   10.30    1.30
   6  10   4  361.16   14.50
  -6  10  -4  361.66   14.70
   6 -10   4  359.36   14.90
   6 -10   4  349.67   13.70
  -6 -10  -4  345.87   15.00
  -6  10  -5  141.19    6.80
   6  10   5  130.99    6.80
  -6  10  -5  141.49    7.10
   6 -10   5  137.59    7.00
  -6  10  -6  148.09    6.90
  -6  10  -6  149.39    6.70
   6  10   6  143.79    6.70
   6 -10   6  143.39    7.00
   6  11  -7  201.88    8.30
   6  11  -7  195.78    9.40
   6  11  -7  213.18    8.50
  -6 -11   7  215.28    8.00
  -6 -11   7  208.38    8.00
   6  11  -6  159.98    6.90
  -6 -11   6  159.38    6.30
  -6 -11   6  156.38    6.20
   6  11  -5   14.40    2.60
   6  11  -5   14.20    2.00
   6 -11  -5   18.60    1.90
  -6 -11   5   13.80    1.30
  -6 -11   5   14.80    1.20
   6  11  -4  201.88    8.90
   6  11  -4  205.68    9.90
  -6 -11   4  208.48    8.20
  -6 -11   4  209.88    8.20
   6 -11  -4  216.78    8.30
   6  11  -3   63.19    4.10
   6  11  -3   66.39    5.30
  -6 -11   3   66.59    3.00
  -6 -11   3   66.09    3.30
   6  11  -2  148.09    7.90
   6  11  -2  130.09    9.70
  -6 -11   2  149.59    6.10
  -6 -11   2  144.69    5.90
   6 -11  -2  158.88    6.20
   6  11  -1  138.49    9.80
   6  11  -1  138.79    7.80
   6 -11  -1  170.88    6.30
  -6  11   0   21.80    3.50
   6  11   0   20.40    3.10
   6  11   0   19.30    5.80
  -6 -11   0   18.80    1.80
   6 -11   0   18.20    1.70
   6  11   1  240.48   10.70
  -6  11  -1  245.18   10.70
  -6 -11  -1  229.58   10.50
   6 -11   1  235.38    9.40
   6  11   2   34.20    4.10
  -6  11  -2   24.10    3.80
   6 -11   2   30.50    4.10
   6 -11   2   26.90    1.90
   6  11   3    0.50    2.30
  -6  11  -3    4.50    2.10
   6 -11   3    0.60    2.80
   6  11   4   46.80    4.20
  -6  11  -4   47.10    4.20
  -6  11  -4   48.80    3.80
   6 -11   4   44.50    3.20
   6 -11   4   52.99    4.00
  -6  11  -5   32.20    3.10
  -6  11  -5   24.80    3.50
   6 -11   5   34.90    3.80
   6  12  -5   55.59    4.30
   6  12  -5   51.79    3.10
  -6 -12   5   55.19    2.40
  -6 -12   5   58.19    2.50
   6  12  -4  139.09    7.30
   6  12  -4  149.59    7.10
  -6 -12   4  157.88    6.00
  -6 -12   4  150.18    5.90
   6 -12  -4  159.28    6.10
   6  12  -3   49.30    4.30
   6  12  -3   48.60    3.30
   6 -12  -3   52.19    2.50
  -6 -12   3   52.29    2.40
  -6 -12   3   47.60    2.30
   6  12  -2    3.80    1.60
   6  12  -2    5.30    2.40
   6  12  -1  118.39    6.60
  -6 -12   1  122.19    4.90
   6 -12  -1  122.79    5.00
   6  12   0    1.70    2.30
   6 -12   0    0.80    0.70
  -6 -12   0    2.40    0.90
  -6  12  -1   25.90    3.90
  -6  12  -1   30.70    4.70
   6  12   1   23.30    3.80
   6 -12   1   31.30    1.70
   6  12   2   33.80    4.20
  -6  12  -2   44.80    4.50
  -6  12  -2   44.30    3.80
   6 -12   2   40.00    2.10
  -7   0  14  211.48    8.70
   7   0 -14  206.28    8.40
  -7   0  13   -1.90    1.90
   7   0 -13   -1.40    1.10
   7   0 -12  161.08    7.40
  -7   0  12  171.08    7.90
  -7   0  12  171.28    8.70
  -7   0  12  182.98   10.10
  -7   0  11    4.90    4.80
  -7   0  11   -1.80    1.90
  -7   0  11   -1.90    3.10
   7   0 -11    3.00    1.80
  -7   0  10 1001.60   37.70
  -7   0  10  993.10   38.40
  -7   0  10  984.40   38.10
   7   0 -10  940.71   37.40
  -7   0   9    3.50    2.80
  -7   0   9   -1.10    2.30
   7   0  -9   -1.40    2.50
  -7   0   9    1.40    1.90
  -7   0   8 4197.48  161.88
  -7   0   8 4448.35  160.88
  -7   0   8 4258.17  160.38
  -7   0   7    0.80    1.90
  -7   0   7    1.80    2.80
  -7   0   7    1.00    1.60
   7   0  -6 1342.87   51.89
  -7   0   6 1277.97   50.29
  -7   0   6 1367.46   50.49
   7   0  -5    0.40    1.80
  -7   0   5   -1.40    1.20
   7   0  -5    2.20    2.60
  -7   0   4 3312.47  122.69
   7   0  -4 3329.27  122.59
  -7   0   4 3181.58  122.09
  -7   0   3    1.20    1.50
  -7   0   3    1.30    1.00
   7   0  -3    0.50    1.50
  -7   0   2 2870.01  116.59
  -7   0   2 3307.97  116.39
  -7   0   2 3189.48  115.89
   7   0  -1    0.40    1.20
  -7   0   1    2.80    1.10
  -7   0   1   -0.20    0.90
  -7   0   0 1489.85   57.29
   7   0   0 1513.85   57.29
  -7   0   0 1551.34   57.39
   7   0   0 1522.95   57.89
  -7   0   0 1561.94   57.39
  -7   0  -1    1.10    1.20
   7   0   1    2.10    1.80
   7   0   1   -1.70    1.10
  -7   0  -1   -1.20    0.90
  -7   0  -1    0.50    1.20
  -7   0  -2  712.33   26.70
  -7   0  -2  687.33   26.20
   7   0   2  652.73   26.20
   7   0   2  673.13   26.20
  -7   0  -2  680.73   26.20
   7   0   3    4.10    2.40
  -7   0  -3   -2.50    2.10
  -7   0  -3    1.80    1.90
  -7   0  -3    1.10    1.50
   7   0   4   67.69    5.90
  -7   0  -4   63.79    4.90
  -7   0  -4   65.99    4.60
   7   0   4   70.89    5.00
  -7   0  -4   69.09    5.30
   7   0   5    4.00    2.70
  -7   0  -5    1.10    3.00
  -7   0  -5   -0.70    2.30
   7   0   5   -0.20    4.00
  -7   0  -6  118.49    5.40
  -7   0  -6  111.59    6.50
   7   0   6  110.69    6.50
   7   0   7    6.00    2.80
  -7   0  -7   -0.80    2.70
   7   0   8   30.50    4.80
  -7   0  -8   42.90    5.60
  -7   0  -8   33.30    2.50
  -7   0  -9    0.50    1.00
  -7   0 -10    9.70    1.30
  -7   1  14   16.30    2.70
   7   1 -14   11.00    1.50
   7  -1 -14   12.20    1.60
  -7   1  13   31.90    3.20
   7   1 -13   26.40    2.30
  -7  -1  13   29.00    3.50
   7  -1 -13   28.80    2.30
  -7   1  12    2.50    1.90
   7   1 -12    2.90    1.60
  -7   1  12    2.00    3.60
  -7  -1  12   -2.00    5.00
  -7  -1  12    3.90    2.10
   7  -1 -12   -0.50    1.40
  -7  -1  12    0.50    2.70
  -7   1  11   68.39    6.90
   7   1 -11   52.39    3.90
  -7   1  11   61.09    6.00
  -7   1  11   61.39    4.40
  -7  -1  11   55.39    4.30
  -7  -1  11   63.39    5.20
   7  -1 -11   50.29    3.90
  -7  -1  11   49.90    6.90
  -7   1  10  169.78    8.20
   7   1 -10  170.28    8.10
  -7   1  10  181.58    9.30
  -7   1  10  171.58    8.90
  -7  -1  10  181.18    8.80
  -7  -1  10  172.78    9.40
   7  -1 -10  168.58    8.00
  -7  -1  10  176.18    8.10
  -7   1   9   71.09    6.40
  -7   1   9   80.09    5.60
   7   1  -9   74.69    5.10
  -7   1   9   76.89    5.00
  -7  -1   9   82.29    5.70
  -7  -1   9   76.09    4.90
   7  -1  -9   68.89    5.50
  -7  -1   9   81.79    5.80
  -7   1   8    6.20    2.00
  -7   1   8    4.30    2.10
  -7   1   8    5.10    3.10
  -7  -1   8    6.00    2.00
  -7  -1   8    3.10    2.50
  -7   1   7   62.09    4.20
  -7   1   7   54.09    4.50
  -7  -1   7   64.99    5.00
  -7  -1   7   58.59    4.40
  -7  -1   7   59.79    4.30
   7   1  -6   94.19    7.10
  -7   1   6   81.19    4.60
  -7  -1   6   83.49    5.20
  -7  -1   6   88.39    5.00
  -7   1   5   75.99    4.20
   7   1  -5   85.89    6.00
  -7  -1   5   80.89    4.50
   7  -1  -5   83.99    5.50
  -7   1   4  956.40   40.20
  -7   1   4 1075.79   40.70
   7   1  -4 1077.79   40.60
   7  -1  -4 1099.79   41.00
  -7  -1   4 1071.39   40.50
  -7  -1   4 1103.19   41.10
  -7   1   3  404.66   15.70
  -7   1   3  381.16   16.10
   7   1  -3  414.16   16.10
  -7  -1   3  414.46   16.40
   7  -1  -3  382.26   16.30
  -7  -1   3  416.96   16.00
   7   1  -2   -3.50    2.50
  -7   1   2    1.90    0.90
  -7   1   2    1.90    0.80
   7   1  -2    1.00    1.40
  -7   1   2    0.50    1.20
  -7  -1   2    1.80    0.90
   7  -1  -2    0.50    1.30
  -7  -1   2    1.60    1.20
  -7  -1   2    2.50    1.50
   7   1  -1   58.99    3.50
  -7   1   1   61.59    3.10
  -7   1   1   61.29    3.30
   7   1  -1   63.89    4.30
  -7  -1   1   58.29    3.70
  -7  -1   1   58.99    3.10
  -7  -1   1   62.89    3.50
   7  -1  -1   61.69    3.60
   7   1   0  449.46   16.90
   7   1   0  417.76   16.60
  -7   1   0  419.16   16.70
  -7   1   0  438.26   16.80
  -7  -1   0  424.16   16.80
  -7  -1   0  447.76   17.00
  -7  -1   0  423.46   16.90
   7  -1   0  426.06   16.90
  -7   1  -1 1151.28   43.10
   7   1   1 1152.48   43.10
   7   1   1 1069.49   43.00
  -7   1  -1 1133.39   43.10
  -7  -1  -1 1181.68   43.20
   7  -1   1 1138.39   43.20
  -7  -1  -1 1137.19   43.30
  -7  -1  -1 1174.58   43.40
   7   1   2  750.22   28.80
   7   1   2  716.43   28.80
  -7   1  -2  750.12   28.90
   7  -1   2  743.53   29.00
  -7  -1  -2  786.22   28.90
  -7  -1  -2  767.02   29.20
  -7   1  -3  430.06   18.10
  -7   1  -3  460.25   18.10
  -7   1  -3  467.05   18.50
  -7   1  -3  461.95   18.10
   7   1   3  460.35   18.20
   7   1   3  443.86   18.00
  -7  -1  -3  463.55   18.20
  -7  -1  -3  470.45   18.60
  -7  -1  -3  448.56   18.30
   7  -1   3  444.76   18.20
  -7   1  -4  490.55   19.60
  -7   1  -4  484.35   19.30
  -7   1  -4  495.15   19.60
   7   1   4  487.75   19.20
  -7  -1  -4  482.25   19.50
   7  -1   4  460.85   19.60
  -7  -1  -4  477.55   20.10
  -7  -1  -4  499.05   19.50
   7   1   5    6.20    2.70
   7   1   5    4.40    4.00
  -7   1  -5    2.10    2.40
  -7   1  -5    6.50    4.40
  -7  -1  -5    3.20    2.40
  -7  -1  -5    4.60    1.80
   7  -1   5    1.90    3.10
  -7   1  -6  221.28   10.00
  -7   1  -6  226.68    9.00
   7   1   6  187.38   11.10
   7   1   6  208.68    9.70
  -7  -1  -6  211.88    9.10
  -7  -1  -6  224.68    8.80
  -7  -1  -6  213.38    9.90
  -7   1  -7    5.30    2.70
  -7   1  -7    6.30    1.60
   7   1   7    5.00    2.70
   7   1   7    3.10    5.00
  -7  -1  -7   -1.50    3.00
  -7  -1  -7    9.40    2.80
  -7  -1  -7    4.40    1.30
   7   1   8   93.69    6.50
  -7   1  -8   80.29    6.20
  -7   1  -8   89.19    4.20
  -7  -1  -8   79.09    4.20
  -7  -1  -8   89.29    4.00
  -7   1  -9  116.89    4.90
   7   1   9  103.49    6.00
  -7  -1  -9  108.89    4.90
  -7  -1  -9  114.79    4.80
  -7   1 -10    1.90    0.80
  -7  -1 -10    1.70    0.80
  -7  -1 -10    3.10    1.10
   7   2 -14    0.70    0.90
  -7   2  14    3.60    1.70
   7  -2 -14    0.40    1.20
   7   2 -13   13.30    1.90
  -7   2  13   10.60    2.00
  -7  -2  13   10.80    2.80
   7  -2 -13   10.00    1.40
   7   2 -12   10.70    1.80
  -7   2  12   11.10    3.50
  -7   2  12   10.10    2.20
   7  -2 -12    9.80    1.80
  -7  -2  12    7.30    2.40
  -7  -2  12    5.60    2.60
  -7   2  11  537.15   21.40
   7   2 -11  507.65   21.00
  -7   2  11  549.35   22.10
   7  -2 -11  537.25   20.70
  -7  -2  11  513.95   22.40
  -7  -2  11  588.94   24.80
  -7  -2  11  527.45   22.70
  -7   2  10    1.30    2.50
  -7   2  10    3.00    3.90
  -7   2  10    3.50    2.00
  -7  -2  10    7.70    3.90
  -7  -2  10   -0.60    2.00
   7  -2 -10    3.60    2.80
  -7  -2  10   -2.40    2.40
   7   2  -9  307.47   13.20
  -7   2   9  330.27   13.30
  -7   2   9  317.07   13.70
  -7   2   9  320.87   14.30
  -7  -2   9  312.47   13.60
  -7  -2   9  306.47   13.10
  -7  -2   9  301.97   14.10
  -7   2   8   21.00    2.80
  -7   2   8   14.80    3.80
   7   2  -8   19.40    3.90
  -7   2   8   20.50    3.30
  -7  -2   8   19.80    3.00
  -7  -2   8   17.10    2.50
   7   2  -7  550.64   24.00
  -7   2   7  561.14   21.80
  -7   2   7  552.84   21.80
  -7  -2   7  549.54   21.60
  -7  -2   7  542.85   22.10
  -7  -2   7  536.25   22.00
   7   2  -6   20.60    4.40
  -7   2   6   22.60    2.60
  -7  -2   6   18.60    3.00
  -7  -2   6   23.20    3.50
   7  -2  -6   27.50    4.70
  -7  -2   6   21.30    2.60
  -7   2   5   41.90    2.80
   7   2  -5   38.10    4.90
  -7  -2   5   40.50    3.60
  -7   2   4  310.67   13.50
  -7   2   4  301.77   13.10
   7   2  -4  356.06   14.70
  -7  -2   4  344.57   13.70
  -7  -2   4  336.07   14.20
   7  -2  -4  349.07   14.30
  -7   2   3  763.82   32.20
  -7   2   3  867.51   31.80
   7   2  -3  840.52   31.90
  -7  -2   3  899.01   32.90
   7  -2  -3  775.42   32.60
  -7  -2   3  900.41   32.40
   7   2  -2 1806.92   69.49
   7   2  -2 1745.03   68.79
  -7   2   2 1930.91   68.79
  -7  -2   2 1927.41   69.69
  -7  -2   2 1688.63   68.79
  -7  -2   2 1947.41   69.19
   7   2  -1  431.86   16.40
  -7   2   1  414.16   15.90
  -7   2   1  425.86   16.00
  -7  -2   1  418.36   16.60
  -7  -2   1  376.56   15.90
   7  -2  -1  403.06   16.40
  -7  -2   1  398.36   16.30
  -7   2   0   83.19    4.10
   7   2   0   84.39    4.10
  -7   2   0   85.89    4.00
   7   2   0   82.29    4.60
  -7  -2   0   83.59    4.30
  -7  -2   0   85.19    4.60
   7  -2   0   86.29    4.50
  -7   2  -1  816.72   31.60
  -7   2  -1  839.82   31.50
   7   2   1  806.52   31.30
   7   2   1  816.72   31.50
  -7  -2  -1  854.91   31.80
   7  -2   1  851.51   31.70
  -7  -2  -1  807.52   31.80
   7   2   2   59.19    3.70
  -7   2  -2   58.09    3.60
  -7   2  -2   61.79    3.60
   7  -2   2   63.09    4.00
  -7  -2  -2   58.39    3.80
  -7   2  -3    5.00    1.60
   7   2   3    6.40    2.00
  -7   2  -3    3.20    1.60
  -7   2  -3    4.90    2.00
  -7   2  -3    8.30    2.60
   7   2   3    7.70    2.30
   7  -2   3    5.00    2.00
  -7  -2  -3    5.90    2.10
  -7   2  -4   72.59    5.00
  -7   2  -4   75.09    4.80
  -7   2  -4   66.39    5.30
   7   2   4   66.39    4.90
   7   2   4   70.69    5.40
  -7   2  -4   67.69    4.70
  -7  -2  -4   70.09    5.20
  -7  -2  -4   74.49    5.70
   7  -2   4   70.29    5.50
  -7   2  -5  286.77   12.10
  -7   2  -5  271.27   11.60
   7   2   5  284.27   12.00
  -7  -2  -5  287.17   11.20
  -7  -2  -5  266.67   11.40
  -7  -2  -5  295.47   12.70
  -7   2  -6  128.89    6.00
   7   2   6  123.89    6.70
  -7   2  -6  125.29    7.00
   7   2   6  119.49    8.20
  -7  -2  -6  124.39    5.70
  -7  -2  -6  128.79    5.50
  -7  -2  -6  115.49    7.10
   7   2   7   57.59    7.40
  -7   2  -7   55.89    5.10
  -7   2  -7   57.89    3.70
   7   2   7   58.29    4.80
  -7  -2  -7   58.29    3.40
  -7  -2  -7   61.49    3.20
  -7  -2  -7   44.00    5.80
  -7   2  -8  486.35   20.00
   7   2   8  494.85   21.20
   7   2   8  489.35   19.70
  -7   2  -8  508.85   19.10
  -7  -2  -8  511.95   19.00
  -7  -2  -8  485.35   19.00
  -7   2  -9  115.19    4.90
   7   2   9  103.99    5.80
  -7  -2  -9  106.99    4.70
  -7  -2  -9  113.39    4.70
  -7   2 -10   17.40    1.60
   7   2  10   15.50    2.70
  -7  -2 -10   19.30    1.60
  -7  -2 -10   20.10    1.50
  -7   3  13   18.10    2.80
   7   3 -13   17.80    2.10
  -7  -3  13   21.20    3.50
  -7   3  12   98.99    5.50
   7   3 -12   96.09    5.10
  -7   3  12   93.89    7.00
  -7  -3  12  108.69    5.70
   7  -3 -12  111.19    4.80
  -7   3  11   72.69    4.90
  -7   3  11   69.89    5.70
   7   3 -11   71.79    4.30
  -7  -3  11   68.29    5.10
  -7  -3  11   64.99    5.10
  -7   3  10   21.20    2.80
   7   3 -10   20.50    3.30
  -7   3  10   17.60    3.20
  -7  -3  10   17.30    2.80
  -7  -3  10   19.50    2.80
   7   3  -9  181.98    8.90
  -7   3   9  202.78    9.10
  -7   3   9  200.48   10.90
  -7   3   9  197.08    9.30
  -7  -3   9  189.98    9.20
  -7  -3   9  184.18    8.70
   7   3  -8   82.79    5.60
  -7   3   8   76.89    5.00
  -7  -3   8   80.49    5.40
  -7  -3   8   78.69    4.30
  -7   3   7   65.79    4.30
   7   3  -7   73.19    9.00
  -7   3   7   60.49    5.80
  -7  -3   7   63.19    5.90
  -7  -3   7   67.09    5.00
  -7  -3   7   67.39    4.80
   7   3  -6   19.20    4.20
  -7   3   6   29.60    2.70
   7  -3  -6   22.80    3.80
  -7  -3   6   26.10    3.80
  -7  -3   6   28.70    4.70
  -7  -3   6   18.80    3.00
   7   3  -5  197.18   10.30
  -7   3   5  160.98    8.00
   7  -3  -5  218.28    9.90
  -7  -3   5  203.58    9.30
  -7  -3   5  188.48    9.20
   7   3  -4  495.95   20.20
   7   3  -4  431.26   19.90
  -7   3   4  474.85   18.50
   7  -3  -4  494.55   20.00
  -7  -3   4  494.85   19.40
  -7   3   3  393.36   17.00
  -7   3   3  455.95   16.70
   7  -3  -3  423.06   17.90
  -7  -3   3  457.85   18.00
  -7   3   2  420.26   15.20
   7   3  -2  388.96   16.10
  -7  -3   2  374.26   15.40
   7  -3  -2  335.47   16.00
  -7  -3   2  435.36   16.40
  -7   3   1  147.69    6.10
   7   3  -1  144.39    6.70
  -7   3   1  146.59    6.20
   7  -3  -1  132.29    6.80
  -7  -3   1  144.89    7.20
  -7  -3   1  134.19    6.40
  -7   3   0  368.96   14.10
  -7   3   0  355.16   14.20
   7   3   0  363.16   14.30
  -7  -3   0  342.07   14.80
   7  -3   0  376.96   14.70
  -7  -3   0  341.97   14.40
  -7   3  -1    1.40    1.10
  -7   3  -1    1.90    1.10
   7   3   1    1.90    1.20
  -7  -3  -1    2.40    1.60
   7  -3   1    2.00    1.50
  -7  -3  -1   -1.20    1.70
  -7   3  -2 1566.54   58.99
  -7   3  -2 1518.25   59.39
  -7   3  -2 1587.44   59.19
   7   3   2 1527.65   58.69
   7   3   2 1593.24   58.89
  -7   3  -2 1589.94   59.09
  -7  -3  -2 1551.54   59.39
  -7  -3  -2 1551.34   59.19
   7  -3   2 1489.45   59.29
  -7  -3  -2 1600.04   59.29
   7  -3   2 1628.94   59.19
   7   3   3   36.60    3.50
  -7   3  -3   26.00    3.00
  -7   3  -3   28.60    3.30
  -7   3  -3   25.80    3.50
   7   3   3   26.90    3.50
  -7   3  -3   31.80    4.40
  -7  -3  -3   28.40    4.00
   7  -3   3   28.20    3.90
   7  -3   3   28.90    4.10
  -7  -3  -3   30.50    3.40
  -7   3  -4 1036.20   40.40
   7   3   4 1072.49   39.90
  -7   3  -4 1044.60   40.30
  -7   3  -4 1022.00   40.40
  -7   3  -4 1065.69   40.10
   7  -3   4 1048.20   40.70
   7  -3   4 1036.00   40.50
  -7  -3  -4 1072.49   40.30
  -7  -3  -4 1011.60   41.00
  -7   3  -5   34.90    4.60
  -7   3  -5   41.40    4.10
  -7   3  -5   42.10    4.10
   7   3   5   38.80    5.10
   7   3   5   35.70    4.30
  -7   3  -5   29.50    4.80
  -7  -3  -5   37.80    2.90
  -7  -3  -5   37.50    2.70
  -7  -3  -5   40.00    4.80
   7   3   6    0.20    2.50
  -7   3  -6    3.20    2.70
  -7   3  -6    3.10    2.40
  -7   3  -6   -0.50    1.80
   7   3   6   -1.70    3.40
  -7  -3  -6    2.50    1.30
  -7  -3  -6   -4.00    2.80
  -7  -3  -6    2.70    1.20
   7   3   7  192.58   10.40
  -7   3  -7  191.48    9.20
  -7   3  -7  184.18    8.00
   7   3   7  180.48    8.80
  -7  -3  -7  183.98    7.70
  -7  -3  -7  186.58    7.60
  -7  -3  -7  188.08    9.90
   7   3   8  171.78    8.10
   7   3   8  180.58   10.10
  -7   3  -8  167.68    8.50
  -7   3  -8  181.28    7.30
  -7  -3  -8  175.18    7.10
  -7  -3  -8  170.78    7.10
   7   3   9   26.80    3.40
  -7   3  -9   26.60    2.20
  -7  -3  -9   24.50    1.80
  -7  -3  -9   27.80    2.40
  -7   3 -10   20.60    1.60
   7   3  10   17.50    2.30
  -7  -3 -10   18.30    1.40
  -7   4  13    2.70    1.70
   7   4 -13    2.70    1.10
  -7  -4  13    2.10    2.00
  -7   4  12   67.69    4.40
   7   4 -12   64.49    3.90
  -7  -4  12   74.39    4.50
   7   4 -11   41.70    3.40
  -7   4  11   39.80    5.10
  -7   4  11   45.80    4.20
  -7  -4  11   41.30    3.80
   7   4 -10  402.06   16.40
  -7   4  10  408.36   16.60
  -7  -4  10  399.26   16.60
  -7   4   9   19.20    3.00
   7   4  -9   16.90    2.60
  -7   4   9   18.50    3.10
  -7  -4   9   16.70    2.60
  -7  -4   9   19.30    2.40
  -7   4   8    2.50    2.10
   7   4  -8    4.70    2.30
  -7  -4   8    4.40    1.40
  -7  -4   8    0.20    2.10
   7   4  -7  533.25   22.70
  -7   4   7  600.84   22.40
  -7  -4   7  586.24   22.00
  -7  -4   7  551.64   24.40
   7   4  -6  394.56   18.70
  -7   4   6  397.66   15.90
   7  -4  -6  420.46   18.20
  -7  -4   6  383.16   16.40
   7   4  -5   23.60    4.30
   7   4  -5   23.80    3.80
   7   4  -5   34.60    5.70
   7  -4  -5   27.10    3.60
  -7  -4   5   37.30    4.30
  -7   4   4   28.00    2.10
   7   4  -4   21.60    3.50
   7   4  -4   26.20    3.60
   7   4  -4   23.50    3.70
   7  -4  -4   25.90    4.60
  -7   4   3  566.84   20.40
  -7   4   3  522.05   20.60
   7   4  -3  561.14   22.20
   7   4  -3  456.05   21.60
   7  -4  -3  549.65   21.90
   7   4  -2  436.86   18.90
  -7   4   2  497.55   18.00
  -7  -4   2  439.56   18.40
   7  -4  -2  442.36   19.10
  -7  -4   2  508.95   19.50
  -7   4   1   91.49    4.50
  -7   4   1  102.99    4.70
   7   4  -1   98.69    5.30
  -7  -4   1   88.59    5.20
   7  -4  -1   94.69    5.80
  -7  -4   1   94.49    6.00
  -7   4   0  452.75   16.70
   7   4   0  446.56   17.00
   7   4   0  418.46   16.70
  -7   4   0  437.46   16.90
  -7  -4   0  389.06   17.10
   7  -4   0  403.46   17.30
  -7  -4   0  429.16   17.80
   7  -4   0  452.85   17.60
  -7  -4   0  412.26   17.40
  -7   4  -1    2.00    1.30
   7   4   1    3.10    1.40
   7   4   1    3.70    1.70
  -7   4  -1    4.20    2.30
  -7  -4  -1    5.20    3.00
  -7  -4  -1    2.90    2.40
   7  -4   1    1.90    2.70
  -7  -4  -1    0.70    1.90
   7   4   2  533.45   20.60
  -7   4  -2  520.95   20.90
   7   4   2  527.45   20.50
  -7   4  -2  547.05   20.80
  -7   4  -2  522.25   21.00
   7  -4   2  531.65   21.20
   7  -4   2  525.95   21.30
  -7  -4  -2  516.45   21.40
  -7  -4  -2  527.55   21.20
  -7   4  -3   82.79    5.00
  -7   4  -3   84.69    5.30
  -7   4  -3   83.59    5.40
   7   4   3   83.09    4.90
   7   4   3   89.89    5.00
  -7  -4  -3   84.19    6.20
  -7  -4  -3   87.39    5.70
   7  -4   3   86.29    6.20
   7  -4   3   72.49    6.00
   7   4   4   10.20    2.30
  -7   4  -4    5.00    2.20
  -7   4  -4    8.20    2.30
  -7   4  -4    4.60    2.60
   7   4   4    2.40    2.20
   7  -4   4    9.60    3.60
  -7  -4  -4    4.50    1.40
  -7   4  -5 1229.48   47.90
  -7   4  -5 1230.68   47.30
  -7   4  -5 1233.98   48.30
   7   4   5 1306.97   47.80
  -7   4  -5 1254.77   48.30
   7   4   5 1279.37   48.10
  -7  -4  -5 1244.08   48.20
  -7  -4  -5 1273.37   47.00
  -7  -4  -5 1267.17   47.10
   7  -4   5 1225.58   48.20
  -7   4  -6   48.00    4.80
   7   4   6   52.79    5.50
   7   4   6   44.20    4.60
  -7   4  -6   41.60    4.40
   7  -4   6   41.00    6.70
  -7  -4  -6   40.80    3.40
  -7  -4  -6   40.70    5.50
  -7  -4  -6   49.99    3.40
  -7   4  -7  140.09    6.30
   7   4   7  150.58    8.40
  -7   4  -7  138.69    7.60
   7   4   7  139.69    7.20
  -7  -4  -7  140.59    6.00
  -7  -4  -7  138.39    5.90
   7   4   8    1.60    3.90
  -7   4  -8    2.70    2.50
   7   4   8    4.30    2.10
  -7   4  -8   -0.40    1.30
  -7  -4  -8    0.60    0.90
  -7  -4  -8    2.70    1.00
   7   4   9  225.58    9.50
  -7   4  -9  232.58    9.00
  -7   4  -9  235.98   10.20
  -7  -4  -9  227.68    8.90
  -7  -4  -9  217.38    8.90
   7   4  10   41.80    3.40
  -7   4 -10   40.50    2.10
  -7  -4 -10   36.60    1.90
   7   5 -13  173.88    7.60
  -7   5  13  192.58    7.90
  -7  -5  13  199.28    8.00
   7   5 -12   70.99    4.00
  -7  -5  12   80.89    4.40
   7   5 -11   91.09    5.00
  -7   5  11   96.79    5.70
  -7   5  11   90.69    6.60
  -7  -5  11   98.09    5.20
  -7   5  10   52.89    5.10
   7   5 -10   54.19    4.10
  -7   5  10   48.70    5.10
   7   5 -10   46.40    3.90
  -7  -5  10   48.40    2.90
  -7  -5  10   49.10    4.20
   7   5  -9   40.60    4.40
  -7   5   9   51.09    5.00
   7   5  -9   52.99    4.30
  -7  -5   9   52.69    2.90
  -7  -5   9   58.99    4.40
   7   5  -8   -0.30    2.10
  -7   5   8    0.10    2.30
  -7  -5   8    0.70    1.10
  -7  -5   8    0.10    2.10
   7   5  -7   22.80    4.40
   7   5  -7   24.00    4.00
  -7   5   7   34.10    3.50
  -7  -5   7   29.30    2.30
  -7  -5   7   23.00    3.60
  -7   5   6   47.70    4.50
   7   5  -6   37.30    5.80
   7   5  -6   44.70    7.90
   7   5  -6   38.20    4.80
  -7  -5   6   51.59    4.40
  -7  -5   6   51.39    2.90
   7   5  -5  563.84   24.40
   7   5  -5  526.15   23.80
  -7  -5   5  567.04   22.70
   7  -5  -5  576.64   24.30
  -7  -5   5  577.24   22.40
   7   5  -4 1365.46   52.89
   7   5  -4 1142.59   52.19
  -7   5   4 1439.56   50.69
  -7  -5   4 1388.46   51.49
  -7  -5   4 1352.36   51.39
   7  -5  -4 1408.46   52.79
  -7   5   3  434.86   16.10
   7   5  -3  397.46   18.10
  -7  -5   3  409.76   17.10
   7   5  -2  392.26   16.80
  -7   5   2  417.06   15.00
   7   5  -2  344.47   16.00
   7   5  -2  394.66   15.60
  -7   5   2  322.27   15.50
  -7  -5   2  394.26   16.80
   7  -5  -2  371.36   16.40
   7  -5  -2  381.36   15.80
  -7  -5   2  364.06   15.90
  -7  -5   2  405.56   15.70
   7   5  -1  278.87   11.90
   7   5  -1  280.37   11.40
  -7   5   1  267.87   11.10
  -7   5   1  281.17   11.10
   7  -5  -1  266.07   12.50
   7  -5  -1  272.97   11.80
  -7  -5   1  273.77   11.70
  -7  -5   1  252.67   11.90
   7   5   0   26.00    3.20
   7   5   0   24.40    3.10
  -7   5   0   21.60    2.50
  -7   5   0   24.00    2.70
  -7   5   0   26.10    3.50
  -7  -5   0   23.50    3.90
   7  -5   0   18.30    2.80
   7  -5   0   24.40    4.00
  -7  -5   0   25.40    3.80
   7   5   1   18.90    2.70
  -7   5  -1   26.20    2.70
  -7   5  -1   22.20    3.00
  -7   5  -1   21.50    2.60
   7   5   1   18.20    2.80
   7  -5   1   17.70    3.00
  -7  -5  -1   19.80    2.80
  -7  -5  -1   26.50    4.10
   7  -5   1   15.70    2.90
  -7   5  -2   57.29    4.30
   7   5   2   57.39    3.80
  -7   5  -2   59.99    4.60
   7   5   2   51.09    5.50
   7  -5   2   57.89    5.80
  -7  -5  -2   59.39    5.00
  -7  -5  -2   57.49    5.50
   7  -5   2   53.29    5.00
   7   5   3  245.48   10.00
  -7   5  -3  225.08   10.70
   7   5   3  235.88   11.50
  -7   5  -3  229.98   10.30
  -7  -5  -3  225.08    9.20
  -7  -5  -3  220.68   12.00
  -7   5  -4   13.90    3.00
   7   5   4   10.10    2.30
  -7   5  -4   11.80    2.40
   7   5   4   12.60    2.40
  -7   5  -4   16.60    2.70
   7  -5   4   16.10    3.30
  -7  -5  -4   12.10    1.50
  -7  -5  -4   14.70    2.00
  -7  -5  -4   11.20    2.90
  -7   5  -5  261.87   12.00
  -7   5  -5  259.07   11.40
   7   5   5  260.67   11.10
  -7   5  -5  265.57   11.90
   7   5   5  263.47   11.50
  -7  -5  -5  253.97   11.90
   7  -5   5  252.37   11.90
  -7  -5  -5  254.07   10.30
  -7  -5  -5  260.17   10.30
  -7   5  -6  191.98    8.60
  -7   5  -6  197.58    9.70
  -7   5  -6  201.48    9.30
   7   5   6  204.88    9.70
   7   5   6  205.08    9.10
  -7  -5  -6  207.88    8.10
  -7  -5  -6  191.38   10.10
   7  -5   6  187.38   10.20
  -7  -5  -6  205.28    8.10
   7   5   7   43.10    5.30
   7   5   7   46.30    4.00
  -7   5  -7   57.39    4.80
  -7   5  -7   43.70    3.30
  -7  -5  -7   46.60    2.60
  -7  -5  -7   43.40    2.60
   7  -5   7   38.50    6.40
  -7   5  -8   59.69    3.40
   7   5   8   60.59    4.00
  -7   5  -8   58.29    4.80
  -7  -5  -8   63.99    3.00
   7   5   9   13.30    2.30
  -7   5  -9   10.90    1.80
  -7   5  -9   14.70    2.90
  -7  -5  -9   15.80    1.30
   7   6 -12    2.70    1.30
  -7   6  12    5.20    2.00
  -7  -6  12    3.70    1.70
   7   6 -11   -4.30    1.80
   7   6 -11    0.80    1.40
  -7   6  11    3.80    2.60
  -7  -6  11    0.90    1.60
  -7   6  10   10.30    3.30
   7   6 -10    6.10    2.00
   7   6 -10   10.90    2.00
  -7  -6  10   13.50    1.60
  -7  -6  10    8.90    2.00
  -7   6   9   48.00    5.20
   7   6  -9   38.80    3.80
  -7  -6   9   44.90    2.50
  -7  -6   9   44.90    4.00
  -7   6   8  285.97   12.30
   7   6  -8  262.37   12.10
  -7  -6   8  289.37   12.10
  -7  -6   8  286.77   11.10
  -7   6   7  286.87   12.00
   7   6  -7  262.27   12.30
  -7  -6   7  291.47   12.30
  -7  -6   7  290.77   11.10
   7   6  -6   21.50    5.20
   7   6  -6    7.50    3.30
   7   6  -6    9.00    2.80
  -7   6   6   13.80    2.20
   7  -6  -6   12.10    2.10
  -7  -6   6   20.90    3.90
  -7  -6   6   16.90    2.70
  -7  -6   6   13.00    1.40
   7   6  -5  237.18   12.90
  -7  -6   5  237.28   10.80
  -7  -6   5  255.37   11.50
   7  -6  -5  232.18    9.90
  -7  -6   5  255.07    9.80
  -7   6   4  713.33   27.30
   7  -6  -4  748.53   34.20
  -7  -6   4  678.43   28.10
  -7  -6   4  738.83   28.40
   7   6  -3   50.89    5.80
  -7   6   3   66.79    3.50
   7   6  -3   56.29    5.20
   7   6  -3   63.09    7.40
  -7  -6   3   65.69    5.10
   7  -6  -3   66.29    7.50
   7   6  -2    0.20    3.80
  -7   6   2    1.90    1.30
   7   6  -2    1.10    2.20
   7   6  -2   -0.30    2.40
   7  -6  -2    4.30    3.50
   7  -6  -2    0.10    2.40
  -7  -6   2   -6.40    4.50
  -7  -6   2   -0.90    2.20
   7   6  -1  118.79    8.60
  -7   6   1  131.29    6.10
   7   6  -1  135.09    6.50
   7   6  -1  123.29    7.00
  -7  -6   1  130.99    6.90
  -7  -6   1  121.99    7.70
   7  -6  -1  116.69    8.50
   7  -6  -1  124.29    6.80
  -7   6   0  109.39    7.20
  -7   6   0  108.99    7.00
   7   6   0  110.29    5.70
  -7  -6   0  105.19    6.30
  -7  -6   0   97.09    7.10
   7  -6   0  108.49    6.40
   7  -6   0  109.29    8.20
  -7   6  -1   26.50    3.30
  -7   6  -1   32.80    3.90
   7   6   1   31.70    3.40
  -7   6  -1   24.80    3.00
   7   6   1   26.60    3.10
  -7  -6  -1   32.90    4.20
  -7  -6  -1   20.70    3.90
  -7  -6  -1   28.30    2.50
   7  -6   1   28.10    2.40
   7  -6   1   21.60    3.30
   7   6   2  597.34   23.80
  -7   6  -2  601.64   24.40
  -7   6  -2  628.34   24.50
   7   6   2  671.83   24.40
  -7  -6  -2  611.24   23.50
  -7  -6  -2  626.24   24.70
   7  -6   2  620.24   24.70
   7  -6   2  575.14   23.50
   7  -6   2  621.24   23.40
  -7   6  -3  112.79    6.10
   7   6   3  105.69    5.90
  -7   6  -3  110.89    6.20
   7   6   3  106.29    5.60
   7  -6   3  106.59    6.70
  -7  -6  -3  103.49    6.60
  -7  -6  -3  107.49    4.80
   7  -6   3  109.59    4.80
  -7   6  -4  256.67   11.50
  -7   6  -4  246.48   11.60
   7   6   4  258.47   11.30
   7   6   4  269.67   10.90
  -7  -6  -4  255.77   11.80
   7  -6   4  257.47   11.90
  -7  -6  -4  263.67   10.30
  -7   6  -5  146.69    8.10
   7   6   5  145.69    6.90
  -7   6  -5  139.19    7.40
  -7   6  -5  146.19    8.10
   7   6   5  144.29    7.50
   7  -6   5  138.19    8.10
  -7  -6  -5  145.29    8.20
  -7  -6  -5  147.69    6.10
  -7   6  -6   23.40    3.30
  -7   6  -6   26.20    4.30
   7   6   6   27.10    4.10
  -7   6  -6   24.60    3.80
   7   6   6   26.40    4.50
  -7   6  -6   27.60    3.90
   7  -6   6   24.90    3.90
  -7  -6  -6   27.50    1.90
  -7  -6  -6   21.40    3.90
  -7   6  -7   62.89    4.90
  -7   6  -7   63.29    5.00
  -7   6  -7   64.59    4.60
   7   6   7   61.79    4.10
   7   6   7   72.89    6.00
   7  -6   7   62.79    6.10
  -7  -6  -7   62.39    3.10
   7   6   8    5.50    1.80
  -7   6  -8    5.60    1.40
  -7   6  -8    7.80    2.50
   7  -6   8    4.00    5.10
   7   6   9    1.50    1.60
  -7   6  -9    0.20    1.00
  -7   6  -9   -4.70    3.80
  -7  -6  -9    0.10    0.70
   7   7 -11   54.59    3.30
   7   7 -11   49.10    3.10
  -7  -7  11   47.50    3.50
   7   7 -10  200.08    9.10
  -7  -7  10  229.08    8.60
  -7  -7  10  232.78    9.50
   7   7  -9  123.29    6.40
  -7  -7   9  127.39    5.30
  -7  -7   9  127.09    6.30
  -7  -7   9  128.69    5.40
   7   7  -8  489.75   19.60
  -7  -7   8  492.95   18.50
  -7  -7   8  468.35   19.30
   7   7  -7   11.20    3.70
   7   7  -7   14.10    2.50
  -7  -7   7   12.90    2.30
  -7  -7   7   14.70    1.70
  -7   7   6  482.65   18.80
   7   7  -6  419.76   19.30
   7   7  -6  467.05   21.90
  -7  -7   6  487.05   19.20
   7  -7  -6  497.05   18.40
  -7  -7   6  503.85   18.30
   7   7  -5   17.10    4.70
   7   7  -5   13.40    3.30
  -7  -7   5   16.90    3.20
  -7  -7   5   16.00    1.90
   7  -7  -5   24.80    2.50
  -7  -7   5   18.00    2.70
  -7   7   4  209.88    8.50
   7   7  -4  185.18   11.20
  -7  -7   4  207.78    9.70
  -7  -7   4  211.58    8.30
   7  -7  -4  199.08    8.30
   7   7  -3  310.57   15.00
   7   7  -3  306.67   16.00
  -7   7   3  375.96   13.90
  -7  -7   3  377.56   13.70
  -7  -7   3  359.66   14.90
   7  -7  -3  364.56   13.70
   7   7  -2   10.80    3.20
   7   7  -2    7.10    2.50
  -7   7   2    6.00    1.70
   7  -7  -2    5.70    1.40
  -7  -7   2   10.10    1.50
  -7  -7   2    3.60    2.20
   7   7  -1   20.10    3.30
  -7   7   1   25.10    3.00
   7   7  -1   21.60    2.80
   7  -7  -1   29.20    2.50
  -7  -7   1   36.70    4.20
  -7  -7   1   22.00    2.70
   7  -7  -1   23.70    3.20
   7   7   0   57.09    4.20
  -7   7   0   61.99    4.10
   7   7   0   64.59    5.10
   7  -7   0   58.99    3.10
  -7  -7   0   56.99    4.90
   7  -7   0   54.99    5.00
   7  -7   0   57.69    3.40
  -7  -7   0   57.49    3.40
  -7   7  -1  270.97   11.90
  -7   7  -1  278.57   12.30
   7   7   1  278.47   11.60
   7   7   1  283.27   12.30
  -7  -7  -1  265.07   11.00
   7  -7   1  289.97   10.90
   7  -7   1  271.77   12.30
  -7  -7  -1  278.47   12.40
   7  -7   1  276.97   11.00
  -7   7  -2  847.12   33.50
  -7   7  -2  851.91   33.50
   7   7   2  883.61   33.60
   7   7   2  857.91   32.90
  -7  -7  -2  847.92   32.50
  -7  -7  -2  863.71   33.70
   7  -7   2  873.31   32.40
   7  -7   2  841.72   32.50
   7  -7   2  868.51   33.70
   7   7   3    2.60    1.80
  -7   7  -3    8.20    2.30
   7   7   3    8.20    2.30
  -7   7  -3    7.70    2.30
   7  -7   3    8.50    1.70
   7  -7   3   10.10    2.80
   7  -7   3    7.10    1.20
  -7  -7  -3    7.50    1.30
  -7  -7  -3    6.50    2.60
   7   7   4  165.48    8.10
   7   7   4  159.78    7.30
  -7   7  -4  157.78    8.00
  -7   7  -4  156.08    8.30
  -7  -7  -4  158.18    6.60
  -7  -7  -4  145.89    8.40
   7  -7   4  156.28    8.40
  -7   7  -5   65.69    5.80
   7   7   5   78.59    5.60
  -7  -7  -5   76.09    3.60
  -7  -7  -5   63.09    6.40
  -7   7  -6  395.86   16.00
   7   7   6  402.66   15.60
  -7   7  -6  344.27   17.00
  -7   7  -6  405.66   16.40
   7   7   6  395.66   16.40
  -7  -7  -6  407.46   15.10
   7  -7   6  380.96   16.30
  -7   7  -7   49.20    4.50
  -7   7  -7   50.99    3.90
   7   7   7   54.49    3.70
  -7   7  -7   50.09    4.50
   7  -7   7   49.50    5.10
  -7  -7  -7   54.99    2.70
  -7   7  -8   15.50    2.40
   7   7   8   10.60    1.90
   7  -7   8   10.30    3.50
  -7  -7  -8   12.70    1.30
   7   8 -11    0.10    1.00
   7   8 -11   -0.40    1.30
  -7  -8  11   -0.10    1.50
   7   8 -10   59.49    3.40
   7   8 -10   49.50    3.20
  -7  -8  10   56.89    2.50
  -7  -8  10   52.89    3.60
   7   8  -9   11.50    1.90
  -7  -8   9   16.30    1.40
  -7  -8   9   15.30    2.20
  -7  -8   9   14.50    1.70
   7   8  -8  173.48    8.10
  -7  -8   8  182.98    8.00
  -7  -8   8  172.18    7.10
  -7  -8   8  179.08    7.10
   7   8  -7    2.40    2.00
   7   8  -7    2.70    3.40
  -7  -8   7    6.20    1.00
  -7  -8   7    4.60    2.10
   7   8  -6  132.09    7.20
   7   8  -6  138.59   12.20
   7   8  -6  123.19    8.30
  -7  -8   6  154.98    5.90
  -7  -8   6  141.19    7.00
   7  -8  -6  145.69    6.20
   7   8  -5  858.81   36.40
  -7  -8   5  900.81   34.60
  -7  -8   5  921.71   33.30
   7  -8  -5  878.21   33.40
  -7  -8   5  860.11   34.00
  -7   8   4  251.97    9.90
   7   8  -4  224.38   12.90
   7   8  -4  203.38   11.20
  -7  -8   4  255.27    9.50
   7  -8  -4  239.18    9.50
  -7  -8   4  241.38   11.00
  -7   8   3   36.50    3.20
   7   8  -3   28.90    4.70
   7   8  -3   27.50    3.70
  -7  -8   3   32.50    4.20
   7  -8  -3   34.20    2.50
  -7  -8   3   34.60    2.30
   7   8  -2  278.17   15.00
   7   8  -2  323.37   14.20
  -7   8   2  337.87   13.40
  -7  -8   2  329.67   14.10
   7  -8  -2  343.47   12.80
  -7  -8   2  335.27   12.70
  -7   8   1   20.40    3.20
   7   8  -1   18.30    3.70
   7   8  -1   16.50    2.70
   7  -8  -1   16.40    2.20
  -7  -8   1   19.40    2.40
  -7  -8   1   16.30    2.70
   7  -8  -1   17.50    3.00
   7   8   0  493.95   21.70
  -7   8   0  534.65   21.20
  -7   8   0  524.45   20.80
   7   8   0  528.05   20.80
  -7  -8   0  491.35   21.10
   7  -8   0  528.35   21.20
   7  -8   0  529.55   19.90
   7   8   1  268.27   12.50
  -7   8  -1  269.97   11.80
   7   8   1  268.67   11.50
  -7   8  -1  273.57   12.00
   7  -8   1  270.37   12.20
   7  -8   1  279.77   10.70
  -7  -8  -1  266.47   11.50
  -7  -8  -1  274.07   12.20
   7  -8   1  257.97   10.80
   7   8   2    2.70    2.60
   7   8   2    3.40    2.00
  -7   8  -2    1.50    2.10
  -7   8  -2   -0.70    2.20
   7  -8   2    2.80    1.30
  -7  -8  -2    4.40    2.50
   7  -8   2   -0.10    2.50
  -7  -8  -2    1.30    1.10
   7  -8   2    1.00    1.00
   7   8   3  234.58   10.00
  -7   8  -3  234.38   10.50
  -7  -8  -3  235.28    9.30
  -7  -8  -3  225.78   10.90
   7  -8   3  220.08    9.30
   7   8   4   63.89    4.40
  -7   8  -4   62.29    5.20
   7   8   4   62.09    5.50
  -7   8  -4   65.39    4.90
  -7  -8  -4   66.09    3.30
   7  -8   4   61.99    5.30
  -7  -8  -4   60.89    5.70
   7   8   5   52.89    5.70
  -7   8  -5   60.09    4.50
   7   8   5   57.59    4.10
  -7   8  -5   62.29    5.00
  -7   8  -5   58.19    5.80
  -7  -8  -5   53.49    6.10
  -7  -8  -5   60.89    3.10
   7  -8   5   54.59    4.90
  -7   8  -6  111.29    5.90
  -7   8  -6  108.29    6.10
   7   8   6  106.89    5.50
   7  -8   6   97.09    6.30
  -7  -8  -6  115.39    4.70
  -7   8  -7   -0.60    2.20
   7   8   7   -0.20    2.50
  -7   8  -7   -0.10    2.20
  -7  -8  -7    0.50    0.70
   7  -8   7   -0.80    2.60
   7   8   8  142.69    6.50
  -7   8  -8  144.99    8.10
  -7  -8  -8  151.48    5.80
   7   9 -10  255.37   10.10
   7   9 -10  258.47   10.50
  -7  -9  10  245.68    9.80
  -7  -9  10  254.67   10.30
   7   9  -9  148.09    6.40
   7   9  -9  128.49    6.10
  -7  -9   9  142.29    6.60
  -7  -9   9  152.28    5.70
  -7  -9   9  149.39    5.80
   7   9  -8   50.99    3.60
   7   9  -8   46.50    6.50
  -7  -9   8   52.79    3.80
  -7  -9   8   50.89    2.40
  -7  -9   8   50.49    2.60
   7   9  -7   43.80    3.70
   7   9  -7   36.50    5.40
  -7  -9   7   46.20    3.80
  -7  -9   7   45.50    2.30
  -7  -9   7   42.70    2.40
   7   9  -6   97.69    5.40
   7   9  -6   81.69   10.20
   7   9  -6   87.79    6.60
  -7  -9   6   96.29    4.20
  -7  -9   6  105.09    4.30
   7  -9  -6  104.09    4.60
  -7  -9   6   94.49    5.70
   7   9  -5    8.40    2.10
   7   9  -5   -1.30    4.80
   7  -9  -5    5.70    1.30
  -7  -9   5    6.60    1.10
  -7  -9   5    7.50    1.00
   7   9  -4   91.19    6.70
   7   9  -4   89.79    8.70
  -7  -9   4   90.59    6.10
   7  -9  -4   96.59    4.40
  -7  -9   4  103.49    4.30
   7   9  -3   69.29    7.70
   7   9  -3   65.59    6.00
  -7  -9   3   81.29    5.50
  -7  -9   3   79.59    3.60
   7  -9  -3   79.29    3.80
   7   9  -2  355.46   17.90
   7   9  -2  379.46   16.80
  -7   9   2  419.76   15.90
  -7  -9   2  401.66   15.30
   7  -9  -2  408.56   15.30
  -7  -9   2  396.36   15.20
  -7   9   1   63.39    4.60
   7   9  -1   54.59    6.60
   7   9  -1   62.19    5.20
   7  -9  -1   60.79    3.30
  -7  -9   1   56.89    4.70
  -7  -9   1   57.69    3.20
  -7  -9   1   63.99    3.20
   7   9   0   25.00    4.10
  -7   9   0   34.20    5.10
   7   9   0   27.00    4.40
  -7   9   0   30.50    4.50
  -7  -9   0   24.70    3.40
   7  -9   0   29.60    4.60
   7  -9   0   26.40    2.20
  -7  -9   0   27.50    2.40
   7   9   1    1.80    2.20
  -7   9  -1    4.20    2.20
  -7   9  -1    2.40    2.60
   7   9   1    6.80    3.40
   7  -9   1    4.20    1.20
  -7  -9  -1    1.10    2.40
   7  -9   1    6.40    2.80
   7   9   2    3.00    2.20
   7   9   2    3.20    3.10
  -7   9  -2    2.70    2.40
  -7   9  -2    1.80    2.30
   7  -9   2    3.90    2.80
  -7  -9  -2    3.40    2.60
   7  -9   2    1.60    1.10
  -7   9  -3   11.60    2.50
   7   9   3    7.40    2.20
   7   9   3   11.10    3.40
  -7   9  -3    7.60    2.60
   7  -9   3    8.10    2.50
  -7  -9  -3   12.40    2.90
  -7  -9  -3    9.10    1.30
   7  -9   3    7.20    1.40
   7   9   4   30.50    3.50
  -7   9  -4   36.10    3.70
  -7   9  -4   28.20    4.30
  -7   9  -4   27.00    3.60
   7   9   4   28.60    4.20
   7  -9   4   31.90    2.70
  -7  -9  -4   23.00    3.40
   7  -9   4   32.70    4.10
  -7  -9  -4   28.30    2.10
   7   9   5   52.69    4.00
  -7   9  -5   55.99    4.10
  -7   9  -5   54.29    4.60
  -7  -9  -5   49.90    2.70
   7  -9   5   47.80    4.50
  -7   9  -6   73.39    4.50
   7   9   6   70.29    4.40
  -7   9  -6   79.29    4.90
   7  -9   6   66.49    5.00
  -7  -9  -6   75.39    3.30
  -7   9  -7   26.40    3.30
   7   9   7   27.00    3.10
   7  -9   7   23.10    3.00
   7  10  -9   88.39    3.80
   7  10  -9   67.89    4.00
  -7 -10   9   81.69    3.30
  -7 -10   9   79.59    3.30
   7  10  -8   84.99    4.30
   7  10  -8   83.49    4.00
  -7 -10   8   89.69    3.70
  -7 -10   8   87.49    3.60
  -7 -10   8   84.59    5.00
   7  10  -7  211.38   10.90
   7  10  -7  231.88    9.80
  -7 -10   7  252.07    9.10
  -7 -10   7  234.68    9.00
   7  10  -6  136.99    7.90
   7  10  -6  144.19    6.80
   7 -10  -6  152.08    6.10
  -7 -10   6  146.69    6.10
   7  10  -5   12.90    3.00
   7  10  -5    9.10    5.60
   7  10  -5    9.80    2.00
  -7 -10   5   11.00    1.30
   7 -10  -5   10.00    1.70
  -7 -10   5   11.40    1.30
   7  10  -4  192.08    9.20
   7  10  -4  203.68   10.20
   7  10  -4  193.48   12.50
   7 -10  -4  224.18    8.50
  -7 -10   4  220.98    8.40
  -7 -10   4  222.78    8.50
   7  10  -3   12.20    2.80
   7  10  -3   15.40    4.60
  -7 -10   3   17.20    1.70
  -7 -10   3   15.20    1.50
   7 -10  -3   18.50    1.80
  -7 -10   3   14.30    2.60
   7  10  -2   62.79    5.40
  -7  10   2   64.19    4.70
   7  10  -2   55.89    7.30
   7 -10  -2   74.69    3.40
  -7 -10   2   73.09    3.30
  -7 -10   2   66.69    3.30
  -7 -10   2   73.79    5.20
   7  10  -1   60.39    7.30
   7  10  -1   69.19    5.30
  -7  10   1   69.89    4.90
  -7 -10   1   69.69    3.40
  -7 -10   1   73.89    5.10
   7 -10  -1   70.39    3.40
   7  10   0   41.90    6.50
  -7  10   0   39.50    5.00
   7  10   0   39.70    4.30
  -7  10   0   35.20    4.10
  -7 -10   0   32.30    2.40
  -7 -10   0   36.50    4.30
   7 -10   0   38.30    2.30
   7  10   1    3.90    3.90
  -7  10  -1    2.00    2.40
   7  10   1    4.50    2.20
  -7  10  -1   -1.30    2.40
   7 -10   1   -0.40    2.60
   7 -10   1   -0.20    1.00
  -7 -10  -1    0.00    2.30
   7  10   2  387.96   15.40
  -7  10  -2  371.36   15.60
  -7  10  -2  384.96   15.50
   7  10   2  354.16   16.70
  -7 -10  -2  365.86   15.60
   7 -10   2  385.56   15.70
   7 -10   2  362.36   14.40
  -7  10  -3   16.60    3.00
  -7  10  -3   15.00    2.40
   7  10   3   12.90    2.40
   7 -10   3   12.40    2.70
   7 -10   3   17.70    1.80
  -7 -10  -3    9.70    2.90
   7  10   4    5.10    2.10
  -7  10  -4    4.40    2.00
  -7  10  -4    9.20    2.50
   7 -10   4    7.50    1.40
  -7 -10  -4    8.10    3.10
   7 -10   4    5.10    2.50
  -7  10  -5   37.80    3.70
   7  10   5   33.00    3.40
  -7  10  -5   36.90    3.30
   7 -10   5   35.80    3.80
   7  11  -7  115.59    5.70
   7  11  -7  115.39    4.80
  -7 -11   7  112.39    4.60
  -7 -11   7  110.39    4.50
   7  11  -6   36.60    2.80
   7  11  -6   36.50    4.30
  -7 -11   6   38.20    2.00
  -7 -11   6   40.30    1.90
   7  11  -5    5.00    1.50
   7  11  -5    8.50    2.50
   7 -11  -5    3.30    1.10
  -7 -11   5    3.40    0.70
  -7 -11   5    4.30    0.80
   7  11  -4   48.80    3.50
   7  11  -4   53.19    4.80
  -7 -11   4   52.69    2.50
  -7 -11   4   56.19    2.60
   7 -11  -4   54.89    2.80
   7  11  -3    0.60    2.40
   7  11  -3    3.40    1.60
   7 -11  -3    1.90    0.90
  -7 -11   3    1.90    0.70
  -7 -11   3    2.40    0.80
   7  11  -2   21.20    3.20
  -7 -11   2   29.60    1.90
  -7 -11   2   28.80    1.80
   7 -11  -2   29.80    2.00
   7  11  -1  222.78   10.60
   7 -11  -1  242.38    9.30
  -7 -11   1  241.08    9.20
   7  11   0    4.90    2.30
  -7  11   0    7.80    3.00
   7 -11   0    7.10    1.10
  -7 -11   0   10.40    2.30
  -7 -11   0    6.00    1.10
  -7  11  -1  107.19    6.10
   7  11   1  102.39    6.00
  -7  11  -1  108.09    8.40
  -7 -11  -1  102.49    5.80
   7 -11   1  101.79    4.40
  -7  11  -2   73.39    5.30
  -7  11  -2   75.39    5.30
   7 -11   2   70.19    3.30
  -7 -11  -2   75.69    4.90
   7  11   3   70.99    4.40
  -7  11  -3   68.29    4.20
  -7  11  -3   64.39    4.70
   7 -11   3   59.59    3.00
   7  11   4   47.90    3.70
  -7  11  -4   33.50    3.20
  -7  11  -4   37.00    3.60
   7  12  -4  143.89    7.20
   7  12  -4  134.69    7.10
  -7 -12   4  151.58    5.70
  -7 -12   4  154.58    5.80
   7  12  -3   31.50    2.70
   7  12  -3   33.10    3.80
  -7 -12   3   35.10    1.70
   7 -12  -3   33.50    1.90
  -7 -12   3   34.80    1.80
   7  12  -2   29.70    2.60
   7  12  -2   21.70    3.70
  -7 -12   2   30.60    1.70
   7 -12  -2   35.20    1.80
   7  12  -1   45.50    4.20
   7 -12  -1   48.50    2.30
   7  12   0    3.70    2.20
   7 -12   0    9.10    1.20
  -7  12  -1    3.90    2.10
   7  12   1    0.60    2.10
   7 -12   1    1.30    0.70
   8   0 -14    0.70    1.00
  -8   0  14    0.70    2.70
  -8   0  13   -0.70    2.00
   8   0 -13   -0.60    1.20
  -8   0  12    6.60    3.10
  -8   0  12    3.20    2.00
  -8   0  12    0.60    4.30
  -8   0  11    4.30    2.10
   8   0 -11    2.30    1.80
  -8   0  11   -5.00    3.40
  -8   0  10  278.17   12.70
  -8   0  10  277.07   12.10
  -8   0  10  286.07   13.10
  -8   0   9    0.60    2.60
  -8   0   9    7.50    3.00
  -8   0   9    1.90    2.00
   8   0  -9   -0.10    2.60
  -8   0   8  121.29    6.90
  -8   0   7   -1.30    1.90
  -8   0   7   -1.10    1.90
  -8   0   6  133.59    6.60
  -8   0   6  124.89    6.50
   8   0  -5   -1.40    2.50
  -8   0   5    1.80    2.00
   8   0  -5   -2.70    3.40
  -8   0   5    0.00    1.40
  -8   0   4  548.45   21.10
   8   0  -4  525.75   21.60
  -8   0   3    0.40    1.10
   8   0  -3    0.00    1.90
  -8   0   3    1.10    1.90
  -8   0   2   81.29    4.00
  -8   0   2   84.49    4.80
   8   0  -2   70.09    4.70
   8   0  -1    1.30    1.60
  -8   0   1   -1.00    1.00
  -8   0   1   -1.10    1.20
  -8   0   1    2.20    1.40
  -8   0   0 3864.21  144.39
   8   0   0 3769.62  144.39
  -8   0   0 3859.31  144.59
  -8   0   0 4019.60  144.49
  -8   0  -1   -0.50    1.60
  -8   0  -1   -0.20    1.20
  -8   0  -1   -0.10    1.40
   8   0   1   -0.40    1.40
   8   0   2  604.64   24.50
  -8   0  -2  647.74   24.80
  -8   0  -2  644.64   25.00
  -8   0  -2  623.24   24.60
  -8   0  -2  634.04   24.60
   8   0   3   -0.50    2.30
   8   0   3   -3.70    2.50
  -8   0  -3   -2.40    2.40
  -8   0  -3   -0.20    2.00
  -8   0  -3   -2.00    1.80
  -8   0  -4   26.30    3.90
   8   0   4   30.60    4.10
  -8   0  -4   22.40    4.00
   8   0   4   15.40    3.40
  -8   0  -4   24.40    4.40
   8   0   5    2.00    2.60
  -8   0  -5   -2.40    2.10
  -8   0  -5   -1.50    1.60
   8   0   6  630.04   24.50
  -8   0  -6  633.34   24.10
  -8   0  -6  630.34   25.00
  -8   0  -7    0.60    1.20
  -8   0  -7   -3.40    2.80
  -8   0  -8  116.69    7.10
  -8   0  -8  122.39    5.20
  -8   0  -9    0.60    0.90
  -8   0 -10   88.09    3.70
   8   1 -14   24.00    1.70
  -8   1  14   17.10    2.90
   8  -1 -14   23.20    1.90
   8   1 -13  316.87   13.20
  -8   1  13  339.37   13.70
  -8  -1  13  338.07   14.00
   8  -1 -13  363.76   13.20
  -8   1  12   24.30    3.40
   8   1 -12   15.50    2.60
  -8   1  12   18.40    4.20
  -8  -1  12   19.00    2.50
  -8  -1  12   34.20    6.30
  -8  -1  12   19.60    3.20
   8  -1 -12   20.50    3.20
  -8   1  11  161.48    8.50
  -8   1  11  150.38    8.70
  -8   1  11  139.39    9.10
   8   1 -11  132.19    6.80
  -8  -1  11  155.18    9.60
   8  -1 -11  145.19    6.70
  -8   1  10    2.40    3.20
   8   1 -10    1.40    2.30
  -8   1  10    0.30    2.80
  -8   1  10    5.50    2.10
  -8  -1  10    1.50    2.00
  -8  -1  10    2.60    2.60
  -8  -1  10    3.60    3.40
  -8   1   9  829.22   31.10
  -8   1   9  808.32   31.70
   8   1  -9  736.53   30.80
  -8   1   9  825.22   31.70
  -8  -1   9  802.52   31.90
  -8  -1   9  804.22   31.50
  -8  -1   9  784.82   31.00
  -8   1   8   64.79    5.00
  -8   1   8   60.89    9.00
  -8   1   8   65.59    7.50
  -8  -1   8   74.89    6.00
  -8  -1   8   74.99    5.60
  -8  -1   8   69.19    4.70
  -8   1   7  444.46   17.60
  -8   1   7  432.26   17.40
  -8  -1   7  428.66   17.80
  -8  -1   7  407.36   17.20
   8   1  -6   78.79    8.00
  -8   1   6   72.69    5.00
  -8   1   6   76.39    4.60
  -8  -1   6   76.19    4.90
  -8   1   5  243.48   10.80
   8   1  -5  279.37   12.90
  -8  -1   5  247.58   10.90
  -8  -1   5  263.27   11.10
  -8   1   4   72.89    4.00
   8   1  -4   76.79    5.30
   8  -1  -4   73.99    5.50
  -8  -1   4   79.29    5.80
  -8  -1   4   69.99    4.30
  -8   1   3  588.54   21.40
   8   1  -3  510.75   21.80
  -8  -1   3  519.55   22.20
  -8  -1   3  593.04   21.70
  -8   1   2  453.65   17.60
  -8   1   2  449.06   17.00
   8  -1  -2  388.26   17.60
  -8  -1   2  442.46   17.80
  -8  -1   2  447.86   17.30
  -8   1   1  857.81   32.00
  -8   1   1  797.42   32.00
   8   1  -1  828.92   32.20
  -8   1   1  883.81   32.30
   8   1  -1  858.61   32.60
  -8  -1   1  804.02   32.50
  -8  -1   1  832.82   32.00
  -8  -1   1  876.01   32.60
   8  -1  -1  840.52   32.40
   8   1   0   25.30    3.50
  -8   1   0   33.20    2.40
   8   1   0   25.30    2.80
  -8  -1   0   23.20    2.80
  -8  -1   0   27.10    2.70
   8  -1   0   28.70    2.90
   8   1   1   88.09    5.10
  -8   1  -1   93.69    4.70
  -8   1  -1   94.79    4.70
   8   1   1   93.59    4.90
   8  -1   1   94.29    5.00
  -8  -1  -1   97.89    5.20
  -8   1  -2   75.59    4.70
  -8   1  -2   73.09    4.30
   8   1   2   80.49    4.70
   8   1   2   75.19    4.70
   8   1   2   74.19    4.80
  -8   1  -2   79.69    5.40
  -8   1  -2   81.69    4.40
  -8  -1  -2   82.09    4.60
   8  -1   2   75.69    4.70
  -8  -1  -2   78.39    5.20
  -8  -1  -2   77.39    5.10
  -8   1  -3  357.06   14.80
   8   1   3  366.16   14.30
  -8   1  -3  355.86   14.50
  -8   1  -3  361.66   14.70
   8   1   3  334.47   14.90
   8   1   3  365.96   14.70
  -8   1  -3  364.66   14.90
  -8  -1  -3  362.36   14.80
  -8  -1  -3  356.26   15.30
  -8  -1  -3  354.06   14.80
   8  -1   3  346.07   15.00
  -8   1  -4 1036.00   41.40
  -8   1  -4 1259.47   44.60
   8   1   4 1097.29   41.20
   8   1   4 1108.49   41.80
  -8   1  -4 1103.59   41.90
   8   1   4  973.10   42.00
  -8  -1  -4 1097.69   41.80
  -8  -1  -4 1032.90   42.00
   8   1   5   -0.40    2.30
   8   1   5    2.30    3.60
  -8   1  -5   -1.20    2.20
  -8   1  -5    0.40    1.90
  -8  -1  -5    2.30    1.40
  -8  -1  -5    5.00    2.30
  -8   1  -6  230.28   10.50
  -8   1  -6  225.68    9.40
   8   1   6  226.98   10.00
  -8  -1  -6  232.98    9.20
  -8  -1  -6  228.78   10.60
  -8   1  -7  213.48    8.80
  -8   1  -7  220.78   10.10
   8   1   7  218.88    9.60
  -8  -1  -7  210.98    8.70
  -8  -1  -7  217.48   10.40
  -8   1  -8  210.08    8.30
   8   1   8  212.28    9.30
  -8   1  -8  198.48    9.70
  -8  -1  -8  197.28   10.20
  -8  -1  -8  214.38    8.30
  -8   1  -9   24.30    1.80
  -8  -1  -9   25.40    1.70
  -8   1 -10    9.20    1.20
  -8  -1 -10    9.70    1.10
  -8   2  13   50.79    3.70
   8   2 -13   45.10    2.90
  -8  -2  13   47.00    4.40
   8  -2 -13   57.59    3.50
  -8   2  12    2.60    1.90
  -8   2  12    4.60    3.60
   8   2 -12    3.20    1.60
  -8  -2  12   -2.10    2.30
  -8  -2  12    0.10    2.40
  -8   2  11  123.49    7.60
   8   2 -11  108.39    6.00
  -8   2  11  131.89    6.70
  -8  -2  11  127.99    6.90
  -8  -2  11  129.09    6.60
  -8   2  10   33.20    5.00
   8   2 -10   25.50    3.70
  -8   2  10   42.20    6.10
  -8   2  10   32.40    3.90
  -8  -2  10   37.90    3.80
  -8  -2  10   41.50    6.90
  -8  -2  10   32.70    4.40
   8   2  -9  361.46   15.90
  -8   2   9  398.96   16.90
  -8   2   9  386.06   16.60
  -8   2   9  399.76   16.10
  -8  -2   9  397.46   16.50
  -8  -2   9  393.36   15.90
   8   2  -8  658.23   29.10
  -8   2   8  778.62   29.60
  -8  -2   8  773.52   30.00
  -8  -2   8  785.72   29.70
  -8  -2   8  750.52   28.50
  -8  -2   8  751.52   29.10
  -8   2   7    1.30    2.30
   8   2  -7   -0.80    5.50
  -8  -2   7    0.60    1.90
  -8  -2   7    1.40    2.40
  -8  -2   7   -0.20    2.60
  -8   2   6  342.57   14.50
  -8   2   6  309.57   14.60
   8   2  -6  396.26   17.10
   8  -2  -6  366.66   16.40
  -8  -2   6  349.27   15.00
  -8  -2   6  363.16   14.50
  -8  -2   6  365.66   15.10
   8   2  -5   -3.80    3.40
  -8   2   5    1.20    1.30
  -8  -2   5    2.90    2.60
  -8  -2   5    0.20    2.10
  -8  -2   5    2.00    2.00
   8  -2  -5    2.40    2.90
  -8   2   4 1061.39   38.20
  -8   2   4  878.71   40.40
  -8  -2   4 1084.19   38.80
   8  -2  -4  872.41   39.30
  -8  -2   4 1130.49   39.70
  -8   2   3  271.97   10.80
  -8  -2   3  270.57   12.20
  -8  -2   3  265.47   11.50
  -8   2   2 1809.52   67.49
   8   2  -2 1993.00   68.49
  -8   2   2 1762.12   67.89
   8  -2  -2 1666.43   68.19
  -8  -2   2 1756.52   68.49
  -8  -2   2 1826.52   67.99
  -8   2   1 2143.19   80.09
   8   2  -1 2256.17   80.69
   8   2  -1 1992.80   81.39
  -8  -2   1 2127.29   80.59
   8  -2  -1 2129.79   80.69
  -8  -2   1 2094.59   80.19
  -8  -2   1 2255.37   80.99
  -8   2   0   10.00    1.70
  -8   2   0    8.40    1.50
   8   2   0    6.50    1.90
   8   2   0   11.10    1.80
  -8  -2   0    7.90    1.70
  -8  -2   0    8.00    2.10
   8  -2   0    7.20    1.90
  -8   2  -1  387.86   15.30
   8   2   1  367.06   15.10
  -8   2  -1  391.96   15.50
  -8   2  -1  393.76   16.00
   8   2   1  400.16   15.40
   8   2   1  378.86   15.20
  -8   2  -1  389.36   15.30
   8  -2   1  389.76   15.60
  -8  -2  -1  381.86   15.60
  -8  -2  -1  341.07   17.50
  -8  -2  -1  393.16   15.70
  -8   2  -2   28.20    3.30
   8   2   2   26.40    3.10
  -8   2  -2   36.30    4.30
   8   2   2   26.80    3.80
  -8   2  -2   30.40    2.90
  -8   2  -2   27.00    2.80
   8   2   2   24.40    3.10
  -8  -2  -2   23.90    2.80
   8  -2   2   24.60    3.70
  -8  -2  -2   32.30    3.70
  -8  -2  -2   25.40    3.70
   8  -2   2   32.80    4.40
  -8   2  -3   75.79    5.20
  -8   2  -3   77.39    4.80
   8   2   3   81.09    5.00
  -8   2  -3   81.89    5.50
   8   2   3   81.19    4.60
  -8   2  -3   77.29    4.80
   8   2   3   70.39    5.90
   8  -2   3   78.79    7.40
  -8  -2  -3   80.99    5.30
  -8  -2  -3   79.89    6.00
  -8  -2  -3   81.89    5.60
   8  -2   3   85.99    5.90
  -8   2  -4   12.10    3.70
  -8   2  -4    9.40    2.20
   8   2   4   11.60    2.80
  -8   2  -4   15.60    3.60
  -8  -2  -4   12.00    1.70
   8   2   5  471.95   18.70
  -8   2  -5  441.86   17.50
  -8   2  -5  464.65   18.50
  -8   2  -5  430.66   19.70
   8   2   5  445.66   17.80
  -8  -2  -5  453.85   17.20
  -8  -2  -5  429.96   17.30
  -8  -2  -5  445.06   18.40
  -8   2  -6    1.20    2.30
   8   2   6    7.10    3.80
   8   2   6    8.40    2.30
  -8  -2  -6    5.00    2.70
   8   2   7   45.80    4.10
  -8   2  -7   42.10    2.90
   8   2   7   45.00    7.50
  -8   2  -7   42.20    4.60
  -8  -2  -7   37.90    2.80
  -8  -2  -7   41.90    2.60
   8   2   8  224.98    9.60
  -8   2  -8  222.28    8.90
  -8   2  -8  233.08   10.10
  -8  -2  -8  213.48    8.80
  -8  -2  -8  220.48    8.80
  -8   2  -9   38.30    2.20
   8   2   9   32.70    4.30
  -8  -2  -9   39.50    2.10
  -8   2 -10    3.00    0.80
  -8  -2 -10    1.80    0.70
  -8   3  13    4.00    1.80
  -8  -3  13    4.90    2.30
   8   3 -12  226.28   11.40
  -8   3  12  289.07   11.20
  -8  -3  12  278.07   11.30
  -8   3  11   17.70    3.40
   8   3 -11   12.90    2.00
  -8   3  11   20.20    2.70
  -8  -3  11   23.70    3.00
  -8  -3  11   28.10    4.30
  -8   3  10    5.80    3.00
   8   3 -10    5.30    2.10
  -8   3  10    9.10    2.50
  -8   3  10   -0.40    7.40
  -8  -3  10   10.20    2.50
  -8  -3  10   11.20    2.70
  -8   3   9   26.70    4.30
   8   3  -9   23.50    4.00
  -8   3   9   26.60    3.20
  -8   3   9   39.20    6.40
  -8  -3   9   26.60    3.20
  -8  -3   9   28.90    3.90
  -8  -3   9   28.80    4.00
  -8   3   8  360.96   14.50
   8   3  -8  286.77   14.10
  -8   3   8  343.77   14.40
  -8  -3   8  364.16   16.40
  -8  -3   8  352.76   13.20
  -8  -3   8  321.87   14.40
  -8  -3   8  329.27   14.00
  -8   3   7  417.66   16.80
  -8   3   7  386.66   16.80
   8   3  -7  401.66   20.50
  -8  -3   7  417.36   16.60
  -8  -3   7  403.76   17.60
  -8  -3   7  412.46   17.00
  -8   3   6  821.92   34.10
   8   3  -6  907.91   36.60
  -8  -3   6  900.41   34.90
   8  -3  -6  904.81   36.20
  -8  -3   6  901.61   34.60
  -8  -3   6  898.51   34.20
  -8   3   5   21.40    2.50
   8   3  -5   24.60    4.40
  -8  -3   5   25.70    2.90
  -8  -3   5   30.10    4.30
   8  -3  -5   18.70    3.60
  -8  -3   5   28.70    3.60
   8   3  -4   43.90    6.00
   8   3  -4   32.20    4.60
  -8   3   4   44.90    2.70
  -8   3   4   41.80    4.00
  -8  -3   4   42.40    5.60
   8  -3  -4   34.20    5.10
   8   3  -3   32.20    5.00
  -8   3   3   28.90    2.10
  -8  -3   3   27.40    4.60
   8  -3  -3   25.00    4.50
  -8   3   2    7.70    2.10
   8   3  -2    4.80    2.40
  -8   3   2    9.20    1.50
  -8  -3   2    9.10    2.70
   8  -3  -2    7.30    2.20
  -8   3   1  224.18    9.20
   8   3  -1  240.38   10.00
  -8   3   1  227.18    9.50
  -8  -3   1  211.38    9.70
   8  -3  -1  218.58   10.20
  -8  -3   1  222.28   10.50
   8   3   0 1114.49   42.90
  -8   3   0 1151.48   43.00
  -8   3   0 1106.89   43.20
  -8   3   0 1144.79   43.10
   8   3   0 1180.38   43.30
   8  -3   0 1165.18   43.60
  -8  -3   0 1219.48   44.00
   8  -3   0 1069.09   43.40
  -8  -3   0 1122.19   43.40
  -8  -3   0 1089.89   43.40
  -8   3  -1  213.88    9.30
  -8   3  -1  226.28    9.70
  -8   3  -1  227.08    9.30
  -8   3  -1  221.68   10.20
   8   3   1  214.38    9.40
   8   3   1  211.08    9.10
  -8  -3  -1  217.68    9.90
   8  -3   1  215.48    9.90
  -8  -3  -1  218.18    9.90
   8  -3   1  222.48   10.40
  -8   3  -2  739.53   28.30
  -8   3  -2  719.33   28.60
   8   3   2  720.23   27.80
  -8   3  -2  727.13   28.30
  -8   3  -2  731.63   28.30
   8   3   2  731.83   28.10
  -8  -3  -2  726.33   28.50
   8  -3   2  720.93   28.70
  -8  -3  -2  747.43   28.90
  -8  -3  -2  717.03   28.80
   8   3   3   70.79    4.60
  -8   3  -3   60.19    4.40
  -8   3  -3   76.39    6.00
   8   3   3   68.49    4.30
  -8   3  -3   70.49    4.60
  -8   3  -3   72.49    5.30
   8  -3   3   67.29    6.80
   8  -3   3   65.09    5.90
  -8  -3  -3   59.89    5.90
  -8  -3  -3   76.09    5.20
  -8   3  -4  274.57   12.20
  -8   3  -4  271.67   12.00
   8   3   4  278.77   11.50
   8   3   4  287.97   12.00
  -8   3  -4  268.67   11.70
  -8  -3  -4  275.67   12.10
  -8  -3  -4  267.17   10.80
  -8  -3  -4  265.57   10.90
   8   3   5   31.30    3.70
  -8   3  -5   37.60    4.30
  -8   3  -5   39.60    4.00
   8   3   5   38.30    5.10
  -8   3  -5   29.80    3.50
  -8  -3  -5   37.60    2.80
  -8  -3  -5   37.90    2.50
  -8  -3  -5   40.20    4.80
   8   3   6  468.95   18.50
  -8   3  -6  422.66   17.00
   8   3   6  427.96   17.50
  -8   3  -6  444.86   18.20
  -8  -3  -6  440.26   16.80
  -8  -3  -6  432.26   18.20
  -8  -3  -6  427.86   16.80
   8   3   7   54.99    4.20
  -8   3  -7   57.79    4.90
   8   3   7   62.39    6.70
  -8   3  -7   57.69    3.40
  -8  -3  -7   58.19    3.00
  -8  -3  -7   59.29    6.00
  -8  -3  -7   55.19    3.10
  -8   3  -8   90.19    4.50
  -8   3  -8   94.99    5.80
   8   3   8   93.99    5.10
  -8  -3  -8   92.49    4.00
  -8   3  -9  108.79    4.60
   8   3   9  103.49    5.50
  -8  -3  -9  112.09    4.50
  -8   3 -10    3.60    0.80
  -8  -3 -10    5.40    0.80
  -8   4  13    3.10    1.70
  -8  -4  13    1.90    2.00
  -8   4  12  151.38    7.20
  -8  -4  12  157.58    7.20
  -8   4  11   -1.20    3.10
   8   4 -11    0.70    1.60
  -8   4  11    0.10    2.30
  -8  -4  11    0.20    2.10
  -8   4  10    4.60    3.00
   8   4 -10    4.20    1.90
  -8  -4  10    1.50    2.20
  -8   4   9  394.96   16.20
  -8   4   9  393.16   16.00
  -8  -4   9  374.66   16.00
  -8  -4   9  363.36   14.90
  -8   4   8  634.34   24.70
  -8   4   8  618.04   24.70
  -8  -4   8  634.64   23.60
  -8  -4   8  594.04   24.70
  -8   4   7   17.70    2.60
  -8  -4   7   13.80    2.60
  -8  -4   7   17.70    2.30
   8   4  -6   50.49    9.00
  -8   4   6   37.60    3.80
  -8  -4   6   47.30    4.60
   8  -4  -6   37.20    8.20
   8   4  -5   18.10    4.90
   8  -4  -5   21.80    4.30
  -8  -4   5   26.50    4.10
  -8   4   4   24.80    2.20
   8   4  -4   34.60    6.20
   8   4  -4   17.80    3.50
  -8  -4   4   28.10    4.00
   8  -4  -4   22.50    4.00
  -8  -4   4   22.80    3.50
  -8   4   3    4.50    2.30
  -8   4   3    6.10    1.20
   8   4  -3    8.40    3.00
   8   4  -3    4.50    2.60
   8  -4  -3    6.80    3.00
  -8  -4   3    3.30    3.30
  -8  -4   3    3.40    2.90
   8   4  -2 1226.58   44.80
   8   4  -2 1191.48   45.50
  -8   4   2 1179.18   44.40
   8  -4  -2 1112.59   45.60
  -8  -4   2 1185.18   45.00
  -8  -4   2 1159.38   45.90
  -8   4   1  123.49    5.60
   8   4  -1  128.59    6.10
  -8   4   1  130.99    6.00
   8   4  -1  125.69    6.50
  -8   4   1  123.49    6.90
  -8   4   1  123.19    8.20
  -8  -4   1  111.69    6.80
   8  -4  -1  126.69    7.20
  -8  -4   1  114.19    6.70
   8  -4  -1  116.79    6.70
  -8  -4   1  107.29   10.90
  -8   4   0  143.09    7.30
   8   4   0  131.99    6.60
  -8   4   0  152.18    6.50
   8   4   0  150.38    7.00
  -8   4   0  138.29    6.50
  -8   4   0  143.99    8.00
  -8  -4   0  137.49    7.30
  -8  -4   0  137.59    7.40
   8  -4   0  147.19    7.70
   8  -4   0  137.09    7.40
   8   4   1   -0.90    1.60
  -8   4  -1    0.30    1.40
  -8   4  -1   -1.10    2.60
   8   4   1    0.50    1.60
  -8   4  -1    0.10    1.70
  -8   4  -1   -0.40    2.00
   8  -4   1    6.30    2.50
  -8  -4  -1   -1.90    2.30
   8  -4   1    3.60    2.70
  -8  -4  -1    2.10    2.30
   8   4   2  440.56   17.70
   8   4   2  441.96   17.30
  -8   4  -2  440.36   17.70
  -8   4  -2  447.16   17.80
  -8   4  -2  440.06   18.20
  -8  -4  -2  412.86   18.50
  -8  -4  -2  453.95   18.10
   8  -4   2  427.46   18.50
   8  -4   2  441.76   18.20
  -8   4  -3  202.08    9.50
   8   4   3  222.98    9.50
  -8   4  -3  214.08   10.10
   8   4   3  213.58    9.10
  -8   4  -3  207.98    9.50
  -8  -4  -3  203.68   10.00
  -8  -4  -3  207.08    8.50
   8   4   4  262.87   10.60
  -8   4  -4  244.68   11.30
  -8   4  -4  243.38   11.20
   8   4   4  258.97   11.10
  -8   4  -4  242.48   10.90
  -8  -4  -4  249.78   10.00
   8  -4   4  236.58   11.80
  -8  -4  -4  243.98    9.90
  -8  -4  -4  261.77   11.50
   8   4   5   16.80    3.10
  -8   4  -5    9.40    2.40
   8   4   5   11.80    2.30
  -8   4  -5   17.60    3.40
  -8   4  -5   17.80    3.00
  -8  -4  -5   10.40    1.40
   8  -4   5   10.40    3.90
  -8  -4  -5    6.60    2.90
  -8  -4  -5   14.50    2.10
  -8   4  -6  200.18    9.40
   8   4   6  192.98    8.70
  -8   4  -6  184.38    8.20
  -8   4  -6  188.78    9.10
  -8  -4  -6  197.08    7.80
  -8  -4  -6  191.38    7.90
  -8  -4  -6  193.38    9.70
  -8   4  -7  236.08   10.40
  -8   4  -7  227.88    9.20
   8   4   7  227.98   11.10
   8   4   7  220.58    9.70
  -8  -4  -7  218.88    9.00
  -8  -4  -7  215.38   10.90
  -8  -4  -7  238.08    9.00
  -8   4  -8   33.70    2.40
  -8   4  -8   26.50    4.20
   8   4   8   38.20    3.40
  -8  -4  -8   35.30    2.60
  -8   4  -9    9.90    1.60
   8   4   9   10.20    2.00
  -8  -4  -9   12.10    1.20
  -8   5  12    1.50    2.10
   8   5 -12   -0.10    1.30
  -8  -5  12    3.80    1.90
   8   5 -11    0.80    1.60
  -8   5  11    3.30    2.50
  -8  -5  11    5.10    1.90
  -8   5  10   17.20    3.00
   8   5 -10   15.10    2.30
  -8   5  10   14.60    3.10
  -8  -5  10   12.30    2.50
  -8  -5  10   15.70    1.50
  -8   5   9    0.10    3.10
   8   5  -9    1.50    2.00
  -8  -5   9    0.10    1.10
  -8  -5   9    0.90    2.10
  -8   5   8  273.77   12.30
  -8  -5   8  285.07   11.10
  -8  -5   8  283.67   12.30
  -8   5   7  112.59    6.30
  -8  -5   7  121.79    5.20
  -8  -5   7  117.39    6.60
   8  -5  -7  122.19    7.70
   8   5  -6   11.50    2.70
  -8   5   6   12.30    2.20
  -8  -5   6   20.80    2.90
  -8  -5   6   18.30    1.70
   8  -5  -6   14.70    2.10
  -8   5   5  747.83   31.20
   8   5  -5  689.33   32.00
  -8  -5   5  857.61   31.80
  -8  -5   5  870.41   30.80
  -8  -5   5  905.31   32.20
   8   5  -4  313.27   15.80
  -8   5   4  329.07   12.50
   8   5  -4  289.37   13.80
   8  -5  -4  299.57   15.50
  -8  -5   4  301.17   13.50
  -8  -5   4  340.07   13.80
   8   5  -3 1872.51   64.69
  -8   5   3 1794.42   63.69
   8   5  -3 1506.15   65.19
   8   5  -3 1633.04   65.89
   8  -5  -3 1600.54   65.59
  -8  -5   3 1784.52   64.49
  -8   5   2  195.58    8.10
   8   5  -2  196.48    9.00
   8   5  -2  194.38    9.70
   8  -5  -2  179.08   10.50
  -8  -5   2  191.48    9.10
   8   5  -1   18.00    2.80
  -8   5   1   18.60    3.20
  -8   5   1   14.20    2.20
   8   5  -1   13.60    2.20
  -8   5   1   19.50    2.60
   8  -5  -1   18.20    2.90
   8  -5  -1   16.30    3.60
  -8  -5   1   13.80    2.50
  -8  -5   1   11.10    3.60
  -8   5   0  246.08   10.70
   8   5   0  260.67   11.00
  -8   5   0  258.57   11.10
  -8   5   0  239.58   10.50
   8   5   0  245.18   10.40
   8  -5   0  231.78   12.10
  -8  -5   0  246.78   11.10
   8  -5   0  248.18   11.10
  -8  -5   0  239.28   11.60
  -8   5  -1   26.70    3.90
  -8   5  -1   22.20    3.70
   8   5   1   25.10    3.50
   8   5   1   26.60    3.00
  -8   5  -1   24.80    2.90
  -8  -5  -1   26.10    3.90
   8  -5   1   25.70    4.40
  -8  -5  -1   28.90    4.10
  -8   5  -2    9.40    2.10
  -8   5  -2    8.90    2.70
   8   5   2   10.20    1.90
   8   5   2    8.40    2.00
  -8   5  -2    8.80    2.30
   8  -5   2   13.40    3.20
  -8  -5  -2    5.20    2.60
   8  -5   2   10.20    3.00
  -8  -5  -2   14.00    2.20
  -8   5  -3  326.17   14.00
   8   5   3  348.37   14.00
  -8   5  -3  324.87   14.10
  -8   5  -3  318.77   14.40
   8   5   3  345.37   13.50
   8  -5   3  328.07   14.50
  -8  -5  -3  332.97   12.90
  -8  -5  -3  327.17   14.40
  -8   5  -4  494.35   20.70
   8   5   4  522.25   20.50
  -8   5  -4  500.55   20.40
  -8   5  -4  500.55   20.80
   8   5   4  520.65   20.00
  -8  -5  -4  506.55   20.80
  -8  -5  -4  511.05   19.40
   8  -5   4  501.55   20.90
  -8   5  -5  386.16   16.20
  -8   5  -5  393.96   16.90
   8   5   5  417.26   15.90
   8   5   5  403.66   16.50
  -8   5  -5  386.26   16.60
   8  -5   5  375.26   16.70
  -8  -5  -5  404.36   15.20
  -8  -5  -5  378.06   16.60
  -8   5  -6   67.79    5.20
  -8   5  -6   64.89    4.90
   8   5   6   72.89    5.70
   8   5   6   65.59    4.40
   8  -5   6   61.39    6.40
  -8  -5  -6   57.09    6.00
  -8  -5  -6   65.69    3.20
  -8   5  -7  145.29    7.10
   8   5   7  150.68    7.00
  -8   5  -7  154.58    7.70
   8   5   7  157.38    8.90
  -8  -5  -7  153.18    6.20
   8   5   8  293.87   11.80
  -8   5  -8  290.67   11.30
  -8   5  -8  281.77   12.20
  -8  -5  -8  293.47   11.20
  -8   5  -9   44.60    2.30
   8   5   9   40.60    3.30
  -8  -5  -9   44.10    2.20
  -8   6  12   23.60    3.40
   8   6 -12   17.30    2.00
  -8  -6  12   23.50    2.60
   8   6 -11    9.00    1.70
  -8   6  11   14.50    3.40
  -8  -6  11   12.40    2.00
  -8   6  10   15.40    3.50
   8   6 -10    9.50    2.00
  -8  -6  10   10.40    1.20
  -8  -6  10   11.00    2.10
  -8   6   9    6.50    3.10
   8   6  -9    1.20    1.90
   8   6  -9    0.40    2.10
  -8  -6   9    2.10    0.90
  -8  -6   9    3.00    2.00
   8   6  -8    3.90    2.10
  -8   6   8    1.20    2.80
  -8  -6   8   -0.30    0.90
  -8  -6   8   -0.20    2.00
  -8   6   7   96.39    5.80
  -8  -6   7  100.19    5.90
  -8  -6   7   98.49    4.40
   8  -6  -7   93.99    5.20
   8   6  -6   73.99    7.10
  -8  -6   6   99.99    6.00
  -8  -6   6  106.99    4.60
   8  -6  -6  105.39    4.90
  -8   6   5    8.60    1.80
   8   6  -5    7.10    3.20
   8   6  -5    3.90    4.70
  -8  -6   5    3.00    3.20
  -8  -6   5   10.50    1.40
  -8  -6   5    7.20    2.80
   8  -6  -5   10.70    1.60
  -8   6   4  282.37   11.10
   8   6  -4  255.57   12.60
  -8  -6   4  285.67   11.00
   8  -6  -4  275.87   11.00
   8   6  -3  306.87   15.80
  -8   6   3  362.56   13.80
   8   6  -3  333.17   15.40
   8  -6  -3  342.57   13.60
  -8  -6   3  366.66   13.60
  -8  -6   3  359.76   15.30
  -8   6   2   20.80    2.50
   8   6  -2   25.10    3.80
  -8  -6   2   18.10    3.10
   8  -6  -2   23.00    2.60
  -8   6   1   58.89    3.80
   8   6  -1   57.89    6.30
  -8   6   1   62.39    5.90
   8   6  -1   53.29    5.20
  -8  -6   1   63.99    3.90
  -8   6   0  539.05   20.70
  -8   6   0  484.85   21.40
   8   6   0  550.24   21.30
   8   6   0  529.35   20.50
  -8  -6   0  509.35   21.10
  -8  -6   0  511.25   20.00
   8  -6   0  507.05   19.90
   8  -6   0  524.95   21.10
   8   6   1   66.19    4.80
   8   6   1   55.89    4.00
  -8   6  -1   57.39    4.10
  -8   6  -1   61.49    4.80
  -8  -6  -1   55.69    3.30
  -8  -6  -1   59.39    4.90
   8  -6   1   53.49    5.10
   8  -6   1   52.99    3.60
  -8   6  -2   20.90    2.90
   8   6   2   22.10    3.10
  -8   6  -2   22.60    3.30
   8   6   2   23.60    3.80
  -8  -6  -2   20.20    2.20
   8  -6   2   26.20    4.30
   8  -6   2   22.00    2.90
  -8  -6  -2   22.50    3.20
  -8   6  -3   93.79    5.80
   8   6   3  106.09    6.10
  -8   6  -3   96.59    5.80
   8   6   3   97.59    5.30
  -8   6  -3   86.59    6.40
  -8  -6  -3  100.19    4.50
  -8  -6  -3   98.89    6.30
   8  -6   3   95.59    6.40
   8   6   4  102.19    6.30
  -8   6  -4  100.99    6.20
  -8   6  -4   96.39    5.80
  -8   6  -4  100.29    6.50
   8   6   4   96.39    5.40
   8  -6   4   97.19    6.50
  -8  -6  -4   98.59    4.50
  -8  -6  -4  103.39    6.60
   8   6   5    2.80    2.10
  -8   6  -5    4.00    2.40
   8   6   5    2.60    2.90
  -8   6  -5    7.60    3.10
  -8   6  -5    0.60    2.50
  -8  -6  -5    3.70    1.00
   8   6   6    5.60    2.00
   8   6   6    7.20    3.20
  -8   6  -6    2.10    2.40
  -8   6  -6    3.00    2.30
  -8  -6  -6    3.70    1.00
   8  -6   6    0.50    3.30
  -8  -6  -6    4.40    3.40
   8   6   7    4.50    1.80
  -8   6  -7    5.30    2.30
  -8  -6  -7    4.90    0.90
   8  -6   7   -0.10    3.80
  -8   6  -8   31.70    3.60
   8   6   8   30.20    3.00
  -8  -6  -8   29.80    1.80
   8   7 -11   10.20    1.60
  -8  -7  11   17.80    2.60
   8   7 -10  464.75   17.10
  -8  -7  10  414.76   17.30
  -8  -7  10  438.56   16.70
   8   7  -9    1.50    1.80
   8   7  -9   -3.10    1.70
  -8  -7   9    5.20    2.00
  -8  -7   9    1.50    0.90
  -8  -7   9    2.50    1.20
  -8  -7   8  393.16   14.90
  -8  -7   8  379.06   15.70
   8   7  -7    6.40    3.70
   8   7  -7    2.00    2.10
   8  -7  -7    1.00    1.80
  -8  -7   7    0.20    0.90
  -8  -7   7    2.10    2.10
  -8   7   6   46.20    4.50
   8   7  -6   36.00    4.40
   8   7  -6   44.40    5.80
   8   7  -6   40.10    7.10
   8  -7  -6   52.29    3.40
  -8  -7   6   39.50    4.30
  -8  -7   6   51.79    2.70
   8   7  -5  867.11   40.00
   8  -7  -5 1058.89   38.60
  -8  -7   5 1013.50   39.40
  -8  -7   5 1091.09   40.00
  -8  -7   5 1099.19   38.60
  -8   7   4  503.45   18.80
   8   7  -4  452.15   20.10
   8  -7  -4  478.15   18.50
  -8  -7   4  498.75   18.50
  -8  -7   4  470.45   19.70
  -8   7   3    5.70    1.60
   8   7  -3    5.90    2.70
   8   7  -3    8.70    3.90
  -8  -7   3    3.80    1.20
  -8  -7   3    3.90    2.50
   8  -7  -3    5.20    1.40
   8   7  -2  628.94   27.40
   8   7  -2  678.93   26.40
  -8   7   2  683.73   25.70
  -8  -7   2  667.03   25.20
   8  -7  -2  680.93   25.20
  -8  -7   2  629.94   26.30
  -8   7   1   27.50    3.10
   8   7  -1   27.50    3.70
  -8   7   1   26.20    3.80
   8   7  -1   31.00    5.10
   8  -7  -1   21.70    3.10
   8  -7  -1   32.20    2.50
  -8  -7   1   24.80    2.60
  -8  -7   1   21.30    3.10
  -8   7   0  691.13   27.30
   8   7   0  701.23   27.90
   8   7   0  697.73   27.00
  -8   7   0  688.93   27.10
   8  -7   0  684.83   26.30
  -8  -7   0  684.33   27.50
   8  -7   0  681.33   27.50
  -8  -7   0  702.43   26.40
  -8   7  -1   77.89    5.40
   8   7   1   78.59    5.90
  -8   7  -1   82.29    5.00
   8   7   1   79.99    4.80
  -8  -7  -1   85.49    5.70
   8  -7   1   78.89    4.10
  -8  -7  -1   84.49    4.10
   8  -7   1   81.09    5.80
   8   7   2  344.87   14.40
  -8   7  -2  322.67   14.00
   8   7   2  331.97   13.50
  -8   7  -2  326.17   14.00
  -8  -7  -2  326.27   14.30
   8  -7   2  348.77   14.40
   8  -7   2  291.77   13.30
   8   7   3   19.40    3.10
  -8   7  -3    9.90    2.40
   8   7   3   11.60    2.80
  -8   7  -3    9.60    2.90
  -8   7  -3   11.10    2.50
  -8  -7  -3   11.40    2.90
   8  -7   3    8.50    1.90
   8  -7   3   13.70    3.00
  -8  -7  -3   11.90    1.40
   8   7   4  436.56   17.80
  -8   7  -4  432.36   18.60
  -8   7  -4  399.76   18.30
   8   7   4  411.16   17.80
  -8   7  -4  410.96   17.70
  -8  -7  -4  446.26   16.30
   8   7   5   25.80    3.10
   8   7   5   13.90    3.30
  -8   7  -5   20.80    2.90
  -8   7  -5   20.30    3.50
  -8   7  -5   20.90    3.40
  -8  -7  -5   21.90    1.90
  -8  -7  -5   19.40    3.40
   8  -7   5   23.20    3.40
   8   7   6   57.99    3.90
  -8   7  -6   51.29    4.30
  -8   7  -6   56.49    4.50
  -8  -7  -6   54.39    3.40
   8  -7   6   56.09    5.30
   8   7   7  162.78    7.30
  -8   7  -7  175.18    9.00
   8  -7   7  159.28    8.40
  -8  -7  -7  162.58    6.60
   8   7   8    6.70    1.70
  -8   7  -8   13.10    2.30
  -8  -7  -8    9.90    1.10
   8   8 -11   27.80    2.20
  -8  -8  11   34.10    2.40
   8   8 -10   12.90    1.70
  -8  -8  10   18.30    2.60
  -8  -8  10   17.60    1.30
   8   8  -9  167.38    6.60
   8   8  -9  127.19    6.80
  -8  -8   9  158.18    6.10
  -8  -8   9  148.79    6.90
  -8  -8   9  153.48    6.00
   8   8  -8  146.49    7.90
  -8  -8   8  189.98    8.00
  -8  -8   8  178.68    7.00
  -8  -8   8  181.58    7.10
   8   8  -7  226.38   12.10
   8   8  -7  217.58   11.00
  -8  -8   7  277.67   11.00
   8  -8  -7  286.27   10.40
  -8  -8   7  267.97   10.00
   8   8  -6   94.69    6.10
   8   8  -6  101.99   12.00
   8   8  -6  102.59    7.60
  -8  -8   6  122.29    4.90
   8  -8  -6  133.39    5.20
   8   8  -5  493.75   22.60
  -8  -8   5  576.74   20.80
  -8  -8   5  563.34   22.30
   8  -8  -5  548.05   20.90
   8   8  -4  270.87   13.10
  -8   8   4  309.47   11.80
   8   8  -4  235.48   14.70
   8  -8  -4  296.27   11.40
  -8  -8   4  287.97   12.80
  -8  -8   4  304.97   11.30
   8   8  -3    1.10    4.20
   8   8  -3    5.80    2.80
  -8   8   3    6.20    1.90
  -8  -8   3   10.70    2.60
  -8  -8   3    8.60    1.50
   8  -8  -3    6.70    1.40
   8   8  -2  264.27   11.70
   8   8  -2  240.58   13.00
  -8   8   2  257.77   10.70
  -8  -8   2  253.67   10.40
  -8  -8   2  253.37   11.60
  -8   8   1   45.30    3.90
  -8   8   1   51.69    5.70
   8   8  -1   53.99    6.30
   8   8  -1   48.30    4.60
   8  -8  -1   47.80    3.00
  -8  -8   1   45.90    3.50
  -8  -8   1   45.50    4.70
  -8   8   0   51.19    4.10
   8   8   0   47.20    4.20
  -8   8   0   51.19    5.00
   8   8   0   41.00    5.70
   8  -8   0   49.50    3.00
   8  -8   0   49.50    5.00
  -8  -8   0   51.59    4.80
  -8   8  -1   67.59    5.10
  -8   8  -1   70.49    4.80
   8   8   1   70.19    6.20
   8   8   1   68.59    4.70
  -8  -8  -1   64.69    3.50
  -8  -8  -1   71.19    5.40
   8  -8   1   73.89    5.50
   8  -8   1   62.09    3.50
  -8   8  -2    2.20    2.20
   8   8   2    7.90    2.20
  -8   8  -2    1.40    2.10
   8   8   2    4.80    3.20
  -8  -8  -2    4.10    2.60
  -8  -8  -2    2.70    1.10
   8  -8   2    2.20    1.30
   8  -8   2   -0.70    2.60
  -8   8  -3    5.30    2.40
   8   8   3    7.50    3.00
   8   8   3    4.90    2.00
  -8   8  -3    8.70    2.90
  -8   8  -3    6.80    2.20
   8  -8   3    5.90    1.60
  -8  -8  -3   12.00    2.90
   8  -8   3    6.70    2.80
  -8  -8  -3    7.00    1.20
  -8   8  -4   14.30    3.10
   8   8   4   15.30    3.40
   8   8   4   14.60    2.20
  -8   8  -4   14.20    2.40
  -8   8  -4   17.50    2.90
   8  -8   4   16.00    3.00
  -8  -8  -4   15.20    1.70
  -8  -8  -4   10.90    3.10
  -8   8  -5   43.90    3.80
   8   8   5   48.50    3.70
  -8   8  -5   44.00    4.20
   8  -8   5   42.00    4.60
  -8  -8  -5   39.60    5.50
  -8   8  -6   60.19    4.40
   8   8   6   60.19    4.00
  -8   8  -6   56.39    5.30
  -8  -8  -6   62.99    2.90
   8  -8   6   65.29    5.90
   8   8   7    2.00    1.70
  -8   8  -7    1.40    1.90
  -8  -8  -7    3.20    0.80
   8   9 -10    7.50    1.30
  -8  -9  10   10.90    0.90
   8   9  -9   11.80    1.70
   8   9  -9   14.30    2.00
  -8  -9   9   18.00    1.20
  -8  -9   9   15.90    2.10
  -8  -9   9   20.30    1.60
   8   9  -8   19.10    2.60
  -8  -9   8   26.70    4.00
  -8  -9   8   17.90    1.40
  -8  -9   8   24.20    1.60
   8   9  -7   35.60    3.50
   8   9  -7   37.00    5.60
  -8  -9   7   47.80    4.00
  -8  -9   7   46.10    2.30
  -8  -9   7   48.50    2.70
   8   9  -6  323.37   14.40
   8   9  -6  288.57   13.40
  -8  -9   6  329.17   12.50
  -8  -9   6  338.37   12.60
   8  -9  -6  342.17   12.70
   8   9  -5    3.90    2.90
   8   9  -5   15.70    5.90
   8   9  -5    4.20    1.90
   8  -9  -5    3.40    1.20
  -8  -9   5    1.00    0.80
   8   9  -4    7.50    4.90
   8   9  -4   14.60    3.30
  -8  -9   4   12.10    1.50
  -8  -9   4   20.40    3.10
   8  -9  -4   11.80    1.40
   8   9  -3   19.40    5.10
  -8   9   3   26.60    3.30
   8   9  -3   21.40    3.90
  -8  -9   3   24.80    1.90
   8  -9  -3   26.30    2.10
  -8  -9   3   23.10    5.10
   8   9  -2   44.30    4.80
   8   9  -2   38.30    5.50
  -8   9   2   37.90    3.80
  -8  -9   2   42.80    2.50
  -8  -9   2   48.10    4.50
  -8  -9   2   41.90    2.60
   8  -9  -2   42.30    2.60
  -8   9   1   22.90    3.50
   8   9  -1   11.40    2.90
   8   9  -1   12.10    4.20
  -8   9   1   21.30    3.70
   8  -9  -1   18.70    1.90
  -8  -9   1   18.10    3.00
  -8  -9   1   19.30    2.00
  -8   9   0    0.10    2.10
   8   9   0    2.50    2.60
  -8   9   0    4.30    2.70
   8   9   0    0.80    3.70
  -8  -9   0    1.90    4.10
   8  -9   0    0.80    1.00
  -8  -9   0    0.60    1.20
   8   9   1  139.29    7.20
  -8   9  -1  148.69    7.20
  -8   9  -1  143.89    7.30
   8   9   1  138.99    8.80
   8  -9   1  132.89    5.90
   8  -9   1  141.89    7.60
  -8  -9  -1  126.89    7.40
   8   9   2   -1.10    3.50
  -8   9  -2    5.20    2.10
  -8   9  -2    0.00    2.30
   8   9   2    2.10    2.00
  -8   9  -2   -0.30    2.60
   8  -9   2    3.40    2.60
   8  -9   2    0.90    1.20
  -8  -9  -2    2.20    2.40
  -8   9  -3  105.19    5.80
   8   9   3  105.19    5.70
  -8   9  -3   92.09    6.40
   8   9   3  106.39    7.90
  -8   9  -3  102.79    6.30
   8  -9   3  114.29    6.30
  -8  -9  -3   98.69    6.30
   8  -9   3  105.89    4.80
  -8   9  -4    6.40    2.00
  -8   9  -4    5.70    2.40
   8   9   4    6.50    2.00
  -8  -9  -4    4.90    2.90
   8  -9   4    8.10    2.60
  -8  -9  -4    6.10    1.10
  -8   9  -5   47.80    5.70
   8   9   5   47.50    5.40
  -8   9  -5   39.30    3.90
   8  -9   5   53.39    6.80
  -8  -9  -5   42.70    2.30
  -8   9  -6   86.79    4.70
   8   9   6   79.99    4.60
  -8   9  -6   88.99    4.90
   8  10  -8  422.56   15.10
   8  10  -8  358.36   15.30
  -8 -10   8  398.06   14.90
  -8 -10   8  394.66   14.90
   8  10  -7   84.29    6.10
   8  10  -7   69.89    4.10
  -8 -10   7   80.29    3.30
  -8 -10   7   79.19    3.40
   8  10  -6   37.80    4.90
   8  10  -6   32.30    3.00
   8 -10  -6   36.70    2.40
  -8 -10   6   38.20    1.90
  -8 -10   6   39.00    2.10
   8  10  -5   16.30    3.20
   8  10  -5   14.30    3.00
  -8 -10   5   16.30    1.70
   8 -10  -5   19.80    1.80
   8  10  -4  229.38   10.00
   8  10  -4  227.48   10.80
   8  10  -4  196.78   13.50
  -8 -10   4  236.88    9.10
   8 -10  -4  248.38    9.20
  -8 -10   4  231.78    9.00
   8  10  -3    0.80    2.50
   8  10  -3    5.40    5.20
   8 -10  -3    1.10    1.00
  -8 -10   3   -0.60    0.80
  -8 -10   3    4.70    2.30
  -8 -10   3    1.30    0.90
  -8  10   2   35.90    4.00
   8  10  -2   38.00    4.40
   8  10  -2   23.10    5.10
   8 -10  -2   37.70    2.30
  -8 -10   2   30.80    2.30
  -8 -10   2   34.50    2.20
  -8 -10   2   32.00    4.00
   8  10  -1    5.80    2.50
   8  10  -1    0.40    4.50
  -8  10   1    5.30    2.40
  -8  10   1    8.70    3.10
   8 -10  -1    4.20    1.00
  -8 -10   1    4.80    2.30
  -8 -10   1    3.80    1.10
   8  10   0    6.10    2.30
  -8  10   0    7.10    2.50
  -8  10   0    2.40    2.50
  -8  10   0    8.60    3.50
   8  10   0    6.50    4.50
   8 -10   0    5.00    1.10
  -8 -10   0    4.00    1.20
  -8 -10   0    1.20    2.30
   8  10   1  277.07   11.90
  -8  10  -1  269.67   11.70
   8  10   1  292.87   17.20
  -8  10  -1  274.27   12.20
  -8 -10  -1  259.57   11.90
  -8  10  -2   84.49    5.80
  -8  10  -2   86.09    5.10
   8  10   2   92.49    5.40
  -8 -10  -2   90.59    5.70
   8 -10   2   83.59    3.90
  -8  10  -3  139.19    6.60
  -8  10  -3  144.29    7.10
   8  10   3  138.99    6.80
   8 -10   3  138.39    5.70
  -8 -10  -3  123.79    7.50
  -8  10  -4  156.78    6.80
  -8  10  -4  148.19    7.10
   8  10   4  147.39    6.90
  -8 -10  -4  135.79    7.60
  -8  10  -5   -0.70    1.90
   8  10   5    2.30    1.90
  -8  10  -5   -2.40    1.60
   8  11  -6   10.80    2.70
   8  11  -6    6.50    1.40
   8 -11  -6   13.30    1.90
  -8 -11   6   10.30    0.90
  -8 -11   6    8.50    1.10
   8  11  -5    4.60    1.40
   8  11  -5    2.40    2.50
  -8 -11   5    3.40    0.70
  -8 -11   5    2.10    0.70
   8 -11  -5    4.00    1.00
   8  11  -4    7.10    1.70
   8  11  -4   10.40    2.60
   8 -11  -4    9.30    1.10
  -8 -11   4   10.60    1.10
  -8 -11   4    9.00    1.20
   8  11  -3  336.37   14.00
   8  11  -3  347.37   14.70
  -8 -11   3  348.17   13.40
   8 -11  -3  365.96   13.50
  -8 -11   3  356.96   13.30
   8  11  -2    8.80    2.50
  -8 -11   2    9.40    1.10
   8 -11  -2    9.00    1.10
   8  11  -1   34.10    4.00
   8 -11  -1   31.30    2.00
  -8 -11   1   29.60    1.90
  -8  11   0   41.10    4.10
   8  11   0   37.40    4.10
   8 -11   0   41.40    2.20
  -8 -11   0   33.50    3.80
  -8  11  -1   29.80    3.40
   8  11   1   30.20    3.70
  -8  11  -1   24.10    3.20
   8 -11   1   25.00    1.80
  -8 -11  -1   33.90    3.70
  -8  11  -2   15.70    2.60
   8  11   2   12.70    2.30
  -8  11  -2   20.40    2.80
  -8 -11  -2   14.10    2.50
   8 -11   2   12.20    1.50
  -8  11  -3   28.40    2.80
  -8  11  -3   25.60    3.60
   8  11   3   17.20    2.40
   8 -11   3   23.40    1.70
   8  12  -3    8.80    2.30
   8  12  -3    6.90    1.40
   8 -12  -3    5.90    1.00
  -8 -12   3    7.50    1.00
   8  12  -2    4.10    2.20
   8 -12  -2    7.00    0.80
  -8 -12   2    4.20    0.80
   8  12  -1   35.30    3.80
  -8 -12   1   43.20    2.00
   8 -12  -1   38.10    2.00
   9   0 -13   -0.90    1.20
  -9   0  12   -1.30    2.00
   9   0 -12    0.20    1.50
  -9   0  12    4.80    3.10
  -9   0  11   -1.50    2.80
  -9   0  11   -0.30    2.00
   9   0 -11   -1.40    1.90
  -9   0  11   -5.00    3.90
   9   0 -10  181.18    8.40
  -9   0  10  189.58   10.10
  -9   0  10  174.88    9.50
  -9   0  10  185.78    8.70
  -9   0   9    5.50    3.00
  -9   0   9   -1.00    2.80
  -9   0   9   -0.20    2.00
  -9   0   8  173.18    8.60
  -9   0   8  162.38    7.70
   9   0  -8  138.59    8.00
  -9   0   8  146.79    8.40
  -9   0   7   -2.80    2.10
  -9   0   6   44.30    4.00
  -9   0   6   33.80    3.70
  -9   0   5    0.90    1.80
  -9   0   5    0.60    1.60
   9   0  -5    1.00    5.00
  -9   0   4   81.49    4.40
   9   0  -4   57.19    6.20
  -9   0   4   75.29    4.50
  -9   0   3    2.30    2.30
  -9   0   3    0.00    1.30
   9   0  -3    1.60    2.60
  -9   0   3    3.10    1.70
  -9   0   2  290.27   11.90
   9   0  -2  280.27   12.60
  -9   0   2  299.27   12.70
  -9   0   1    3.60    1.70
  -9   0   1    0.40    1.30
  -9   0   1   -2.00    1.70
   9   0  -1    1.80    2.10
  -9   0   0  323.67   13.20
  -9   0   0  318.17   13.60
  -9   0   0  323.87   13.20
  -9   0   0  328.17   13.50
  -9   0   0  327.17   13.40
  -9   0  -1    4.00    2.00
  -9   0  -1   -0.70    2.10
   9   0   1   -1.00    2.10
  -9   0  -1    1.70    2.20
  -9   0  -1   -1.40    1.70
  -9   0  -1    4.20    1.70
   9   0   2  742.63   29.80
  -9   0  -2  750.92   29.50
  -9   0  -2  803.42   29.90
  -9   0  -2  760.92   29.90
  -9   0  -2  776.12   30.30
   9   0   3    1.40    3.20
  -9   0  -3    0.60    2.20
  -9   0  -3    1.00    3.40
  -9   0  -3    0.50    2.80
  -9   0  -4  700.13   26.80
  -9   0  -4  655.53   25.70
  -9   0  -5    2.70    2.30
  -9   0  -5   -0.20    1.50
  -9   0  -6  591.34   23.40
  -9   0  -6  580.34   22.30
  -9   0  -7    1.10    1.10
  -9   0  -7    0.10    2.60
  -9   0  -8  133.59    5.50
  -9   0  -8  132.49    7.30
  -9   0  -9    0.10    0.80
  -9   1  13   23.80    3.50
   9   1 -13   25.30    2.20
  -9  -1  13   27.20    4.10
  -9  -1  13   26.10    3.60
  -9   1  12  164.28    9.00
  -9   1  12  182.58    8.10
  -9   1  12  162.88   10.90
   9   1 -12  174.58    7.70
   9  -1 -12  174.38    7.40
  -9  -1  12  183.48    8.60
  -9  -1  12  183.68    8.20
   9   1 -11   52.79    4.00
  -9   1  11   53.99    5.90
  -9   1  11   57.79    6.40
  -9   1  11   60.09    4.60
  -9  -1  11   53.49    5.00
  -9  -1  11   59.09    4.50
  -9  -1  11   56.69    7.70
  -9   1  10  627.74   25.10
  -9   1  10  648.14   25.70
  -9   1  10  641.74   26.00
   9   1 -10  616.64   24.60
  -9  -1  10  622.44   25.50
  -9  -1  10  638.84   25.00
  -9   1   9   86.49    6.80
  -9   1   9   89.49    5.60
   9   1  -9   89.39    5.70
  -9   1   9   91.39    6.60
  -9  -1   9   90.09    7.10
  -9  -1   9   93.99    6.40
  -9  -1   9   92.09    5.40
  -9   1   8   18.90    2.70
   9   1  -8   18.80    3.30
  -9   1   8   19.50    3.60
  -9   1   8   22.90    4.00
   9   1  -8   17.80    3.50
  -9  -1   8   19.10    2.60
  -9  -1   8   18.60    3.30
  -9  -1   8   22.40    3.50
  -9   1   7  488.95   20.00
  -9   1   7  500.35   20.30
  -9  -1   7  481.95   20.40
  -9  -1   7  494.55   19.90
  -9  -1   7  514.85   20.90
  -9   1   6   51.09    4.10
  -9   1   6   50.19    4.20
  -9  -1   6   52.39    4.50
   9  -1  -6   44.60    7.60
  -9   1   5   15.90    2.30
   9   1  -5   17.80    5.10
  -9   1   5   14.40    2.10
  -9  -1   5   20.20    2.50
  -9  -1   5   17.10    2.50
   9  -1  -5   16.00    3.70
  -9   1   4    6.20    1.50
  -9   1   4    5.40    2.60
  -9   1   4    8.30    1.90
  -9  -1   4    4.50    1.80
   9  -1  -4    6.20    3.20
  -9  -1   4    2.70    2.80
  -9  -1   4    3.80    1.90
  -9   1   3  121.39    5.70
  -9   1   3   94.79    6.40
   9   1  -3   91.99    7.00
  -9  -1   3  103.89    6.70
  -9  -1   3  125.39    5.80
  -9  -1   3  115.89    5.80
   9   1  -2   33.50    4.60
  -9   1   2   32.70    2.50
  -9   1   2   28.60    3.60
  -9   1   2   25.10    3.20
  -9  -1   2   33.90    4.20
  -9  -1   2   36.30    3.20
  -9   1   1   79.89    4.20
  -9   1   1   76.29    4.60
   9   1  -1   78.99    5.40
  -9   1   1   84.69    4.80
  -9  -1   1   80.89    4.80
  -9  -1   1   92.79    5.40
   9  -1  -1   80.29    5.30
  -9   1   0  420.26   16.80
  -9   1   0  422.06   16.50
  -9   1   0  410.96   16.50
  -9   1   0  406.76   17.00
   9   1   0  406.06   16.70
  -9   1   0  415.36   16.70
  -9  -1   0  436.66   16.90
  -9  -1   0  407.96   16.80
  -9  -1   0  415.56   16.80
   9  -1   0  407.36   16.90
  -9  -1   0  428.06   17.10
   9   1   1  944.41   35.70
  -9   1  -1  934.21   35.80
  -9   1  -1  977.70   36.40
   9   1   1  893.81   35.80
  -9   1  -1  951.70   35.80
  -9   1  -1  942.51   36.00
  -9   1  -1  961.70   36.10
  -9  -1  -1  908.41   35.90
   9  -1   1  913.51   36.00
  -9  -1  -1  946.21   36.20
  -9  -1  -1  925.01   36.00
  -9  -1  -1  937.91   36.20
  -9   1  -2  249.48   10.40
   9   1   2  246.48   10.40
   9   1   2  241.78   11.40
  -9   1  -2  255.37   10.80
  -9   1  -2  239.88   11.40
  -9   1  -2  241.38   10.50
   9   1   2  227.28   10.80
  -9  -1  -2  236.18   11.20
  -9  -1  -2  250.27   10.90
   9  -1   2  234.18   11.00
  -9  -1  -2  241.88   10.70
   9   1   3   -3.60    3.60
  -9   1  -3    1.20    2.10
   9   1   3   -0.30    2.30
  -9   1  -3    3.70    3.50
  -9   1  -3   -1.80    2.20
  -9  -1  -3    5.10    2.40
  -9  -1  -3    1.80    3.90
  -9  -1  -3    3.80    3.10
  -9   1  -4  319.07   13.50
   9   1   4  319.57   13.00
  -9  -1  -4  304.87   12.30
  -9  -1  -4  312.47   13.40
  -9   1  -5   10.80    1.90
   9   1   5    6.50    2.50
  -9   1  -5   11.90    2.60
  -9  -1  -5   11.40    1.60
  -9  -1  -5   10.50    2.60
  -9   1  -6   60.39    4.90
   9   1   6   61.39    4.70
  -9   1  -6   53.99    3.40
  -9  -1  -6   57.99    5.20
  -9  -1  -6   56.79    3.10
  -9   1  -7   96.89    5.90
  -9   1  -7   89.99    4.30
   9   1   7  103.29    7.60
  -9  -1  -7  101.99    6.30
  -9  -1  -7   93.09    4.20
  -9   1  -8   70.49    5.50
  -9   1  -8   74.99    3.50
  -9  -1  -8   79.39    3.40
  -9  -1  -8   70.19    6.00
  -9   1  -9  393.96   15.10
  -9  -1  -9  404.66   15.10
  -9   2  13    1.60    2.20
  -9  -2  13    0.40    2.40
  -9   2  12   84.69    5.10
   9   2 -12   85.89    4.50
  -9  -2  12   85.49    5.40
  -9  -2  12   88.89    5.60
  -9   2  11  389.56   16.40
   9   2 -11  369.76   15.20
  -9   2  11  388.46   15.60
  -9   2  11  360.66   16.40
  -9  -2  11  383.36   15.90
  -9  -2  11  371.56   15.40
  -9   2  10    0.60    2.20
   9   2 -10   -0.40    2.10
  -9   2  10    9.40    3.80
  -9   2  10   -2.80    3.00
  -9  -2  10   -0.80    2.40
  -9  -2  10    2.80    2.20
  -9  -2  10   -3.30    5.60
  -9   2   9  112.09    6.40
  -9   2   9  107.09    7.00
  -9   2   9  123.79    7.80
   9   2  -9  109.89    6.30
  -9  -2   9  106.59    6.10
  -9  -2   9  108.99    6.70
  -9  -2   9  104.09    8.20
  -9   2   8   17.70    2.90
   9   2  -8   16.60    3.00
  -9  -2   8   21.40    3.90
  -9  -2   8   19.40    1.90
  -9  -2   8   14.60    2.50
  -9  -2   8   15.00    3.00
  -9   2   7  136.49    7.30
  -9   2   7  134.59    7.30
   9   2  -7  133.59    7.30
  -9  -2   7  142.09   11.10
  -9  -2   7  134.89    7.90
  -9  -2   7  145.69    6.20
   9   2  -6 1218.68   45.90
  -9   2   6 1106.79   42.90
  -9   2   6  978.70   43.10
  -9  -2   6 1167.18   43.40
  -9  -2   6 1176.58   42.90
  -9  -2   6 1187.78   43.60
   9  -2  -6 1026.80   44.70
  -9   2   5  112.49    5.70
  -9   2   5  111.29    6.00
   9   2  -5  115.79    9.60
  -9  -2   5  112.19    6.10
  -9  -2   5  117.59    6.70
  -9   2   4  255.77   10.70
  -9  -2   4  248.78   12.30
  -9  -2   4  248.38   11.20
  -9  -2   4  247.78   10.70
  -9   2   3  582.04   21.70
  -9   2   3  597.54   21.70
  -9  -2   3  583.34   22.30
   9  -2  -3  477.35   22.70
  -9  -2   3  562.54   21.90
  -9  -2   3  533.15   23.00
  -9   2   2   -1.00    0.90
  -9   2   2    0.10    1.80
  -9   2   2    1.20    1.90
   9  -2  -2    2.90    2.30
  -9  -2   2   -0.60    2.50
  -9  -2   2   -0.40    2.30
   9   2  -1    9.70    2.80
  -9   2   1   13.00    2.00
  -9   2   1   10.90    2.00
  -9   2   1   10.30    1.50
  -9  -2   1   10.30    2.80
   9  -2  -1   10.80    2.50
  -9  -2   1   14.20    2.70
  -9   2   0   23.10    3.20
  -9   2   0   22.90    3.10
   9   2   0   19.40    2.80
  -9   2   0   20.20    2.30
  -9   2   0   22.60    2.80
   9   2   0   23.10    3.70
   9  -2   0   24.00    3.80
  -9  -2   0   27.50    4.00
  -9  -2   0   26.70    3.80
  -9  -2   0   22.60    2.90
   9   2   1  872.31   32.90
  -9   2  -1  847.92   32.60
  -9   2  -1  848.02   32.70
  -9   2  -1  838.22   32.80
   9   2   1  854.31   32.40
  -9   2  -1  852.51   33.00
   9  -2   1  830.42   33.00
  -9  -2  -1  863.01   33.30
  -9  -2  -1  865.31   32.90
  -9  -2  -1  827.62   33.10
  -9   2  -2   47.10    4.20
  -9   2  -2   42.60    4.40
   9   2   2   37.60    4.30
   9   2   2   39.40    3.70
  -9   2  -2   42.00    3.60
  -9   2  -2   45.00    3.60
  -9  -2  -2   44.00    4.30
  -9  -2  -2   39.80    5.00
   9  -2   2   47.30    5.30
  -9  -2  -2   49.30    5.20
  -9   2  -3   18.50    3.20
  -9   2  -3   21.00    2.90
   9   2   3   18.10    3.80
  -9  -2  -3   25.60    3.20
  -9  -2  -3   17.70    2.00
   9   2   4   20.40    3.40
   9   2   4   21.70    3.50
  -9   2  -4   25.80    3.60
  -9   2  -4   19.00    2.80
  -9  -2  -4   19.70    3.00
  -9  -2  -4   25.80    2.50
   9   2   5  352.96   14.30
  -9   2  -5  354.36   15.00
   9   2   5  361.06   15.60
  -9  -2  -5  358.36   15.00
  -9  -2  -5  339.17   13.80
   9   2   6  315.07   13.00
  -9   2  -6  314.47   13.60
  -9   2  -6  312.27   12.40
  -9  -2  -6  320.77   13.70
  -9  -2  -6  314.47   12.30
  -9   2  -7   41.00    4.40
   9   2   7   38.10    4.00
  -9   2  -7   38.10    2.60
  -9  -2  -7   40.60    5.00
  -9  -2  -7   41.10    2.40
  -9   2  -8  323.37   13.60
  -9   2  -8  322.67   12.50
   9   2   8  328.97   13.40
  -9  -2  -8  327.77   12.50
  -9   2  -9   45.90    2.40
  -9  -2  -9   50.29    2.40
  -9   3  13   10.60    2.00
   9   3 -13   10.20    1.80
  -9  -3  13   11.70    2.30
  -9   3  12    0.10    1.90
   9   3 -12    1.30    1.40
  -9  -3  12   -3.00    2.10
  -9   3  11    6.30    2.20
  -9   3  11    4.50    3.40
   9   3 -11    1.70    1.70
  -9  -3  11    2.00    2.20
  -9  -3  11    4.00    4.20
   9   3 -10    3.10    2.00
  -9   3  10    1.10    2.50
  -9   3  10    4.60    3.20
  -9   3  10   12.50    6.80
  -9  -3  10    1.70    2.40
  -9  -3  10    7.70    3.10
  -9   3   9  793.92   30.30
   9   3  -9  697.33   29.80
  -9   3   9  769.92   30.50
  -9   3   9  779.62   29.70
  -9  -3   9  747.33   29.30
  -9  -3   9  748.83   29.90
  -9   3   8  293.57   12.80
   9   3  -8  269.27   12.30
  -9   3   8  268.27   12.50
  -9  -3   8  303.97   11.30
  -9  -3   8  288.07   12.70
  -9  -3   8  280.97   12.20
  -9   3   7  168.38    8.70
   9   3  -7  173.88    8.90
  -9  -3   7  173.38    8.60
  -9  -3   7  173.88    9.00
  -9  -3   7  193.98    7.50
   9  -3  -7  193.48    8.20
  -9   3   6   73.29    5.00
  -9   3   6   84.29    5.80
   9   3  -6   92.49   11.10
   9  -3  -6   79.59    9.60
  -9  -3   6   91.39    6.10
  -9  -3   6   95.79    5.60
  -9   3   5   -0.80    1.40
  -9   3   5    1.40    2.30
   9   3  -5    4.30    5.00
  -9  -3   5    4.50    2.70
   9  -3  -5   -0.30    3.70
  -9  -3   5    1.20    2.40
  -9   3   4  277.47   11.50
  -9   3   4  289.27   11.30
   9   3  -4  241.28   14.00
   9   3  -4  293.77   13.00
  -9  -3   4  274.07   11.90
  -9  -3   4  272.07   13.60
  -9  -3   4  260.97   12.30
  -9   3   3   -3.70    2.30
  -9   3   3    1.60    2.00
   9   3  -3    6.60    3.20
  -9   3   3    0.00    1.00
  -9  -3   3    0.10    3.40
  -9  -3   3   -1.10    3.20
   9  -3  -3    0.10    3.10
   9   3  -2   88.99    5.90
  -9   3   2   87.09    5.40
  -9   3   2   90.19    5.20
  -9   3   2   84.09    4.30
   9   3  -2   88.29    6.40
   9  -3  -2   82.29    6.30
  -9  -3   2  101.39    6.90
  -9  -3   2   83.09    6.20
  -9   3   1  925.41   34.90
   9   3  -1  923.41   34.70
  -9   3   1  903.21   34.70
  -9   3   1  888.91   35.10
   9   3  -1  940.41   35.30
  -9   3   1  899.81   34.50
   9  -3  -1  907.21   35.50
  -9  -3   1  897.51   35.90
  -9  -3   1  866.91   35.00
   9   3   0  122.19    6.70
   9   3   0  120.59    6.10
  -9   3   0  131.39    7.20
  -9   3   0  122.69    6.20
  -9   3   0  117.99    5.80
  -9   3   0  126.09    6.30
  -9  -3   0  129.69    7.80
   9  -3   0  121.69    7.20
  -9  -3   0  128.09    6.80
  -9  -3   0  123.99    7.30
   9   3   1   40.60    4.10
  -9   3  -1   39.00    4.60
  -9   3  -1   35.50    3.50
   9   3   1   40.30    3.40
  -9   3  -1   44.10    3.90
  -9   3  -1   40.70    3.20
   9  -3   1   34.50    5.30
  -9  -3  -1   38.40    4.80
   9  -3   1   39.50    5.10
  -9  -3  -1   34.10    5.90
  -9  -3  -1   37.20    4.40
  -9   3  -2 1222.98   47.10
  -9   3  -2 1252.77   47.00
   9   3   2 1255.07   46.60
  -9   3  -2 1267.47   47.30
  -9  -3  -2 1163.68   47.80
  -9  -3  -2 1258.57   47.30
   9  -3   2 1211.68   47.40
  -9   3  -3  134.49    7.50
  -9   3  -3  139.19    7.10
  -9   3  -3  140.59    6.90
   9   3   3  143.39    7.40
   9   3   3  139.39    6.60
  -9  -3  -3  145.59    7.60
  -9  -3  -3  130.59    5.90
   9  -3   3  139.29    8.90
   9   3   4   81.69    6.10
  -9   3  -4   75.99    5.00
  -9   3  -4   75.49    5.80
   9   3   4   80.59    4.80
  -9   3  -4   78.99    5.50
   9  -3   4   91.19    7.90
  -9  -3  -4   86.59    4.00
  -9  -3  -4   83.29    5.70
   9   3   5    6.00    3.50
  -9   3  -5    6.80    2.50
  -9   3  -5   10.30    2.50
   9   3   5    9.30    2.30
  -9  -3  -5    6.80    2.70
  -9  -3  -5   10.40    1.30
   9   3   6   81.69    7.00
  -9   3  -6   86.09    4.60
   9   3   6   92.19    7.70
  -9   3  -6   99.99    6.70
  -9  -3  -6   94.09    4.10
  -9   3  -7    8.00    2.50
   9   3   7    5.10    2.20
  -9   3  -7    8.10    1.40
  -9  -3  -7    7.70    3.20
  -9  -3  -7    4.90    1.00
   9   3   8   -0.20    2.30
  -9   3  -8    1.50    2.40
  -9   3  -8   -1.50    1.00
  -9  -3  -8    0.70    0.80
  -9   3  -9   22.40    1.70
  -9  -3  -9   24.40    1.50
   9   4 -13    6.70    1.20
  -9   4  13   10.40    1.90
  -9  -4  13    8.90    2.10
   9   4 -12   27.80    2.70
  -9   4  12   35.90    3.70
  -9  -4  12   38.30    3.50
  -9   4  11   69.09    4.90
   9   4 -11   56.89    4.00
  -9   4  11   66.79    6.30
  -9  -4  11   74.09    4.70
   9   4 -10   15.00    2.30
  -9   4  10   23.40    3.10
  -9  -4  10   19.60    2.90
  -9  -4  10   18.30    2.20
   9   4  -9   11.60    2.40
  -9   4   9   12.10    3.00
  -9   4   9   11.90    3.20
  -9   4   9   12.40    4.60
  -9  -4   9   13.90    2.60
  -9  -4   9   11.70    1.50
   9   4  -8  311.87   14.50
  -9   4   8  367.46   15.00
  -9   4   8  313.37   14.80
  -9  -4   8  379.16   13.50
  -9  -4   8  355.66   14.80
  -9   4   7  155.38    8.40
   9   4  -7  159.48    8.50
   9  -4  -7  196.88    7.80
  -9  -4   7  186.08    7.20
  -9  -4   7  167.68    8.60
  -9   4   6   34.30    3.60
  -9   4   6   40.50    5.20
   9   4  -6   46.40    5.10
   9  -4  -6   48.90    3.50
  -9  -4   6   52.39    4.70
  -9  -4   6   48.60    2.90
   9   4  -5   -0.20    5.80
   9   4  -5    3.20    3.70
  -9   4   5    5.20    2.70
  -9  -4   5    4.70    1.30
  -9  -4   5    5.30    2.80
  -9   4   4  294.97   12.00
   9   4  -4  282.37   14.60
   9   4  -4  269.57   15.50
  -9   4   4  295.97   12.40
   9   4  -4  316.07   13.40
  -9  -4   4  295.67   13.10
  -9  -4   4  296.27   13.40
   9   4  -3 1142.69   42.80
  -9   4   3 1106.49   41.00
   9   4  -3 1168.18   41.80
  -9   4   3 1097.09   41.30
   9  -4  -3  972.00   42.80
  -9  -4   3 1037.90   43.10
  -9  -4   3 1059.29   41.70
  -9   4   2  119.09    5.70
  -9   4   2  109.99    6.90
  -9   4   2  120.09    6.50
   9   4  -2  138.39    6.80
   9   4  -2  135.59    7.70
  -9  -4   2  129.49    8.80
  -9  -4   2  129.69    7.20
   9  -4  -2  122.29    8.40
  -9   4   1    8.30    2.50
  -9   4   1    6.00    3.30
  -9   4   1    7.90    1.50
   9   4  -1    6.60    2.10
  -9   4   1    6.60    2.20
   9   4  -1    5.60    2.50
  -9  -4   1   11.50    4.20
   9  -4  -1    4.60    3.20
  -9  -4   1    4.00    2.50
   9   4   0 2124.39   81.09
   9   4   0 2209.88   81.69
  -9   4   0 2095.19   81.29
  -9   4   0 2239.38   81.39
  -9   4   0 2194.88   81.59
   9  -4   0 2132.39   81.59
  -9  -4   0 2222.18   81.59
   9  -4   0 2086.69   82.19
  -9   4  -1    3.00    1.90
   9   4   1    3.80    1.80
  -9   4  -1   -0.20    1.50
  -9   4  -1    2.90    2.60
   9   4   1   -1.30    2.20
  -9  -4  -1    2.90    2.50
  -9  -4  -1    2.30    3.40
   9  -4   1   -0.20    2.90
  -9   4  -2   27.60    3.40
   9   4   2   26.80    4.00
  -9   4  -2   31.50    3.30
   9   4   2   27.80    3.20
  -9   4  -2   33.60    3.50
  -9  -4  -2   36.20    2.70
   9  -4   2   31.40    3.90
  -9  -4  -2   31.90    3.60
   9   4   3    3.10    1.90
  -9   4  -3    0.60    2.00
  -9   4  -3    1.70    2.40
  -9   4  -3    0.70    1.80
   9   4   3    3.50    2.50
   9  -4   3    9.00    3.40
  -9  -4  -3    3.70    1.30
  -9  -4  -3    0.70    2.40
   9   4   4  271.67   11.80
  -9   4  -4  253.37   11.60
  -9   4  -4  249.97   11.10
  -9   4  -4  253.37   11.60
   9   4   4  265.27   10.90
  -9  -4  -4  261.27   11.70
  -9  -4  -4  253.17   10.10
   9  -4   4  237.98   12.20
  -9   4  -5  328.57   13.90
  -9   4  -5  333.77   14.30
   9   4   5  344.67   13.70
   9   4   5  335.57   14.70
  -9  -4  -5  337.67   12.90
  -9  -4  -5  332.27   14.50
   9  -4   5  319.47   15.20
  -9   4  -6  266.07   11.60
   9   4   6  258.27   11.00
   9   4   6  256.77   12.40
  -9  -4  -6  252.47   11.70
  -9  -4  -6  268.47   10.20
   9   4   7   62.89    4.10
  -9   4  -7   57.99    3.40
  -9   4  -7   69.99    4.80
  -9  -4  -7   64.79    6.00
  -9  -4  -7   62.49    3.00
   9   4   8    4.30    2.20
  -9   4  -8    9.40    1.20
  -9  -4  -8    8.70    1.20
  -9  -4  -9  176.28    6.90
   9   5 -12   48.50    3.20
  -9   5  12   61.79    4.10
  -9  -5  12   66.39    3.90
  -9   5  11    0.90    2.40
   9   5 -11    0.30    1.40
  -9  -5  11    0.70    1.90
  -9   5  10   20.10    3.00
  -9   5  10   15.00    3.40
   9   5 -10    9.60    2.00
  -9  -5  10   16.30    2.50
  -9  -5  10   14.60    1.80
   9   5  -9   23.20    3.50
  -9   5   9   22.50    3.60
  -9   5   9   17.90    4.50
  -9  -5   9   20.90    2.00
  -9  -5   9   25.10    3.80
  -9   5   8  123.89    7.10
  -9   5   8  110.39    8.60
  -9  -5   8  121.89    6.80
  -9  -5   8  126.49    5.30
  -9   5   7  417.76   19.20
   9   5  -7  408.06   19.20
   9  -5  -7  536.65   18.50
  -9  -5   7  495.75   19.50
  -9  -5   7  516.65   18.30
   9   5  -6 1195.28   44.80
   9   5  -6 1063.09   44.10
  -9  -5   6 1200.48   43.20
   9  -5  -6 1171.38   43.30
  -9  -5   6 1124.29   44.20
   9   5  -5   74.59    6.40
  -9  -5   5   61.49    6.00
  -9  -5   5   60.89    6.50
  -9  -5   5   60.79    3.40
   9  -5  -5   65.79    3.70
   9   5  -4  549.65   22.20
  -9   5   4  548.25   20.60
  -9  -5   4  526.75   21.70
   9  -5  -4  526.65   20.30
  -9  -5   4  485.55   21.40
  -9  -5   4  528.45   20.20
   9   5  -3  204.78    9.20
  -9   5   3  186.78    7.90
  -9   5   3  181.18    8.80
   9   5  -3  184.88   11.10
   9  -5  -3  184.98    7.70
  -9  -5   3  167.68    9.10
  -9  -5   3  172.98    7.70
  -9   5   2  591.04   22.90
  -9   5   2  601.94   23.40
   9   5  -2  622.74   23.50
   9  -5  -2  574.34   22.60
  -9  -5   2  562.44   23.60
  -9   5   1   48.80    6.10
   9   5  -1   47.10    4.30
  -9   5   1   56.59    4.60
  -9   5   1   48.30    3.30
  -9   5   1   41.70    5.70
   9   5  -1   59.59    5.10
  -9  -5   1   39.80    4.50
   9  -5  -1   47.00    3.40
   9   5   0   54.39    3.90
  -9   5   0   48.80    5.80
   9   5   0   58.79    4.90
  -9   5   0   58.89    3.80
  -9  -5   0   53.79    3.70
  -9  -5   0   47.10    4.90
   9  -5   0   59.09    3.70
   9  -5   0   54.99    5.20
  -9   5  -1  352.26   15.00
   9   5   1  374.66   15.00
  -9   5  -1  347.37   14.50
   9   5   1  349.96   14.10
  -9   5  -1  348.07   14.40
  -9  -5  -1  343.47   13.60
  -9  -5  -1  347.17   14.90
   9  -5   1  332.77   14.90
   9  -5   1  330.27   13.70
  -9   5  -2  253.37   11.70
   9   5   2  262.57   10.90
  -9   5  -2  252.77   11.30
  -9   5  -2  245.28   11.20
   9   5   2  269.67   11.70
  -9  -5  -2  258.97   10.30
   9  -5   2  256.87   11.90
  -9  -5  -2  263.97   11.70
  -9   5  -3   65.89    4.80
   9   5   3   72.49    4.40
  -9   5  -3   60.29    5.10
   9   5   3   67.19    5.50
  -9   5  -3   64.19    4.50
   9  -5   3   69.79    5.80
  -9  -5  -3   65.99    3.50
  -9  -5  -3   72.39    5.50
  -9   5  -4  296.77   12.80
   9   5   4  315.97   13.50
  -9   5  -4  290.97   13.30
  -9   5  -4  291.07   13.20
   9   5   4  315.07   12.60
   9  -5   4  310.37   13.60
  -9  -5  -4  299.77   11.80
  -9  -5  -4  303.57   13.40
  -9   5  -5  360.76   15.60
   9   5   5  385.26   16.10
  -9  -5  -5  372.66   14.30
   9  -5   5  374.06   16.20
  -9  -5  -5  367.76   17.00
   9   5   6  150.78    7.00
  -9   5  -6  143.39    7.50
  -9   5  -6  147.39    7.40
   9   5   6  144.19    8.90
  -9  -5  -6  151.68    8.10
   9  -5   6  151.58    9.20
  -9  -5  -6  147.69    6.10
  -9   5  -7   52.39    4.30
   9   5   7   47.80    3.80
  -9  -5  -7   54.09    2.60
  -9   5  -8   43.80    4.00
   9   5   8   52.49    3.70
  -9  -5  -8   48.70    2.40
   9   6 -12  102.29    5.00
  -9   6  12  115.19    7.50
  -9  -6  12  129.09    5.50
   9   6 -11   19.10    2.40
  -9   6  11   24.80    2.90
  -9  -6  11   20.90    2.90
  -9   6  10  199.28    9.30
  -9  -6  10  202.78    7.70
  -9  -6  10  179.48    8.60
  -9   6   9  110.39    7.30
  -9  -6   9  117.79    4.90
  -9  -6   9  116.29    6.20
  -9   6   8  198.18    9.70
  -9  -6   8  199.48    9.30
  -9  -6   8  200.28    8.00
  -9   6   7   -0.50    2.60
   9   6  -7   -0.60    2.10
  -9  -6   7    0.00    2.30
   9  -6  -7    2.40    1.70
  -9  -6   7   -0.10    0.90
   9   6  -6  151.78    8.40
   9   6  -6  166.28    9.70
   9  -6  -6  181.28    7.40
  -9  -6   6  183.88    7.30
  -9  -6   6  186.98    8.70
   9   6  -5  286.37   12.80
  -9  -6   5  257.47   12.20
   9  -6  -5  271.87   10.80
  -9  -6   5  252.27   12.60
  -9  -6   5  288.77   10.80
   9   6  -4  501.35   23.40
   9   6  -4  560.54   22.00
  -9   6   4  539.05   20.70
   9  -6  -4  526.35   20.40
  -9  -6   4  518.25   21.70
  -9  -6   4  538.95   20.40
   9   6  -3  364.76   15.20
  -9   6   3  355.76   14.10
   9   6  -3  351.76   16.60
   9  -6  -3  355.66   13.80
  -9  -6   3  340.57   15.10
  -9  -6   3  343.27   13.70
   9   6  -2  460.75   18.30
  -9   6   2  446.76   17.60
  -9   6   2  448.96   18.20
   9   6  -2  463.85   19.50
  -9  -6   2  432.26   17.10
  -9  -6   2  415.86   18.30
   9  -6  -2  437.66   17.20
  -9   6   1  185.18    8.10
   9   6  -1  176.98    8.40
  -9   6   1  176.48    8.80
   9   6  -1  195.08    9.70
  -9   6   1  183.18    9.90
  -9  -6   1  169.48    7.50
  -9  -6   1  165.58    8.80
  -9  -6   1  174.98    7.60
   9   6   0   64.39    5.60
   9   6   0   60.89    4.30
  -9   6   0   58.29    4.90
  -9   6   0   65.49    4.10
  -9   6   0   64.19    5.90
   9  -6   0   62.19    5.20
  -9  -6   0   61.09    3.60
   9  -6   0   56.09    3.50
  -9  -6   0   58.59    5.00
   9   6   1    0.30    1.80
   9   6   1    1.00    2.70
  -9   6  -1    1.30    1.80
  -9   6  -1   -0.20    2.00
  -9   6  -1   -1.00    2.60
   9  -6   1    1.20    2.70
   9  -6   1    2.90    1.60
  -9  -6  -1   -1.40    2.20
  -9  -6  -1    1.00    1.20
  -9   6  -2  398.76   16.70
   9   6   2  416.96   16.30
  -9   6  -2  403.56   17.00
  -9   6  -2  399.46   16.60
   9   6   2  415.96   17.20
   9  -6   2  410.16   17.10
  -9  -6  -2  402.66   17.10
   9  -6   2  392.46   15.80
  -9  -6  -2  396.46   15.60
   9   6   3   25.60    3.30
  -9   6  -3   18.80    2.70
  -9   6  -3   27.30    4.10
   9   6   3   27.40    4.80
  -9   6  -3   21.20    3.70
  -9  -6  -3   22.70    2.10
   9  -6   3   22.40    3.50
  -9  -6  -3   15.30    3.00
  -9   6  -4   74.99    5.80
   9   6   4   81.59    5.00
  -9   6  -4   83.69    5.70
  -9   6  -4   69.89    5.00
   9   6   4   87.69    6.50
  -9  -6  -4   98.79    8.40
   9  -6   4   85.29    7.20
  -9  -6  -4   83.99    3.90
  -9   6  -5   46.10    6.00
   9   6   5   52.59    6.10
  -9   6  -5   48.60    4.00
   9   6   5   52.99    3.80
  -9   6  -5   46.60    4.40
   9  -6   5   48.80    5.60
  -9  -6  -5   41.50    5.20
  -9  -6  -5   48.30    2.70
   9   6   6   55.79    3.90
  -9   6  -6   50.19    4.50
  -9   6  -6   54.49    4.40
  -9  -6  -6   53.89    5.70
   9  -6   6   51.79    5.90
   9   6   7  115.49    5.80
  -9  -6  -7  118.09    4.80
  -9   6  -8  173.38    8.20
   9   6   8  190.68    8.00
  -9  -6  -8  192.68    7.30
   9   7 -11    3.30    1.20
  -9  -7  11    1.70    1.50
  -9  -7  11    2.30    0.90
  -9  -7  10  245.98    9.50
  -9  -7  10  244.48   10.30
  -9  -7  10  248.38    9.60
   9   7  -9   21.00    3.00
  -9  -7   9   17.30    1.50
  -9  -7   9   16.20    2.40
   9   7  -8   27.50    3.50
  -9   7   8   32.20    4.00
  -9  -7   8   38.20    2.10
  -9  -7   8   39.80    3.70
   9   7  -7  133.99    9.00
   9   7  -7  114.19    6.70
  -9   7   7  120.99    7.30
   9  -7  -7  141.89    5.80
  -9  -7   7  131.39    5.40
   9   7  -6  237.28   11.40
   9   7  -6  211.58   10.10
  -9  -7   6  226.48   11.30
   9  -7  -6  221.58    9.10
  -9  -7   6  209.58   10.20
  -9  -7   6  237.48    9.00
   9   7  -5  108.09    7.20
   9   7  -5   89.39   10.80
  -9  -7   5  105.69    4.70
  -9  -7   5  121.19    7.20
   9  -7  -5  106.09    4.90
  -9   7   4    4.50    1.70
   9   7  -4    2.50    2.80
   9   7  -4   -2.10    4.80
  -9  -7   4    3.20    1.10
   9  -7  -4    3.00    1.30
  -9  -7   4    0.90    2.70
   9   7  -3    9.20    2.90
   9   7  -3    3.30    4.40
  -9   7   3   10.70    1.80
  -9  -7   3   11.20    1.40
  -9  -7   3   10.60    2.80
   9  -7  -3   10.20    1.60
   9   7  -2  119.99    6.70
  -9   7   2  117.79    7.00
   9   7  -2  117.89    8.60
  -9   7   2  115.39    5.70
  -9  -7   2  106.29    6.70
  -9  -7   2  107.29    5.10
   9  -7  -2  112.19    5.20
   9   7  -1  153.78    9.20
  -9   7   1  152.68    7.20
  -9   7   1  158.58    8.00
  -9   7   1  160.68    9.10
   9   7  -1  163.68    7.80
  -9  -7   1  145.69    8.00
  -9  -7   1  139.69    6.50
   9  -7  -1  148.19    6.50
  -9   7   0   74.39    5.30
   9   7   0   76.49    5.00
  -9   7   0   76.89    6.40
  -9   7   0   78.39    4.80
   9   7   0   75.89    6.50
  -9  -7   0   72.09    4.40
   9  -7   0   64.19    4.00
   9  -7   0   76.19    5.70
  -9  -7   0   76.59    5.60
   9   7   1  100.29    5.60
   9   7   1  112.19    7.10
  -9   7  -1   99.09    5.80
  -9   7  -1   97.29    5.90
  -9   7  -1   96.79    6.70
   9  -7   1   98.29    4.70
  -9  -7  -1   92.29    6.20
   9  -7   1  108.19    6.60
  -9  -7  -1   99.59    4.70
  -9   7  -2   -0.60    2.60
  -9   7  -2    3.20    2.10
   9   7   2    0.20    2.00
  -9   7  -2   -0.70    2.10
   9   7   2    1.00    3.00
  -9  -7  -2    2.20    1.10
   9  -7   2    1.70    1.50
   9  -7   2    1.50    2.70
  -9  -7  -2    4.40    2.70
  -9   7  -3  189.18    9.20
   9   7   3  187.48    9.90
  -9  -7  -3  196.58    7.80
  -9  -7  -3  194.08   11.60
  -9   7  -4  128.79    7.60
   9   7   4  149.09    6.80
  -9   7  -4  132.29    7.20
  -9   7  -4  136.69    6.90
   9   7   4  137.19    8.20
  -9  -7  -4  140.99    7.70
  -9  -7  -4  144.39    5.90
   9  -7   4  138.49    7.60
   9   7   5    0.30    1.80
  -9   7  -5   -0.70    2.00
  -9   7  -5    1.40    1.90
  -9  -7  -5   -5.80    2.90
  -9  -7  -5    0.80    0.90
   9  -7   5   -0.60    2.90
   9   7   6    2.40    1.80
  -9   7  -6   -0.60    2.00
  -9   7  -6    1.70    2.20
  -9  -7  -6    0.10    0.80
  -9   7  -7    6.20    2.00
   9   7   7    1.40    1.70
  -9  -7  -7    5.20    0.80
   9   8 -10   65.69    3.80
  -9  -8  10   78.19    4.10
  -9  -8  10   75.59    3.10
   9   8  -9   14.80    2.40
   9   8  -9   15.60    2.40
  -9  -8   9   15.70    1.30
  -9  -8   9   17.50    2.20
  -9  -8   9   18.10    1.60
   9   8  -8   26.80    3.10
  -9  -8   8   35.90    1.90
  -9  -8   8   35.30    3.40
   9   8  -7   53.29    6.30
   9   8  -7   39.70    3.90
   9  -8  -7   51.69    3.10
  -9  -8   7   49.10    4.20
  -9  -8   7   45.30    2.40
   9   8  -6  670.73   25.70
   9   8  -6  595.44   24.80
  -9  -8   6  613.84   23.90
   9  -8  -6  642.44   23.90
   9   8  -5   53.59    7.10
   9   8  -5   63.39   10.20
  -9   8   5   47.80    4.70
   9  -8  -5   55.79    3.00
  -9  -8   5   57.09    2.90
   9   8  -4  117.79   11.10
  -9   8   4  140.49    6.80
   9   8  -4  135.89    8.00
   9  -8  -4  141.99    5.90
  -9  -8   4  134.29    5.80
  -9  -8   4  144.69    7.80
   9   8  -3   66.59    5.50
   9   8  -3   61.79    8.50
  -9   8   3   60.19    4.00
  -9  -8   3   58.19    3.10
   9  -8  -3   63.49    3.30
  -9  -8   3   57.29    5.20
   9   8  -2   25.40    5.00
  -9   8   2   31.70    5.10
  -9   8   2   28.50    3.10
   9   8  -2   29.20    4.30
  -9  -8   2   26.30    3.30
   9  -8  -2   24.40    2.30
  -9  -8   2   30.30    2.20
  -9   8   1   89.99    5.20
  -9   8   1   74.09    7.50
  -9   8   1   93.09    6.00
   9   8  -1   88.89    5.80
   9   8  -1   93.89    8.00
  -9  -8   1   83.89    5.90
   9  -8  -1   88.39    4.20
  -9   8   0   15.60    3.80
   9   8   0   25.40    3.80
  -9   8   0   12.80    3.70
   9   8   0   14.10    4.30
  -9   8   0   17.60    2.90
   9  -8   0   18.70    2.10
  -9  -8   0   12.60    2.90
  -9   8  -1    1.70    2.10
   9   8   1    2.60    2.80
   9   8   1   -1.60    3.40
   9  -8   1    3.40    3.80
   9  -8   1    1.00    1.10
  -9   8  -2   66.39    5.40
  -9   8  -2   61.99    4.60
   9   8   2   73.39    6.50
  -9   8  -2   60.39    4.70
   9   8   2   64.39    4.50
  -9  -8  -2   66.89    5.30
   9  -8   2   66.09    3.50
  -9  -8  -2   65.39    3.40
   9  -8   2   68.99    5.40
  -9   8  -3   40.50    4.50
   9   8   3   47.50    3.90
   9   8   3   46.60    6.30
  -9   8  -3   48.30    4.50
  -9   8  -3   45.70    3.90
   9  -8   3   44.20    4.70
   9  -8   3   44.30    4.50
  -9  -8  -3   42.70    4.70
  -9  -8  -3   47.60    2.60
  -9   8  -4   33.80    3.90
   9   8   4   32.90    3.50
  -9   8  -4   31.40    3.30
   9  -8   4   26.60    3.30
  -9  -8  -4   28.60    3.40
   9   8   5    0.10    1.80
  -9   8  -5    2.00    1.80
  -9   8  -5   -0.70    1.90
  -9  -8  -5   -0.50    0.80
  -9  -8  -5    1.00    3.10
  -9   8  -6   20.50    3.10
  -9   8  -6   31.40    3.70
   9   8   6   23.10    3.00
  -9  -8  -6   22.70    1.60
   9   9  -9    0.60    1.20
   9   9  -9    1.80    1.20
  -9  -9   9    1.40    0.60
  -9  -9   9    3.10    0.90
  -9  -9   9    3.60    2.10
   9   9  -8  106.89    5.60
   9   9  -8  129.59    5.30
  -9  -9   8  121.59    4.90
  -9  -9   8  126.39    6.00
  -9  -9   8  114.09    4.80
   9   9  -7   15.50    2.70
   9   9  -7    8.80    4.30
  -9  -9   7   15.40    1.30
   9  -9  -7   17.60    2.20
  -9  -9   7   17.20    1.60
   9   9  -6   34.00    3.30
   9   9  -6   37.50    5.20
  -9  -9   6   34.80    2.10
  -9  -9   6   32.30    1.90
   9  -9  -6   36.00    2.70
   9   9  -5  141.89   13.40
   9   9  -5  178.08    8.90
   9   9  -5  168.38    7.80
   9  -9  -5  163.28    6.80
  -9  -9   5  165.18    6.70
   9   9  -4  437.66   21.60
   9   9  -4  501.95   19.60
  -9  -9   4  473.35   17.90
   9  -9  -4  482.45   18.00
  -9  -9   4  441.36   19.10
   9   9  -3   -3.00    5.10
  -9   9   3    5.80    2.10
   9   9  -3    0.50    2.50
   9  -9  -3    1.40    1.10
  -9  -9   3    2.40    0.90
  -9  -9   3    6.80    2.60
   9   9  -2  181.88   11.50
   9   9  -2  193.08    9.20
  -9   9   2  191.58    8.30
  -9  -9   2  186.78    7.50
  -9  -9   2  183.68    7.40
  -9  -9   2  168.88    8.90
   9  -9  -2  190.18    7.60
   9   9  -1  237.88   12.70
   9   9  -1  247.68   10.90
  -9   9   1  245.58   10.30
  -9   9   1  245.78   10.70
   9  -9  -1  238.58    9.50
  -9  -9   1  219.68   10.80
  -9  -9   1  230.98    9.40
  -9   9   0   86.59    6.30
   9   9   0   80.89    5.30
  -9   9   0   78.09    5.30
  -9   9   0   80.09    5.10
   9   9   0   75.89    7.80
   9  -9   0   76.69    3.80
  -9  -9   0   87.49    5.50
  -9   9  -1   16.70    2.50
  -9   9  -1   15.60    3.20
  -9   9  -1   15.80    2.70
   9   9   1   15.70    2.60
   9   9   1   13.60    4.50
  -9  -9  -1   15.40    2.80
   9  -9   1   14.70    1.90
   9   9   2  107.89    5.80
  -9   9  -2  104.79    6.20
  -9   9  -2   94.09    6.10
  -9   9  -2  106.29    5.60
   9   9   2  111.19    9.20
  -9  -9  -2   99.79    6.10
   9  -9   2   93.99    4.60
  -9   9  -3  146.99    6.90
  -9   9  -3  145.89    7.30
   9   9   3  153.28    7.00
   9  -9   3  142.49    6.10
  -9  -9  -3  137.19    7.50
   9   9   4   39.00    3.60
  -9   9  -4   41.20    3.50
  -9   9  -4   38.60    4.40
  -9  -9  -4   47.50    4.50
  -9   9  -5    2.80    1.90
  -9   9  -5    2.60    1.70
   9   9   5    0.10    1.70
   9  10  -8   56.59    2.70
   9  10  -8   51.39    3.00
  -9 -10   8   52.29    2.70
  -9 -10   8   50.69    2.30
   9  10  -7    0.50    1.20
  -9 -10   7    1.60    0.70
  -9 -10   7    0.20    0.50
   9  10  -6    0.70    1.40
   9  10  -6    0.70    2.80
   9 -10  -6    0.30    1.10
  -9 -10   6    1.00    0.70
  -9 -10   6    0.00    0.60
   9  10  -5    7.30    1.70
   9  10  -5    7.00    2.70
  -9 -10   5    6.80    1.00
  -9 -10   5   10.40    1.10
   9 -10  -5    8.40    1.20
   9  10  -4   46.90    3.40
   9  10  -4   41.40    4.60
   9 -10  -4   45.70    2.50
  -9 -10   4   43.50    2.30
  -9 -10   4   41.10    2.20
   9  10  -3   15.80    2.80
  -9 -10   3   12.00    2.50
  -9 -10   3   16.50    1.40
  -9 -10   3   15.00    1.60
   9  10  -2   40.60    4.30
   9 -10  -2   33.70    3.20
  -9 -10   2   37.70    2.20
  -9 -10   2   35.30    4.20
  -9 -10   2   39.90    2.20
   9  10  -1   18.20    2.80
  -9  10   1   27.20    4.00
  -9 -10   1   19.80    1.70
  -9 -10   1   22.00    2.90
   9 -10  -1   16.50    2.00
   9  10   0  307.37   13.10
  -9  10   0  319.27   12.80
  -9  10   0  305.97   13.90
  -9 -10   0  302.07   13.10
   9 -10   0  303.37   11.90
   9  10   1    3.40    2.00
  -9  10  -1    0.00    3.10
  -9  10  -1    1.20    1.90
   9 -10   1    4.50    1.00
  -9 -10  -1    2.60    2.30
  -9  10  -2  312.77   13.00
  -9  10  -2  311.17   12.90
   9  10   2  306.47   12.80
   9 -10   2  293.27   11.80
  -9  10  -3    4.20    1.60
   9  10   3    1.20    1.90
  -9  10  -3    6.10    2.20
  -9 -10  -3    0.80    2.40
   9 -10   3    1.40    1.30
  -9  10  -4   31.40    3.60
   9  10   4   31.10    3.50
  -9  10  -4   31.20    2.90
   9  11  -6   34.70    2.50
   9 -11  -6   36.10    2.20
  -9 -11   6   40.10    1.80
  -9 -11   6   35.20    1.70
   9  11  -5  225.68    9.90
   9  11  -5  211.38    9.00
   9 -11  -5  220.98    8.50
  -9 -11   5  221.18    8.50
  -9 -11   5  218.48    8.40
   9  11  -4   67.99    3.70
   9  11  -4   71.99    4.90
  -9 -11   4   69.79    3.00
  -9 -11   4   69.39    3.10
   9 -11  -4   72.89    3.10
   9  11  -3   39.80    4.20
   9  11  -3   40.60    2.80
   9 -11  -3   40.50    2.20
  -9 -11   3   40.10    2.00
  -9 -11   3   41.80    2.10
   9  11  -2   17.00    2.70
  -9 -11   2   14.30    1.40
   9 -11  -2   16.70    1.50
   9  11  -1    0.00    2.10
  -9  11   1   -2.10    2.20
   9 -11  -1    0.70    0.80
  -9 -11   1    0.20    1.40
   9  11   0    8.00    2.20
  -9  11   0   12.00    2.00
  -9 -11   0    9.30    2.20
   9 -11   0    6.90    1.00
   9  11   1   36.80    3.70
  -9  11  -1   42.80    3.30
   9 -11   1   37.10    2.10
  -9 -11  -1   40.20    3.70
 -10   0  13    0.40    3.20
 -10   0  13   -2.10    2.10
  10   0 -12 1157.98   40.00
 -10   0  12  980.50   40.30
 -10   0  12 1034.10   40.70
 -10   0  11   -0.60    2.10
 -10   0  11    0.10    2.90
 -10   0  11   -2.00    4.30
 -10   0  10  366.86   18.50
 -10   0  10  335.17   14.90
 -10   0  10  315.77   14.20
 -10   0   9   -1.20    2.80
 -10   0   9   -3.40    3.30
 -10   0   9   -1.20    2.10
  10   0  -9   -2.30    3.10
 -10   0   8    8.80    3.10
 -10   0   8   14.00    3.40
  10   0  -8    9.20    2.70
 -10   0   8    7.90    2.30
  10   0  -7    0.30    2.30
 -10   0   7    0.50    2.50
 -10   0   7   -1.40    1.70
 -10   0   6    0.50    1.80
 -10   0   6    4.00    2.30
 -10   0   5   -2.60    1.70
 -10   0   5    1.80    1.90
 -10   0   4  473.95   17.70
  10   0  -4  367.56   19.30
 -10   0   4  478.75   18.00
 -10   0   3   -0.40    1.60
 -10   0   3    4.10    2.90
 -10   0   3    0.50    1.50
  10   0  -3    2.50    3.60
  10   0  -2   13.40    3.40
 -10   0   2   16.40    2.70
 -10   0   2   11.90    2.00
 -10   0   2   15.60    2.90
 -10   0   2   15.30    3.30
 -10   0   1    0.10    1.70
 -10   0   1    1.90    2.30
 -10   0   1    1.60    2.40
  10   0  -1   -0.10    2.80
 -10   0   0    4.90    2.20
  10   0   0    5.00    2.80
 -10   0   0    4.20    2.50
 -10   0   0    6.80    1.90
 -10   0   0    6.80    2.00
 -10   0  -1    1.60    2.00
 -10   0  -1    3.90    2.20
  10   0   1    3.90    3.00
 -10   0  -1    0.50    2.60
 -10   0  -1    0.30    2.40
 -10   0  -2   94.39    5.70
 -10   0  -2   91.09    5.70
 -10   0  -3   -0.50    2.00
 -10   0  -4  465.75   19.00
 -10   0  -5    1.60    2.40
 -10   0  -5    0.10    1.50
 -10   0  -6   80.79    3.90
 -10   0  -6   79.29    5.60
 -10   0  -7    1.50    1.60
 -10   0  -7   -0.60    2.50
 -10   0  -8   52.39    4.90
 -10   0  -8   51.89    2.60
 -10   0  -9   -0.10    0.80
 -10   1  13    7.20    2.10
  10   1 -13    7.20    1.40
 -10  -1  13    5.30    2.70
 -10  -1  13    7.80    2.50
 -10   1  12    2.60    2.10
  10   1 -12    0.60    1.50
 -10   1  12   -4.90    3.40
 -10  -1  12    3.50    2.30
 -10  -1  12    4.10    2.70
 -10   1  11   69.19    5.10
 -10   1  11   80.69    7.20
  10   1 -11   76.19    4.60
 -10   1  11   83.59    6.30
 -10  -1  11   74.79    9.00
 -10  -1  11   78.19    5.10
 -10  -1  11   74.69    5.60
 -10   1  10   33.00    4.70
  10   1 -10   36.80    4.00
 -10   1  10   29.20    4.20
 -10   1  10   26.40    4.00
 -10  -1  10   33.60    5.10
 -10  -1  10   31.20    4.00
 -10  -1  10   36.90    4.80
 -10   1   9  585.84   23.70
 -10   1   9  551.94   24.30
 -10   1   9  607.94   24.70
 -10  -1   9  598.94   23.60
 -10  -1   9  622.84   25.00
 -10  -1   9  592.34   24.20
  10   1  -8  559.64   22.80
 -10   1   8  556.64   23.20
 -10   1   8  581.84   24.00
 -10  -1   8  586.94   23.20
  10  -1  -8  565.64   22.70
 -10  -1   8  619.34   24.30
 -10  -1   8  620.74   22.40
 -10  -1   8  568.94   23.70
 -10   1   7   27.30    3.80
  10   1  -7   32.60    3.20
 -10   1   7   25.20    4.10
 -10   1   7   21.10    2.30
 -10  -1   7   25.50    3.70
  10  -1  -7   23.60    2.80
 -10  -1   7   28.70    3.70
 -10  -1   7   30.80    4.50
 -10  -1   7   33.90    2.90
 -10   1   6   54.49    4.50
 -10   1   6   51.19    4.20
  10  -1  -6   39.70    6.80
 -10   1   5   91.69    5.10
 -10   1   5   82.89    4.90
 -10  -1   5   82.69    5.70
  10  -1  -5   58.29    8.70
 -10  -1   5   81.69    4.90
 -10   1   4  403.16   15.70
 -10   1   4  404.06   15.90
  10  -1  -4  321.47   17.40
 -10  -1   4  406.96   15.80
 -10  -1   4  408.16   16.30
 -10   1   3  144.79    6.60
 -10   1   3  132.59    8.10
 -10   1   3  134.39    6.50
 -10  -1   3  136.79    6.80
  10  -1  -3  133.59    8.60
 -10  -1   3  145.09    8.60
 -10  -1   3  146.19    7.10
 -10   1   2  757.32   30.10
 -10   1   2  781.52   30.10
 -10   1   2  809.62   31.00
 -10   1   2  753.22   30.40
  10  -1  -2  756.02   31.00
 -10  -1   2  830.22   31.50
 -10  -1   2  764.12   30.50
 -10  -1   2  800.82   30.50
 -10  -1   2  790.32   30.10
 -10   1   1 1585.14   60.99
 -10   1   1 1644.04   61.59
 -10   1   1 1573.64   61.09
 -10   1   1 1621.84   60.89
 -10  -1   1 1645.94   60.99
 -10  -1   1 1654.73   61.29
  10  -1  -1 1530.05   61.49
 -10  -1   1 1671.83   61.89
 -10  -1   1 1620.64   61.19
 -10   1   0  147.59    7.30
 -10   1   0  138.69    6.50
 -10   1   0  138.59    7.10
 -10   1   0  133.99    6.60
 -10  -1   0  135.19    6.90
 -10  -1   0  132.19    7.80
 -10  -1   0  138.29    7.00
  10  -1   0  121.89    7.70
 -10   1  -1  188.38    8.60
 -10   1  -1  194.48    8.40
 -10   1  -1  197.58    8.90
 -10   1  -1  183.08    9.10
  10  -1   1  173.48    9.60
 -10  -1  -1  185.28    8.80
 -10  -1  -1  191.88    9.60
 -10   1  -2  159.88    8.20
 -10   1  -2  160.78    7.70
 -10   1  -2  167.68    8.00
  10   1   2  167.38    8.30
 -10  -1  -2  166.38    8.10
 -10   1  -3   25.20    4.10
 -10   1  -3   29.70    4.10
  10   1   3   37.00    4.60
 -10  -1  -3   31.70    3.90
  10   1   4  143.29    7.50
 -10   1  -4  142.49    7.50
 -10  -1  -4  148.29    7.60
 -10  -1  -4  139.59    6.30
 -10   1  -5    3.70    2.30
 -10  -1  -5    1.40    1.30
 -10  -1  -5    1.10    2.50
 -10   1  -6    4.60    1.30
 -10   1  -6    4.10    2.40
 -10  -1  -6   -1.40    2.40
 -10  -1  -6    4.50    1.20
 -10   1  -7  277.17   10.80
 -10   1  -7  274.07   12.00
 -10  -1  -7  283.87   12.10
 -10   1  -8   24.10    1.80
 -10   1  -8   21.20    3.00
 -10  -1  -8   35.80    5.40
 -10  -1  -8   24.20    1.60
 -10   1  -9    5.40    0.80
 -10  -1  -9    5.90    0.80
 -10   2  13  124.69    6.30
 -10  -2  13  145.39    6.70
  10   2 -12   29.80    2.70
 -10   2  12   35.00    3.80
 -10  -2  12   32.00    4.60
 -10  -2  12   27.70    4.20
 -10   2  11   58.39    6.10
 -10   2  11   56.79    6.60
 -10   2  11   48.00    4.40
  10   2 -11   57.99    3.90
 -10  -2  11   50.79    4.70
 -10  -2  11   56.29    4.80
 -10   2  10    2.60    2.50
 -10   2  10   -1.30    3.50
  10   2 -10    0.10    2.00
 -10  -2  10    2.00    3.80
 -10  -2  10   -1.40    2.70
 -10   2   9   29.50    4.40
  10   2  -9   31.90    4.30
 -10   2   9   31.50    4.20
 -10   2   9   30.80    4.20
 -10  -2   9   24.20    5.20
 -10  -2   9   33.80    2.90
 -10  -2   9   35.60    4.60
 -10  -2   9   31.50    3.90
  10   2  -8   11.40    3.10
 -10   2   8   12.10    3.00
 -10  -2   8   15.30    1.80
 -10  -2   8   15.40    3.00
  10  -2  -8   15.30    2.60
 -10  -2   8   21.50    4.30
 -10  -2   8   10.60    2.40
  10   2  -7  162.18    8.70
  10   2  -7  156.78    7.60
 -10   2   7  143.79    8.10
 -10   2   7  136.29    7.70
 -10  -2   7  166.38    8.50
 -10  -2   7  158.48    9.20
 -10  -2   7  152.28    7.60
 -10  -2   7  154.58    6.70
  10  -2  -7  171.58    7.20
 -10   2   6  292.27   13.00
  10   2  -6  288.37   12.40
 -10   2   6  288.27   12.80
  10  -2  -6  318.37   12.10
 -10  -2   6  293.17   12.70
 -10  -2   6  299.57   11.80
 -10   2   5  294.27   12.30
 -10   2   5  292.47   12.00
 -10  -2   5  283.87   12.20
 -10  -2   5  273.77   12.90
 -10   2   4  428.46   16.00
 -10   2   4  421.26   15.90
  10  -2  -4  330.17   18.00
 -10  -2   4  421.26   16.80
 -10  -2   4  350.06   18.00
 -10  -2   4  402.16   16.00
 -10   2   3  225.98   11.50
 -10   2   3  249.28   10.10
 -10   2   3  247.78   10.10
 -10  -2   3  235.38   11.50
  10  -2  -3  229.38   12.10
 -10  -2   3  243.08   11.30
 -10  -2   3  252.37   10.50
 -10  -2   3  221.98   12.20
 -10   2   2  513.55   23.20
 -10   2   2  528.25   21.80
 -10   2   2  551.14   21.10
 -10   2   2  553.84   21.00
 -10  -2   2  530.95   21.20
 -10  -2   2  553.14   22.80
  10  -2  -2  536.95   22.30
 -10  -2   2  521.55   21.60
 -10   2   1   36.60    2.90
  10   2  -1   41.60    5.30
 -10   2   1   37.50    4.40
 -10   2   1   29.10    4.60
 -10   2   1   38.30    3.30
 -10  -2   1   31.10    4.60
  10  -2  -1   37.90    5.40
 -10  -2   1   34.10    5.60
 -10   2   0  117.09    5.70
 -10   2   0  118.09    6.70
 -10   2   0  116.19    6.50
  10   2   0  115.39    6.50
 -10   2   0  118.29    5.80
 -10  -2   0  105.99    7.80
  10  -2   0  114.89    7.60
 -10  -2   0  117.19    6.60
  10   2   1    4.50    2.30
 -10   2  -1    1.30    1.70
 -10   2  -1   -2.00    2.40
 -10  -2  -1    4.20    3.80
 -10  -2  -1    3.50    2.20
  10   2   2   29.70    5.80
 -10   2  -2   36.30    3.40
  10   2   2   39.80    4.00
 -10   2  -2   33.30    4.30
 -10   2  -2   26.50    3.60
 -10  -2  -2   35.40    4.20
  10   2   3  223.98    9.90
 -10   2  -3  233.68   10.50
 -10   2  -3  229.28    9.90
 -10  -2  -3  230.18   10.40
 -10  -2  -3  216.18    9.10
  10   2   4 1091.49   40.60
 -10   2  -4 1026.10   40.70
 -10   2  -4 1090.19   41.20
 -10  -2  -4 1045.30   40.00
 -10  -2  -4 1072.19   41.20
 -10   2  -5   33.40    4.30
  10   2   5   29.00    4.20
 -10  -2  -5   28.30    3.30
 -10  -2  -5   28.10    2.40
 -10   2  -6  260.77   11.40
  10   2   6  258.27   11.00
 -10  -2  -6  257.27   10.10
 -10  -2  -6  258.07   11.50
 -10   2  -7   75.39    5.10
 -10   2  -7   71.99    3.40
 -10  -2  -7   71.59    3.30
 -10  -2  -7   69.49    5.50
 -10   2  -8    5.30    2.50
 -10   2  -8    3.40    1.00
 -10  -2  -8    3.10    0.80
  10   3 -13   28.10    2.20
 -10  -3  13   23.50    3.40
  10   3 -12    2.60    1.40
 -10   3  12    2.20    2.00
 -10  -3  12    3.10    2.20
 -10   3  11  151.98    9.30
 -10   3  11  181.88    9.40
 -10   3  11  144.79    7.80
  10   3 -11  167.38    7.30
 -10  -3  11  154.08    7.90
 -10   3  10   37.60    6.40
  10   3 -10   36.90    3.70
 -10   3  10   38.50    4.50
 -10   3  10   44.20    5.90
 -10  -3  10   39.20    4.90
 -10  -3  10   43.80    3.00
 -10  -3  10   44.10    4.40
  10   3  -9   -1.20    2.10
 -10   3   9    0.40    2.50
 -10   3   9   -0.10    3.00
 -10   3   9    2.60    3.70
 -10  -3   9    0.70    1.30
 -10  -3   9    5.60    2.50
 -10  -3   9    3.20    2.60
 -10   3   8  106.29    7.30
  10   3  -8  134.19    7.00
  10  -3  -8  128.49    6.30
 -10  -3   8  128.79    5.50
 -10  -3   8  113.09    7.00
 -10  -3   8  130.19    6.90
  10   3  -7  268.37   11.30
 -10   3   7  217.38   11.00
 -10  -3   7  251.67   10.90
 -10  -3   7  228.98   11.40
 -10  -3   7  257.07   10.00
  10  -3  -7  264.07   10.30
  10   3  -6  105.99    6.80
 -10   3   6   99.39    5.80
 -10   3   6   89.19    5.60
 -10  -3   6   90.59    6.30
  10  -3  -6   94.89    5.00
 -10  -3   6   97.39    4.60
 -10   3   5    8.30    2.30
  10   3  -5   -2.70    7.50
  10   3  -5    9.00    2.60
 -10   3   5    6.90    1.80
 -10  -3   5    8.00    1.50
 -10  -3   5    5.80    2.90
  10  -3  -5   12.00    1.90
 -10  -3   5    5.10    2.70
 -10   3   4  214.28    8.80
 -10   3   4  207.08    8.70
 -10  -3   4  201.88    9.80
  10  -3  -4  158.58   11.80
 -10  -3   4  204.78    9.40
 -10  -3   4  180.58   12.10
  10   3  -3    3.00    3.40
 -10   3   3    3.10    1.80
 -10   3   3    0.90    3.30
 -10  -3   3    6.50    3.60
 -10  -3   3   -4.50    3.30
  10  -3  -3   -1.70    4.00
 -10  -3   3   -4.70    4.40
  10   3  -2   34.00    4.70
 -10   3   2   29.10    3.10
 -10   3   2   29.10    3.20
 -10   3   2   28.00    5.00
 -10  -3   2   30.90    4.80
 -10  -3   2   28.90    4.90
  10  -3  -2   26.40    4.50
 -10   3   1  285.37   12.40
 -10   3   1  272.67   12.40
 -10   3   1  258.97   13.00
  10   3  -1  290.77   12.80
  10   3  -1  288.57   11.90
 -10   3   1  280.77   11.60
 -10  -3   1  276.97   14.10
  10  -3  -1  269.07   13.30
 -10  -3   1  269.47   12.10
  10   3   0  758.22   30.00
  10   3   0  766.02   29.20
 -10   3   0  762.62   29.60
 -10   3   0  764.02   29.30
 -10   3   0  775.02   29.30
 -10  -3   0  747.63   29.60
 -10  -3   0  716.83   31.00
 -10   3  -1  172.78    7.90
  10   3   1  169.88    9.00
 -10   3  -1  170.78    8.50
 -10   3  -1  167.98    7.90
  10   3   1  164.98    8.60
 -10  -3  -1  168.98    8.50
 -10   3  -2   55.79    4.00
 -10   3  -2   55.49    4.90
  10   3   2   54.19    4.30
  10   3   2   58.49    5.80
 -10   3  -2   57.89    4.30
 -10  -3  -2   50.29    3.50
 -10  -3  -2   60.29    5.00
 -10   3  -3   25.10    3.10
 -10   3  -3   18.80    3.20
 -10   3  -3   21.80    3.00
  10   3   3   17.60    3.80
  10   3   3   18.30    2.50
 -10  -3  -3   20.20    2.50
 -10  -3  -3   23.00    3.10
 -10   3  -4   89.49    5.30
  10   3   4   90.69    7.80
  10   3   4   92.49    5.30
 -10   3  -4   83.59    5.80
 -10  -3  -4   93.99    6.00
 -10  -3  -4   87.49    4.20
  10   3   5    0.20    2.70
 -10   3  -5   -1.00    2.20
 -10  -3  -5    5.40    2.60
 -10  -3  -5    2.60    1.10
  10   3   6   91.99    5.30
 -10   3  -6   87.09    5.60
 -10  -3  -6   88.09    4.00
 -10  -3  -6   90.19    6.10
  10   3   7   53.29    4.60
 -10   3  -7   51.49    4.40
 -10  -3  -7   57.69    2.70
 -10  -3  -7   60.59    5.40
 -10   3  -8  282.17   11.90
 -10  -3  -8  295.07   11.00
  10   4 -12   33.50    2.60
 -10   4  12   34.20    3.60
 -10   4  11   30.50    4.10
  10   4 -11   41.80    3.10
 -10  -4  11   37.80    3.90
 -10   4  10   63.89    5.20
 -10   4  10   52.79    7.20
 -10   4  10   64.19    6.40
  10   4 -10   62.89    4.20
 -10  -4  10   65.19    3.30
 -10  -4  10   60.39    4.70
  10   4  -9   -1.60    2.00
 -10   4   9    1.90    3.20
 -10   4   9    3.80    2.80
 -10   4   9    2.50    4.40
 -10  -4   9    1.40    1.10
 -10  -4   9    2.20    2.30
  10   4  -8  930.41   35.10
  10  -4  -8  903.61   34.40
 -10  -4   8  924.91   34.20
 -10  -4   8  863.21   35.30
 -10   4   7  488.35   22.20
  10   4  -7  580.74   22.30
 -10  -4   7  574.04   21.30
 -10  -4   7  537.25   22.50
  10  -4  -7  602.44   21.50
  10   4  -6  254.97   10.60
 -10   4   6  228.48   10.30
 -10   4   6  200.98   10.20
  10  -4  -6  236.08    9.40
 -10  -4   6  226.98   10.70
 -10  -4   6  225.88    9.20
 -10   4   5 1952.20   71.79
 -10   4   5 1977.50   71.79
 -10  -4   5 1890.91   71.09
 -10  -4   5 1839.82   72.09
  10  -4  -5 1854.41   71.09
  10   4  -4   17.50    3.70
 -10   4   4   11.60    1.80
 -10   4   4   12.50    2.30
  10  -4  -4   14.30    1.90
 -10  -4   4   16.70    3.80
 -10  -4   4   14.50    3.50
 -10  -4   4   12.60    1.60
 -10   4   3  403.56   15.90
 -10   4   3  413.46   16.20
  10   4  -3  415.56   16.80
  10   4  -3  431.26   18.80
  10  -4  -3  395.16   15.60
 -10  -4   3  389.16   15.50
 -10  -4   3  379.66   16.80
 -10  -4   3  371.06   19.60
 -10   4   2  437.86   17.30
 -10   4   2  422.26   17.00
 -10   4   2  393.16   18.20
  10   4  -2  448.06   17.60
  10   4  -2  452.55   18.80
 -10  -4   2  393.96   20.40
 -10  -4   2  473.95   17.30
 -10  -4   2  424.56   17.90
  10  -4  -2  409.56   16.70
 -10   4   1  409.56   16.30
 -10   4   1  421.36   17.10
  10   4  -1  375.96   17.00
  10  -4  -1  412.86   15.90
  10   4   0  137.39    6.80
 -10   4   0  137.49    6.60
 -10   4   0  141.59    6.80
 -10   4   0  137.39    7.80
  10   4   0  137.79    7.90
  10  -4   0  129.89    6.40
 -10  -4   0  138.39    7.40
  10   4   1  337.77   14.20
 -10   4  -1  324.77   13.40
  10   4   1  313.97   13.20
 -10   4  -1  324.67   13.90
 -10   4  -1  317.37   13.40
  10  -4   1  298.97   12.80
 -10  -4  -1  308.37   12.60
 -10  -4  -1  328.87   13.90
 -10   4  -2   14.60    2.20
 -10   4  -2   16.20    2.80
 -10   4  -2   13.60    2.40
  10   4   2   13.50    2.30
  10   4   2   17.90    3.40
 -10  -4  -2   16.10    1.80
 -10  -4  -2   13.70    2.80
 -10   4  -3  547.95   22.30
  10   4   3  571.74   22.70
 -10   4  -3  534.85   22.20
  10   4   3  558.14   21.70
 -10   4  -3  522.25   21.80
 -10  -4  -3  552.44   22.40
 -10  -4  -3  567.84   21.70
  10   4   4  159.48    7.60
  10   4   4  164.28   11.10
 -10   4  -4  161.28    8.30
 -10   4  -4  149.09    7.60
 -10  -4  -4  177.28    8.50
 -10  -4  -4  158.38    6.70
 -10   4  -5  120.69    6.60
 -10   4  -5  121.89    6.80
  10   4   5  126.79    6.40
  10   4   5  130.89    8.90
 -10  -4  -5  128.49    5.40
 -10  -4  -5  129.29    7.20
 -10   4  -6    0.10    2.10
  10   4   6    1.80    2.10
 -10  -4  -6    2.00    0.90
 -10  -4  -6   -2.00    2.70
 -10   4  -7   12.30    2.40
  10   4   7   11.30    3.70
 -10  -4  -7   15.50    3.40
 -10  -4  -7   15.80    1.50
 -10   4  -8   36.80    3.90
 -10  -4  -8   36.30    2.00
 -10   5  12   14.10    2.20
  10   5 -12   21.00    2.00
 -10  -5  12   17.20    2.70
 -10   5  11    1.90    2.40
  10   5 -11    4.80    1.50
 -10  -5  11    2.80    1.90
 -10   5  10  126.89    8.40
 -10   5  10  132.49    7.30
  10   5 -10  138.79    6.60
 -10  -5  10  143.09    6.00
 -10  -5  10  145.59    7.00
 -10   5   9  378.36   18.40
 -10   5   9  363.86   17.50
 -10   5   9  416.46   18.00
  10   5  -9  464.55   17.40
 -10  -5   9  478.45   16.50
 -10  -5   9  459.25   17.60
  10   5  -8  356.46   14.80
 -10  -5   8  353.26   15.00
 -10  -5   8  350.06   13.70
  10  -5  -8  354.36   14.00
 -10   5   7   12.80    3.20
  10   5  -7   17.00    2.60
 -10   5   7    9.80    2.80
  10  -5  -7   18.00    2.00
 -10  -5   7   13.60    2.80
 -10  -5   7   17.20    1.90
 -10   5   6  397.26   18.50
 -10   5   6  486.35   18.70
  10   5  -6  495.95   18.80
 -10  -5   6  462.55   17.70
  10  -5  -6  468.85   17.80
 -10  -5   6  440.66   18.80
 -10   5   5  169.48    7.80
  10   5  -5  178.78    9.50
 -10   5   5  163.88    8.10
 -10  -5   5  153.58    8.70
 -10  -5   5  163.58    6.90
 -10  -5   5  169.98   10.10
  10  -5  -5  165.28    7.10
 -10   5   4 1038.80   39.20
  10   5  -4 1108.29   40.10
 -10   5   4 1017.80   39.20
 -10  -5   4 1029.60   38.70
  10  -5  -4 1007.60   38.70
 -10  -5   4  961.40   39.90
 -10   5   3   12.30    2.20
 -10   5   3   14.40    2.60
  10   5  -3    8.50    4.40
  10   5  -3   10.90    2.90
 -10  -5   3   13.50    1.50
 -10  -5   3   19.80    3.30
  10  -5  -3   14.40    1.70
 -10   5   2  535.65   20.90
 -10   5   2  526.55   20.60
  10   5  -2  546.35   21.20
  10   5  -2  551.44   22.40
 -10  -5   2  513.55   20.10
  10  -5  -2  515.15   20.20
 -10  -5   2  489.35   21.30
 -10   5   1    6.00    1.60
 -10   5   1    4.40    2.10
  10   5  -1    5.50    3.20
  10   5  -1    0.80    2.10
 -10   5   1    4.20    3.40
 -10  -5   1    5.10    1.90
 -10  -5   1    4.00    2.30
 -10  -5   1    4.40    1.60
  10  -5  -1    2.90    1.60
 -10   5   0  280.87   12.10
 -10   5   0  290.77   12.90
  10   5   0  282.77   13.20
 -10   5   0  288.07   12.20
  10   5   0  291.87   12.20
 -10  -5   0  287.17   12.70
 -10  -5   0  288.47   11.50
  10  -5   0  284.87   11.50
  10   5   1    2.60    2.00
  10   5   1   -2.50    2.90
 -10   5  -1    4.20    2.60
 -10   5  -1   -0.60    1.80
 -10   5  -1   -1.30    1.70
  10  -5   1    1.00    1.80
 -10  -5  -1    2.50    1.40
 -10  -5  -1    2.50    2.40
 -10   5  -2   22.10    3.20
 -10   5  -2   21.10    3.40
 -10   5  -2   19.90    3.00
  10   5   2   26.00    3.40
  10   5   2   20.00    3.70
  10  -5   2   23.40    3.60
 -10  -5  -2   24.60    3.40
 -10  -5  -2   16.90    2.90
 -10   5  -3  321.17   13.90
  10   5   3  326.67   13.40
 -10   5  -3  313.27   13.50
  10   5   3  334.77   14.70
 -10   5  -3  315.77   13.90
  10  -5   3  316.87   14.30
 -10  -5  -3  319.07   12.60
 -10  -5  -3  331.97   14.20
  10   5   4    3.70    3.60
 -10   5  -4   -0.90    2.20
 -10   5  -4    1.30    3.00
 -10  -5  -4    2.30    1.00
 -10  -5  -4    8.30    4.60
 -10   5  -5   37.40    4.00
  10   5   5   33.90    3.60
 -10   5  -5   38.90    3.80
  10   5   5   20.80    4.70
 -10  -5  -5   35.10    4.60
 -10  -5  -5   33.70    2.20
  10   5   6    2.00    2.00
 -10   5  -6    5.60    2.10
 -10  -5  -6    0.40    0.90
 -10  -5  -6   -3.80    2.90
 -10   5  -7    0.90    2.10
  10   5   7    1.50    2.10
 -10  -5  -7    1.50    0.80
  10   6 -11   37.70    2.70
 -10   6  11   37.10    4.10
 -10  -6  11   38.70    2.10
 -10  -6  11   36.60    3.40
 -10   6  10   34.80    4.90
  10   6 -10   37.10    3.20
 -10  -6  10   42.50    2.20
 -10  -6  10   38.30    3.50
 -10   6   9    8.60    3.80
  10   6  -9   11.70    2.00
 -10   6   9    4.40    3.20
 -10  -6   9   10.20    1.20
 -10  -6   9   11.90    2.40
 -10   6   8    8.40    3.20
  10   6  -8    7.50    2.00
  10  -6  -8    9.60    1.90
 -10  -6   8    6.10    2.50
 -10  -6   8    9.50    1.10
  10   6  -7   88.79    5.40
  10  -6  -7   87.09    4.40
 -10  -6   7   81.89    5.60
 -10  -6   7   86.29    4.00
  10   6  -6  218.18    9.90
  10   6  -6  230.58   11.30
  10  -6  -6  216.18    8.90
 -10  -6   6  211.08   10.20
 -10  -6   6  218.18    8.80
 -10   6   5    2.00    2.00
  10   6  -5    1.20    3.10
 -10  -6   5    3.70    3.20
 -10  -6   5    1.40    3.60
 -10  -6   5    3.90    1.30
  10   6  -4 1785.62   68.29
 -10   6   4 1733.73   65.79
  10   6  -4 1843.52   66.69
 -10   6   4 1726.93   65.79
 -10  -6   4 1658.93   66.39
 -10  -6   4 1736.03   65.29
  10   6  -3   26.70    3.50
  10   6  -3   34.90    5.40
 -10   6   3   27.00    4.20
 -10   6   3   35.20    2.90
 -10  -6   3   29.70    3.70
 -10  -6   3   32.20    2.40
  10   6  -2   20.10    4.40
 -10   6   2   15.10    2.60
 -10   6   2   20.50    2.70
  10   6  -2   17.90    2.90
  10  -6  -2   25.30    2.50
 -10  -6   2   10.60    2.90
 -10  -6   2   22.40    2.30
 -10   6   1   17.70    3.80
 -10   6   1   18.40    2.60
  10   6  -1   16.90    4.00
  10   6  -1   14.90    2.60
 -10   6   1   16.60    2.80
  10  -6  -1   12.80    1.70
 -10  -6   1   16.20    2.90
 -10  -6   1   18.60    1.80
  10   6   0  153.28    7.30
  10   6   0  148.59    8.70
 -10   6   0  148.19    7.30
 -10   6   0  148.69    7.20
 -10   6   0  138.19    8.10
 -10  -6   0  146.09    7.80
  10  -6   0  137.59    6.40
 -10  -6   0  148.69    6.40
 -10   6  -1  156.58    7.60
 -10   6  -1  156.18    7.50
  10   6   1  161.78    9.00
  10   6   1  152.78    7.40
 -10   6  -1  156.98    8.20
 -10  -6  -1  153.38    6.60
  10  -6   1  147.49    6.70
 -10  -6  -1  150.38    8.10
 -10   6  -2   57.39    5.10
  10   6   2   54.29    4.30
 -10   6  -2   51.59    4.10
  10   6   2   48.20    6.10
 -10   6  -2   54.49    4.40
 -10  -6  -2   62.99    5.10
  10  -6   2   54.89    3.80
 -10  -6  -2   52.19    3.00
  10  -6   2   58.59    5.60
 -10   6  -3   49.10    4.60
  10   6   3   53.29    6.30
 -10  -6  -3   47.50    2.80
 -10   6  -4  343.17   14.60
 -10   6  -4  343.37   14.20
  10   6   4  349.47   14.20
 -10   6  -4  330.87   14.90
  10   6   4  339.07   15.60
 -10  -6  -4  360.46   14.90
 -10  -6  -4  353.26   13.40
 -10   6  -5   31.90    3.60
 -10   6  -5   29.40    3.60
  10   6   5   29.90    3.40
 -10  -6  -5   30.80    4.80
 -10   6  -6  328.17   13.40
  10   6   6  329.97   13.20
 -10  -6  -6  313.77   13.80
 -10  -6  -6  328.27   12.50
  10   6   7   20.20    3.30
 -10   6  -7   17.40    2.30
 -10  -6  -7   20.10    1.40
  10   7 -11    1.40    1.10
 -10  -7  11    2.20    1.60
 -10  -7  11   -0.20    0.80
  10   7 -10   29.70    2.70
 -10  -7  10   30.80    2.10
 -10  -7  10   29.60    3.70
 -10  -7  10   32.70    1.80
  10   7  -9  187.38    8.20
 -10  -7   9  180.88    7.30
 -10  -7   9  185.78    8.30
  10   7  -8   -0.80    1.70
 -10   7   8   -0.10    3.70
 -10  -7   8    0.60    2.10
  10  -7  -8   -0.50    2.60
 -10  -7   8    1.20    0.80
 -10   7   7   13.20    3.30
  10   7  -7   15.50    2.40
 -10  -7   7   13.30    1.50
 -10  -7   7   13.00    2.60
  10  -7  -7   11.50    1.60
 -10   7   6   59.09    5.50
  10   7  -6   82.59    4.90
  10   7  -6   77.29    7.30
  10  -7  -6   75.19    3.70
 -10  -7   6   70.69    5.50
 -10  -7   6   67.89    3.40
  10   7  -5   35.80    5.50
  10  -7  -5   21.40    2.20
 -10  -7   5   24.10    3.90
 -10  -7   5   20.70    1.90
  10   7  -4   68.09    5.80
  10   7  -4   82.99   10.10
 -10   7   4   68.89    4.40
 -10  -7   4   68.99    3.50
 -10  -7   4   61.39    5.90
  10  -7  -4   68.29    3.60
 -10   7   3  631.64   24.60
 -10   7   3  615.44   24.30
  10   7  -3  651.53   25.30
  10   7  -3  643.04   27.20
 -10  -7   3  595.74   25.20
 -10  -7   3  618.44   23.90
  10  -7  -3  631.14   23.90
 -10   7   2  570.64   22.40
  10   7  -2  578.54   23.00
 -10   7   2  583.34   22.70
  10   7  -2  600.64   24.70
 -10  -7   2  560.54   21.80
  10  -7  -2  570.14   21.80
 -10  -7   2  529.55   23.00
  10   7  -1  175.98   10.20
  10   7  -1  166.78    8.10
 -10   7   1  181.48    9.30
 -10   7   1  167.68    8.00
 -10   7   1  162.08    7.70
  10  -7  -1  154.98    6.90
 -10  -7   1  151.28    6.80
 -10  -7   1  157.08    8.50
 -10   7   0  452.05   18.10
  10   7   0  450.65   18.10
 -10   7   0  449.06   18.60
  10   7   0  455.25   19.50
 -10   7   0  451.75   18.10
 -10  -7   0  427.26   18.50
  10  -7   0  425.26   17.10
 -10   7  -1  206.98    9.50
  10   7   1  204.08   11.10
 -10   7  -1  211.18   10.00
 -10   7  -1  211.88    9.40
  10   7   1  210.08    9.50
 -10  -7  -1  208.48   10.00
  10  -7   1  192.08    8.40
 -10  -7  -1  208.28    8.40
  10   7   2  546.65   21.20
  10   7   2  556.54   22.50
 -10   7  -2  511.65   21.50
 -10   7  -2  533.65   21.40
 -10   7  -2  532.45   21.20
 -10  -7  -2  532.05   21.70
  10  -7   2  513.75   20.40
 -10  -7  -2  538.15   20.40
 -10   7  -3    5.90    1.90
  10   7   3   11.40    4.00
 -10   7  -3    7.70    2.60
 -10   7  -3    9.40    2.40
  10   7   3    6.10    2.10
 -10  -7  -3    7.70    1.20
 -10  -7  -3    8.60    2.70
  10   7   4   60.49    4.20
 -10   7  -4   55.09    4.50
 -10   7  -4   58.79    4.00
 -10  -7  -4   54.49    5.10
 -10  -7  -4   60.19    3.60
  10   7   5   84.39    4.80
 -10   7  -5   86.09    4.90
 -10   7  -5   79.39    5.00
 -10  -7  -5   86.89    3.70
 -10  -7  -5   81.79    7.60
 -10   7  -6    6.30    1.90
  10   7   6   10.00    1.90
 -10  -7  -6    5.00    0.90
  10   8 -10   75.29    3.70
 -10  -8  10   72.19    3.00
 -10  -8  10   73.09    4.10
 -10  -8  10   70.19    3.20
  10   8  -9   83.39    4.20
 -10  -8   9   81.09    3.40
 -10  -8   9   79.29    4.50
 -10  -8   9   76.19    3.50
  10   8  -8   45.70    3.40
  10   8  -8   52.19    3.10
 -10  -8   8   45.30    2.30
 -10  -8   8   40.20    3.90
  10   8  -7  203.28    8.80
 -10  -8   7  186.48    7.80
 -10  -8   7  199.48    8.90
  10  -8  -7  195.68    7.90
  10   8  -6    9.30    3.50
  10   8  -6    2.20    1.80
 -10  -8   6    2.00    0.80
  10  -8  -6    2.10    1.10
 -10   8   5  102.49    6.30
  10   8  -5  117.29    5.90
  10   8  -5  114.09    7.20
  10  -8  -5  111.99    4.90
 -10  -8   5  103.59    4.70
 -10  -8   5  110.79    7.10
 -10   8   4    2.80    2.10
  10   8  -4   10.70    6.20
  10   8  -4    8.90    3.10
  10  -8  -4    1.00    1.10
 -10  -8   4    2.00    2.60
 -10  -8   4    0.90    0.90
 -10   8   3  307.27   12.60
  10   8  -3  300.47   14.10
  10   8  -3  322.27   16.20
 -10   8   3  317.17   13.00
 -10  -8   3  298.57   11.90
  10  -8  -3  314.67   12.10
 -10  -8   3  279.47   13.60
 -10   8   2   10.80    2.60
 -10   8   2    4.20    1.90
  10   8  -2    4.90    3.50
  10   8  -2    9.20    4.90
 -10  -8   2    7.90    1.20
 -10  -8   2    2.60    4.30
  10  -8  -2    9.50    1.40
  10   8  -1   23.00    5.00
  10   8  -1   31.60    4.10
 -10   8   1   29.80    4.00
 -10   8   1   37.50    3.50
 -10  -8   1   24.90    3.30
  10  -8  -1   31.70    2.30
 -10   8   0    3.20    2.00
  10   8   0    2.10    2.10
  10   8   0   -3.20    4.10
 -10   8   0    1.20    2.00
 -10   8   0    3.50    3.00
 -10  -8   0    2.60    2.50
  10  -8   0    1.60    1.20
 -10   8  -1    9.50    2.00
 -10   8  -1    8.10    2.30
 -10   8  -1    7.80    2.80
  10   8   1    4.80    2.20
  10   8   1   11.30    4.30
 -10  -8  -1    7.90    2.60
  10  -8   1    6.40    1.40
 -10   8  -2   64.69    5.10
 -10   8  -2   73.89    4.50
 -10   8  -2   72.29    5.20
  10   8   2   81.79    7.90
  10   8   2   75.29    4.80
 -10  -8  -2   67.29    5.20
 -10   8  -3   62.69    4.10
  10   8   3   67.89    4.50
 -10   8  -3   64.09    4.70
 -10  -8  -3   61.49    5.10
 -10  -8  -3   64.29    3.20
  10   8   4  144.89    6.90
 -10   8  -4  142.59    6.70
 -10   8  -4  140.39    7.00
 -10  -8  -4  145.89    5.90
 -10   8  -5  174.18    7.50
  10   8   5  174.08    7.60
 -10   8  -5  178.38    7.70
 -10  -8  -5  146.29    8.40
 -10  -8  -5  176.18    6.80
  10   9  -9    8.20    1.30
 -10  -9   9    8.50    0.90
 -10  -9   9    9.60    0.90
  10   9  -8   -0.60    1.20
 -10  -9   8   -0.40    0.70
 -10  -9   8   -0.60    0.50
  10   9  -7    1.40    1.40
 -10  -9   7    1.90    0.60
  10  -9  -7    2.20    1.20
 -10  -9   7    0.40    0.70
  10   9  -6   91.59    4.90
  10   9  -6  108.49    6.70
  10  -9  -6   90.79    4.10
 -10  -9   6   87.49    3.90
 -10  -9   6   86.99    4.00
  10   9  -5   10.70    3.00
  10   9  -5    8.40    1.90
 -10  -9   5    8.80    1.30
  10   9  -4    2.30    2.70
 -10  -9   4    1.90    0.80
 -10  -9   4    1.00    2.50
  10  -9  -4   -1.10    1.00
 -10   9   3  117.39    6.30
  10   9  -3  100.19   11.00
  10   9  -3  123.59    6.80
 -10  -9   3  118.59    4.90
 -10  -9   3  114.39    6.60
  10  -9  -3  118.29    5.10
 -10   9   2    6.20    2.40
 -10   9   2    7.10    2.20
  10   9  -2    1.80    2.40
  10   9  -2    4.00    5.40
 -10  -9   2    5.30    1.10
 -10  -9   2    5.10    1.70
 -10  -9   2    0.90    2.20
  10  -9  -2    3.70    1.20
  10   9  -1   51.39    4.40
  10   9  -1   46.00    6.20
 -10   9   1   47.30    4.20
 -10   9   1   49.90    4.30
 -10  -9   1   45.40    3.40
  10  -9  -1   46.80    2.70
 -10  -9   1   49.30    4.50
 -10   9   0   63.39    4.30
  10   9   0   62.39    4.60
 -10   9   0   66.29    4.70
  10   9   0   51.19    8.20
 -10   9   0   67.99    5.80
 -10  -9   0   60.79    4.80
  10  -9   0   59.99    3.20
 -10   9  -1  100.49    5.20
  10   9   1   92.79    5.50
 -10   9  -1   99.79    6.10
  10  -9   1   87.69    4.20
 -10  -9  -1   95.09    5.80
 -10   9  -2    2.20    1.70
  10   9   2   -1.80    1.90
 -10   9  -2    5.30    2.50
  10  -9   2    1.40    1.20
 -10  -9  -2    2.00    2.30
 -10   9  -3    2.50    2.20
 -10  -9  -3   10.20    2.60
 -10   9  -4   10.40    1.80
 -10   9  -4   13.80    2.10
  10   9   4    8.10    2.00
 -10  -9  -4   15.20    3.00
  10  10  -7    2.90    1.20
 -10 -10   7    1.20    0.70
 -10 -10   7    0.80    0.50
  10  10  -6   37.20    5.40
  10  10  -6   30.60    2.50
 -10 -10   6   27.30    1.60
 -10 -10   6   28.50    1.70
  10 -10  -6   28.30    2.00
  10  10  -5   -1.00    1.30
  10  10  -5   -1.00    2.70
 -10 -10   5   -0.40    0.60
  10 -10  -5    1.90    0.90
 -10 -10   5   -1.00    0.70
  10  10  -4   34.20    2.70
  10  10  -4   33.90    4.40
  10 -10  -4   33.50    1.90
 -10 -10   4   27.40    1.80
 -10 -10   4   26.80    1.70
  10  10  -3   33.90    4.10
 -10 -10   3   31.90    1.90
  10 -10  -3   35.10    2.10
 -10 -10   3   31.90    2.00
 -10 -10   3   34.60    3.90
 -10  10   2  153.98    7.20
  10  10  -2  153.38    7.50
  10 -10  -2  145.79    6.10
 -10 -10   2  147.39    6.00
 -10 -10   2  143.59    7.40
 -10  10   1   25.90    3.50
  10  10  -1   25.00    3.70
 -10 -10   1   22.30    1.90
  10 -10  -1   26.10    1.80
 -10 -10   1   27.40    3.10
 -10  10   0   90.39    4.80
  10  10   0   88.99    5.30
 -10 -10   0   84.99    5.40
  10 -10   0   82.59    3.80
  10  10   1   45.60    3.80
 -10  10  -1   33.40    4.70
 -10  10  -1   41.00    3.30
 -10 -10  -1   34.30    4.10
  10 -10   1   35.80    2.20
  10  10   2   48.60    3.90
 -10  10  -2   42.50    4.30
 -10  10  -2   52.49    3.30
  10 -10   2   48.30    2.60
 -10 -10  -2   49.00    4.10
  10  11  -4   61.59    4.90
  10  11  -4   61.19    3.30
  10 -11  -4   67.79    2.80
 -10 -11   4   63.79    2.70
 -10 -11   4   59.09    2.60
  10  11  -3   45.80    4.30
  10  11  -3   45.80    2.70
 -10 -11   3   43.60    2.50
  10 -11  -3   45.20    2.20
  10  11  -2   45.20    3.90
  10  11  -2   41.30    2.60
 -10 -11   2   39.10    2.00
  10 -11  -2   38.00    2.00
  10  11  -1   50.29    4.00
  10 -11  -1   47.60    2.30
 -11   0  13   10.30    3.20
 -11   0  13   -0.10    2.20
 -11   0  12   -0.70    2.10
 -11   0  12   -1.30    2.90
 -11   0  11    0.50    5.00
 -11   0  11   -3.20    2.80
 -11   0  11    1.00    2.20
 -11   0  10   76.19    5.10
 -11   0  10   73.69    7.90
 -11   0  10   68.29    6.00
 -11   0   9    0.00    3.90
  11   0  -9    1.50    2.60
 -11   0   9   -1.80    2.20
 -11   0   9    1.70    3.00
 -11   0   8    1.50    3.00
 -11   0   8    1.90    3.20
 -11   0   8    3.40    1.70
  11   0  -8    3.00    2.30
 -11   0   8   -1.50    2.00
 -11   0   7    0.00    2.80
 -11   0   7    2.70    1.50
  11   0  -7    2.10    2.00
 -11   0   6  173.28    8.10
 -11   0   6  165.38    7.20
 -11   0   6  174.38    8.90
 -11   0   5   -0.30    1.80
  11   0  -5    0.90    2.00
 -11   0   5    0.30    2.30
  11   0  -4  277.57   11.50
 -11   0   4  238.18   10.90
 -11   0   3   -0.20    2.00
 -11   0   3   -0.80    1.60
 -11   0   3    3.00    4.00
 -11   0   2  446.06   18.50
 -11   0   2  432.26   19.80
 -11   0   2  466.35   18.10
 -11   0   2  466.95   18.50
 -11   0   1    0.20    1.70
 -11   0   1    1.00    2.40
 -11   0   1    0.20    2.10
 -11   0   0    2.90    1.90
 -11   0   0    2.10    2.60
 -11   0  -1   -3.00    2.20
 -11   0  -1    2.10    2.20
 -11   0  -2  349.37   14.70
 -11   0  -3   -0.10    2.10
 -11   0  -4   68.39    5.10
 -11   0  -5    1.10    2.50
 -11   0  -6  127.19    5.40
 -11   0  -6  132.29    6.90
 -11   0  -7    0.60    2.50
 -11   0  -7    1.10    1.00
 -11   0  -8  175.28    6.80
 -11   1  13    8.30    2.10
 -11  -1  13   -0.40    2.70
 -11   1  12   -1.40    2.00
 -11  -1  12    3.20    2.70
 -11  -1  12    0.20    2.50
 -11   1  11   20.30    2.80
 -11   1  11   25.20    3.70
 -11   1  11   12.90    4.80
 -11  -1  11   19.10    3.10
 -11   1  10   50.89    5.80
 -11   1  10   48.40    6.90
 -11   1  10   50.89    4.60
 -11  -1  10   60.09    5.40
 -11  -1  10   57.19    4.60
 -11  -1  10   61.69    8.10
 -11   1   9  121.79    7.10
 -11   1   9  121.79    8.20
 -11   1   9  125.59    8.70
 -11  -1   9  140.29    7.10
  11  -1  -9  144.09    7.10
 -11  -1   9  135.49    7.90
 -11  -1   9  155.28    9.70
 -11  -1   9  146.29    6.10
  11   1  -8   16.00    2.60
 -11   1   8   10.00    2.20
 -11   1   8   14.30    2.60
 -11   1   8   12.20    3.30
 -11  -1   8   10.70    3.10
 -11  -1   8   12.80    2.50
  11  -1  -8   18.80    2.60
 -11  -1   8   15.70    1.80
 -11  -1   8   17.40    4.10
 -11   1   7   10.70    3.00
 -11   1   7   10.00    2.40
 -11   1   7   10.70    1.70
  11   1  -7    7.50    2.20
 -11  -1   7    8.30    1.60
 -11  -1   7    6.20    2.80
  11  -1  -7    8.90    2.00
 -11  -1   7    7.80    2.30
 -11  -1   7   10.50    3.40
 -11   1   6   19.60    2.60
  11   1  -6   18.30    2.50
 -11   1   6   20.80    3.10
  11  -1  -6   18.20    2.20
 -11  -1   6   21.30    2.40
 -11  -1   6   19.90    3.50
  11   1  -5  138.19    6.80
 -11   1   5  146.39    7.30
 -11   1   5  142.59    6.80
 -11  -1   5  138.89    7.90
 -11  -1   5  133.09    7.30
  11  -1  -5  141.79    6.60
 -11  -1   5  137.69    6.00
 -11   1   4   62.19    4.40
 -11   1   4   62.99    4.10
  11   1  -4   66.79    4.40
  11  -1  -4   56.79   10.00
  11  -1  -4   64.89    4.20
 -11  -1   4   60.69    5.40
 -11  -1   4   64.49    4.40
 -11   1   3  533.45   22.80
 -11   1   3  559.44   22.10
 -11   1   3  605.94   28.20
 -11  -1   3  592.24   22.90
  11  -1  -3  503.55   24.10
 -11  -1   3  537.65   23.40
 -11  -1   3  565.54   22.20
 -11  -1   3  624.94   27.80
 -11   1   2   42.60    3.50
 -11   1   2   50.09    5.20
 -11  -1   2   54.69    5.40
  11  -1  -2   42.80    7.40
 -11  -1   2   45.50    5.00
 -11  -1   2   45.20    4.00
 -11  -1   2   39.20    7.20
 -11   1   1  299.57   11.90
 -11   1   1  261.97   14.00
 -11   1   1  289.17   12.30
  11  -1  -1  265.67   14.00
 -11  -1   1  299.47   12.50
 -11  -1   1  287.17   12.10
 -11   1   0 1376.86   52.09
 -11   1   0 1396.96   52.19
 -11  -1   0 1412.86   51.99
 -11  -1   0 1285.57   53.09
 -11   1  -1  717.43   28.00
 -11   1  -1  701.83   28.10
 -11   1  -1  714.83   27.70
 -11  -1  -1  719.73   28.10
 -11   1  -2  262.67   11.40
 -11   1  -2  271.47   11.80
 -11  -1  -2  268.37   11.80
 -11   1  -3    9.80    2.40
 -11  -1  -3    8.90    2.60
 -11   1  -4   61.39    5.00
 -11  -1  -4   69.09    5.30
 -11   1  -5  430.76   17.60
 -11  -1  -5  418.66   16.40
 -11  -1  -5  435.96   17.70
 -11   1  -6  246.98   10.80
 -11  -1  -6  247.48   10.90
 -11  -1  -6  238.08    9.50
 -11   1  -7   42.30    4.10
 -11  -1  -7   46.10    2.40
 -11  -1  -8    8.40    1.00
 -11   2  13   49.60    3.80
 -11  -2  13   64.39    4.30
 -11   2  12   15.60    3.80
 -11   2  12   12.70    2.40
  11   2 -12   20.70    2.40
 -11  -2  12   15.20    2.70
 -11   2  11    6.80    3.50
 -11   2  11   -4.90    4.10
 -11   2  11    1.50    2.20
  11   2 -11    0.80    1.80
 -11  -2  11    0.20    2.40
 -11  -2  11    5.80    2.70
 -11   2  10  105.09    8.00
 -11   2  10   97.19    7.30
 -11   2  10   90.79    6.20
 -11  -2  10  115.59    6.20
 -11  -2  10  118.99    6.70
 -11   2   9   21.30    4.00
  11   2  -9   28.50    4.00
 -11   2   9   17.70    6.20
 -11   2   9   19.70    3.10
 -11  -2   9   23.40    3.60
 -11  -2   9   31.90    4.10
  11  -2  -9   30.40    3.10
 -11  -2   9   25.80    2.60
 -11   2   8   21.10    3.70
 -11  -2   8   26.40    3.80
 -11  -2   8   22.30    5.30
 -11  -2   8   18.10    3.30
 -11   2   7  362.26   14.60
  11   2  -7  371.06   15.10
 -11   2   7  386.06   15.50
 -11   2   7  351.16   16.10
 -11  -2   7  363.56   15.40
 -11  -2   7  367.56   17.00
  11  -2  -7  404.86   14.80
 -11  -2   7  369.56   14.50
 -11  -2   7  367.76   16.00
  11   2  -6  956.80   36.60
 -11   2   6  980.10   37.50
 -11   2   6  998.10   37.00
 -11  -2   6  904.51   37.50
  11  -2  -6  962.60   36.30
 -11  -2   6  937.81   37.00
 -11  -2   6  969.80   38.10
 -11  -2   6  972.50   36.20
 -11   2   5  180.88    8.20
 -11   2   5  169.38    7.90
  11   2  -5  167.98    7.90
 -11  -2   5  161.18    8.70
 -11  -2   5  160.78    9.60
 -11  -2   5  165.28    7.10
 -11  -2   5  173.28    8.10
 -11   2   4   48.40    5.30
  11   2  -4   51.59    4.40
 -11   2   4   53.39    3.80
 -11  -2   4   46.60    3.00
 -11  -2   4   64.39    6.30
  11  -2  -4   44.60    3.60
 -11   2   3   75.39    4.70
  11   2  -3   84.99    5.20
  11  -2  -3   74.89    9.20
 -11  -2   3   75.19    3.90
 -11  -2   3   73.69    6.60
 -11  -2   3   74.49    5.30
  11  -2  -3   79.19    4.40
 -11   2   2   55.79    5.90
  11   2  -2   69.39    6.30
 -11   2   2   60.89    4.50
 -11   2   2   72.29    4.20
 -11  -2   2   69.39    5.30
 -11  -2   2   64.39    3.50
  11  -2  -2   62.29    4.20
 -11  -2   2   66.89    5.70
  11  -2  -2   58.39   11.10
 -11   2   1    1.10    1.60
 -11   2   1    0.90    2.70
 -11   2   1    3.10    1.60
  11  -2  -1   -2.50    2.00
 -11  -2   1    2.20    3.20
 -11  -2   1   -0.10    1.40
 -11   2   0  242.28   10.90
 -11   2   0  246.68   10.30
 -11   2   0  244.28   10.50
 -11  -2   0  241.78    9.70
 -11  -2   0  234.18   10.80
  11  -2   0  229.48   10.20
 -11   2  -1  287.87   12.80
  11   2   1  308.67   12.90
 -11   2  -1  288.77   12.30
 -11   2  -1  302.17   12.80
 -11  -2  -1  289.97   12.80
 -11   2  -2  414.76   17.40
 -11   2  -2  420.96   17.00
 -11   2  -2  418.36   17.60
  11   2   2  418.16   17.20
 -11  -2  -2  438.36   17.60
  11   2   3   28.30    4.70
 -11   2  -3   27.30    3.80
 -11   2  -3   33.00    4.00
 -11  -2  -3   29.70    4.20
  11   2   4    2.20    3.00
 -11   2  -4    2.60    2.30
 -11  -2  -4    4.60    2.50
 -11  -2  -4    3.20    1.40
 -11   2  -5   10.90    2.40
 -11  -2  -5    7.10    1.30
 -11  -2  -5    6.00    2.60
 -11   2  -6    1.20    2.20
 -11  -2  -6   -0.80    1.00
 -11  -2  -6   -0.70    2.40
 -11  -2  -7    7.50    2.80
 -11  -2  -7    4.70    1.00
 -11  -2  -8   23.50    1.60
  11   3 -12   11.30    1.50
  11   3 -11   22.20    2.70
 -11   3  11   10.30    4.00
 -11  -3  11   22.10    3.60
 -11   3  10  277.07   14.50
 -11  -3  10  354.96   13.80
 -11   3   9    6.80    4.20
 -11   3   9   11.90    2.90
 -11   3   9   13.60    3.80
  11   3  -9   15.10    2.40
  11  -3  -9    9.30    2.60
 -11  -3   9   12.60    1.50
 -11  -3   9   11.40    4.00
 -11  -3   9   15.80    3.00
 -11   3   8  823.42   36.40
  11   3  -8 1007.30   36.20
 -11  -3   8  951.60   35.50
  11  -3  -8  979.50   35.70
 -11  -3   8  943.21   36.20
 -11  -3   8  937.61   36.80
 -11   3   7   35.90    4.90
 -11   3   7   39.90    4.30
  11   3  -7   48.80    4.90
 -11  -3   7   45.90    4.70
 -11  -3   7   42.80    2.80
  11  -3  -7   46.50    3.30
 -11  -3   7   38.90    4.80
 -11   3   6  649.14   26.50
  11   3  -6  707.33   26.30
 -11   3   6  658.73   26.10
 -11  -3   6  643.84   26.10
 -11  -3   6  659.13   26.70
 -11  -3   6  658.83   25.30
  11  -3  -6  681.03   25.50
 -11   3   5    2.40    1.90
 -11   3   5    1.90    1.80
  11   3  -5    2.10    2.10
 -11  -3   5    0.10    2.90
 -11  -3   5    2.10    1.20
  11  -3  -5    2.70    1.60
 -11  -3   5    3.00    2.90
 -11   3   4    9.40    2.00
  11   3  -4   11.30    2.50
 -11  -3   4    9.60    1.40
  11  -3  -4    8.50    1.60
 -11   3   3    3.80    1.70
 -11   3   3    3.10    1.50
  11   3  -3    3.10    2.50
  11  -3  -3    0.80    1.60
 -11  -3   3    1.00    1.30
 -11  -3   3    2.30    3.90
 -11   3   2 2168.08   80.69
 -11   3   2 2102.49   80.79
  11   3  -2 2063.19   80.49
  11   3  -2 2180.38   80.99
  11  -3  -2 2141.79   80.19
 -11  -3   2 2243.48   80.19
 -11  -3   2 2142.89   81.29
 -11   3   1  122.19    7.40
 -11   3   1  123.59    6.00
 -11   3   1  119.29    6.00
 -11  -3   1  117.29    6.90
  11  -3  -1  110.39    5.70
 -11  -3   1  120.99    5.50
 -11   3   0  328.27   13.50
 -11   3   0  319.07   13.10
 -11   3   0  305.47   12.90
  11   3   0  302.47   13.20
 -11  -3   0  312.37   12.30
  11  -3   0  289.67   12.50
 -11  -3   0  314.37   13.40
  11   3   1  573.04   22.80
 -11   3  -1  568.44   22.70
 -11   3  -1  587.84   23.10
 -11   3  -1  572.04   23.00
 -11  -3  -1  582.74   23.20
  11   3   2    7.20    2.50
 -11   3  -2   13.30    2.70
 -11   3  -2   10.40    2.50
 -11   3  -2   11.70    2.10
 -11  -3  -2    8.40    2.50
  11   3   3   20.10    2.90
 -11   3  -3   19.90    3.30
 -11   3  -3   18.70    2.90
 -11  -3  -3   21.10    3.10
 -11  -3  -3   23.80    2.50
 -11   3  -4   76.69    5.70
 -11   3  -4   67.79    5.30
  11   3   4   76.99    7.40
 -11  -3  -4   79.29    7.70
 -11  -3  -4   73.89    3.70
  11   3   5   32.50    4.30
 -11   3  -5   36.60    3.90
 -11  -3  -5   38.70    4.50
 -11  -3  -5   34.60    2.30
 -11   3  -6  237.98   10.30
 -11  -3  -6  236.08    9.20
 -11  -3  -6  230.38   10.50
 -11   3  -7   17.60    2.60
 -11  -3  -7   18.90    1.60
 -11  -3  -7   23.50    3.20
  11   4 -12  205.48    7.60
 -11  -4  12  164.58    8.10
 -11   4  11   16.40    2.70
  11   4 -11   20.70    2.50
 -11  -4  11   19.20    2.70
 -11  -4  10  125.99    6.70
 -11  -4  10  128.49    5.70
  11   4  -9  135.09    6.50
 -11  -4   9  121.29    6.90
  11  -4  -9  129.89    6.90
 -11  -4   9  129.49    5.50
  11   4  -8   24.60    3.70
 -11   4   8   14.80    3.00
 -11  -4   8   24.60    4.10
  11  -4  -8   23.70    3.00
 -11  -4   8   21.00    2.10
  11   4  -7 1122.99   41.00
 -11   4   7 1064.09   41.10
 -11  -4   7 1031.00   40.10
 -11  -4   7 1040.40   41.30
  11  -4  -7 1078.39   40.30
  11   4  -6   61.39    5.10
 -11   4   6   60.69    4.70
 -11   4   6   68.39    4.90
 -11  -4   6   51.49    5.30
 -11  -4   6   59.59    3.20
  11  -4  -6   58.59    3.60
 -11   4   5   67.19    4.50
 -11   4   5   66.19    4.50
 -11  -4   5   80.99    5.90
 -11  -4   5   62.09    3.50
  11  -4  -5   66.49    3.70
 -11   4   4   69.29    4.40
 -11   4   4   62.49    4.10
 -11  -4   4   71.19    3.60
  11  -4  -4   64.69    3.70
 -11  -4   4   66.29    6.80
 -11  -4   4   60.69    6.30
 -11   4   3   10.60    1.80
 -11   4   3   11.20    2.00
  11   4  -3    6.10    3.40
  11  -4  -3   11.10    1.70
 -11  -4   3   10.90    3.10
 -11  -4   3    8.10    1.40
 -11   4   2   16.20    2.60
 -11   4   2   14.90    2.20
  11   4  -2   13.10    3.00
  11  -4  -2   16.50    1.90
 -11  -4   2   15.90    1.70
 -11  -4   2   17.70    3.00
 -11   4   1  235.88   11.00
  11   4  -1  234.18   13.20
 -11   4   1  210.18    9.90
 -11   4   1  230.28   10.00
  11   4  -1  232.98   10.40
  11  -4  -1  223.18    9.40
 -11  -4   1  236.78    9.30
 -11  -4   1  225.98   10.70
  11   4   0  426.76   18.40
  11   4   0  402.66   17.00
 -11   4   0  421.16   17.40
 -11   4   0  418.36   16.90
 -11   4   0  422.26   17.10
  11  -4   0  407.36   16.30
 -11  -4   0  427.86   17.50
 -11   4  -1  332.87   14.10
 -11   4  -1  347.87   14.70
  11   4   1  345.17   14.20
  11   4   1  341.27   15.80
 -11   4  -1  336.77   14.40
 -11  -4  -1  355.66   14.80
 -11  -4  -1  346.97   14.10
  11  -4   1  323.77   13.60
 -11   4  -2   14.70    2.70
  11   4   2    8.80    4.40
 -11   4  -2   12.70    2.10
  11   4   2   11.80    2.50
 -11   4  -2   11.70    2.50
 -11  -4  -2   11.10    1.70
 -11  -4  -2   10.40    2.70
 -11   4  -3   74.19    5.90
  11   4   3   73.69    5.10
  11   4   3   80.59    8.50
 -11   4  -3   72.89    5.40
 -11   4  -3   72.29    4.70
 -11  -4  -3   72.19    5.60
 -11  -4  -3   76.59    3.80
 -11   4  -4   52.49    4.50
 -11   4  -4   48.80    4.10
  11   4   4   47.10    4.30
 -11  -4  -4   41.90    4.90
 -11  -4  -4   48.20    2.80
  11   4   5    4.90    2.40
 -11   4  -5    2.10    2.10
 -11  -4  -5    4.20    2.60
 -11  -4  -5    2.80    1.10
 -11   4  -6    3.10    2.10
 -11  -4  -6   -0.60    2.60
 -11  -4  -6    0.10    0.90
 -11   4  -7   27.10    3.30
 -11  -4  -7   24.40    1.70
 -11   5  12    1.90    2.00
 -11  -5  12    9.60    1.90
 -11  -5  11  128.39    6.10
 -11  -5  11  117.49    5.10
  11   5 -10   74.09    4.20
 -11  -5  10   66.19    3.30
 -11  -5  10   69.49    4.60
  11   5  -9   84.89    4.80
 -11  -5   9   83.69    3.90
 -11  -5   9   87.49    5.30
 -11   5   8    9.10    3.20
  11   5  -8   11.20    2.10
 -11   5   8    9.10    2.90
 -11  -5   8   10.60    2.60
 -11  -5   8   10.00    1.30
  11  -5  -8   14.60    1.80
 -11   5   7  253.27   11.20
 -11   5   7  202.48   13.10
  11   5  -7  276.97   11.00
 -11  -5   7  249.38    9.90
  11  -5  -7  259.47   10.10
 -11  -5   7  239.78   11.20
  11   5  -6    6.00    2.20
 -11   5   6   11.60    2.60
 -11   5   6    9.20    2.60
 -11  -5   6    9.50    1.30
  11  -5  -6    9.00    1.50
 -11  -5   6    9.80    2.90
 -11   5   5  422.56   16.80
 -11   5   5  435.46   17.00
 -11  -5   5  403.66   16.10
 -11  -5   5  409.66   17.40
  11  -5  -5  406.66   16.30
 -11   5   4   10.20    1.90
  11   5  -4   10.50    3.50
 -11   5   4    7.60    2.10
 -11  -5   4   14.30    3.80
  11  -5  -4    6.80    1.50
 -11  -5   4    8.20    1.30
  11   5  -3  307.67   13.40
 -11   5   3  304.97   12.60
 -11   5   3  298.07   12.50
 -11  -5   3  305.17   11.90
 -11  -5   3  280.87   13.40
  11  -5  -3  313.57   12.00
  11   5  -2    3.30    4.60
 -11   5   2    1.90    1.80
 -11   5   2    0.90    1.50
  11   5  -2    2.50    2.50
 -11  -5   2    0.50    2.60
 -11  -5   2    1.50    1.30
  11  -5  -2    2.40    1.50
 -11   5   1  753.42   29.00
 -11   5   1  761.62   29.40
  11   5  -1  749.23   29.10
  11   5  -1  731.03   30.50
 -11   5   1  749.13   29.00
 -11  -5   1  737.63   29.40
 -11  -5   1  743.63   28.20
  11  -5  -1  727.43   28.30
 -11   5   0   19.30    3.30
 -11   5   0   17.40    2.40
 -11   5   0   15.20    2.40
  11   5   0   14.20    2.50
  11   5   0   16.60    4.30
  11  -5   0   14.60    2.40
 -11  -5   0   16.10    2.00
 -11  -5   0   13.60    2.70
 -11   5  -1   71.99    4.80
  11   5   1   58.49    7.40
 -11   5  -1   71.39    5.50
 -11   5  -1   68.19    4.40
  11   5   1   66.89    4.90
 -11  -5  -1   70.19    5.40
 -11  -5  -1   67.39    3.80
  11  -5   1   69.09    4.20
  11   5   2   39.60    7.50
  11   5   2   46.40    4.30
 -11   5  -2   44.10    4.60
 -11   5  -2   47.20    3.90
 -11  -5  -2   48.70    4.90
 -11  -5  -2   44.60    2.90
 -11   5  -3   17.70    2.80
 -11   5  -3   18.20    3.10
  11   5   3   14.70    2.60
 -11   5  -3   16.60    2.40
  11   5   3   16.00    4.80
 -11  -5  -3   17.90    2.90
 -11  -5  -3   17.70    2.00
 -11   5  -4  231.98   10.40
  11   5   4  232.98   10.10
 -11   5  -4  238.88   10.10
  11   5   4  208.78   13.10
 -11  -5  -4  242.18   10.70
 -11  -5  -4  228.38    9.20
 -11   5  -5   49.30    4.10
  11   5   5   45.50    4.10
 -11  -5  -5   48.10    4.70
 -11  -5  -5   48.10    2.60
  11   5   6  336.67   13.80
 -11  -5  -6  342.57   14.20
 -11  -5  -6  349.37   13.10
 -11   5  -7   89.09    4.70
 -11  -5  -7   81.19    3.70
  11   6 -11    5.60    1.20
 -11   6  11   -0.90    2.30
 -11  -6  11    4.90    1.70
 -11  -6  11    5.10    0.90
  11   6 -10   59.89    3.40
 -11   6  10   38.10    4.80
 -11  -6  10   53.09    2.60
 -11  -6  10   51.19    3.80
 -11   6   9    1.10    2.80
 -11  -6   9    0.60    1.20
 -11  -6   9    4.10    2.10
 -11   6   8   34.10    5.00
  11   6  -8   38.80    3.50
 -11   6   8   25.00    4.10
 -11  -6   8   35.90    2.20
  11  -6  -8   41.50    2.90
 -11  -6   8   40.10    4.20
 -11   6   7    0.10    2.90
 -11   6   7    6.50    2.90
  11   6  -7   -0.50    1.80
  11  -6  -7    2.10    1.40
 -11  -6   7    2.20    2.60
 -11  -6   7    0.40    0.90
 -11   6   6   46.40    4.60
 -11   6   6   33.10    5.30
  11   6  -6   35.60    3.70
 -11  -6   6   29.80    2.20
 -11  -6   6   40.00    4.90
  11  -6  -6   34.50    2.60
 -11   6   5  142.99    7.10
  11   6  -5  144.69    8.60
 -11   6   5  142.79    7.10
  11  -6  -5  137.79    6.00
 -11  -6   5  133.89    5.90
 -11  -6   5  126.89    8.90
 -11   6   4   12.50    2.20
 -11   6   4   13.80    2.40
  11   6  -4   17.20    3.40
  11  -6  -4   12.40    1.60
 -11  -6   4   17.60    1.90
 -11  -6   4   12.70    3.40
  11   6  -3  271.07   12.00
 -11   6   3  259.17   11.30
 -11   6   3  261.27   11.10
  11   6  -3  257.17   18.80
 -11  -6   3  257.07   12.10
 -11  -6   3  264.97   10.50
  11  -6  -3  266.37   10.60
  11   6  -2  208.48    9.70
 -11   6   2  196.78    9.10
 -11   6   2  221.98    9.40
  11   6  -2  207.28   12.40
 -11  -6   2  197.98   10.00
  11  -6  -2  205.58    8.50
 -11  -6   2  205.18    8.40
  11   6  -1  346.37   16.10
 -11   6   1  330.67   13.80
  11   6  -1  334.57   14.10
 -11   6   1  341.77   14.70
 -11   6   1  338.87   13.90
  11  -6  -1  317.17   13.00
 -11  -6   1  325.17   14.40
 -11  -6   1  323.17   13.00
 -11   6   0   56.19    4.30
  11   6   0   54.89    4.70
  11   6   0   62.89    7.50
 -11   6   0   55.79    4.20
 -11   6   0   60.79    5.70
 -11  -6   0   60.69    3.40
 -11  -6   0   57.79    5.10
  11  -6   0   55.29    3.40
 -11   6  -1   65.09    5.50
 -11   6  -1   69.89    4.90
  11   6   1   73.99    5.10
  11   6   1   87.49    7.90
 -11   6  -1   69.89    4.60
 -11  -6  -1   72.09    5.60
 -11  -6  -1   71.19    3.70
  11  -6   1   64.19    3.90
 -11   6  -2    0.20    2.40
  11   6   2   -0.60    4.30
 -11   6  -2    2.70    2.40
 -11   6  -2    0.80    1.70
  11   6   2    2.70    2.20
 -11  -6  -2    2.00    2.40
 -11  -6  -2    0.30    1.10
  11   6   3   19.70    5.00
 -11   6  -3   19.70    2.80
  11   6   3   29.60    3.60
 -11   6  -3   20.70    3.30
 -11   6  -3   25.80    3.10
 -11  -6  -3   22.00    2.10
 -11  -6  -3   25.60    4.00
 -11   6  -4   73.69    4.50
  11   6   4   76.69    4.70
 -11   6  -4   68.29    4.80
 -11  -6  -4   75.69    5.40
 -11  -6  -4   69.99    3.40
  11   6   5   49.10    4.10
 -11   6  -5   44.30    4.20
 -11   6  -5   46.50    3.90
 -11  -6  -5   47.40    2.50
 -11  -6  -5   48.70    6.40
  11   6   6    5.80    2.30
 -11   6  -6    5.30    1.80
 -11  -6  -6    5.20    0.90
  11   7 -10   60.59    3.20
 -11  -7  10   50.49    3.10
 -11  -7  10   56.09    2.50
 -11  -7  10   56.19    3.60
  11   7  -9   26.10    2.50
 -11  -7   9   24.50    3.20
 -11  -7   9   22.40    1.60
  11  -7  -8  125.19    5.30
 -11  -7   8  114.09    5.40
 -11  -7   8  122.39    6.20
  11   7  -7    1.20    1.70
 -11   7   7    2.70    3.40
 -11  -7   7    2.10    0.80
  11  -7  -7    1.20    1.20
 -11  -7   7   -2.40    2.50
  11   7  -6    1.50    1.80
 -11   7   6    7.80    3.00
  11  -7  -6    5.40    1.20
 -11  -7   6    2.60    0.90
  11   7  -5  112.99    7.40
 -11   7   5  114.09    6.10
 -11   7   5  111.89    6.20
  11  -7  -5  105.59    4.90
 -11  -7   5  108.69    4.70
 -11  -7   5   95.79    7.30
 -11   7   4  546.45   21.10
 -11   7   4  548.55   21.10
 -11  -7   4  548.05   20.40
 -11  -7   4  471.95   23.40
  11  -7  -4  544.85   20.40
 -11   7   3  320.87   13.30
  11   7  -3  319.67   17.10
  11   7  -3  319.97   14.10
  11  -7  -3  326.57   12.60
 -11  -7   3  311.67   14.40
 -11  -7   3  318.07   12.50
  11   7  -2  140.19   10.90
  11   7  -2  138.29    7.60
 -11   7   2  148.29    6.90
 -11   7   2  138.49    8.10
  11  -7  -2  141.79    6.10
 -11  -7   2  132.49    7.80
 -11  -7   2  142.79    5.90
  11   7  -1   90.09    8.90
 -11   7   1   86.39   10.60
 -11   7   1   86.69    5.20
  11  -7  -1   90.19    4.20
 -11  -7   1   81.59    7.90
 -11   7   0  479.45   18.70
  11   7   0  444.56   20.40
 -11   7   0  473.75   19.00
 -11   7   0  470.95   18.60
  11   7   0  473.25   18.80
  11  -7   0  440.56   17.70
 -11  -7   0  448.76   19.00
  11   7   1    1.20    4.60
 -11   7  -1    3.20    1.80
  11   7   1    2.60    2.20
 -11   7  -1    5.10    2.20
 -11   7  -1    5.30    2.70
 -11  -7  -1    4.40    2.50
  11  -7   1    2.90    1.40
  11   7   2    4.10    4.90
  11   7   2   -0.10    2.10
 -11   7  -2    1.10    2.40
 -11   7  -2    0.80    1.60
 -11   7  -2    2.90    2.50
 -11  -7  -2    4.90    2.50
 -11  -7  -2    0.30    1.10
  11  -7   2    0.00    2.70
 -11   7  -3  148.19    7.00
  11   7   3  157.98    7.40
 -11   7  -3  137.79    7.40
 -11  -7  -3  162.38    7.80
 -11  -7  -3  157.68    6.30
 -11   7  -4    4.20    1.80
 -11   7  -4    1.80    2.00
  11   7   4    4.40    2.10
 -11  -7  -4    4.70    2.60
 -11  -7  -4    2.40    0.90
 -11   7  -5   52.19    3.60
 -11   7  -5   37.30    4.10
  11   7   5   45.70    3.80
 -11  -7  -5   46.00    4.80
 -11  -7  -5   45.30    2.30
  11   8  -9   49.10    2.80
 -11  -8   9   43.10    2.10
 -11  -8   9   43.10    3.80
 -11  -8   9   43.20    2.20
  11   8  -8   25.50    2.40
  11  -8  -8   27.00    2.40
 -11  -8   8   18.10    1.40
  11   8  -7   39.60    3.10
  11  -8  -7   37.70    2.40
 -11  -8   7   31.70    1.90
  11   8  -6   93.59    5.00
 -11  -8   6   88.99    4.00
  11   8  -5    8.20    1.90
  11   8  -5    9.40    3.30
 -11   8   5    9.60    3.10
 -11  -8   5   12.10    3.30
  11  -8  -5    9.60    1.30
 -11  -8   5    8.90    1.10
 -11   8   4   26.20    4.10
  11   8  -4   38.10    4.90
  11  -8  -4   33.30    2.30
 -11  -8   4   38.20    4.90
 -11  -8   4   32.20    2.00
 -11   8   3   65.09    4.60
  11   8  -3   69.79   11.10
 -11   8   3   64.79    4.50
  11   8  -3   62.79    5.20
 -11  -8   3   56.59    5.20
  11  -8  -3   61.59    3.20
 -11  -8   3   56.69    3.00
  11   8  -2   25.70    6.30
  11   8  -2   28.30    4.10
 -11   8   2   28.00    3.50
 -11   8   2   29.50    3.70
 -11  -8   2   25.70    2.10
 -11  -8   2   25.60    3.30
  11  -8  -2   26.30    2.20
  11   8  -1    8.50    5.50
 -11   8   1    9.00    2.30
 -11   8   1    8.60    2.20
  11   8  -1   10.80    2.50
 -11  -8   1   10.40    2.70
  11  -8  -1    8.40    1.30
  11   8   0   -7.90    5.10
 -11   8   0   -0.10    1.80
 -11   8   0    1.60    3.10
 -11   8   0   -4.10    2.20
  11   8   0    1.60    2.20
  11  -8   0    0.20    1.10
 -11  -8   0    1.90    2.40
 -11   8  -1   68.39    5.30
 -11   8  -1   68.29    4.20
  11   8   1   67.39    4.70
 -11  -8  -1   73.29    5.20
  11  -8   1   58.59    3.40
  11   8   2  146.89    7.20
 -11   8  -2  142.99    6.80
 -11   8  -2  153.58    7.40
  11  -8   2  144.09    6.20
 -11  -8  -2  152.68    7.60
 -11   8  -3    2.70    2.90
  11   8   3    0.80    2.10
 -11   8  -3    1.60    1.60
  11   8   4   75.29    4.60
 -11   8  -4   74.89    4.40
 -11   8  -4   73.99    4.10
 -11  -8  -4   71.69    5.10
  11   9  -8   51.09    2.80
 -11  -9   8   46.50    2.20
 -11  -9   8   48.10    2.30
  11   9  -7    4.00    1.30
  11  -9  -7    4.20    1.10
 -11  -9   7    3.80    0.70
 -11  -9   7    4.40    0.80
  11   9  -6    5.10    1.50
  11  -9  -6    3.60    1.00
 -11  -9   6    4.40    0.90
 -11  -9   6    5.30    0.80
  11   9  -5   16.40    2.40
 -11  -9   5   18.20    1.40
  11  -9  -5   18.20    1.70
  11   9  -4  127.39    5.90
  11   9  -4  122.69    7.10
  11  -9  -4  124.49    5.20
 -11  -9   4  123.49    5.10
 -11  -9   4  119.19    6.80
 -11   9   3   25.10    2.80
  11   9  -3   23.10    3.20
 -11  -9   3   27.90    1.70
  11  -9  -3   26.40    1.90
 -11  -9   3   18.30    2.90
 -11  -9   3   26.20    1.80
 -11   9   2   67.89    4.50
  11   9  -2   66.69    5.00
  11  -9  -2   67.69    3.30
 -11  -9   2   64.89    4.90
 -11  -9   2   66.99    3.20
 -11  -9   2   72.09    3.90
  11   9  -1   84.39    5.30
 -11   9   1   81.99    4.70
 -11  -9   1   78.79    5.20
  11  -9  -1   74.39    3.60
 -11  -9   1   74.79    3.60
 -11   9   0    3.40    1.70
  11   9   0    5.00    2.20
 -11  -9   0    1.50    2.30
  11  -9   0    5.80    1.10
 -11   9  -1    5.20    2.70
 -11   9  -1    1.00    1.50
  11   9   1    2.00    2.00
  11  -9   1    0.20    1.10
 -11  -9  -1   -3.80    2.20
  11   9   2  199.78    9.00
 -11   9  -2  203.98    8.60
 -11   9  -2  210.78    9.00
 -11  -9  -2  226.68    9.30
  11  -9   2  175.78    8.60
  11   9   3   77.09    4.70
 -11   9  -3   81.69    4.20
 -11   9  -3   80.19    4.70
 -11  -9  -3   81.89    5.20
  11  10  -6   10.90    1.80
 -11 -10   6   10.10    1.10
 -11 -10   6   10.70    0.90
  11 -10  -6    9.80    1.10
  11  10  -5   76.29    3.90
 -11 -10   5   78.49    3.30
  11 -10  -5   82.39    3.40
 -11 -10   5   73.99    3.20
  11  10  -4   46.70    4.80
  11  10  -4   45.40    2.80
 -11 -10   4   43.30    2.10
 -11 -10   4   41.10    2.20
  11 -10  -4   43.90    2.30
  11  10  -3   27.00    4.00
  11  10  -3   28.40    2.30
 -11 -10   3   26.70    1.70
 -11 -10   3   26.20    2.20
 -11 -10   3   28.20    3.60
  11 -10  -3   24.10    1.70
 -11  10   2   29.20    3.40
  11  10  -2   33.60    3.90
 -11 -10   2   31.90    1.90
 -11 -10   2   30.40    3.60
  11 -10  -2   33.30    1.90
 -11  10   1   11.60    1.90
  11  10  -1   11.70    2.30
  11 -10  -1   14.60    1.40
 -11 -10   1   12.30    2.50
  11  10   0  207.68    9.20
 -11  10   0  215.68    8.70
  11 -10   0  205.38    8.10
 -11 -10   0  207.68    9.20
 -11  10  -1    4.80    1.50
  11  10   1    8.40    2.20
  11 -10   1    6.20    1.00
 -11 -10  -1   10.30    2.30
 -12   0  12   26.40    3.70
 -12   0  12   21.80    3.40
 -12   0  11   -2.70    2.70
 -12   0  11    1.40    2.20
 -12   0  10    2.00    2.90
 -12   0  10    0.00    4.90
 -12   0  10    0.60    2.10
  12   0  -9    2.80    2.20
 -12   0   9    1.20    3.00
 -12   0   9    1.60    1.60
 -12   0   9    6.00    4.40
 -12   0   9   -1.10    2.20
  12   0  -8  229.28    9.60
 -12   0   8  209.48    9.10
 -12   0   8  223.88   11.00
 -12   0   8  226.88   10.10
 -12   0   8  223.28   11.70
  12   0  -7    1.50    1.90
 -12   0   7    0.20    3.20
 -12   0   7    0.90    1.30
 -12   0   7    0.90    2.10
  12   0  -6  438.46   17.00
 -12   0   6  430.36   17.60
 -12   0   6  434.76   18.50
 -12   0   6  418.26   16.60
 -12   0   5    0.90    2.60
 -12   0   5    2.70    1.80
  12   0  -5   -2.10    1.60
 -12   0   4 2145.59   80.49
 -12   0   4 2102.29   79.79
  12   0  -4 2118.49   79.39
 -12   0   3    0.80    1.80
  12   0  -3   -0.10    2.00
 -12   0   3   -1.40    2.30
 -12   0   2    7.80    2.70
 -12   0   2   -2.60    3.00
 -12   0   2    6.40    2.00
  12   0  -2    5.90    2.20
  12   0  -1    1.60    2.50
 -12   0   1   -0.20    1.80
 -12   0   1    3.30    2.80
 -12   0   1    3.40    2.60
 -12   0   0 3772.12  140.19
 -12   0   0 3738.63  140.39
 -12   0  -1    1.90    2.30
 -12   0  -1   -2.40    3.30
 -12   0  -2   31.70    4.10
 -12   0  -3   -0.50    2.30
 -12   0  -4  341.07   14.50
 -12   0  -5    3.20    2.30
 -12   0  -6    2.60    2.30
 -12   0  -7   -1.40    2.30
 -12   1  12   16.80    3.30
 -12   1  12   21.80    4.10
 -12  -1  12   26.40    4.10
 -12   1  11   67.39    5.90
 -12   1  11   83.59    5.20
 -12  -1  11   77.79    5.60
 -12  -1  11  100.39    5.40
 -12   1  10   49.50    7.50
 -12   1  10   42.10    5.20
 -12   1  10   45.10    4.30
 -12  -1  10   54.19    4.40
 -12  -1  10   41.90    6.60
 -12  -1  10   46.70    4.90
 -12   1   9   78.99    8.00
 -12  -1   9   84.09    9.00
 -12  -1   9   85.29    4.30
  12  -1  -9   98.89    5.20
 -12  -1   9   95.69    8.70
 -12   1   8  380.26   15.30
 -12   1   8  404.76   16.40
 -12   1   8  391.46   17.10
  12   1  -8  398.66   15.80
 -12   1   8  382.66   17.50
 -12  -1   8  378.76   15.30
  12  -1  -8  407.46   15.70
 -12  -1   8  411.06   18.10
 -12  -1   8  379.76   16.90
 -12  -1   8  397.06   16.30
 -12   1   7   52.79    5.70
  12   1  -7   46.30    4.40
 -12   1   7   53.29    3.30
 -12   1   7   60.19    4.50
 -12  -1   7   54.89    6.60
 -12  -1   7   61.09    4.50
 -12  -1   7   57.89    5.40
  12  -1  -7   57.59    3.90
 -12  -1   7   56.49    3.30
 -12   1   6   20.20    3.20
 -12   1   6   12.80    2.20
  12   1  -6   14.20    2.30
 -12  -1   6   17.20    2.10
 -12  -1   6   15.40    2.50
 -12  -1   6   11.90    3.70
  12  -1  -6   13.10    2.10
  12   1  -5  376.76   15.20
 -12   1   5  379.16   15.50
 -12   1   5  382.96   16.20
  12  -1  -5  381.96   15.00
 -12  -1   5  383.76   16.70
 -12  -1   5  373.96   14.70
 -12  -1   5  374.26   15.60
 -12   1   4   22.20    3.60
  12   1  -4   14.30    2.20
 -12   1   4   18.10    2.90
 -12  -1   4   17.60    2.50
 -12  -1   4   15.90    3.50
 -12  -1   4   17.00    1.70
  12  -1  -4   21.20    2.90
 -12   1   3  169.38    8.20
  12   1  -3  166.58    7.80
 -12   1   3  172.38    7.80
 -12  -1   3  166.78    9.30
 -12  -1   3  169.58    8.00
  12  -1  -3  170.38    7.50
 -12  -1   3  170.28    9.50
  12   1  -2  376.06   15.30
 -12   1   2  379.96   15.40
 -12   1   2  399.16   16.00
 -12   1   2  380.96   15.90
  12  -1  -2  379.06   15.10
 -12  -1   2  374.86   16.00
 -12  -1   2  371.56   15.50
  12   1  -1  387.46   15.90
 -12   1   1  395.56   16.40
 -12   1   1  402.76   16.10
 -12   1   1  401.96   16.60
 -12  -1   1  390.36   16.50
 -12  -1   1  404.86   16.30
  12  -1  -1  392.36   15.70
 -12   1   0  508.35   20.00
 -12   1   0  513.55   20.30
 -12  -1   0  514.85   20.40
  12  -1   0  469.75   21.00
 -12   1  -1   22.80    3.50
 -12   1  -1   25.60    3.90
 -12  -1  -1   37.50    4.20
 -12   1  -2  258.87   11.60
 -12   1  -2  270.37   11.70
 -12  -1  -2  269.17   11.90
 -12   1  -3   27.00    3.90
 -12  -1  -3   23.40    3.10
 -12   1  -4  223.38   10.20
 -12  -1  -4  225.38   10.30
 -12   1  -5  164.48    8.00
 -12  -1  -5  160.98    8.10
 -12   1  -6   40.30    3.90
 -12  -1  -6   40.90    4.20
 -12   1  -7   33.00    3.80
 -12  -1  -7   25.80    4.10
 -12   2  12   85.09    5.10
 -12  -2  12   95.19    5.40
 -12   2  11    6.90    3.30
 -12   2  11    7.60    2.20
 -12  -2  11    5.90    2.50
 -12  -2  11    8.10    2.90
 -12   2  10  219.28   10.20
 -12   2  10  214.78   10.90
 -12  -2  10  205.68    9.40
 -12  -2  10  258.87   10.60
 -12   2   9  140.39    9.60
 -12   2   9  161.28    9.30
 -12   2   9  166.38    8.30
 -12  -2   9  179.98    8.30
 -12  -2   9  160.28    7.00
 -12  -2   9  167.78    8.70
  12  -2  -9  185.58    7.60
 -12   2   8   89.29    7.20
 -12   2   8   79.09    4.50
  12  -2  -8   91.89    4.90
 -12  -2   8   91.99    5.70
 -12  -2   8   86.59    4.20
 -12  -2   8   94.39    6.30
 -12   2   7  271.57   13.00
 -12   2   7  282.37   12.20
 -12   2   7  291.27   11.50
  12   2  -7  290.97   11.80
 -12  -2   7  274.37   12.10
  12  -2  -7  280.67   11.70
 -12  -2   7  276.87   12.70
 -12  -2   7  277.37   11.20
 -12   2   6    6.40    2.60
 -12   2   6    2.70    1.90
  12   2  -6    0.30    2.10
 -12  -2   6    5.80    2.30
 -12  -2   6    0.40    1.20
 -12  -2   6    0.20    2.70
  12  -2  -6    4.00    1.60
 -12   2   5   71.09    5.10
  12   2  -5   71.69    4.70
 -12   2   5   73.59    4.60
 -12  -2   5   72.99    3.70
 -12  -2   5   70.99    5.10
  12  -2  -5   73.39    4.10
 -12  -2   5   78.09    5.90
 -12   2   4  155.78    7.70
  12   2  -4  159.38    7.40
 -12   2   4  157.78    7.30
  12  -2  -4  157.28    6.90
 -12  -2   4  153.08    6.60
 -12  -2   4  154.78    7.80
 -12   2   3  227.88   10.30
  12   2  -3  236.68   10.30
 -12   2   3  239.78   10.60
 -12  -2   3  253.47   11.70
  12  -2  -3  235.08    9.90
 -12  -2   3  247.58    9.60
 -12   2   2   32.00    3.10
 -12   2   2   32.20    3.90
  12   2  -2   34.50    4.20
 -12  -2   2   30.00    3.60
  12  -2  -2   31.20    3.30
 -12  -2   2   34.90    2.50
 -12   2   1  464.35   19.00
 -12   2   1  463.45   19.00
  12   2  -1  457.05   18.70
 -12   2   1  470.75   18.70
 -12  -2   1  467.95   19.10
 -12  -2   1  493.05   18.00
  12  -2  -1  456.45   18.20
 -12   2   0    3.00    1.80
 -12   2   0    1.00    2.30
 -12   2   0    0.80    2.30
 -12  -2   0    1.30    1.30
  12  -2   0    4.10    2.40
 -12  -2   0   -0.80    2.30
 -12   2  -1 1272.07   48.40
 -12   2  -1 1250.77   48.00
 -12   2  -1 1265.77   48.60
 -12  -2  -1 1262.07   48.40
 -12   2  -2  336.37   14.40
 -12   2  -2  356.36   14.90
 -12  -2  -2  363.96   15.10
 -12   2  -3  188.58    9.10
 -12  -2  -3  192.98    9.40
 -12   2  -4   91.59    5.60
 -12  -2  -4   84.19    5.80
 -12   2  -5    7.70    2.20
 -12  -2  -5    4.80    2.30
 -12  -2  -5    5.40    1.30
 -12   2  -6   81.99    4.90
 -12  -2  -6   75.79    3.50
 -12  -2  -6   71.89    5.70
 -12   2  -7   32.80    3.70
 -12  -2  -7   30.70    1.90
 -12  -3  12  184.88    8.20
  12   3 -11   42.30    3.00
 -12   3  11   27.40    3.80
 -12  -3  11   35.30    3.80
 -12   3  10    2.50    3.40
  12   3 -10   -1.60    1.90
 -12   3  10    3.40    4.20
 -12   3  10   -1.80    2.20
 -12  -3  10    3.20    2.30
 -12  -3  10   -0.30    1.20
  12   3  -9   12.00    2.40
 -12   3   9   10.60    3.50
 -12   3   9    6.10    3.80
 -12   3   9   11.50    2.60
 -12  -3   9   15.30    2.90
 -12  -3   9   10.80    1.40
  12  -3  -9   16.50    2.30
 -12   3   8   45.00    4.40
 -12   3   8   37.10    5.80
  12   3  -8   45.70    4.40
  12  -3  -8   43.30    3.40
 -12  -3   8   40.70    2.60
 -12  -3   8   41.30    4.70
 -12   3   7   14.30    3.30
 -12   3   7   12.60    2.50
 -12  -3   7   12.90    3.60
 -12  -3   7   14.80    2.90
 -12  -3   7   12.20    1.40
  12  -3  -7   12.70    1.80
 -12   3   6    5.20    2.40
 -12   3   6    1.70    1.80
 -12  -3   6    3.20    2.70
 -12  -3   6    2.00    1.40
 -12   3   5   84.39    5.00
 -12   3   5   83.99    5.40
  12  -3  -5   85.99    4.40
 -12  -3   5   80.09    6.30
 -12  -3   5   87.79    4.10
 -12   3   4  750.42   29.70
 -12   3   4  752.72   30.00
  12   3  -4  785.82   29.60
 -12  -3   4  769.62   30.50
  12  -3  -4  772.72   29.20
 -12  -3   4  778.52   29.10
 -12   3   3    9.80    2.00
  12   3  -3    9.50    2.40
 -12  -3   3    9.00    3.30
 -12  -3   3   10.40    1.40
  12  -3  -3   10.40    1.60
 -12   3   2    5.10    1.90
 -12   3   2    4.40    1.70
  12  -3  -2    2.20    1.60
 -12  -3   2    9.20    2.90
 -12  -3   2    9.60    1.30
 -12   3   1  347.57   14.40
 -12   3   1  348.47   14.70
 -12   3   1  334.37   14.10
 -12  -3   1  346.97   14.70
  12  -3  -1  326.87   13.60
 -12  -3   1  355.06   13.40
 -12   3   0  111.49    5.70
 -12   3   0  107.09    6.20
 -12   3   0  115.59    6.50
 -12  -3   0  111.29    6.60
  12  -3   0  105.09    5.60
 -12  -3   0  103.59    5.10
 -12   3  -1  183.28    9.00
 -12   3  -1  179.28    8.80
 -12   3  -1  182.18    8.30
  12   3   1  179.08    9.20
 -12  -3  -1  181.58    9.00
  12   3   2  250.57   11.30
 -12   3  -2  231.38   10.90
 -12   3  -2  240.18   10.50
 -12  -3  -2  253.17   11.30
 -12   3  -3   -0.60    2.40
 -12   3  -3    0.60    2.20
  12   3   3   -0.90    3.40
 -12  -3  -3   -1.10    2.40
 -12   3  -4   15.70    2.50
 -12  -3  -4   14.60    2.20
 -12  -3  -4   14.70    2.80
 -12   3  -5    2.90    2.00
 -12  -3  -5   -0.50    1.10
 -12  -3  -5   -1.10    2.30
 -12   3  -6  239.48   10.40
 -12  -3  -6  215.08    9.90
 -12  -3  -6  215.68    8.60
 -12   3  -7   25.10    3.50
 -12   4  12   -0.20    1.90
  12   4 -12    0.90    1.10
 -12  -4  12    4.60    1.80
  12   4 -11   18.70    2.30
 -12  -4  11   17.40    2.50
 -12   4  10    4.30    3.80
  12   4 -10    9.50    1.80
 -12   4  10    6.90    2.40
 -12  -4  10    7.60    2.30
 -12  -4  10   10.60    1.20
 -12   4   9   60.89    6.20
  12   4  -9   70.19    4.30
 -12   4   9   56.59    4.90
  12  -4  -9   61.69    4.10
 -12  -4   9   74.89    5.00
 -12  -4   9   64.69    3.30
  12   4  -8  180.48    7.90
 -12   4   8  171.28    8.40
  12  -4  -8  173.98    7.20
 -12  -4   8  167.48    8.40
 -12  -4   8  150.78    6.90
 -12   4   7  111.39    6.20
  12   4  -7  115.39    6.10
 -12   4   7  102.79    9.80
 -12  -4   7  102.19    4.70
 -12  -4   7  105.39    6.70
  12  -4  -7  101.29    5.00
  12   4  -6  198.68    9.40
 -12   4   6  205.38    9.70
 -12   4   6  207.08    9.20
 -12  -4   6  196.28    8.20
  12  -4  -6  195.78    8.40
 -12  -4   6  209.78    9.90
 -12   4   5   14.80    2.20
 -12   4   5   17.30    2.70
 -12  -4   5   19.50    3.60
  12  -4  -5   14.20    1.90
 -12  -4   5   18.00    2.00
 -12   4   4  560.84   21.90
 -12   4   4  539.15   21.60
 -12  -4   4  528.55   22.60
 -12  -4   4  569.04   21.10
  12  -4  -4  546.25   21.10
 -12   4   3   24.70    3.10
 -12   4   3   29.90    3.20
 -12  -4   3   22.00    3.60
  12  -4  -3   22.80    2.70
 -12  -4   3   22.80    2.20
 -12   4   2    6.70    1.90
  12   4  -2    6.80    3.50
 -12   4   2    6.40    2.00
 -12  -4   2    9.00    1.40
  12  -4  -2    8.90    1.70
 -12  -4   2    9.90    2.90
 -12   4   1    3.80    1.80
 -12   4   1    5.10    2.00
 -12   4   1    2.90    3.00
  12   4  -1    0.40    3.00
 -12  -4   1    2.40    2.60
 -12  -4   1    5.10    1.40
  12  -4  -1    4.70    2.60
  12   4   0    0.90    2.90
 -12   4   0   -0.60    2.00
 -12   4   0   -2.60    2.50
 -12   4   0    0.20    1.70
  12  -4   0   -1.00    1.80
 -12  -4   0    1.20    2.30
  12   4   1  533.35   21.20
 -12   4  -1  513.15   21.30
 -12   4  -1  508.95   20.80
 -12   4  -1  533.85   21.30
 -12  -4  -1  538.55   21.50
 -12   4  -2  545.75   22.30
 -12   4  -2  496.25   24.10
  12   4   2  572.74   23.00
 -12  -4  -2  574.84   21.30
 -12  -4  -2  554.84   22.90
 -12   4  -3  140.39    7.20
  12   4   3  139.39    7.40
 -12   4  -3  137.59    6.80
 -12  -4  -3  140.99    7.40
 -12  -4  -3  134.89    5.90
 -12   4  -4    1.40    2.10
 -12   4  -4    7.20    2.90
  12   4   4    2.60    3.00
 -12  -4  -4   10.80    2.60
 -12  -4  -4    3.60    1.20
 -12   4  -5  103.69    5.60
 -12  -4  -5  102.39    4.40
 -12  -4  -5   99.79    6.00
 -12   4  -6    1.80    1.90
 -12  -4  -6    0.00    2.60
 -12  -4  -6    1.00    0.90
 -12   5  11    5.50    2.20
  12   5 -11    7.90    1.30
 -12  -5  11    9.90    1.90
 -12  -5  11    6.90    1.10
 -12   5  10   65.89    7.30
 -12   5  10   77.09    5.30
 -12  -5  10   88.49    5.00
 -12  -5  10   89.09    3.70
 -12   5   9   41.90    6.00
 -12   5   9   23.70    7.50
 -12   5   9   40.70    4.50
  12   5  -9   49.99    3.50
 -12  -5   9   42.60    2.80
  12  -5  -9   48.50    3.40
 -12  -5   9   41.90    4.00
  12   5  -8  142.49    6.60
 -12   5   8  140.49    7.30
 -12  -5   8  139.69    7.20
  12  -5  -8  135.79    6.00
 -12  -5   8  129.09    5.70
  12   5  -7    5.90    2.00
 -12   5   7    1.20    2.90
 -12   5   7    0.40    2.30
  12  -5  -7    3.80    1.30
 -12  -5   7    5.40    2.70
 -12  -5   7    4.40    1.00
 -12   5   6   16.70    2.60
  12   5  -6   20.80    3.60
 -12   5   6   22.70    3.20
 -12  -5   6   18.10    1.80
  12  -5  -6   18.30    2.30
 -12  -5   6   32.60    5.20
 -12   5   5  587.34   23.80
 -12   5   5  600.54   23.50
  12   5  -5  607.14   23.50
 -12  -5   5  595.74   22.80
  12  -5  -5  601.04   22.90
 -12   5   4  111.09    5.90
 -12  -5   4  116.79    5.10
  12  -5  -4  116.19    5.20
 -12  -5   4  107.69    8.00
  12   5  -3   57.39    6.20
 -12   5   3   59.09    4.10
 -12   5   3   56.29    4.10
 -12  -5   3   56.19    3.10
  12  -5  -3   54.39    3.30
 -12  -5   3   53.49    5.60
 -12   5   2    9.00    2.10
 -12   5   2   13.10    2.20
  12   5  -2    7.00    3.10
  12  -5  -2   12.30    1.70
 -12  -5   2   10.70    1.40
 -12  -5   2    7.80    2.80
  12   5  -1    4.20    2.70
 -12   5   1    2.50    3.20
 -12   5   1    1.60    1.80
 -12   5   1   -0.60    1.90
 -12  -5   1    2.50    1.30
  12  -5  -1    1.30    1.50
 -12  -5   1    0.40    2.60
  12   5   0  111.09    6.70
 -12   5   0  110.99    5.90
 -12   5   0  109.79    6.90
 -12  -5   0  115.79    6.80
  12  -5   0  108.79    5.20
  12   5   1   18.40    3.40
 -12   5  -1   18.30    4.90
 -12   5  -1   13.90    2.80
  12  -5   1   16.40    2.10
 -12  -5  -1   13.90    1.80
 -12  -5  -1   23.70    4.20
 -12   5  -2  253.57   11.10
 -12   5  -2  241.98   11.30
 -12   5  -2  247.08   10.70
  12   5   2  262.37   11.10
 -12  -5  -2  244.38   11.30
 -12  -5  -2  247.58    9.90
  12   5   3  133.79    6.80
 -12   5  -3  118.39    6.10
 -12   5  -3  116.69    6.50
 -12  -5  -3  125.49    6.00
 -12  -5  -3  130.29    7.00
  12   5   4  160.08    7.80
 -12   5  -4  158.68    7.60
 -12   5  -4  154.38    7.40
 -12  -5  -4  159.08    7.90
 -12  -5  -4  165.18    6.50
  12   5   5   40.00    4.80
 -12  -5  -5   36.10    2.20
 -12  -5  -5   39.10    4.30
 -12   5  -6   72.19    4.30
 -12  -5  -6   75.39    3.20
  12   6 -10  193.18    7.60
 -12  -6  10  189.58    8.00
 -12  -6  10  161.88    7.10
  12   6  -9   23.70    2.50
 -12   6   9   20.40    4.70
 -12   6   9   21.10    3.50
 -12  -6   9   24.90    3.30
 -12  -6   9   23.30    1.60
 -12   6   8   13.90    2.90
  12  -6  -8   15.90    1.70
 -12  -6   8   15.70    1.50
 -12  -6   8   17.70    2.70
  12   6  -7   41.80    3.60
 -12   6   7   30.80    4.10
 -12   6   7   43.70    4.40
  12  -6  -7   38.50    2.70
 -12  -6   7   37.50    2.20
 -12  -6   7   37.30    4.50
 -12   6   6  929.61   36.20
  12   6  -6  959.40   35.70
 -12   6   6  937.81   35.70
 -12  -6   6  917.61   35.10
  12  -6  -6  915.31   35.10
  12   6  -5  380.66   14.90
 -12   6   5  359.96   14.80
 -12   6   5  365.86   15.10
 -12  -6   5  334.17   16.00
  12  -6  -5  373.46   14.20
 -12  -6   5  364.16   14.10
  12   6  -4  146.39    9.00
 -12  -6   4  153.88    6.30
  12  -6  -4  147.49    6.40
  12   6  -3  164.08   11.50
 -12   6   3  163.28    7.70
 -12   6   3  163.18    7.60
 -12  -6   3  157.18    6.70
 -12  -6   3  151.38    8.80
  12  -6  -3  165.58    6.80
  12   6  -2    0.40    4.50
 -12   6   2    1.00    2.00
 -12   6   2    4.20    1.90
 -12  -6   2    2.90    2.60
  12  -6  -2   -1.20    1.20
 -12  -6   2    0.40    1.10
 -12   6   1   16.00    3.80
 -12   6   1   16.20    2.60
  12   6  -1   17.20    3.30
  12  -6  -1   18.70    2.30
 -12  -6   1   16.80    2.10
 -12   6   0  104.29    6.70
  12   6   0   98.69    6.20
 -12   6   0  104.79    5.60
 -12   6   0  104.69    5.90
  12  -6   0  105.09    4.80
 -12  -6   0  100.59    6.50
 -12   6  -1   10.10    2.00
 -12   6  -1   12.50    2.60
  12   6   1   15.80    2.80
 -12   6  -1   13.20    2.70
  12  -6   1   13.10    1.80
 -12  -6  -1   10.20    2.60
 -12   6  -2    4.30    1.70
 -12   6  -2    3.30    2.20
 -12   6  -2    2.00    2.80
  12   6   2    1.80    2.40
 -12  -6  -2    1.20    2.30
 -12   6  -3  159.78    7.40
  12   6   3  167.88    7.90
 -12   6  -3  155.78    7.70
 -12  -6  -3  169.18    8.20
 -12  -6  -3  162.68    6.60
 -12   6  -4   15.60    2.30
  12   6   4   26.90    4.10
 -12   6  -4   15.50    2.30
 -12  -6  -4   20.30    1.80
  12   6   5   36.30    5.40
 -12   6  -5   38.00    3.30
 -12  -6  -5   40.60    2.30
 -12  -6  -5   40.10    4.40
  12   7 -10   26.00    2.10
 -12  -7  10   19.10    1.50
 -12  -7  10   20.20    1.50
  12   7  -9   16.00    2.00
 -12   7   9   20.80    3.00
 -12  -7   9   14.70    2.20
 -12  -7   9   11.80    1.20
  12   7  -8    7.00    1.50
 -12  -7   8    4.80    0.80
  12  -7  -8    7.40    1.40
 -12  -7   8    6.10    2.50
 -12   7   7    2.50    2.60
  12   7  -7    0.60    1.50
  12  -7  -7    0.30    1.10
 -12   7   6  188.08    8.40
 -12   7   6  157.48    8.90
  12   7  -6  192.58    8.00
 -12  -7   6  167.08    7.10
  12  -7  -6  182.28    7.30
 -12   7   5  478.75   18.50
  12   7  -5  489.55   18.50
 -12   7   5  452.95   18.80
 -12  -7   5  449.66   17.80
 -12  -7   5  441.56   19.20
  12  -7  -5  476.55   17.90
 -12   7   4   -1.00    2.10
 -12   7   4    0.20    2.00
  12   7  -4   -5.70    3.20
 -12  -7   4   -0.10    0.80
 -12  -7   4    5.00    3.10
  12  -7  -4    1.00    1.10
  12   7  -3   23.10    3.40
 -12   7   3   24.20    3.30
 -12   7   3   28.20    3.60
 -12  -7   3   29.60    3.50
  12  -7  -3   22.10    2.20
 -12  -7   3   21.70    1.90
 -12   7   2    2.60    2.10
 -12   7   2    2.20    1.90
  12   7  -2   -1.00    2.70
  12  -7  -2    0.10    1.20
 -12  -7   2   -1.00    1.00
 -12  -7   2    0.10    2.50
  12   7  -1    8.20    2.60
 -12   7   1    4.20    1.90
 -12   7   1   -1.30    2.20
 -12  -7   1    4.90    2.50
  12  -7  -1    1.80    1.20
  12   7   0    1.70    7.00
 -12   7   0   10.60    3.10
 -12   7   0   11.40    2.50
 -12   7   0    6.30    1.90
  12   7   0    9.90    2.60
 -12  -7   0    4.90    2.40
  12  -7   0    7.30    1.40
 -12   7  -1    1.00    2.50
  12   7   1    2.00    2.40
 -12   7  -1    0.90    1.60
 -12  -7  -1   -0.70    2.20
  12  -7   1    1.60    1.40
  12   7   2  123.09    6.50
 -12   7  -2  119.09    6.40
 -12   7  -2  121.99    5.90
 -12  -7  -2  128.79    6.70
  12   7   3   28.30    4.00
 -12  -7  -3   27.90    3.60
 -12   7  -4  119.49    5.80
  12   7   4  119.79    6.30
 -12   7  -4  124.19    5.80
 -12  -7  -4  112.39    6.30
 -12  -8   9   69.19    3.00
  12   8  -8  225.88    8.70
 -12  -8   8  207.08    8.30
  12  -8  -8  208.68    8.50
  12   8  -7    0.20    1.30
 -12  -8   7   -0.40    0.60
  12  -8  -7    2.20    1.00
  12   8  -6   14.70    2.30
 -12  -8   6   12.50    1.20
  12  -8  -6   12.60    1.70
  12   8  -5  256.97   10.30
 -12   8   5  258.37   10.60
  12  -8  -5  253.87    9.80
 -12  -8   5  239.48    9.60
 -12  -8   5  228.38   11.30
  12   8  -4  265.17   11.90
 -12   8   4  269.77   11.00
 -12  -8   4  255.67   11.70
 -12  -8   4  263.47   10.30
  12   8  -3   13.10    3.10
 -12   8   3   15.10    2.30
  12  -8  -3   15.20    1.80
 -12  -8   3   13.90    1.50
 -12  -8   3   14.60    2.70
 -12   8   2   89.39    5.10
  12   8  -2  101.29    6.00
 -12  -8   2   91.49    4.10
 -12  -8   2   92.99    5.80
 -12   8   1  112.39    5.60
  12   8  -1  109.89    6.40
 -12  -8   1  112.29    6.30
  12  -8  -1  106.59    4.80
  12   8   0    1.00    2.40
 -12   8   0    1.30    1.60
 -12  -8   0    0.50    2.30
  12  -8   0    0.80    1.10
 -12   8  -1   -0.80    1.50
 -12   8  -1    0.30    2.50
 -12  -8  -1    1.70    2.30
  12  -8   1   -0.70    1.20
 -12   8  -2    0.00    2.10
  12   8   2    1.90    2.30
 -12   8  -2    3.10    1.50
 -12  -8  -2    4.70    2.40
 -12   8  -3  241.98   10.10
  12   8   3  241.08   10.30
 -12   8  -3  240.68    9.80
 -12  -8  -3  245.08   10.40
  12   9  -7    2.20    1.00
 -12  -9   7    2.50    0.70
  12  -9  -7    1.80    1.00
 -12  -9   7    1.70    0.60
  12   9  -6   96.49    4.50
 -12  -9   6   89.29    3.80
  12  -9  -6   96.69    4.00
 -12  -9   6   94.49    3.90
  12   9  -5  162.48    6.90
 -12  -9   5  157.38    6.40
  12  -9  -5  163.18    6.50
 -12  -9   5  159.68    6.30
  12   9  -4    8.20    3.20
  12   9  -4    6.20    1.40
 -12   9   4    4.80    2.10
 -12  -9   4    4.10    2.60
  12  -9  -4    5.90    1.00
 -12  -9   4    4.00    0.80
 -12  -9   4    3.90    0.80
  12   9  -3  173.78    8.40
 -12   9   3  170.58    7.60
 -12  -9   3  164.38    6.60
  12  -9  -3  168.98    6.80
 -12  -9   3  172.08    6.70
  12   9  -2   15.20    2.90
 -12   9   2   16.10    2.10
 -12  -9   2   18.10    3.70
  12  -9  -2   13.00    1.50
 -12  -9   2   12.40    1.50
  12   9  -1  243.68   10.50
 -12   9   1  243.48    9.90
  12  -9  -1  222.78    9.20
 -12   9   0  107.09    5.40
  12   9   0  118.39    6.20
 -12  -9   0  128.59    6.10
  12  -9   0  105.99    4.70
 -12   9  -1  153.78    6.70
  12   9   1  154.58    7.40
  12  -9   1  148.99    6.20
 -12  -9  -1  156.68    7.20
  12  10  -4   67.39    3.50
  12 -10  -4   70.49    3.10
 -12 -10   4   69.99    2.90
 -12 -10   4   72.79    3.00
  12  10  -3   26.70    2.10
 -12 -10   3   31.10    1.70
  12 -10  -3   29.60    1.80
  12  10  -2  470.15   17.80
 -12 -10   2  452.55   18.20
  12 -10  -2  463.95   17.50
 -13   0  12    7.90    2.30
 -13   0  12    6.50    2.50
 -13   0  11    1.90    2.50
 -13   0  11    5.90    2.20
 -13   0  10   62.29    5.20
 -13   0  10   66.29    4.70
 -13   0   9   -4.20    4.70
 -13   0   9   -3.30    1.30
 -13   0   9   -0.90    2.10
  13   0  -9   -0.80    1.90
 -13   0   9    1.60    2.70
  13   0  -8  304.17   12.10
 -13   0   8  286.67   13.20
 -13   0   8  293.17   11.70
 -13   0   8  297.27   14.10
 -13   0   8  295.67   14.50
  13   0  -7    0.10    1.80
 -13   0   7    3.50    2.10
 -13   0   7   -0.30    1.10
 -13   0   7    1.70    2.80
 -13   0   7    4.10    3.70
 -13   0   6  543.05   21.90
 -13   0   6  551.34   23.00
  13   0  -6  549.74   21.30
 -13   0   6  553.24   21.00
 -13   0   5   -0.50    1.00
 -13   0   5    1.00    1.90
  13   0  -5    0.10    1.80
 -13   0   5    2.40    3.20
 -13   0   4   80.49    4.80
 -13   0   4   89.89    6.50
  13   0  -4   74.19    4.50
 -13   0   3    2.50    1.90
  13   0  -3   -2.10    1.80
 -13   0   3    1.60    3.10
 -13   0   2  427.06   18.30
 -13   0   2  417.66   17.60
 -13   0   2  431.36   17.20
  13   0  -2  425.56   16.80
 -13   0   1   -3.30    2.10
  13   0  -1   -2.90    2.40
 -13   0   1   -3.70    2.60
 -13   0   0   18.60    3.00
 -13   0  -1    0.00    2.40
 -13   0  -2   12.50    3.10
 -13   0  -3   -1.00    2.20
 -13   0  -4  289.17   12.40
 -13   0  -5    4.30    2.10
 -13   0  -6   21.00    2.50
 -13   1  12  163.68    8.40
 -13   1  12  186.18    7.90
 -13  -1  12  182.28    8.10
 -13   1  11    1.10    2.70
 -13   1  11   -1.30    2.00
 -13  -1  11    0.50    2.30
 -13   1  10  301.17   12.70
 -13   1  10  293.77   13.30
 -13  -1  10  293.57   13.10
 -13  -1  10  310.97   12.70
 -13   1   9  267.17   11.20
 -13   1   9  256.77   11.90
 -13   1   9  242.58   13.20
 -13   1   9  231.28   10.20
 -13  -1   9  265.87   11.20
 -13  -1   9  259.57   11.80
 -13  -1   9  241.88   10.10
 -13  -1   9  269.87   14.40
  13  -1  -9  273.77   10.70
 -13   1   8   20.40    4.30
  13   1  -8   22.90    3.10
 -13   1   8   25.70    2.40
 -13  -1   8   33.60    5.50
  13  -1  -8   25.90    2.90
 -13  -1   8   23.00    2.20
 -13   1   7   94.89    5.50
 -13   1   7   90.09    4.30
 -13   1   7   97.39    7.20
  13   1  -7   97.99    5.10
 -13  -1   7   68.89    9.80
  13  -1  -7   92.09    4.80
 -13  -1   7   93.89    6.40
 -13  -1   7   89.79    5.50
 -13  -1   7   89.59    4.30
 -13   1   6  184.48    9.70
 -13   1   6  179.68    7.50
 -13   1   6  182.28    8.50
  13   1  -6  180.78    8.10
 -13  -1   6  180.48    8.50
 -13  -1   6  174.18    9.20
 -13  -1   6  187.18    7.50
  13  -1  -6  175.98    7.90
 -13  -1   6  189.88   10.90
  13   1  -5  248.98   11.80
 -13   1   5  253.07   11.10
 -13   1   5  268.87   12.10
 -13  -1   5  267.57   13.10
 -13  -1   5  256.77   10.50
  13  -1  -5  256.57   11.70
 -13   1   4   -0.40    1.70
 -13   1   4   -2.40    2.40
  13   1  -4    3.20    1.90
 -13  -1   4    6.40    6.40
 -13  -1   4    3.30    1.10
 -13  -1   4    4.40    2.20
  13  -1  -4    2.00    1.70
 -13   1   3  257.17   11.80
  13   1  -3  257.17   10.80
 -13   1   3  253.87   11.00
 -13  -1   3  238.48   12.50
  13  -1  -3  257.97   10.60
 -13  -1   3  261.77   11.20
 -13  -1   3  261.87   10.20
 -13   1   2   46.10    5.00
 -13   1   2   46.70    5.50
 -13   1   2   38.30    3.50
  13   1  -2   39.40    4.10
 -13  -1   2   40.00    4.40
 -13  -1   2   39.60    5.20
  13  -1  -2   37.40    3.60
 -13   1   1   -4.60    3.00
 -13   1   1    0.10    1.80
  13   1  -1    1.90    2.70
 -13   1   1    3.10    2.80
 -13  -1   1   -4.10    2.60
  13  -1  -1    0.10    2.30
 -13   1   0   94.99    6.00
 -13   1   0   93.69    5.40
 -13  -1   0   94.79    6.00
 -13  -1   0   92.19    4.30
 -13   1  -1   41.70    4.40
 -13   1  -1   39.40    4.50
 -13  -1  -1   42.40    2.80
 -13  -1  -1   46.70    4.70
 -13   1  -3 1178.88   44.70
 -13  -1  -3 1154.38   44.80
 -13   1  -4   25.20    3.70
 -13  -1  -4   21.50    2.80
 -13   1  -5   45.30    3.90
 -13  -1  -5   44.50    4.10
 -13   1  -6    3.40    2.10
 -13  -1  -6    6.20    2.30
 -13   2  12   10.90    2.00
 -13   2  12   19.20    4.50
 -13  -2  12   14.30    2.30
 -13   2  11   54.09    8.00
 -13   2  11   57.99    4.30
 -13  -2  11   61.99    4.60
 -13   2  10   29.20    4.70
 -13   2  10   24.70    3.50
 -13  -2  10   19.80    2.10
 -13  -2  10   25.00    3.20
  13  -2 -10   23.50    2.70
 -13  -2  10   32.00    3.90
 -13   2   9   67.49    5.80
 -13   2   9   71.09    4.70
 -13   2   9   60.99    7.50
 -13  -2   9   66.29    5.10
 -13  -2   9   69.59    5.10
 -13  -2   9   58.09    3.30
  13  -2  -9   70.09    4.10
 -13   2   8   13.80    1.70
 -13   2   8   15.40    2.50
 -13   2   8   15.70    3.80
  13  -2  -8   12.90    1.90
 -13  -2   8   19.50    2.80
 -13  -2   8   12.80    3.00
 -13  -2   8   14.60    1.90
 -13   2   7   36.60    5.50
 -13   2   7   41.90    3.90
 -13   2   7   38.70    2.60
 -13  -2   7   35.80    2.50
 -13  -2   7   37.00    4.80
  13  -2  -7   33.10    3.00
 -13  -2   7   36.40    4.50
 -13   2   6  373.76   15.50
 -13   2   6  382.06   16.40
  13   2  -6  398.16   15.20
  13  -2  -6  370.46   14.90
 -13  -2   6  374.36   14.70
 -13  -2   6  367.96   16.10
 -13  -2   6  375.46   15.60
 -13   2   5   36.30    4.40
  13   2  -5   34.00    3.50
 -13   2   5   35.30    3.40
 -13  -2   5   31.60    4.30
 -13  -2   5   34.80    5.00
  13  -2  -5   34.00    3.10
 -13  -2   5   39.10    2.50
 -13   2   4   96.49    6.20
  13   2  -4   94.49    6.50
 -13   2   4  100.79    5.50
 -13  -2   4  110.29    7.10
 -13  -2   4  100.89    4.90
 -13  -2   4  102.69    6.40
 -13   2   3  250.77   10.80
 -13   2   3  252.97   11.40
  13   2  -3  254.47   10.80
 -13  -2   3  260.17   10.10
 -13  -2   3  255.67   12.00
  13  -2  -3  240.48   10.50
 -13   2   2  267.67   11.70
 -13   2   2  257.87   10.90
 -13   2   2  255.07   11.90
  13   2  -2  239.08   11.20
 -13  -2   2  263.57   11.70
 -13  -2   2  261.17   10.20
  13  -2  -2  245.18   11.10
 -13   2   1  136.39    6.80
  13   2  -1  127.39    7.80
 -13   2   1  142.29    7.60
 -13   2   1  137.69    7.80
 -13  -2   1  149.19    7.70
  13  -2  -1  134.49    6.70
 -13  -2   1  151.58    6.10
 -13   2   0    9.20    2.60
 -13   2   0    9.90    2.20
 -13  -2   0    8.80    2.70
  13  -2   0    9.50    2.50
 -13  -2   0   11.80    1.50
 -13   2  -1   15.90    2.40
 -13   2  -1   10.80    2.60
 -13  -2  -1   13.50    2.80
 -13   2  -2  506.45   20.50
 -13   2  -2  507.65   20.80
 -13  -2  -2  538.75   21.10
 -13   2  -3    0.40    2.10
 -13  -2  -3    3.90    2.30
 -13   2  -4  115.59    6.30
 -13  -2  -4  124.69    6.70
 -13   2  -5   18.00    2.50
 -13  -2  -5   20.20    2.70
 -13   2  -6  153.08    6.80
 -13  -2  -6  139.89    7.10
 -13   3  12   86.79    4.70
 -13   3  11   21.70    2.90
 -13   3  11   22.70    3.60
 -13  -3  11   31.60    4.40
 -13   3  10   64.39    4.50
 -13   3  10   59.99    5.50
 -13  -3  10   56.09    3.00
 -13  -3  10   59.89    4.40
 -13   3   9    3.10    2.20
 -13   3   9    1.20    3.10
 -13   3   9   -1.60    3.90
  13  -3  -9    1.40    1.90
 -13  -3   9    0.60    1.00
 -13  -3   9    5.20    2.40
 -13   3   8  155.28    6.60
 -13   3   8  156.58    9.10
 -13  -3   8  157.08    8.00
 -13  -3   8  152.58    6.40
  13  -3  -8  152.38    6.70
 -13   3   7   60.99    5.90
 -13   3   7   61.09    3.20
 -13   3   7   61.89    6.60
  13  -3  -7   54.99    3.50
 -13  -3   7   58.69    3.10
 -13   3   6   20.10    3.20
 -13   3   6   23.40    3.80
 -13  -3   6   19.10    2.00
 -13  -3   6   18.80    3.20
  13  -3  -6   17.90    2.00
 -13   3   5   80.09    5.60
 -13   3   5   81.29    4.80
 -13  -3   5   81.89    3.90
  13  -3  -5   83.69    4.30
 -13  -3   5   79.09    6.40
 -13   3   4  964.00   38.60
 -13   3   4  965.60   38.20
 -13  -3   4 1004.50   37.60
 -13  -3   4 1055.89   40.40
  13  -3  -4  998.00   37.70
 -13   3   3   76.49    5.20
 -13   3   3   83.69    4.70
 -13  -3   3   73.99    3.70
  13  -3  -3   71.39    4.10
 -13  -3   3   69.49    6.40
 -13   3   2  200.48    9.10
 -13  -3   2  204.98   10.00
 -13  -3   2  211.08    8.40
  13  -3  -2  204.18    8.60
 -13   3   1   96.79    6.10
 -13   3   1   97.09    5.40
 -13   3   1   97.79    6.50
  13  -3  -1   99.89    5.00
 -13  -3   1   98.79    6.40
 -13  -3   1   98.49    4.50
 -13   3   0   14.30    3.00
 -13   3   0    8.60    2.00
 -13  -3   0    7.20    2.60
  13  -3   0   12.80    2.20
 -13  -3   0   12.10    1.50
 -13   3  -1   11.70    3.40
 -13  -3  -1    9.80    4.70
 -13   3  -2   33.70    3.70
 -13   3  -2   30.10    4.00
 -13  -3  -2   30.50    4.40
 -13   3  -3    9.20    2.40
 -13  -3  -3   16.70    2.80
 -13   3  -4  266.27   11.40
 -13  -3  -4  269.97   11.60
 -13   3  -5   11.20    2.50
 -13  -3  -5   13.80    2.50
 -13   3  -6   75.29    4.50
 -13   4  11    2.00    4.10
  13   4 -11    1.60    1.40
 -13   4  11    0.70    1.90
 -13  -4  11    1.70    1.90
 -13   4  10   70.89    4.80
  13   4 -10   72.29    3.90
 -13  -4  10   74.69    4.60
 -13  -4  10   66.39    3.20
 -13   4   9  219.58    9.90
 -13   4   9  228.68   10.70
  13   4  -9  222.48    9.30
 -13  -4   9  211.58    8.80
 -13  -4   9  222.58    9.90
  13  -4  -9  225.28    9.10
 -13   4   8   25.10    4.20
 -13   4   8   32.70    3.70
  13   4  -8   25.60    3.50
  13  -4  -8   26.10    2.60
 -13  -4   8   28.50    2.00
 -13  -4   8   30.90    4.00
 -13   4   7    4.00    2.00
  13   4  -7   10.00    2.40
 -13   4   7    9.70    3.10
 -13  -4   7    1.90    2.70
  13  -4  -7    5.40    1.40
 -13  -4   7    5.80    1.10
 -13   4   6   -0.60    2.60
 -13  -4   6    2.00    0.90
  13  -4  -6    0.90    1.30
 -13  -4   6    2.30    3.00
 -13   4   5   28.50    3.30
 -13   4   5   29.10    4.30
 -13  -4   5   22.60    3.90
  13  -4  -5   24.30    2.50
 -13  -4   5   24.80    2.00
 -13   4   4  164.18    7.60
 -13   4   4  161.68    8.10
 -13  -4   4  162.98    6.80
 -13  -4   4  162.98    9.70
  13  -4  -4  162.68    7.00
 -13   4   3  142.09    7.00
 -13   4   3  142.79    7.50
  13  -4  -3  145.59    6.40
 -13  -4   3  149.69    8.30
 -13  -4   3  151.18    6.20
 -13   4   2   10.40    2.40
 -13   4   2   11.10    2.10
 -13  -4   2   15.20    1.90
  13  -4  -2   10.20    1.70
 -13  -4   2   13.60    3.10
 -13   4   1   64.09    5.90
 -13   4   1   52.09    4.00
 -13   4   1   44.50    4.80
 -13  -4   1   59.89    3.10
  13  -4  -1   50.59    3.50
 -13  -4   1   65.19    5.20
 -13   4   0  144.29    7.70
 -13   4   0  140.79    8.00
  13  -4   0  138.39    6.40
 -13   4  -1  191.18    8.40
 -13   4  -1  187.68    9.00
 -13   4  -1  174.08    9.30
 -13  -4  -1  189.78    9.10
 -13   4  -2    3.70    2.30
 -13   4  -2    1.40    1.90
 -13  -4  -2    3.10    2.30
 -13   4  -3   22.70    2.80
 -13   4  -3   18.40    2.60
 -13  -4  -3   26.30    3.80
 -13   4  -4   42.30    3.60
 -13  -4  -4   41.00    4.10
 -13   4  -5   21.50    3.00
 -13  -4  -5   16.50    2.60
  13   5 -11   60.39    2.90
 -13   5  11   48.60    4.10
 -13  -5  11   60.99    3.70
 -13  -5  11   55.39    2.50
  13   5 -10  213.98    8.30
 -13   5  10  198.38    9.90
 -13   5  10  193.78    8.90
 -13  -5  10  193.88    7.90
 -13  -5  10  211.88    8.80
 -13   5   9    3.40    2.20
  13   5  -9    1.40    1.50
 -13   5   9    1.40    3.30
 -13  -5   9   -1.10    0.70
  13  -5  -9   -0.40    1.60
 -13  -5   9    0.60    2.10
  13   5  -8  136.59    6.30
 -13   5   8  128.89   10.50
 -13   5   8  136.79    6.80
 -13  -5   8  131.09    6.90
 -13  -5   8  132.19    5.60
  13  -5  -8  142.69    6.00
 -13   5   7   44.60    3.90
  13   5  -7   43.90    3.70
 -13   5   7   44.70    5.50
  13  -5  -7   46.10    2.80
 -13  -5   7   43.70    4.70
 -13  -5   7   41.20    2.40
 -13   5   6   77.19    5.60
 -13   5   6   76.99    4.70
  13   5  -6   78.69    4.70
 -13  -5   6   70.79    3.50
  13  -5  -6   74.49    3.80
 -13  -5   6   75.59    6.00
  13   5  -5   28.90    3.70
 -13   5   5   36.30    4.10
 -13   5   5   27.20    3.40
 -13  -5   5   28.00    2.00
  13  -5  -5   25.40    2.40
 -13   5   4  124.79    6.80
 -13   5   4  130.99    6.80
  13  -5  -4  128.79    5.70
 -13  -5   4  123.99    5.40
 -13  -5   4  124.69    8.00
 -13  -5   3  155.18    6.20
 -13  -5   3  138.39    8.80
  13  -5  -3  145.39    6.40
 -13   5   2   96.19    5.70
 -13   5   2   85.79    6.70
  13  -5  -2   86.99    4.40
 -13  -5   2   93.29    4.20
 -13  -5   2   94.19    6.60
 -13   5   1   10.80    2.50
  13   5  -1   13.00    5.00
 -13   5   1   10.70    3.50
 -13   5   1   13.10    2.10
 -13  -5   1   12.10    2.90
  13  -5  -1   12.20    1.70
 -13  -5   1   12.10    1.40
 -13   5   0    2.20    1.60
 -13   5   0    2.70    2.50
 -13   5   0    1.40    2.80
  13   5   0    6.30    3.30
  13  -5   0    2.50    1.60
 -13  -5   0    3.30    2.50
  13   5   1   72.49    6.00
 -13   5  -1   67.49    5.80
 -13   5  -1   61.39    4.10
 -13   5  -1   62.59    5.00
 -13  -5  -1   62.49    4.90
 -13   5  -2    7.80    1.90
  13   5   2   12.80    3.50
 -13   5  -2    4.20    2.30
 -13  -5  -2    5.10    2.30
 -13   5  -3   35.90    3.70
 -13   5  -3   33.40    3.70
 -13  -5  -3   39.30    4.00
 -13  -5  -3   35.00    2.60
 -13   5  -4   16.60    2.30
 -13  -5  -4   17.40    2.50
 -13  -5  -4   19.20    2.70
 -13   5  -5   18.30    2.20
 -13  -5  -5   16.10    2.70
  13   6 -10   37.70    2.50
 -13   6  10   42.40    4.00
 -13  -6  10   40.50    3.40
 -13  -6  10   40.40    2.00
  13   6  -9   38.00    2.60
 -13   6   9   37.60    5.70
 -13   6   9   38.80    4.00
 -13  -6   9   32.10    1.80
  13  -6  -9   28.10    2.70
 -13  -6   9   35.60    3.50
  13   6  -8  345.27   13.00
  13  -6  -8  339.57   12.70
 -13  -6   8  299.97   15.00
 -13  -6   8  315.17   12.50
  13   6  -7    1.40    1.50
 -13   6   7    0.60    2.00
 -13  -6   7    1.00    0.90
  13  -6  -7   -1.70    1.10
 -13   6   6   36.90    4.90
 -13   6   6   34.30    3.60
  13   6  -6   30.40    3.60
  13  -6  -6   36.10    2.40
 -13  -6   6   32.50    2.10
 -13   6   5    2.90    1.90
  13   6  -5    2.00    1.90
 -13   6   5   -0.10    2.50
  13  -6  -5    0.50    1.20
 -13  -6   5    1.40    0.90
 -13   6   4   87.89    5.40
 -13   6   4   84.89    4.90
 -13  -6   4   82.19    3.90
 -13  -6   4   84.69    6.50
  13  -6  -4   89.99    4.20
 -13   6   3  102.19    5.40
 -13  -6   3  104.49    4.60
 -13  -6   3  110.29    6.70
  13  -6  -3  102.59    4.80
 -13   6   2  477.95   19.30
  13   6  -2  479.95   19.60
 -13   6   2  482.35   18.90
  13  -6  -2  461.15   18.30
 -13  -6   2  477.55   19.50
 -13  -6   2  478.35   18.20
  13   6  -1   33.40    5.30
 -13   6   1   38.10    4.20
  13  -6  -1   26.70    2.50
 -13  -6   1   26.30    3.30
 -13   6   0    2.60    1.70
 -13   6   0   -2.30    2.90
 -13   6   0    2.20    2.70
  13   6   0    6.20    3.10
 -13  -6   0    2.40    2.30
  13  -6   0   -0.50    1.80
 -13   6  -1  145.19    7.40
  13   6   1  157.58    7.80
 -13   6  -1  137.49    6.70
 -13  -6  -1  153.28    7.50
  13  -6   1  139.79    6.40
  13   6   2  316.47   15.20
 -13   6  -2  325.57   13.30
 -13   6  -2  307.97   12.90
 -13  -6  -2  330.97   13.50
 -13   6  -3    1.80    1.80
 -13   6  -3    2.90    2.00
  13   6   3    4.90    4.30
 -13  -6  -3    3.30    2.60
 -13   6  -4  216.58    9.20
 -13  -6  -4  223.28    9.60
 -13  -7   9   32.30    1.60
 -13   7   8    8.00    2.40
  13   7  -8    2.60    1.30
 -13   7   8    4.80    3.60
 -13  -7   8    5.00    0.70
  13  -7  -8    8.40    1.30
  13   7  -7   30.30    2.60
 -13   7   7   30.10    3.90
  13  -7  -7   34.60    2.10
 -13  -7   7   30.60    1.70
 -13   7   6   66.59    4.40
  13   7  -6   60.79    3.70
  13  -7  -6   61.29    3.10
 -13  -7   6   62.99    2.90
 -13   7   5   29.30    3.40
  13   7  -5   26.10    2.90
 -13  -7   5   26.50    1.80
  13  -7  -5   28.30    3.10
 -13   7   4   90.59    5.00
  13   7  -4   93.29    4.80
  13  -7  -4   85.99    4.20
 -13  -7   4   99.09    6.20
 -13  -7   4   86.29    4.10
 -13   7   3  101.99    5.30
 -13   7   3  104.99    6.50
 -13  -7   3  100.39    4.30
  13  -7  -3  100.49    4.60
 -13  -7   3   92.69    6.30
  13   7  -2  128.29    7.60
 -13   7   2  138.09    6.30
 -13  -7   2  128.49    5.30
  13  -7  -2  115.69    5.90
 -13  -7   2  133.79    7.10
 -13   7   1    3.90    1.70
  13   7  -1   -0.90    3.00
  13  -7  -1    7.40    1.30
 -13  -7   1    5.50    2.40
 -13   7   0  217.48    9.30
  13   7   0  229.98   10.20
  13  -7   0  206.78    8.70
 -13  -7   0  216.48    9.90
 -13   7  -1   50.09    3.40
  13   7   1   43.40    5.00
 -13   7  -1   58.99    4.80
 -13  -7  -1   51.59    4.40
  13  -7   1   42.40    3.00
 -13   7  -2   46.00    4.10
 -13   7  -2   42.00    3.30
  13   7   2   53.69    5.00
 -13  -7  -2   49.90    4.20
 -13   7  -3  118.39    5.60
 -13   7  -3  121.09    5.90
 -13  -7  -3  116.59    6.00
  13   8  -7   97.39    4.40
  13  -8  -7   97.09    4.10
 -13  -8   7   91.99    3.90
  13   8  -6   14.40    2.00
 -13   8   6   14.00    2.30
  13  -8  -6   14.20    1.60
 -13  -8   6   14.10    1.20
  13   8  -5   69.59    3.60
 -13   8   5   64.19    4.20
  13  -8  -5   65.59    3.10
 -13  -8   5   62.29    2.90
  13   8  -4   73.19    4.00
 -13   8   4   80.09    4.50
 -13  -8   4   73.99    3.30
  13  -8  -4   81.29    3.50
 -13  -8   4   72.49    5.50
 -13   8   3  596.54   22.50
 -13  -8   3  569.74   21.70
 -13  -8   3  546.05   24.00
  13  -8  -3  597.84   21.90
 -13   8   2   62.09    3.80
  13   8  -2   57.79    5.80
 -13  -8   2   58.79    2.90
 -13  -8   2   57.69    4.70
  13  -8  -2   59.19    3.00
 -13   8   1   13.90    2.10
  13   8  -1    7.20    2.90
  13  -8  -1   12.50    1.60
 -13  -8   1   17.10    2.70
  13   8   0   88.09    5.90
 -13   8   0   93.39    4.70
  13  -8   0   87.69    4.00
 -13  -8   0   88.89    5.40
 -13   8  -1  117.09    5.40
  13   8   1  108.89    6.70
 -13  -8  -1  118.99    6.00
 -13  -8  -2   17.90    2.50
  13   9  -5   26.80    2.20
 -13  -9   5   30.00    1.60
 -13  -9   5   28.80    1.80
  13  -9  -5   26.60    1.80
  13   9  -4  173.38    7.10
 -13   9   4  170.38    7.50
 -13  -9   4  169.28    6.60
 -13  -9   4  172.08    6.70
  13  -9  -4  175.18    6.80
  13   9  -3  346.57   13.10
 -13   9   3  338.97   13.30
 -13  -9   3  329.07   13.60
 -13  -9   3  311.77   12.80
  13  -9  -3  349.27   12.80
 -13   9   2    9.20    1.70
  13  -9  -2   10.20    1.40
 -13  -9   2   13.70    2.30
 -13   9   1  170.48    7.10
  13  -9  -1  162.88    6.70
 -13  -9   1  167.78    7.70
 -14   0  11   -4.30    2.20
 -14   0  11   -0.90    2.10
 -14   0  10  148.69    7.20
 -14   0  10  150.28    7.70
 -14   0   9   -2.60    2.50
 -14   0   9   -2.20    2.00
 -14   0   9    0.30    1.10
 -14   0   8  536.55   21.10
  14   0  -8  526.85   20.00
 -14   0   8  521.65   20.50
 -14   0   8  509.25   19.60
 -14   0   8  477.05   22.30
 -14   0   7    2.10    2.00
 -14   0   7    2.70    1.00
  14   0  -7    0.10    1.60
 -14   0   7    0.90    2.70
 -14   0   7   -3.10    4.10
 -14   0   6    6.50    1.10
  14   0  -6    9.30    1.80
 -14   0   6    6.90    4.00
 -14   0   5    1.50    0.90
  14   0  -5    0.30    1.60
 -14   0   5    3.80    2.10
 -14   0   4   26.30    3.50
 -14   0   4   31.30    4.70
 -14   0   4   31.30    2.10
  14   0  -4   24.60    3.00
 -14   0   3   -1.80    2.00
  14   0  -3    0.20    1.70
  14   0  -2  481.65   19.20
 -14   0   2  489.95   19.70
 -14   0   2  503.75   20.20
 -14   0   1    2.20    2.80
  14   0  -1    4.70    2.40
 -14   0   1    4.00    2.70
 -14   0  -1    2.50    2.50
 -14   0  -1   -0.20    1.10
 -14   0  -2   93.69    5.70
 -14   0  -3    0.10    2.10
 -14   0  -4    7.20    2.20
 -14   0  -5   -3.90    2.00
 -14   1  11  269.07   11.00
 -14   1  11  253.77   11.30
 -14  -1  11  267.87   11.20
 -14   1  10   10.90    2.20
 -14   1  10    5.00    2.60
 -14  -1  10    8.00    1.30
 -14  -1  10    9.40    2.50
 -14  -1  10   10.10    2.70
 -14   1   9   43.70    3.80
 -14   1   9   45.70    4.50
 -14   1   9   45.70    2.70
 -14  -1   9   43.60    4.30
 -14  -1   9   44.90    4.40
 -14  -1   9   43.20    2.60
 -14   1   8  444.66   17.00
 -14   1   8  439.76   19.50
 -14   1   8  451.15   18.50
 -14   1   8  440.16   17.80
 -14  -1   8  433.96   17.00
  14  -1  -8  443.76   17.30
 -14  -1   8  443.06   18.40
 -14  -1   8  441.86   17.80
 -14   1   7   76.89    3.70
  14   1  -7   81.49    4.40
 -14   1   7   71.29    7.00
 -14  -1   7   79.49    5.10
  14  -1  -7   78.39    4.20
 -14  -1   7   76.89    3.70
 -14  -1   7   74.39    5.70
  14   1  -6  114.29    5.50
 -14   1   6  110.69    6.00
 -14   1   6  112.19    7.70
 -14   1   6  109.19    4.80
 -14  -1   6  101.99    7.10
 -14  -1   6  107.59    4.80
  14  -1  -6  107.29    5.30
  14   1  -5  228.78    9.80
 -14   1   5  237.98   13.80
 -14   1   5  230.28   10.20
 -14  -1   5  242.98   11.10
 -14  -1   5  233.68   10.40
  14  -1  -5  228.98    9.60
 -14  -1   5  227.68    9.30
 -14   1   4   49.50    4.00
  14   1  -4   49.99    3.70
 -14   1   4   47.80    5.70
  14  -1  -4   49.10    3.50
 -14  -1   4   48.40    2.70
 -14   1   3   30.90    3.50
 -14   1   3   42.90    5.70
  14   1  -3   36.00    3.60
  14  -1  -3   37.90    3.20
 -14  -1   3   34.30    2.30
 -14   1   2  281.77   12.00
 -14   1   2  268.37   12.80
  14   1  -2  283.97   11.70
 -14  -1   2  291.97   12.80
 -14  -1   2  285.37   11.10
  14  -1  -2  280.57   11.50
 -14   1   1  178.48    9.10
  14   1  -1  171.18    8.40
 -14   1   1  181.48    8.40
 -14  -1   1  182.08    7.30
 -14  -1   1  184.88    9.00
  14  -1  -1  173.68    8.00
 -14   1   0    6.90    2.70
 -14   1   0    6.20    2.60
 -14  -1   0    6.40    1.20
 -14  -1   0    5.20    2.80
 -14   1  -1  344.47   14.70
 -14  -1  -1  352.86   14.80
 -14   1  -2    1.00    2.30
 -14  -1  -2    1.90    2.40
 -14   1  -3   47.30    4.20
 -14  -1  -3   50.49    4.30
 -14   1  -4   35.70    3.60
 -14  -1  -4   29.20    3.80
 -14   1  -5   10.60    2.10
 -14  -1  -5   16.00    2.30
 -14   2  11  106.99    5.60
 -14   2  11  117.39    6.30
 -14  -2  11  110.69    5.80
 -14   2  10  167.58    8.30
 -14   2  10  165.98    7.60
 -14  -2  10  163.88    6.60
 -14  -2  10  160.38    7.80
 -14   2   9    9.00    2.80
 -14   2   9    8.90    2.10
 -14  -2   9    6.50    1.10
  14  -2  -9    4.40    1.70
 -14  -2   9    1.10    2.40
 -14   2   8  170.28   10.30
 -14   2   8  184.08    9.20
 -14   2   8  193.38    7.50
 -14   2   8  184.68    8.40
 -14  -2   8  178.28    7.40
  14  -2  -8  181.08    7.70
 -14  -2   8  188.08    8.80
 -14  -2   8  179.38    8.80
 -14   2   7   88.99    4.10
 -14   2   7   90.69    7.00
 -14   2   7   87.39    5.20
 -14  -2   7   89.89    4.10
 -14  -2   7   94.09    5.90
  14  -2  -7   93.49    4.60
 -14  -2   7   94.29    6.00
 -14   2   6  114.89    7.70
 -14   2   6  103.69    7.30
 -14   2   6  111.89    4.90
 -14  -2   6  111.39    5.00
  14  -2  -6  113.29    5.40
 -14  -2   6  135.29    7.10
 -14  -2   6  116.29    6.80
 -14   2   5   28.80    4.70
 -14   2   5   21.60    3.20
  14   2  -5   26.30    3.10
 -14  -2   5   30.30    5.20
  14  -2  -5   22.20    2.60
 -14  -2   5   24.80    2.00
  14   2  -4   25.60    3.40
 -14   2   4   32.40    5.40
 -14   2   4   33.20    3.30
 -14  -2   4   29.30    4.10
  14  -2  -4   37.50    2.90
 -14  -2   4   31.60    2.20
 -14   2   3  216.38   11.00
  14   2  -3  209.38    9.10
 -14   2   3  212.08    9.40
  14  -2  -3  205.98    8.80
 -14  -2   3  212.18   10.60
 -14  -2   3  208.48    8.50
 -14   2   2  418.46   17.20
 -14   2   2  422.86   18.20
  14  -2  -2  418.86   16.70
 -14  -2   2  436.36   17.80
 -14  -2   2  435.06   16.40
 -14   2   1   42.30    6.10
 -14   2   1   47.60    6.10
 -14   2   1   42.70    4.20
  14  -2  -1   39.60    3.60
 -14  -2   1   43.90    2.60
 -14   2   0  161.68    7.60
 -14   2   0  151.88    8.20
 -14  -2   0  162.18    6.60
 -14  -2   0  164.58    8.20
 -14   2  -1   26.40    4.10
 -14   2  -1   35.60    4.30
 -14  -2  -1   30.40    4.40
 -14   2  -2   90.59    5.60
 -14  -2  -2   86.29    5.70
 -14   2  -3   13.30    2.40
 -14  -2  -3   12.20    2.50
 -14   2  -4  128.49    7.60
 -14   2  -5  326.77   13.30
 -14  -2  -5  332.47   13.40
 -14   3  11    6.50    3.00
 -14   3  11    6.50    1.90
 -14  -3  11    6.20    2.00
 -14   3  10  164.78    7.50
 -14   3  10  176.78    9.00
 -14  -3  10  156.58    8.70
 -14  -3  10  152.58    6.40
 -14   3   9  150.08    7.80
 -14   3   9  146.79    7.00
  14  -3  -9  145.59    6.20
 -14  -3   9  140.19    7.10
 -14  -3   9  139.89    5.90
 -14   3   8    5.10    3.90
 -14   3   8    4.40    1.90
 -14   3   8    2.30    1.20
 -14  -3   8    1.00    0.90
 -14  -3   8    2.80    2.50
  14  -3  -8   -0.10    1.40
 -14   3   7   -1.30    1.80
 -14   3   7    3.20    3.30
 -14   3   7    0.70    1.00
 -14  -3   7    1.40    0.90
  14  -3  -7    4.00    1.40
 -14  -3   7   -2.40    2.50
 -14   3   6  673.13   26.60
 -14   3   6  652.23   25.70
 -14  -3   6  646.74   26.20
 -14  -3   6  672.93   25.00
  14  -3  -6  652.93   25.20
 -14   3   5   43.20    4.90
 -14   3   5   43.00    3.70
 -14  -3   5   30.60    5.30
 -14  -3   5   42.90    2.40
  14  -3  -5   44.50    3.00
 -14   3   4  684.83   27.30
 -14   3   4  633.14   26.80
  14  -3  -4  700.83   26.00
 -14  -3   4  706.33   25.90
 -14   3   3  164.98    8.70
 -14   3   3  166.38    7.90
 -14  -3   3  169.08    6.90
  14  -3  -3  166.38    7.30
 -14  -3   3  178.28    9.40
 -14   3   2   11.70    3.10
  14  -3  -2   11.60    1.80
 -14  -3   2   14.10    3.50
 -14  -3   2   10.70    1.30
 -14   3   1  200.98    9.00
 -14   3   1  205.88   10.20
 -14   3   1  208.88    9.80
 -14  -3   1  198.68    9.80
  14  -3  -1  188.68    8.40
 -14  -3   1  207.68    8.10
 -14   3   0  241.08   10.60
 -14   3   0  234.48   11.60
 -14   3   0  237.58   10.10
  14  -3   0  215.68    9.70
 -14  -3   0  237.88   10.70
 -14  -3   0  224.58   10.10
 -14   3  -1   85.19    5.10
 -14   3  -1   83.89    5.50
 -14  -3  -1   89.29    5.70
 -14   3  -2   30.40    3.90
 -14  -3  -2   32.90    4.00
 -14   3  -3    0.90    2.10
 -14  -3  -3    3.10    2.30
 -14   3  -4   54.39    3.90
 -14  -3  -4   49.90    4.20
 -14   4  10   42.90    3.60
 -14   4  10   32.40    4.60
 -14  -4  10   39.00    2.00
 -14  -4  10   36.60    3.40
 -14   4   9   12.60    3.00
 -14   4   9   19.20    3.10
 -14  -4   9   14.00    2.50
 -14  -4   9   13.40    1.40
  14  -4  -9   11.90    1.60
 -14  -4   8   14.20    1.50
 -14  -4   8   15.80    2.80
  14  -4  -8   15.70    1.70
 -14   4   7   66.69    4.30
 -14   4   7   66.39    3.90
 -14   4   7   65.69    6.20
 -14  -4   7   75.19    5.30
  14  -4  -7   60.89    3.50
 -14  -4   7   67.29    3.20
 -14   4   6   42.60    3.70
 -14   4   6   40.10    5.00
 -14  -4   6   45.90    5.30
 -14  -4   6   47.30    2.50
  14  -4  -6   47.10    2.90
 -14   4   5   67.49    5.40
 -14   4   5   65.99    4.20
 -14  -4   5   64.49    3.20
  14  -4  -5   65.39    3.50
 -14   4   4   67.69    5.20
 -14   4   4   60.29    4.10
 -14  -4   4   63.89    3.20
  14  -4  -4   61.09    3.50
 -14   4   3  174.08    8.70
 -14   4   3  174.28    8.10
  14  -4  -3  176.68    7.50
 -14  -4   3  172.38    9.30
 -14  -4   3  186.78    7.30
 -14   4   2   43.90    3.60
 -14   4   2   44.10    4.80
  14  -4  -2   42.30    3.00
 -14  -4   2   41.40    2.50
 -14  -4   2   47.90    5.20
 -14   4   1    3.70    3.30
 -14   4   1    0.70    1.60
 -14   4   1    2.50    2.90
 -14  -4   1    2.00    1.20
 -14  -4   1    3.60    2.50
  14  -4  -1    2.10    1.60
 -14   4   0   88.69    4.90
 -14   4   0   84.69    5.90
 -14  -4   0   92.29    5.80
  14  -4   0   79.69    5.00
 -14   4  -1   24.90    3.20
 -14   4  -1   24.00    3.00
 -14  -4  -1   21.60    2.90
 -14   4  -2    5.20    2.20
 -14   4  -2    5.60    2.20
 -14  -4  -2    2.70    2.20
 -14  -4  -3  118.39    6.40
 -14   4  -4  430.76   17.20
 -14  -4  -4  441.76   17.30
 -14   5  10   26.50    3.40
 -14  -5  10   25.90    1.80
 -14  -5  10   31.70    3.20
 -14   5   9  198.28    8.70
 -14   5   9  206.18    9.40
  14  -5  -9  203.08    8.00
 -14  -5   9  188.18    7.80
 -14  -5   9  202.38    8.70
  14   5  -8   10.10    1.80
 -14  -5   8    7.60    3.00
  14  -5  -8    6.90    1.40
 -14  -5   8    7.70    0.90
 -14   5   7   62.59    3.00
 -14   5   7   58.99    4.10
  14   5  -7   60.19    3.90
 -14  -5   7   59.49    2.90
 -14  -5   7   51.69    5.00
  14  -5  -7   58.79    3.20
  14   5  -6    4.50    2.70
 -14   5   6    4.50    3.00
 -14   5   6    2.20    1.80
  14  -5  -6    4.40    1.20
 -14  -5   6    2.80    0.90
 -14   5   5    1.70    1.70
 -14   5   5    4.00    2.80
 -14  -5   5    2.50    0.90
  14  -5  -5    5.00    1.30
 -14   5   4   -1.20    2.50
 -14   5   4    2.70    1.70
 -14  -5   4   -0.30    0.80
  14  -5  -4    0.60    1.30
 -14  -5   4    2.80    3.60
 -14   5   3   41.60    3.50
 -14   5   3   45.20    4.70
 -14  -5   3   59.59    5.40
 -14  -5   3   41.10    2.50
  14  -5  -3   45.70    2.90
 -14   5   2   30.20    3.20
 -14   5   2   34.90    4.60
  14  -5  -2   31.10    2.60
 -14  -5   2   32.50    2.20
 -14  -5   2   34.20    4.50
 -14   5   1  250.47   10.40
 -14  -5   1  239.88   10.90
  14  -5  -1  236.58    9.70
 -14  -5   1  238.38    9.50
 -14   5   0  223.48    9.50
 -14   5   0  229.58   10.30
  14  -5   0  209.68    9.00
 -14  -5   0  229.78   10.20
 -14   5  -1   17.00    2.80
 -14   5  -1   15.80    2.10
 -14  -5  -1   14.20    2.60
 -14   5  -2  110.79    5.70
 -14  -5  -2  121.99    6.30
 -14   5  -3   15.90    2.20
 -14  -5  -3   10.40    2.40
  14   6  -9    8.90    1.40
 -14   6   9   12.70    2.20
 -14  -6   9   10.20    1.00
  14  -6  -9   11.40    1.50
  14   6  -8   13.40    2.20
 -14   6   8   12.20    2.10
 -14  -6   8   12.50    1.10
  14  -6  -8   12.50    1.40
 -14   6   7   81.69    5.00
  14   6  -7   78.49    4.10
 -14  -6   7   76.89    3.40
  14  -6  -7   73.19    3.60
 -14   6   6   -1.00    1.80
  14   6  -6    0.80    1.70
 -14  -6   6   -0.30    0.70
  14  -6  -6   -1.30    1.00
  14   6  -5  438.36   17.00
 -14   6   5  424.86   17.10
  14  -6  -5  428.86   16.70
 -14  -6   5  433.66   16.50
 -14   6   4    8.40    1.90
  14   6  -4    5.80    2.00
 -14  -6   4    3.70    3.40
 -14  -6   4    6.70    1.00
  14  -6  -4    9.00    1.80
 -14   6   3  220.48    9.40
  14   6  -3  217.48    9.30
 -14  -6   3  215.58    8.60
 -14  -6   3  220.28   10.20
 -14   6   2  108.39    5.30
  14  -6  -2  101.19    4.60
 -14  -6   2   96.09    6.10
 -14  -6   2  101.89    4.40
 -14   6   1   45.40    3.40
  14  -6  -1   42.00    2.70
 -14  -6   1   34.20    4.40
 -14   6   0    1.10    1.60
 -14   6   0    0.30    3.20
  14  -6   0   -1.30    1.40
 -14  -6   0    2.90    2.30
 -14   6  -1   -1.60    2.50
 -14  -6  -1    3.50    2.30
 -14   6  -2  137.49    6.50
 -14   6  -2  147.59    6.80
 -14  -6  -2  154.28    7.10
  14   7  -8  276.87   10.70
 -14  -7   8  267.77   10.50
  14  -7  -8  280.97   10.60
  14   7  -7   33.00    2.50
 -14   7   7   30.90    3.50
  14  -7  -7   36.50    2.10
 -14  -7   7   34.70    1.80
 -14   7   6   17.70    2.90
  14   7  -6   14.00    2.20
  14  -7  -6   12.50    1.60
 -14  -7   6   13.80    1.20
  14   7  -5  125.19    5.60
 -14   7   5  124.89    6.60
  14  -7  -5  123.59    5.20
 -14  -7   5  117.09    5.00
  14   7  -4    3.10    1.60
 -14   7   4    4.50    1.70
 -14  -7   4    6.00    3.00
 -14  -7   4    3.10    0.80
  14  -7  -4    4.20    1.10
  14   7  -3   12.00    1.90
 -14   7   3   11.20    1.90
  14  -7  -3   13.40    1.70
 -14  -7   3   13.60    1.30
 -14  -7   3   14.00    4.30
 -14   7   2  203.58    8.60
  14  -7  -2  189.18    7.90
 -14  -7   2  206.78   10.70
 -14   7   1    3.80    1.60
  14  -7  -1    4.90    1.20
 -14   7   0    2.00    1.50
  14  -7   0   -2.60    1.30
 -14  -7   0    0.10    2.20
 -14   7  -1   55.39    3.50
 -14  -7  -1   66.29    4.30
  14   8  -6    9.70    1.40
  14  -8  -6   11.80    1.40
 -14  -8   6   13.90    1.00
 -14   8   5  174.78    7.50
  14  -8  -5  170.98    6.70
 -14  -8   5  163.18    6.60
  14   8  -4   22.60    2.30
 -14   8   4   18.70    2.10
 -14  -8   4   21.90    1.40
  14  -8  -4   19.90    1.70
 -14  -8   4   15.20    3.70
  14   8  -3   88.59    4.20
 -14   8   3   90.89    4.50
 -14  -8   3   81.99    3.50
  14  -8  -3   85.59    3.70
 -14  -8   3   75.29    5.20
 -14   8   2  123.69    5.40
  14  -8  -2  113.29    4.80
 -14  -8   2  109.39    6.10
 -14   8   1   38.80    2.90
 -14  -8   1   45.10    3.80
 -15   0  10  158.38    7.40
 -15   0  10  165.68    7.70
 -15   0   9    4.10    1.00
 -15   0   9    2.80    2.10
 -15   0   9    1.40    2.30
 -15   0   8  725.23   26.90
 -15   0   8  717.83   27.70
 -15   0   8  698.13   28.00
 -15   0   7    1.30    0.90
 -15   0   7   -1.50    2.50
  15   0  -7   -1.10    1.50
 -15   0   7   -2.10    1.80
  15   0  -6   24.50    2.80
 -15   0   6   25.40    1.80
 -15   0   6   23.90    3.40
 -15   0   6   29.70    4.30
  15   0  -5    1.00    1.60
 -15   0   5   -0.50    0.80
 -15   0   4  248.88    9.90
 -15   0   4  244.18   10.90
  15   0  -4  257.27   10.30
  15   0  -3    0.60    1.70
 -15   0   3    0.20    2.30
 -15   0   3    1.00    0.90
 -15   0   2  150.28    8.00
 -15   0   2  157.78    6.40
 -15   0   2  153.78    8.40
  15   0  -2  154.08    7.10
  15   0  -1    3.60    2.60
 -15   0   1   -0.20    0.90
 -15   0   1   -4.60    2.80
 -15   0   0  571.34   22.30
 -15   0   0  547.55   21.20
 -15   0  -1    1.40    2.40
 -15   0  -1   -0.60    1.10
 -15   0  -2  292.17   12.40
 -15   0  -3   -0.30    2.20
 -15   0  -4   56.39    4.10
 -15   1  11   44.50    3.90
 -15   1  11   44.20    3.70
 -15  -1  11   49.90    3.70
 -15   1  10   26.50    3.90
 -15   1  10   27.40    3.40
 -15  -1  10   31.60    3.60
 -15  -1  10   28.40    2.20
 -15   1   9   45.90    3.80
 -15   1   9   46.40    2.60
 -15   1   9   50.09    4.40
 -15  -1   9   51.49    4.20
 -15  -1   9   44.80    4.70
 -15  -1   9   47.90    2.50
 -15   1   8   27.90    4.00
 -15   1   8   30.40    2.00
 -15   1   8   21.50    3.20
  15  -1  -8   39.90    3.80
 -15  -1   8   24.90    3.90
 -15  -1   8   25.80    3.90
 -15  -1   8   26.90    1.90
 -15   1   7   63.09    5.20
 -15   1   7   68.79    3.30
 -15   1   7   65.29    7.80
 -15   1   7   74.69    4.50
 -15  -1   7   70.89    5.20
 -15  -1   7   77.39    5.10
 -15  -1   7   71.29    3.40
  15  -1  -7   73.69    3.90
 -15   1   6  125.99    5.40
 -15   1   6  128.29    8.80
  15   1  -6  128.19    6.00
 -15  -1   6  129.69    5.40
 -15  -1   6  126.09    7.20
  15  -1  -6  130.79    5.90
 -15  -1   6  130.99    6.80
 -15   1   5  169.78    7.90
 -15   1   5  179.78    9.90
 -15   1   5  161.48    6.80
  15   1  -5  172.28    7.50
  15  -1  -5  172.08    7.30
 -15  -1   5  162.68    6.90
 -15  -1   5  163.98    8.10
 -15  -1   5  174.08    8.80
 -15   1   4  377.86   15.70
 -15   1   4  370.06   17.20
  15   1  -4  395.76   15.30
 -15   1   4  377.66   14.80
 -15  -1   4  385.36   14.80
 -15  -1   4  391.06   17.10
  15  -1  -4  384.96   15.20
 -15  -1   4  395.26   16.50
 -15   1   3    2.00    2.00
  15   1  -3    1.10    2.00
 -15  -1   3    1.70    0.90
  15  -1  -3    0.40    1.60
  15   1  -2  153.18    7.10
 -15   1   2  162.28    7.60
  15  -1  -2  154.38    6.90
 -15  -1   2  152.48    6.40
 -15  -1   2  153.58    8.30
 -15   1   1  146.79    7.50
 -15   1   1  152.88    8.00
 -15  -1   1  145.89    6.10
  15  -1  -1  151.18    7.00
 -15  -1   1  147.49    7.90
 -15   1   0  448.66   17.90
 -15  -1   0  439.56   18.00
 -15  -1   0  427.86   17.10
 -15   1  -1   18.00    1.70
 -15   1  -1   23.00    3.00
 -15  -1  -1   21.80    3.00
 -15   1  -2  141.39    7.10
 -15  -1  -2  137.79    7.10
 -15   1  -3   24.80    3.50
 -15  -1  -3   22.50    2.80
 -15   1  -4   12.00    2.20
 -15  -1  -4   10.10    2.20
 -15   2  10   69.79    4.20
 -15   2  10   69.29    4.80
 -15  -2  10   69.49    3.10
 -15  -2  10   68.79    4.40
 -15   2   9  357.96   15.00
 -15   2   9  391.86   14.20
 -15   2   9  358.96   14.60
 -15  -2   9  354.86   14.80
  15  -2  -9  358.96   14.10
 -15  -2   9  345.17   13.80
 -15   2   8    3.60    1.80
 -15   2   8    2.20    2.40
 -15   2   8    2.50    1.00
 -15  -2   8    2.30    2.30
  15  -2  -8    4.30    1.40
 -15  -2   8    2.90    0.90
 -15   2   7   85.09    7.80
 -15   2   7   85.99    4.00
 -15  -2   7   95.89    5.70
 -15  -2   7   87.29    4.00
  15  -2  -7   93.89    4.40
 -15   2   6    1.60    1.80
 -15   2   6    2.10    3.70
 -15   2   6    0.10    0.80
 -15  -2   6    0.40    0.80
 -15  -2   6   -1.60    2.70
  15  -2  -6    1.60    1.40
 -15   2   5   26.10    4.10
 -15   2   5   27.00    1.80
 -15   2   5   27.50    3.10
 -15  -2   5   23.40    3.60
  15  -2  -5   27.50    2.60
 -15  -2   5   24.40    1.90
 -15   2   4  104.09    5.70
 -15   2   4  101.29    7.50
  15  -2  -4  113.39    5.10
 -15  -2   4  107.39    4.60
 -15   2   3   10.20    2.10
 -15   2   3    8.20    3.80
 -15  -2   3    6.10    1.00
  15  -2  -3    3.20    1.70
 -15   2   2   -2.10    4.40
 -15   2   2    4.80    2.00
 -15  -2   2    6.00    3.10
  15  -2  -2    4.20    1.80
 -15  -2   2    1.10    0.90
 -15   2   1    7.90    2.20
 -15   2   1   11.90    3.30
 -15  -2   1    8.10    1.20
  15  -2  -1   10.20    2.10
 -15  -2   1    8.10    2.90
 -15   2   0   30.20    3.50
 -15   2   0   36.30    4.30
 -15  -2   0   27.60    4.20
 -15  -2   0   27.50    2.20
 -15   2  -1  505.55   20.20
 -15  -2  -1  508.35   20.30
 -15   2  -2    6.00    2.30
 -15  -2  -2    6.30    2.20
 -15   2  -3    3.70    2.10
 -15  -2  -3    7.00    2.20
 -15   3  10    6.10    1.80
 -15   3  10    6.90    2.40
 -15  -3  10    5.60    1.20
 -15   3   9   17.50    2.90
 -15  -3   9   14.70    2.40
  15  -3  -9   12.90    1.60
 -15  -3   9   13.70    1.30
 -15   3   8  435.46   17.10
 -15   3   8  427.86   16.30
 -15   3   8  440.76   17.70
  15  -3  -8  427.76   16.50
 -15  -3   8  415.86   16.30
 -15  -3   8  429.16   17.30
 -15   3   7    0.50    0.90
 -15   3   7    1.10    1.70
 -15  -3   7    1.90    2.70
  15  -3  -7    1.90    2.30
 -15   3   6  243.18   12.40
 -15   3   6  263.17   10.20
 -15   3   6  260.27   11.00
 -15  -3   6  259.27   10.20
 -15  -3   6  272.17   11.70
  15  -3  -6  266.67   10.50
 -15   3   5  109.99    7.70
 -15   3   5  125.89    6.10
 -15  -3   5  126.39    5.20
  15  -3  -5  126.89    5.60
 -15   3   4    6.40    1.80
 -15   3   4    5.00    3.30
  15  -3  -4    2.20    1.40
 -15  -3   4    4.60    1.00
 -15   3   3  176.48   10.00
 -15   3   3  197.48    8.50
  15  -3  -3  183.08    7.90
 -15  -3   3  196.48    9.80
 -15  -3   3  193.88    7.60
 -15   3   2   42.50    3.50
 -15   3   2   30.60    4.50
 -15  -3   2   40.80    4.90
  15  -3  -2   41.30    3.00
 -15  -3   2   34.50    2.30
 -15   3   1    2.30    1.90
 -15   3   1    7.50    3.40
 -15  -3   1    6.50    2.70
  15  -3  -1   -0.40    2.10
 -15  -3   1    3.90    1.10
 -15   3   0   87.39    5.80
 -15   3   0   80.29    4.90
 -15  -3   0   85.29    5.60
 -15   3  -1    1.60    2.50
 -15  -3  -1    0.80    2.30
 -15   3  -2   58.99    4.30
 -15  -3  -2   58.69    4.90
 -15   3  -3    7.00    2.00
 -15  -3  -3    7.30    2.20
 -15   4   9  103.59    5.90
 -15   4   9   99.69    5.20
 -15  -4   9  101.09    5.40
  15  -4  -9  103.59    4.50
 -15  -4   9  101.79    4.20
 -15   4   8    8.80    1.50
 -15   4   8    8.30    2.60
 -15   4   8    8.90    1.90
 -15  -4   8    7.00    0.90
  15  -4  -8    8.60    1.30
 -15  -4   8    6.20    2.60
 -15   4   7    3.90    0.90
 -15   4   7    1.90    1.70
 -15  -4   7    7.10    3.40
  15  -4  -7    3.00    1.20
 -15  -4   7    2.80    0.80
 -15   4   6  312.27   12.00
 -15   4   6  309.97   12.80
 -15  -4   6  302.87   12.30
  15  -4  -6  324.07   13.00
 -15   4   5   38.60    3.40
 -15   4   5   38.40    6.30
 -15  -4   5   40.60    2.20
  15  -4  -5   35.70    2.70
 -15   4   4    2.80    1.70
 -15   4   4   -0.90    3.10
 -15  -4   4    2.60    0.90
  15  -4  -4    3.70    1.40
 -15   4   3   53.39    6.10
 -15   4   3   52.69    3.70
 -15  -4   3   48.10    2.60
  15  -4  -3   48.90    3.10
 -15  -4   3   39.70    4.30
 -15   4   2   26.80    3.00
 -15  -4   2   24.60    1.90
  15  -4  -2   29.30    3.70
 -15  -4   2   23.40    3.40
 -15   4   1  147.59    6.80
 -15  -4   1  139.19    7.40
  15  -4  -1  143.29    6.20
 -15  -4   1  143.19    5.90
 -15   4   0   24.50    3.10
 -15   4   0   19.40    4.40
 -15  -4   0   22.30    2.90
 -15   4  -1   57.29    4.30
 -15   4  -1   63.99    4.80
 -15  -4  -1   69.79    4.70
 -15   4  -2   38.40    3.70
 -15  -4  -2   31.00    3.80
 -15   4  -3  341.97   13.90
 -15  -4  -3  351.96   14.00
 -15   5   9   13.30    2.00
 -15   5   9   12.90    2.80
  15  -5  -9   11.70    1.40
 -15  -5   9   12.00    1.10
 -15   5   8   45.40    3.50
 -15   5   8   48.40    4.30
 -15  -5   8   44.10    2.20
  15  -5  -8   47.30    2.60
 -15   5   7  155.38    6.20
 -15   5   7  160.68    7.90
 -15  -5   7  152.38    6.20
  15  -5  -7  152.18    6.40
 -15   5   6    1.60    1.60
 -15   5   6    0.60    0.80
 -15  -5   6    0.20    0.70
  15  -5  -6    0.60    1.10
 -15   5   5    2.60    1.60
 -15  -5   5    1.10    0.70
  15  -5  -5    0.60    1.20
 -15   5   4  159.78    7.20
  15  -5  -4  154.58    6.60
 -15  -5   4  155.08    6.30
 -15   5   3  328.27   13.20
 -15  -5   3  324.17   13.90
  15  -5  -3  315.27   12.60
 -15  -5   3  328.67   12.50
 -15   5   2  363.36   14.20
 -15  -5   2  348.07   13.40
  15  -5  -2  334.57   13.50
 -15  -5   2  352.96   14.70
 -15   5   1   22.60    2.90
 -15  -5   1   17.10    2.90
  15  -5  -1   18.90    2.30
 -15  -5   0  248.98   12.20
 -15   5  -1    0.80    1.80
 -15   5  -1    1.30    2.50
 -15  -5  -1    0.60    2.20
 -15   5  -2  129.29    6.50
 -15  -5  -2  137.79    6.50
 -15   6   8   67.79    5.10
 -15   6   8   60.59    4.00
  15  -6  -8   65.79    3.00
 -15  -6   8   58.29    2.60
 -15  -6   7  334.17   12.90
  15  -6  -7  347.67   13.10
 -15   6   6    3.30    1.70
 -15   6   6    4.50    0.90
 -15  -6   6    3.90    0.70
  15  -6  -6    3.90    1.00
  15  -6  -5   23.00    1.90
 -15  -6   5   18.70    1.40
 -15   6   4  229.38    9.70
  15  -6  -4  226.38    9.10
 -15  -6   4  233.88    8.90
 -15   6   3    1.30    1.50
  15  -6  -3    0.20    1.00
 -15  -6   3    1.50    0.80
 -15  -6   3    3.10    2.80
 -15   6   2   26.00    3.00
 -15  -6   2   33.60    4.40
  15  -6  -2   24.30    2.20
 -15  -6   2   35.30    2.20
 -15   6   1    8.60    1.70
  15  -6  -1    5.00    1.30
 -15  -6   1    6.80    2.40
 -15   6   0   40.70    3.10
 -15  -6   0   44.80    4.00
 -15   6  -1   92.79    5.10
 -15  -6  -1   96.59    5.40
 -15   7   6   45.00    3.50
 -15   7   6   53.49    2.80
  15  -7  -6   50.29    2.50
 -15  -7   6   45.60    2.20
 -15   7   5   61.59    3.70
 -15  -7   5   58.99    2.60
  15  -7  -5   60.39    2.90
 -15   7   4  188.88    7.90
 -15  -7   4  181.88    7.20
  15  -7  -4  188.18    7.40
 -15   7   3    0.10    1.40
 -15  -7   3   -0.90    0.70
 -15  -7   3   -0.60    2.80
  15  -7  -3    0.10    0.90
 -15   7   2   48.80    3.10
  15  -7  -2   47.00    2.50
 -15  -7   2   38.30    4.40
 -15   7   1   68.59    3.80
  15  -7  -1   70.09    3.20
 -15  -7   1   64.49    4.70
 -16   0  10  334.97   13.50
 -16   0   9    0.70    2.10
 -16   0   9   -0.10    0.80
 -16   0   9    0.80    2.30
 -16   0   8   16.70    2.50
 -16   0   8   13.60    2.50
 -16   0   8   16.70    1.40
 -16   0   7    0.20    2.30
 -16   0   7    1.80    0.80
 -16   0   7    4.80    2.20
  16   0  -7   -1.30    1.30
 -16   0   6  410.96   16.50
 -16   0   6  404.26   16.90
  16   0  -6  408.46   16.80
 -16   0   6  418.86   15.80
 -16   0   5    4.30    2.80
  16   0  -5    3.00    1.60
 -16   0   5    1.60    2.30
 -16   0   5    1.80    0.80
 -16   0   4   18.40    2.90
  16   0  -4   16.10    2.10
 -16   0   4   17.20    3.50
 -16   0   4   16.60    1.50
 -16   0   3   -0.10    0.80
  16   0  -2   47.60    3.70
 -16   0   2   48.70    2.90
 -16   0   1    5.90    3.10
 -16   0   0   41.70    2.20
 -16   0   0   37.00    4.70
 -16   0  -1   -0.70    2.40
 -16   0  -2  359.26   14.50
 -16   1  10   -0.10    2.10
 -16  -1  10    1.70    2.00
 -16  -1  10   -0.10    0.80
 -16   1   9   57.99    4.30
 -16   1   9   60.29    3.00
 -16   1   9   53.79    3.90
 -16  -1   9   59.59    2.60
 -16  -1   9   54.59    4.10
 -16   1   8    5.30    2.30
 -16   1   8   11.50    1.30
 -16  -1   8    7.70    0.90
  16  -1  -8    5.60    1.40
 -16   1   7  217.18    8.70
 -16   1   7  216.38    9.50
 -16   1   7  225.88   10.00
 -16  -1   7  218.58    8.70
 -16  -1   7  223.48   10.00
  16  -1  -7  227.48    9.00
 -16   1   6   26.00    3.20
 -16   1   6   22.10    1.70
 -16  -1   6   31.90    4.30
  16  -1  -6   22.10    2.50
 -16  -1   6   22.60    1.70
 -16   1   5   67.69    3.00
 -16  -1   5   60.59    3.00
  16  -1  -5   60.09    4.60
 -16  -1   5   61.49    5.40
 -16   1   4   35.90    2.00
 -16   1   4   37.10    3.80
  16  -1  -4   31.30    3.30
 -16  -1   4   31.80    2.00
 -16   1   3   85.09    3.90
 -16   1   3   93.69    5.50
 -16  -1   3   87.59    3.90
  16  -1  -3   86.99    4.90
 -16   1   2  390.16   14.80
 -16   1   2  388.86   16.60
 -16  -1   2  387.86   16.20
 -16  -1   2  370.76   14.60
  16  -1  -2  371.06   15.00
 -16   1   1  196.28    9.40
 -16   1   1  183.28    7.40
 -16  -1   1  186.88    9.20
 -16  -1   1  186.78    7.40
 -16   1   0   73.29    3.20
 -16  -1   0   71.49    3.30
 -16  -1   0   75.49    5.30
 -16   1  -1    1.70    1.00
 -16   1  -1    1.20    2.40
 -16  -1  -1   -0.40    2.40
 -16   1  -2    0.50    2.30
 -16  -1  -2   -0.40    2.10
 -16   2   9    9.80    1.80
 -16   2   9   10.70    2.40
 -16  -2   9   11.60    2.20
 -16  -2   9    9.20    1.10
 -16   2   8    2.20    2.70
 -16   2   8    7.20    1.00
 -16  -2   8    7.70    2.50
  16  -2  -8    8.70    1.40
 -16  -2   8    9.80    1.10
 -16   2   7    7.90    2.50
 -16   2   7    4.70    1.80
 -16   2   7    5.40    0.90
  16  -2  -7    5.50    1.30
 -16  -2   7    5.20    0.80
 -16   2   6    0.60    0.70
  16  -2  -6    0.60    1.30
 -16  -2   6    1.20    3.00
 -16  -2   6   -0.40    0.70
 -16   2   5  113.09    4.70
 -16   2   5  111.89    5.80
  16  -2  -5  113.49    5.20
 -16  -2   5  110.09    4.80
 -16   2   4   20.20    2.50
 -16   2   4   18.40    1.90
 -16  -2   4   20.70    2.30
  16  -2  -4   18.90    2.50
 -16   2   3    4.00    2.00
 -16  -2   3    2.70    0.90
  16  -2  -3    2.10    1.50
 -16   2   2  184.08    8.10
 -16  -2   2  170.48    8.90
  16  -2  -2  167.88    7.40
 -16  -2   2  176.38    7.00
 -16   2   1  142.19    7.40
  16  -2  -1  139.29    6.60
 -16  -2   1  134.99    7.50
 -16  -2   1  139.69    5.70
 -16   2   0  133.89    7.20
 -16   2   0  131.69    5.30
 -16   2  -1   29.40    3.10
 -16   2  -1   24.90    1.70
 -16  -2  -1   34.70    4.00
 -16   2  -2   96.99    5.60
 -16  -2  -2  106.79    5.50
 -16   3   9   62.39    3.80
 -16   3   9   60.99    4.30
 -16  -3   9   55.59    4.20
 -16  -3   9   58.09    2.60
 -16   3   8    6.20    0.90
 -16   3   8    5.10    1.70
 -16   3   8    4.80    2.30
 -16  -3   8    2.00    2.40
 -16  -3   8    4.30    0.70
  16  -3  -8    5.10    1.20
 -16   3   7  104.89    6.10
 -16   3   7  107.39    5.40
 -16   3   7  106.09    4.40
  16  -3  -7  110.19    4.70
 -16  -3   7  104.29    4.40
 -16  -3   7  105.89    6.10
 -16   3   6   96.89    4.00
 -16   3   6   92.59    5.00
  16  -3  -6   97.59    4.40
 -16  -3   6   93.19    4.00
 -16   3   5   18.50    2.30
 -16   3   5   15.70    1.40
  16  -3  -5   15.70    2.10
 -16  -3   5   16.30    1.40
 -16   3   4  114.09    5.70
  16  -3  -4  110.49    5.10
 -16  -3   4  111.69    4.70
  16  -3  -3   -1.20    1.40
 -16  -3   3    0.30    0.70
 -16   3   2   28.50    3.30
 -16  -3   2   25.50    1.80
  16  -3  -2   25.10    2.60
 -16   3   1   79.69    4.60
 -16  -3   1   70.79    3.20
  16  -3  -1   62.39    4.10
 -16   3   0   99.59    6.20
 -16  -3   0   92.39    5.80
 -16   3  -1    6.80    1.20
 -16   3  -1    3.50    2.70
 -16  -3  -1    6.80    2.30
 -16   4   8  143.29    7.00
 -16   4   8  149.09    6.50
 -16  -4   8  143.99    5.70
  16  -4  -8  145.89    6.00
 -16   4   7    2.00    1.60
 -16   4   7    2.70    0.80
  16  -4  -7    2.90    1.10
 -16  -4   7    2.00    0.70
 -16   4   6   10.90    1.20
 -16   4   6    8.10    2.10
 -16  -4   6    6.70    0.90
  16  -4  -6    9.70    1.40
 -16   4   5  147.69    6.70
 -16   4   5  147.49    5.80
  16  -4  -5  145.49    6.10
 -16  -4   5  138.09    5.80
 -16   4   4   52.09    3.50
 -16  -4   4   47.60    2.30
  16  -4  -4   46.50    2.90
 -16   4   3   68.19    4.10
  16  -4  -3   62.79    3.30
 -16  -4   3   58.79    2.80
 -16   4   2  150.28    8.20
 -16  -4   2  150.68    7.90
 -16  -4   2  163.58    6.20
  16  -4  -2  157.58    6.60
 -16   4   1   68.19    4.30
  16  -4  -1   66.99    3.80
 -16  -4   1   75.39    5.20
 -16   4   0    2.30    2.20
 -16  -4   0   -1.10    2.30
 -16   4  -1  164.48    6.40
 -16  -4  -1  163.28    7.60
 -16   5   7   13.50    1.30
 -16   5   7   14.10    1.80
  16  -5  -7   11.50    1.60
 -16  -5   7   13.20    1.00
 -16   5   6  104.09    5.00
 -16   5   6   98.29    4.10
  16  -5  -6   98.59    4.40
 -16  -5   6   99.39    4.10
 -16   5   5  175.18    6.70
 -16   5   5  175.78    7.50
  16  -5  -5  169.38    7.00
 -16  -5   5  164.78    6.70
 -16   5   4   59.99    3.80
  16  -5  -4   60.39    3.10
 -16  -5   4   60.19    2.70
 -16   5   3   22.30    2.80
 -16  -5   3   21.80    1.50
  16  -5  -3   19.80    2.00
 -16   5   2  141.09    6.20
  16  -5  -2  136.69    5.70
 -16  -5   2  128.89    7.00
 -16  -5   2  133.09    5.40
 -16   5   1   65.19    4.00
  16  -5  -1   67.29    3.50
 -16  -5   1   70.49    4.80
 -16  -5   0   35.80    4.10
 -16   6   5   53.79    3.50
 -16   6   5   51.49    3.00
  16  -6  -5   59.99    2.80
 -16  -6   5   55.79    2.40
 -16   6   4  120.19    5.40
  16  -6  -4  120.09    4.90
 -16  -6   4  106.99    4.60
 -16   6   3   63.29    3.60
  16  -6  -3   57.29    2.90
 -16  -6   3   53.89    2.50
 -16   6   2   32.50    2.90
  16  -6  -2   31.60    2.20
 -17   0   8   63.29    4.30
 -17   0   8   56.89    2.60
 -17   0   7    0.00    0.70
 -17   0   7   -0.10    2.40
 -17   0   6    5.20    2.70
 -17   0   5   -0.60    2.90
 -17   0   5    1.00    0.70
 -17   0   4   27.00    1.60
 -17   0   3    0.80    0.70
 -17   0   2   66.79    3.00
 -17   0   1    0.60    0.80
 -17   0   0   70.89    5.60
 -17   1   8    7.40    0.90
 -17   1   8    7.10    2.20
 -17   1   8    4.80    2.50
 -17  -1   8    4.20    2.40
 -17  -1   8    9.00    1.00
 -17   1   7   50.19    4.00
 -17   1   7   51.79    4.10
 -17   1   7   44.00    2.20
 -17  -1   7   40.90    4.40
 -17  -1   7   45.30    2.20
 -17   1   6    1.80    2.10
 -17   1   6   -0.90    2.40
 -17   1   6    2.50    0.70
 -17  -1   6    1.60    0.70
  17  -1  -6    1.20    1.30
 -17  -1   6    7.20    2.90
 -17   1   5   58.39    4.40
 -17   1   5   57.59    2.70
 -17   1   5   54.59    5.10
 -17  -1   5   56.99    2.70
  17  -1  -5   59.69    3.20
 -17   1   4    9.80    1.10
 -17   1   4   14.20    3.30
  17  -1  -4    7.20    1.60
 -17  -1   4    8.20    0.90
 -17   1   3  349.17   13.40
 -17  -1   3  348.47   13.30
  17  -1  -3  350.96   13.60
 -17   1   2    2.60    0.70
 -17  -1   2    3.40    0.80
 -17   1   1   28.50    1.60
 -17  -1   1   25.20    3.70
 -17  -1   1   24.00    1.70
 -17   1   0   43.30    2.10
 -17  -1   0   50.49    4.80
 -17   2   8    2.10    1.90
 -17   2   8    0.80    0.70
 -17   2   8   -0.50    2.10
 -17  -2   8    0.40    0.50
 -17   2   7   99.99    4.20
 -17   2   7  108.39    5.60
 -17   2   7  102.39    5.20
  17  -2  -7  106.09    4.50
 -17  -2   7  100.29    4.20
 -17   2   6   87.49    4.80
 -17   2   6   95.09    5.50
 -17   2   6   88.99    3.70
 -17  -2   6   89.99    3.70
  17  -2  -6   83.99    4.10
 -17   2   5   24.80    3.20
 -17   2   5   20.70    3.10
 -17   2   5   22.90    1.50
  17  -2  -5   20.80    2.20
 -17  -2   5   25.00    1.50
 -17   2   4  363.46   14.70
 -17   2   4  365.36   14.00
  17  -2  -4  370.76   14.30
 -17  -2   4  371.26   14.00
 -17   2   3  118.09    4.80
 -17  -2   3  113.59    4.70
  17  -2  -3  117.79    5.20
 -17   2   2   18.60    1.40
  17  -2  -2   20.70    2.80
 -17  -2   2   20.20    1.40
 -17   2   1   32.20    1.80
 -17  -2   1   35.00    1.90
 -17  -2   1   32.10    3.70
 -17   2   0  286.17   10.80
 -17  -2   0  280.87   12.20
 -17   3   7    3.20    1.70
 -17   3   7    3.30    0.90
 -17   3   7    2.40    2.20
 -17  -3   7    2.40    0.60
  17  -3  -7    1.80    1.10
 -17   3   6   17.50    2.80
 -17   3   6   28.20    3.60
 -17   3   6   18.10    1.30
  17  -3  -6   16.70    1.90
 -17  -3   6   17.20    1.20
 -17   3   5    5.60    0.80
 -17  -3   5    6.50    0.80
  17  -3  -5    7.10    1.30
 -17   3   4   55.69    3.90
 -17   3   4   53.99    2.40
 -17  -3   4   53.29    2.40
  17  -3  -4   45.60    2.90
 -17   3   3   74.39    3.10
 -17   3   3   74.79    4.60
  17  -3  -3   67.59    3.60
 -17  -3   3   72.29    3.10
 -17   3   2   12.70    1.10
 -17   3   2   10.40    2.70
 -17  -3   2   14.10    1.70
  17  -3  -2   11.70    1.90
 -17   3   1   32.80    1.70
 -17   4   6    3.20    1.70
 -17   4   6    1.50    2.30
 -17  -4   6    2.70    0.60
  17  -4  -6    1.20    1.10
 -17   4   5   95.99    3.90
  17  -4  -5   95.49    4.20
 -17  -4   5   90.79    3.80
 -17   4   4   61.59    2.70
 -17   4   4   67.29    4.00
  17  -4  -4   60.69    3.10
 -17  -4   4   58.99    2.70
 -17   4   3  240.88    9.00
 -17   4   3  234.78    9.70
 -17  -4   3  230.78    8.90
  17  -4  -3  226.08    9.30
 -17   4   2    1.10    0.60
  17  -4  -2    2.80    1.40
 -18   0   5    0.00    0.60
 -18   0   4   52.69    2.40
 -18   0   3    1.10    0.70
 -18   1   5  271.47   10.30
 -18  -1   5  265.57   10.20
 -18   1   4   64.59    2.70
 -18  -1   4   59.39    2.70
 -18   1   3    1.40    0.60
 -18  -1   3    1.70    0.60

_computing_structure_solution     'SHELXT 2014/4 (Sheldrick, 2014)'
;
_shelx_hkl_checksum              22241
loop_
_space_group_symop_operation_xyz
'x, y, z'
'-x, y+1/2, -z+1/2'
'-x, -y, -z'
'x, -y-1/2, z-1/2'
loop_
_atom_site_label
_atom_site_type_symbol
_atom_site_fract_x
_atom_site_fract_y
_atom_site_fract_z
_atom_site_U_iso_or_equiv
_atom_site_adp_type
_atom_site_occupancy
_atom_site_site_symmetry_order
_atom_site_calc_flag
_atom_site_refinement_flags_posn
_atom_site_refinement_flags_adp
Cl2 Cl 0.28379(3) 0.95519(3) 0.44081(3) 0.02829(16) Uani 1 1 d . .
Cl1 Cl 0.61505(3) 0.73897(4) 0.47936(4) 0.03598(16) Uani 1 1 d . .
S1 S 0.12528(2) 0.40778(3) 0.30956(3) 0.01969(15) Uani 1 1 d . .
O3 O 0.40733(8) 0.58324(10) 0.38823(10) 0.0267(3) Uani 1 1 d . .
O2 O 0.05809(8) 0.50282(10) 0.28371(10) 0.0297(3) Uani 1 1 d . .
O1 O 0.12193(9) 0.32312(10) 0.39955(10) 0.0315(3) Uani 1 1 d . .
N2 N 0.35821(9) 0.69447(11) 0.52243(11) 0.0211(3) Uani 1 1 d . .
N1 N 0.23189(9) 0.46744(11) 0.34297(11) 0.0197(3) Uani 1 1 d . .
C13 C 0.22164(10) 0.59619(12) 0.51737(12) 0.0189(3) Uani 1 1 d . .
C14 C 0.25928(11) 0.54237(12) 0.42907(13) 0.0186(3) Uani 1 1 d . .
C8 C 0.28288(11) 0.68894(13) 0.57043(12) 0.0201(3) Uani 1 1 d . .
C6 C 0.44764(10) 0.84834(13) 0.45224(12) 0.0217(3) Uani 1 1 d . .
C12 C 0.14440(11) 0.57195(14) 0.55570(13) 0.0218(3) Uani 1 1 d . .
H12A H 0.1032 0.5087 0.5213 0.026 Uiso 1 1 calc R U
C1 C 0.38106(11) 0.93153(13) 0.39342(13) 0.0221(3) Uani 1 1 d . .
C7 C 0.43704(11) 0.77768(14) 0.55627(13) 0.0252(3) Uani 1 1 d . .
H7A H 0.4948 0.7320 0.5919 0.030 Uiso 1 1 calc R U
H7B H 0.4281 0.8338 0.6167 0.030 Uiso 1 1 calc R U
C2 C 0.38858(12) 0.99783(14) 0.29763(14) 0.0256(3) Uani 1 1 d . .
H2B H 0.3413 1.0530 0.2595 0.031 Uiso 1 1 calc R U
C4 C 0.53499(12) 0.90285(14) 0.31542(15) 0.0275(4) Uani 1 1 d . .
H4A H 0.5887 0.8935 0.2897 0.033 Uiso 1 1 calc R U
C16 C 0.12167(11) 0.32965(13) 0.17510(13) 0.0220(3) Uani 1 1 d . .
C11 C 0.12846(11) 0.64132(15) 0.64459(13) 0.0263(4) Uani 1 1 d . .
H11A H 0.0767 0.6248 0.6726 0.032 Uiso 1 1 calc R U
C9 C 0.26669(13) 0.76052(14) 0.65756(14) 0.0267(4) Uani 1 1 d . .
H9A H 0.3074 0.8243 0.6918 0.032 Uiso 1 1 calc R U
C5 C 0.52524(11) 0.83675(14) 0.41069(14) 0.0245(3) Uani 1 1 d . .
C10 C 0.18827(13) 0.73532(14) 0.69309(14) 0.0286(4) Uani 1 1 d . .
H10A H 0.1752 0.7837 0.7522 0.034 Uiso 1 1 calc R U
C3 C 0.46575(12) 0.98243(14) 0.25846(14) 0.0277(4) Uani 1 1 d . .
H3A H 0.4713 1.0265 0.1923 0.033 Uiso 1 1 calc R U
C19 C 0.19740(13) 0.23464(15) 0.20343(17) 0.0332(4) Uani 1 1 d . .
H19A H 0.1861 0.1779 0.2607 0.050 Uiso 1 1 calc R U
H19B H 0.1969 0.1920 0.1310 0.050 Uiso 1 1 calc R U
H19C H 0.2580 0.2729 0.2369 0.050 Uiso 1 1 calc R U
C18 C 0.02514(13) 0.27320(17) 0.13250(16) 0.0346(4) Uani 1 1 d . .
H18A H 0.0178 0.2151 0.1911 0.052 Uiso 1 1 calc R U
H18B H -0.0222 0.3358 0.1220 0.052 Uiso 1 1 calc R U
H18C H 0.0179 0.2325 0.0571 0.052 Uiso 1 1 calc R U
C17 C 0.13580(14) 0.42069(15) 0.08614(14) 0.0322(4) Uani 1 1 d . .
H17A H 0.1981 0.4555 0.1155 0.048 Uiso 1 1 calc R U
H17B H 0.1293 0.3809 0.0104 0.048 Uiso 1 1 calc R U
H17C H 0.0891 0.4842 0.0754 0.048 Uiso 1 1 calc R U
C15 C 0.35219(10) 0.60527(12) 0.44178(13) 0.0203(3) Uani 1 1 d . .
loop_
_atom_site_aniso_label
_atom_site_aniso_U_11
_atom_site_aniso_U_22
_atom_site_aniso_U_33
_atom_site_aniso_U_23
_atom_site_aniso_U_13
_atom_site_aniso_U_12
Cl2 0.0233(3) 0.0307(3) 0.0327(2) -0.00166(14) 0.01096(18) -0.00094(14)
Cl1 0.0231(3) 0.0323(3) 0.0478(3) -0.00223(16) 0.0030(2) 0.00288(15)
S1 0.0195(2) 0.0204(2) 0.0187(2) -0.00305(12) 0.00506(16) -0.00473(12)
O3 0.0216(6) 0.0280(6) 0.0319(6) -0.0055(4) 0.0098(5) -0.0027(4)
O2 0.0212(6) 0.0311(6) 0.0337(6) -0.0089(5) 0.0032(5) 0.0016(5)
O1 0.0410(7) 0.0314(6) 0.0225(6) 0.0003(4) 0.0100(5) -0.0125(5)
N2 0.0216(7) 0.0214(6) 0.0192(6) -0.0033(5) 0.0040(5) -0.0073(5)
N1 0.0188(7) 0.0186(6) 0.0205(6) -0.0034(5) 0.0041(5) -0.0027(5)
C13 0.0203(8) 0.0177(7) 0.0161(7) 0.0010(5) 0.0013(6) 0.0008(5)
C14 0.0168(7) 0.0162(7) 0.0202(7) 0.0014(5) 0.0013(5) 0.0002(5)
C8 0.0219(8) 0.0188(7) 0.0177(6) 0.0015(5) 0.0028(6) -0.0012(6)
C6 0.0210(8) 0.0200(7) 0.0212(7) -0.0047(5) 0.0018(6) -0.0084(6)
C12 0.0190(8) 0.0241(7) 0.0205(7) 0.0002(5) 0.0029(6) -0.0012(6)
C1 0.0189(8) 0.0226(7) 0.0246(8) -0.0067(6) 0.0060(6) -0.0070(6)
C7 0.0225(8) 0.0262(8) 0.0221(7) -0.0020(6) -0.0010(6) -0.0104(6)
C2 0.0247(8) 0.0222(8) 0.0268(8) -0.0007(6) 0.0029(6) -0.0044(6)
C4 0.0230(8) 0.0298(9) 0.0304(8) -0.0084(6) 0.0088(7) -0.0097(6)
C16 0.0247(8) 0.0216(7) 0.0187(7) -0.0043(6) 0.0047(6) -0.0048(6)
C11 0.0249(8) 0.0326(8) 0.0218(8) -0.0009(6) 0.0072(6) 0.0010(6)
C9 0.0367(9) 0.0233(7) 0.0191(7) -0.0045(5) 0.0068(7) -0.0054(6)
C5 0.0181(8) 0.0228(7) 0.0293(8) -0.0052(6) 0.0018(6) -0.0038(6)
C10 0.0375(10) 0.0278(8) 0.0214(7) -0.0039(6) 0.0102(7) 0.0004(7)
C3 0.0321(9) 0.0274(8) 0.0241(8) -0.0039(6) 0.0089(7) -0.0123(7)
C19 0.0358(10) 0.0264(8) 0.0339(9) -0.0078(6) 0.0049(8) 0.0023(7)
C18 0.0320(10) 0.0390(9) 0.0306(9) -0.0122(7) 0.0056(8) -0.0148(8)
C17 0.0434(10) 0.0325(8) 0.0217(8) -0.0007(6) 0.0114(8) -0.0081(7)
C15 0.0190(8) 0.0189(7) 0.0201(7) 0.0003(5) 0.0012(6) -0.0014(5)
loop_
_atom_type_symbol
_atom_type_description
_atom_type_scat_dispersion_real
_atom_type_scat_dispersion_imag
_atom_type_scat_source
C C 0.0181 0.0091 'International Tables Vol C Tables 4.2.6.8 and 6.1.1.4'
H H 0.0000 0.0000 'International Tables Vol C Tables 4.2.6.8 and 6.1.1.4'
N N 0.0311 0.0180 'International Tables Vol C Tables 4.2.6.8 and 6.1.1.4'
O O 0.0492 0.0322 'International Tables Vol C Tables 4.2.6.8 and 6.1.1.4'
S S 0.3331 0.5567 'International Tables Vol C Tables 4.2.6.8 and 6.1.1.4'
Cl Cl 0.3639 0.7018 'International Tables Vol C Tables 4.2.6.8 and 6.1.1.4'
loop_
_geom_angle_atom_site_label_1
_geom_angle_atom_site_label_2
_geom_angle_atom_site_label_3
_geom_angle
O1 S1 O2 117.98(7)
O1 S1 N1 109.07(7)
O2 S1 N1 108.78(7)
O1 S1 C16 109.75(7)
O2 S1 C16 109.44(7)
N1 S1 C16 100.37(7)
C15 N2 C8 110.73(12)
C15 N2 C7 122.41(13)
C8 N2 C7 126.77(12)
C14 N1 S1 120.47(11)
C12 C13 C8 119.85(14)
C12 C13 C14 133.70(14)
C8 C13 C14 106.44(13)
N1 C14 C13 137.20(14)
N1 C14 C15 116.49(13)
C13 C14 C15 106.01(12)
C9 C8 N2 127.87(14)
C9 C8 C13 121.59(14)
N2 C8 C13 110.54(13)
C5 C6 C1 115.94(14)
C5 C6 C7 122.48(14)
C1 C6 C7 121.57(14)
C11 C12 C13 119.11(14)
C11 C12 H12A 120.4
C13 C12 H12A 120.4
C2 C1 C6 123.06(15)
C2 C1 Cl2 117.54(13)
C6 C1 Cl2 119.40(12)
N2 C7 C6 112.26(12)
N2 C7 H7A 109.2
C6 C7 H7A 109.2
N2 C7 H7B 109.2
C6 C7 H7B 109.2
H7A C7 H7B 107.9
C1 C2 C3 119.10(15)
C1 C2 H2B 120.4
C3 C2 H2B 120.4
C3 C4 C5 119.48(15)
C3 C4 H4A 120.3
C5 C4 H4A 120.3
C17 C16 C18 111.07(14)
C17 C16 C19 111.77(14)
C18 C16 C19 111.29(13)
C17 C16 S1 108.27(10)
C18 C16 S1 105.72(11)
C19 C16 S1 108.46(11)
C12 C11 C10 120.06(15)
C12 C11 H11A 120.0
C10 C11 H11A 120.0
C8 C9 C10 117.33(14)
C8 C9 H9A 121.3
C10 C9 H9A 121.3
C4 C5 C6 122.22(15)
C4 C5 Cl1 117.33(13)
C6 C5 Cl1 120.44(12)
C9 C10 C11 122.01(15)
C9 C10 H10A 119.0
C11 C10 H10A 119.0
C2 C3 C4 120.17(15)
C2 C3 H3A 119.9
C4 C3 H3A 119.9
C16 C19 H19A 109.5
C16 C19 H19B 109.5
H19A C19 H19B 109.5
C16 C19 H19C 109.5
H19A C19 H19C 109.5
H19B C19 H19C 109.5
C16 C18 H18A 109.5
C16 C18 H18B 109.5
H18A C18 H18B 109.5
C16 C18 H18C 109.5
H18A C18 H18C 109.5
H18B C18 H18C 109.5
C16 C17 H17A 109.5
C16 C17 H17B 109.5
H17A C17 H17B 109.5
C16 C17 H17C 109.5
H17A C17 H17C 109.5
H17B C17 H17C 109.5
O3 C15 N2 126.96(14)
O3 C15 C14 127.04(13)
N2 C15 C14 105.95(12)
loop_
_geom_bond_atom_site_label_1
_geom_bond_atom_site_label_2
_geom_bond_distance
Cl2 C1 1.7354(16)
Cl1 C5 1.7432(16)
S1 O1 1.4373(11)
S1 O2 1.4365(12)
S1 N1 1.6745(13)
S1 C16 1.8034(14)
O3 C15 1.2087(19)
N2 C15 1.3654(19)
N2 C8 1.4111(19)
N2 C7 1.4679(19)
N1 C14 1.2903(19)
C13 C12 1.393(2)
C13 C8 1.407(2)
C13 C14 1.458(2)
C14 C15 1.533(2)
C8 C9 1.383(2)
C6 C5 1.400(2)
C6 C1 1.395(2)
C6 C7 1.511(2)
C12 C11 1.384(2)
C12 H12A 0.9500
C1 C2 1.387(2)
C7 H7A 0.9900
C7 H7B 0.9900
C2 C3 1.382(2)
C2 H2B 0.9500
C4 C3 1.386(3)
C4 C5 1.392(2)
C4 H4A 0.9500
C16 C17 1.524(2)
C16 C18 1.528(2)
C16 C19 1.522(2)
C11 C10 1.393(2)
C11 H11A 0.9500
C9 C10 1.393(3)
C9 H9A 0.9500
C10 H10A 0.9500
C3 H3A 0.9500
C19 H19A 0.9800
C19 H19B 0.9800
C19 H19C 0.9800
C18 H18A 0.9800
C18 H18B 0.9800
C18 H18C 0.9800
C17 H17A 0.9800
C17 H17B 0.9800
C17 H17C 0.9800
loop_
_geom_torsion_atom_site_label_1
_geom_torsion_atom_site_label_2
_geom_torsion_atom_site_label_3
_geom_torsion_atom_site_label_4
_geom_torsion
O1 S1 N1 C14 -71.98(13)
O2 S1 N1 C14 57.95(13)
C16 S1 N1 C14 172.76(12)
S1 N1 C14 C13 1.0(2)
S1 N1 C14 C15 -171.66(10)
C12 C13 C14 N1 12.7(3)
C8 C13 C14 N1 -168.81(17)
C12 C13 C14 C15 -174.10(15)
C8 C13 C14 C15 4.38(15)
C15 N2 C8 C9 177.20(15)
C7 N2 C8 C9 0.8(2)
C15 N2 C8 C13 -2.48(16)
C7 N2 C8 C13 -178.91(13)
C12 C13 C8 C9 -2.4(2)
C14 C13 C8 C9 178.82(14)
C12 C13 C8 N2 177.25(13)
C14 C13 C8 N2 -1.48(16)
C8 C13 C12 C11 1.0(2)
C14 C13 C12 C11 179.35(15)
C5 C6 C1 C2 1.5(2)
C7 C6 C1 C2 -179.96(13)
C5 C6 C1 Cl2 -178.34(10)
C7 C6 C1 Cl2 0.24(19)
C15 N2 C7 C6 59.97(19)
C8 N2 C7 C6 -123.98(15)
C5 C6 C7 N2 -115.24(15)
C1 C6 C7 N2 66.27(19)
C6 C1 C2 C3 -0.7(2)
Cl2 C1 C2 C3 179.16(11)
O1 S1 C16 C17 -174.00(11)
O2 S1 C16 C17 55.05(13)
N1 S1 C16 C17 -59.26(12)
O1 S1 C16 C18 66.90(13)
O2 S1 C16 C18 -64.05(12)
N1 S1 C16 C18 -178.36(11)
O1 S1 C16 C19 -52.55(13)
O2 S1 C16 C19 176.51(11)
N1 S1 C16 C19 62.19(12)
C13 C12 C11 C10 1.2(2)
N2 C8 C9 C10 -178.09(14)
C13 C8 C9 C10 1.6(2)
C3 C4 C5 C6 -0.5(2)
C3 C4 C5 Cl1 -179.54(11)
C1 C6 C5 C4 -0.9(2)
C7 C6 C5 C4 -179.44(14)
C1 C6 C5 Cl1 178.13(11)
C7 C6 C5 Cl1 -0.43(19)
C8 C9 C10 C11 0.7(2)
C12 C11 C10 C9 -2.1(3)
C1 C2 C3 C4 -0.8(2)
C5 C4 C3 C2 1.4(2)
C8 N2 C15 O3 -177.31(15)
C7 N2 C15 O3 -0.7(2)
C8 N2 C15 C14 5.09(15)
C7 N2 C15 C14 -178.29(12)
N1 C14 C15 O3 -8.6(2)
C13 C14 C15 O3 176.55(15)
N1 C14 C15 N2 168.99(12)
C13 C14 C15 N2 -5.85(15)
