#------------------------------------------------------------------------------
#$Date: 2016-03-13 15:25:55 +0200 (Sun, 13 Mar 2016) $
#$Revision: 178180 $
#$URL: svn://www.crystallography.net/cod/cif/1/54/28/1542808.cif $
#------------------------------------------------------------------------------
#
# This file is available in the Crystallography Open Database (COD),
# http://www.crystallography.net/
#
# All data on this site have been placed in the public domain by the
# contributors.
#
data_1542808
loop_
_publ_author_name
'Dubey, Ritesh'
'Desiraju, Gautam R.'
_publ_section_title
;
 Combinatorial selection of molecular conformations and supramolecular
 synthons in quercetin cocrystal landscapes: a route to ternary solids
;
_journal_issue                   4
_journal_name_full               IUCrJ
_journal_page_first              402
_journal_page_last               408
_journal_paper_doi               10.1107/S2052252515009884
_journal_volume                  2
_journal_year                    2015
_chemical_formula_sum            'C69 H50 N6 O14 S6'
_chemical_formula_weight         1379.51
_chemical_name_systematic
;
 ?
;
_space_group_crystal_system      triclinic
_space_group_IT_number           2
_space_group_name_Hall           '-P 1'
_space_group_name_H-M_alt        'P -1'
_symmetry_space_group_name_Hall  '-P 1'
_symmetry_space_group_name_H-M   'P -1'
_atom_sites_solution_hydrogens   mixed
_audit_creation_method           SHELXL-2013
_cell_angle_alpha                94.246(7)
_cell_angle_beta                 90.204(6)
_cell_angle_gamma                98.776(7)
_cell_formula_units_Z            2
_cell_length_a                   12.547(2)
_cell_length_b                   13.299(2)
_cell_length_c                   18.490(3)
_cell_measurement_temperature    150(2)
_cell_volume                     3040.5(8)
_computing_structure_refinement  'SHELXL-2013 (Sheldrick, 2013)'
_diffrn_ambient_temperature      150(2)
_diffrn_measured_fraction_theta_full 0.998
_diffrn_measured_fraction_theta_max 0.996
_diffrn_radiation_type           MoK\a
_diffrn_radiation_wavelength     0.71073
_diffrn_reflns_av_R_equivalents  0.0639
_diffrn_reflns_av_unetI/netI     0.0815
_diffrn_reflns_laue_measured_fraction_full 0.998
_diffrn_reflns_laue_measured_fraction_max 0.996
_diffrn_reflns_limit_h_max       16
_diffrn_reflns_limit_h_min       -16
_diffrn_reflns_limit_k_max       17
_diffrn_reflns_limit_k_min       -17
_diffrn_reflns_limit_l_max       23
_diffrn_reflns_limit_l_min       -23
_diffrn_reflns_number            31942
_diffrn_reflns_point_group_measured_fraction_full 0.998
_diffrn_reflns_point_group_measured_fraction_max 0.996
_diffrn_reflns_theta_full        25.242
_diffrn_reflns_theta_max         27.484
_diffrn_reflns_theta_min         3.102
_exptl_absorpt_coefficient_mu    0.302
_exptl_absorpt_correction_T_max  1.000
_exptl_absorpt_correction_T_min  0.696
_exptl_absorpt_correction_type   multi-scan
_exptl_absorpt_process_details   'Jacobson, R. (1998) Private communication'
_exptl_crystal_colour            'Yellow Red'
_exptl_crystal_density_diffrn    1.507
_exptl_crystal_description       Plate
_exptl_crystal_F_000             1428
_exptl_crystal_size_max          0.500
_exptl_crystal_size_mid          0.300
_exptl_crystal_size_min          0.200
_refine_diff_density_max         0.873
_refine_diff_density_min         -0.684
_refine_diff_density_rms         0.086
_refine_ls_extinction_method     none
_refine_ls_goodness_of_fit_ref   1.029
_refine_ls_hydrogen_treatment    mixed
_refine_ls_matrix_type           full
_refine_ls_number_parameters     896
_refine_ls_number_reflns         13902
_refine_ls_number_restraints     0
_refine_ls_restrained_S_all      1.029
_refine_ls_R_factor_all          0.1023
_refine_ls_R_factor_gt           0.0666
_refine_ls_shift/su_max          0.002
_refine_ls_shift/su_mean         0.000
_refine_ls_structure_factor_coef Fsqd
_refine_ls_weighting_details
;
 w=1/[\s^2^(Fo^2^)+(0.0877P)^2^+2.2248P]
 where P=(Fo^2^+2Fc^2^)/3
;
_refine_ls_weighting_scheme      calc
_refine_ls_wR_factor_gt          0.1658
_refine_ls_wR_factor_ref         0.1877
_reflns_Friedel_coverage         0.000
_reflns_number_gt                9440
_reflns_number_total             13902
_reflns_threshold_expression     'I > 2\s(I)'
_cod_data_source_file            lc5063.cif
_cod_data_source_block           QBP_TTF
_cod_depositor_comments
;
The following automatic conversions were performed:

'_exptl_absorpt_correction_type' value 'Multi-scan' changed to
'multi-scan' according to
/usr/data/users/saulius/automatic-downloads/current/IUCr/lib/dictionaries/cif_core.dic
dictionary named 'cif_core.dic' version 2.4.2 from 2011-04-26.

Automatic conversion script
Id: cif_fix_values 4287 2015-11-16 14:04:37Z antanas 
;
_cod_original_cell_volume        3040.5(9)
_cod_database_code               1542808
_publcif_datablock.id            {f1fc3360-95eb-435b-a909-1e50daf33af1}
_shelx_space_group_comment
;
The symmetry employed for this shelxl refinement is uniquely defined
by the following loop, which should always be used as a source of
symmetry information in preference to the above space-group names.
They are only intended as comments.
;
_shelx_estimated_absorpt_t_min   0.864
_shelx_estimated_absorpt_t_max   0.942
_shelxl_version_number           2013-2
_shelx_res_file
;
TITL datam in P-1
CELL  0.71073  12.5471  13.2992  18.4899   94.246   90.204   98.776
ZERR     2.00   0.0022   0.0024   0.0033    0.007    0.006    0.007
LATT   1
SFAC  C    H    N    O    S
UNIT  138  100  12   28   12
MERG   2
HTAB  C14 S2
EQIV $1 x, y+1, z
HTAB C19 O12_$1
HTAB C26 O11
HTAB C11 O4
EQIV $2 x, y-1, z
HTAB C4 O5_$2
EQIV $3 -x, -y, -z+1
HTAB C69 O3_$3
HTAB  C34 S1
EQIV $4 -x+1, -y+1, -z+1
HTAB C37 S4_$4
HTAB C41 O10
EQIV $5 -x+1, -y+1, -z
HTAB C41 S6_$5
EQIV $6 x+1, y+1, z-1
HTAB  C48 O2_$6
HTAB O11 O10
HTAB  O11 N3
EQIV $7 x+1, y, z-1
HTAB O12 N6_$7
EQIV $8 x-1, y, z+1
HTAB O5 N4_$8
HTAB  O4 N5
HTAB O13 O8_$2
HTAB O13 O12
EQIV $9 -x, -y+1, -z+1
HTAB O8 N2_$9
HTAB O9 O10
HTAB O2 O3
HTAB O6 O1_$1
HTAB O6 O5
EQIV $10 -x+1, -y, -z+1
HTAB O1 N1_$10
HTAB C14 S2
HTAB C19 O12_$1
HTAB C26 O11
HTAB C11 O4
HTAB C4 O5_$2
HTAB C69 O3_$3
HTAB C34 S1
HTAB C37 S4_$4
HTAB C41 O10
HTAB C41 S6_$5
HTAB  C48 O2_$6
HTAB O11 O10
HTAB O11 N3
HTAB O12 N6_$7
HTAB O5 N4_$8
HTAB  O4 N5
HTAB O13 O8_$2
HTAB O13 O12
HTAB O8 N2_$9
HTAB O9 O10
HTAB O2 O3
HTAB O6 O1_$1
HTAB O6 O5
HTAB O1 N1_$10
FMAP   2
PLAN   50
ACTA
SIZE 0.50 0.30 0.20
TEMP -123
BOND   $H
L.S.  10
WGHT    0.087700    2.224800
FVAR       0.06188
S1    5    0.397644    0.091717    0.421127    11.00000    0.02104    0.02737 =
         0.02107   -0.00021    0.00144    0.00309
S2    5    0.432879    0.142682    0.579519    11.00000    0.02221    0.03409 =
         0.02021   -0.00055    0.00601   -0.00098
S3    5    0.654890    0.149499    0.395980    11.00000    0.02056    0.03255 =
         0.02438    0.00129    0.00748    0.00615
S4    5    0.692726    0.191902    0.554840    11.00000    0.02414    0.02612 =
         0.02637    0.00061   -0.00106    0.00161
O7    4    0.124732   -0.222713    0.761849    11.00000    0.01713    0.01826 =
         0.02140    0.00078    0.00903    0.00383
O6    4    0.259955    0.241330    0.721982    11.00000    0.02579    0.02226 =
         0.03911    0.00887    0.01757    0.00755
O14   4    0.115031    0.316048    0.334195    11.00000    0.01610    0.01560 =
         0.02488    0.00070    0.00688    0.00428
O1    4    0.215973   -0.558593    0.738424    11.00000    0.02409    0.02200 =
         0.04002    0.00420    0.01673    0.00463
O13   4   -0.004565   -0.144362    0.389102    11.00000    0.02368    0.01616 =
         0.02916    0.00452    0.01217    0.00587
O10   4    0.385661    0.408958    0.221000    11.00000    0.01972    0.02389 =
         0.02901    0.00394    0.01258    0.00590
O8    4    0.031692    0.652711    0.366062    11.00000    0.02305    0.01698 =
         0.03908    0.00216    0.01747    0.00439
O11   4    0.340566    0.210090    0.251711    11.00000    0.01939    0.02092 =
         0.03035    0.00361    0.01274    0.00560
O9    4    0.338869    0.596166    0.232369    11.00000    0.02316    0.02150 =
         0.04025    0.00680    0.01788    0.00515
O4    4   -0.067108   -0.107457    0.874467    11.00000    0.02645    0.02030 =
         0.03309    0.00202    0.01979    0.00682
O12   4    0.158486   -0.128906    0.292775    11.00000    0.02590    0.01663 =
         0.03251    0.00180    0.01525    0.00678
O5    4    0.072178    0.222597    0.795256    11.00000    0.02419    0.02139 =
         0.04461    0.00574    0.02097    0.00928
O2    4   -0.077725   -0.495124    0.883449    11.00000    0.04223    0.02430 =
         0.06263    0.01310    0.03909    0.00729
C8    1   -0.014529   -0.179041    0.840420    11.00000    0.01804    0.02140 =
         0.02149   -0.00071    0.00735    0.00708
O3    4   -0.123037   -0.309722    0.896848    11.00000    0.03190    0.02525 =
         0.04747    0.00666    0.03050    0.00586
C6    1    0.019799   -0.355515    0.824221    11.00000    0.01904    0.02017 =
         0.02390    0.00067    0.00883    0.00276
C1    1    0.104358   -0.322897    0.777924    11.00000    0.01544    0.01913 =
         0.01948    0.00129    0.00380    0.00110
C22   1    0.301798    0.382393    0.256055    11.00000    0.01692    0.02114 =
         0.01876    0.00030    0.00615    0.00510
C24   1    0.181269    0.245881    0.311014    11.00000    0.01627    0.01843 =
         0.01990    0.00108    0.00395    0.00728
C14   1    0.261919    0.062873    0.724235    11.00000    0.01827    0.02613 =
         0.02038    0.00387    0.00968    0.00580
AFIX  43
H14   2    0.329018    0.070684    0.700046    11.00000   -1.20000
AFIX   0
C19   1    0.184422    0.623647    0.299357    11.00000    0.02154    0.01396 =
         0.02837   -0.00084    0.00805    0.00275
AFIX  43
H19   2    0.198703    0.694344    0.291974    11.00000   -1.20000
AFIX   0
C18   1    0.094370    0.584692    0.339310    11.00000    0.01735    0.01812 =
         0.02712   -0.00042    0.00571    0.00466
C26   1    0.173986    0.055321    0.301852    11.00000    0.01767    0.02170 =
         0.01690    0.00231    0.00505    0.00600
AFIX  43
H26   2    0.230726    0.061279    0.267816    11.00000   -1.20000
AFIX   0
C64   1    0.490933    0.132309    0.493097    11.00000    0.02220    0.01818 =
         0.01631    0.00232    0.00352    0.00493
C7    1   -0.045246   -0.284552    0.855854    11.00000    0.01803    0.02279 =
         0.02457    0.00079    0.00796    0.00431
C25   1    0.137296    0.143869    0.332513    11.00000    0.01269    0.02034 =
         0.02040    0.00167    0.00355    0.00364
C23   1    0.273014    0.276843    0.273627    11.00000    0.01837    0.01929 =
         0.01913    0.00215    0.00557    0.00698
C28   1    0.043399   -0.050450    0.371240    11.00000    0.01509    0.01653 =
         0.01978    0.00418    0.00257    0.00280
C11   1    0.066955    0.039297    0.795834    11.00000    0.01352    0.02390 =
         0.01847    0.00185    0.00733    0.00538
AFIX  43
H11   2   -0.000112    0.031698    0.820065    11.00000   -1.20000
AFIX   0
N5    3   -0.234214   -0.138788    0.964151    11.00000    0.02555    0.02722 =
         0.02883    0.00056    0.01088    0.00575
C12   1    0.114050    0.135271    0.778421    11.00000    0.02007    0.02178 =
         0.02200    0.00270    0.00818    0.00714
C16   1    0.139873    0.417358    0.321897    11.00000    0.01499    0.01759 =
         0.01934    0.00307    0.00400    0.00209
C29   1    0.008281    0.036612    0.402338    11.00000    0.01487    0.02033 =
         0.02356    0.00200    0.00858    0.00539
AFIX  43
H29   2   -0.047880    0.030518    0.436797    11.00000   -1.20000
AFIX   0
C63   1    0.597875    0.154882    0.483115    11.00000    0.02180    0.01742 =
         0.02570    0.00236    0.00461    0.00634
C2    1    0.170116   -0.388193    0.746655    11.00000    0.01745    0.02275 =
         0.02134    0.00021    0.00706    0.00228
AFIX  43
H2    2    0.225132   -0.364628    0.714076    11.00000   -1.20000
AFIX   0
C27   1    0.127898   -0.040405    0.320989    11.00000    0.01650    0.01741 =
         0.01868    0.00000    0.00373    0.00593
C30   1    0.054476    0.132505    0.383544    11.00000    0.01799    0.01779 =
         0.02274    0.00187    0.00601    0.00711
AFIX  43
H30   2    0.029724    0.191375    0.405519    11.00000   -1.20000
AFIX   0
C9    1    0.069219   -0.150454    0.795821    11.00000    0.01561    0.01896 =
         0.01898   -0.00081    0.00395    0.00679
C10   1    0.116578   -0.047542    0.778312    11.00000    0.01592    0.02238 =
         0.01738    0.00299    0.00470    0.00299
C17   1    0.071723    0.481468    0.350936    11.00000    0.01579    0.02040 =
         0.02480    0.00151    0.00870    0.00501
AFIX  43
H17   2    0.010857    0.455774    0.378188    11.00000   -1.20000
AFIX   0
C21   1    0.230860    0.452053    0.281743    11.00000    0.01507    0.02144 =
         0.02134    0.00116    0.00404    0.00497
C3    1    0.153396   -0.489456    0.764279    11.00000    0.01958    0.02156 =
         0.02806    0.00059    0.00753    0.00644
C66   1    0.300385    0.101822    0.547600    11.00000    0.01865    0.02989 =
         0.03041    0.00740    0.00667    0.00304
AFIX  43
H66   2    0.241261    0.096608    0.579771    11.00000   -1.20000
AFIX   0
C15   1    0.215429   -0.032898    0.742569    11.00000    0.01905    0.02217 =
         0.01929    0.00003    0.00748    0.00682
AFIX  43
H15   2    0.251223   -0.089805    0.730693    11.00000   -1.20000
AFIX   0
N6    3   -0.665795   -0.107869    1.207882    11.00000    0.02484    0.03718 =
         0.02800   -0.00030    0.01058    0.00964
C20   1    0.252042    0.558479    0.270888    11.00000    0.01808    0.02009 =
         0.02512    0.00176    0.00885    0.00291
C4    1    0.071011   -0.525621    0.810201    11.00000    0.02369    0.01969 =
         0.03561    0.00367    0.01500    0.00211
AFIX  43
H4    2    0.060959   -0.594912    0.821553    11.00000   -1.20000
AFIX   0
C5    1    0.003952   -0.460388    0.839193    11.00000    0.02405    0.02321 =
         0.03182    0.00542    0.01462    0.00183
C13   1    0.211911    0.147421    0.740688    11.00000    0.01907    0.02062 =
         0.02203    0.00690    0.00963    0.00322
C56   1   -0.496516   -0.127780    1.111611    11.00000    0.01669    0.03051 =
         0.02514   -0.00325    0.00677    0.00178
C53   1   -0.405102   -0.135512    1.060851    11.00000    0.02170    0.02653 =
         0.02392    0.00026    0.00847    0.00502
C65   1    0.285811    0.078549    0.477141    11.00000    0.01911    0.02445 =
         0.03111    0.00477    0.00046    0.00454
AFIX  43
H65   2    0.215642    0.055077    0.457422    11.00000   -1.20000
AFIX   0
C62   1    0.803778    0.210127    0.497981    11.00000    0.01750    0.02910 =
         0.05006    0.00197    0.00221    0.00316
AFIX  43
H62   2    0.874290    0.233012    0.517304    11.00000   -1.20000
AFIX   0
C57   1   -0.497606   -0.165435    1.179029    11.00000    0.02789    0.03536 =
         0.04498    0.00591    0.01132    0.00825
AFIX  43
H57   2   -0.439914   -0.197810    1.194451    11.00000   -1.20000
AFIX   0
C61   1    0.787048    0.191229    0.427418    11.00000    0.01931    0.03166 =
         0.04215    0.00314    0.01202    0.00661
AFIX  43
H61   2    0.845223    0.200055    0.394592    11.00000   -1.20000
AFIX   0
C59   1   -0.662325   -0.066913    1.143329    11.00000    0.02565    0.04605 =
         0.04754    0.00334    0.00772    0.00813
AFIX  43
H59   2   -0.718259   -0.030063    1.131263    11.00000   -1.20000
AFIX   0
C54   1   -0.300406   -0.106657    1.083759    11.00000    0.03092    0.04804 =
         0.02372    0.00534    0.00805    0.01173
AFIX  43
H54   2   -0.284376   -0.085716    1.133348    11.00000   -1.20000
AFIX   0
C58   1   -0.584251   -0.155450    1.224229    11.00000    0.03426    0.04204 =
         0.03503    0.00512    0.01624    0.00516
AFIX  43
H58   2   -0.585172   -0.184503    1.269681    11.00000   -1.20000
AFIX   0
C55   1   -0.217748   -0.108102    1.034282    11.00000    0.02424    0.05193 =
         0.03450    0.00355    0.00637    0.00719
AFIX  43
H55   2   -0.145740   -0.086149    1.051118    11.00000   -1.20000
AFIX   0
C60   1   -0.580707   -0.075851    1.093229    11.00000    0.02693    0.05542 =
         0.03442    0.00941    0.00702    0.00906
AFIX  43
H60   2   -0.582211   -0.047357    1.047683    11.00000   -1.20000
AFIX   0
C52   1   -0.420831   -0.172791    0.989304    11.00000    0.02331    0.06573 =
         0.03292   -0.00796    0.00248    0.00490
AFIX  43
H52   2   -0.491648   -0.197861    0.971304    11.00000   -1.20000
AFIX   0
C51   1   -0.333687   -0.173718    0.943767    11.00000    0.03321    0.06148 =
         0.02804   -0.00899    0.00679    0.00686
AFIX  43
H51   2   -0.346821   -0.201196    0.895094    11.00000   -1.20000
AFIX   0
S5    5    0.337926    0.444697    0.039892    11.00000    0.03448    0.04870 =
         0.03399    0.00277    0.01324    0.00344
S6    5    0.440648    0.413575   -0.102516    11.00000    0.04739    0.03508 =
         0.03245    0.00061    0.01471    0.00068
C67   1    0.453822    0.470836   -0.012822    11.00000    0.03353    0.02624 =
         0.03208    0.00521    0.00879    0.00517
C68   1    0.304106    0.369184   -0.095869    11.00000    0.05115    0.05122 =
         0.03296    0.00394    0.00512    0.00070
AFIX  43
H68   2    0.263654    0.336207   -0.136785    11.00000   -1.20000
AFIX   0
C69   1    0.257297    0.382301   -0.032302    11.00000    0.03466    0.05797 =
         0.04487    0.00959    0.00496   -0.00160
AFIX  43
H69   2    0.182751    0.358682   -0.026218    11.00000   -1.20000
AFIX   0
C34   1    0.475333    0.383030    0.397750    11.00000    0.02426    0.02220 =
         0.03546    0.00511    0.01325    0.00374
AFIX  43
H34   2    0.450417    0.316036    0.411262    11.00000   -1.20000
AFIX   0
N2    3    0.138381    0.417285    0.553523    11.00000    0.02130    0.02380 =
         0.02837    0.00223    0.00996    0.00324
N1    3    0.606467    0.493284    0.334533    11.00000    0.01909    0.02580 =
         0.02518    0.00075    0.00738    0.00399
C33   1    0.421228    0.464323    0.420803    11.00000    0.01539    0.02010 =
         0.01719   -0.00015    0.00286    0.00370
C36   1    0.323197    0.447387    0.466464    11.00000    0.01745    0.02225 =
         0.01869   -0.00095    0.00375    0.00457
C32   1    0.463011    0.559758    0.398286    11.00000    0.02374    0.02073 =
         0.03644    0.00431    0.01397    0.00613
AFIX  43
H32   2    0.428607    0.617081    0.411741    11.00000   -1.20000
AFIX   0
C31   1    0.554584    0.571376    0.356329    11.00000    0.02474    0.02042 =
         0.03600    0.00437    0.01305    0.00232
AFIX  43
H31   2    0.582078    0.637529    0.342269    11.00000   -1.20000
AFIX   0
C38   1    0.181032    0.509268    0.534699    11.00000    0.03315    0.02456 =
         0.05366    0.00418    0.02812    0.01138
AFIX  43
H38   2    0.147242    0.565683    0.551484    11.00000   -1.20000
AFIX   0
C40   1    0.278536    0.351661    0.485742    11.00000    0.02932    0.02110 =
         0.05113    0.00638    0.02258    0.00805
AFIX  43
H40   2    0.310190    0.293677    0.469510    11.00000   -1.20000
AFIX   0
C37   1    0.271453    0.528112    0.492243    11.00000    0.03206    0.02105 =
         0.04581    0.00703    0.02105    0.00702
AFIX  43
H37   2    0.298088    0.595721    0.480742    11.00000   -1.20000
AFIX   0
C39   1    0.187984    0.340019    0.528552    11.00000    0.02891    0.02341 =
         0.04329    0.00499    0.01633    0.00517
AFIX  43
H39   2    0.159436    0.273250    0.540901    11.00000   -1.20000
AFIX   0
C35   1    0.565946    0.401933    0.354842    11.00000    0.02759    0.02524 =
         0.03761    0.00722    0.01752    0.00816
AFIX  43
H35   2    0.600974    0.345867    0.339112    11.00000   -1.20000
AFIX   0
N3    3    0.545850    0.252385    0.186845    11.00000    0.02685    0.02798 =
         0.03186    0.00224    0.00860    0.00818
C43   1    0.703824    0.241633    0.079079    11.00000    0.01944    0.03097 =
         0.03460   -0.00227    0.00781    0.00615
N4    3    0.916546    0.207951   -0.101442    11.00000    0.03561    0.03277 =
         0.05966   -0.00237    0.02795    0.00560
C50   1    0.846278    0.158339    0.013218    11.00000    0.03433    0.04712 =
         0.03299   -0.00085    0.00745    0.01860
AFIX  43
H50   2    0.846381    0.113040    0.050597    11.00000   -1.20000
AFIX   0
C45   1    0.588297    0.167637    0.170964    11.00000    0.02692    0.03494 =
         0.02827    0.00916    0.00613    0.01079
AFIX  43
H45   2    0.564036    0.109773    0.197073    11.00000   -1.20000
AFIX   0
C44   1    0.666362    0.158910    0.118181    11.00000    0.02514    0.03969 =
         0.03040    0.00086    0.00423    0.01683
AFIX  43
H44   2    0.693664    0.096428    0.109139    11.00000   -1.20000
AFIX   0
C49   1    0.912324    0.149721   -0.045805    11.00000    0.02636    0.05544 =
         0.03740   -0.00454    0.00663    0.02254
AFIX  43
H49   2    0.957810    0.098724   -0.046695    11.00000   -1.20000
AFIX   0
C46   1    0.780193    0.232368    0.018157    11.00000    0.02347    0.02832 =
         0.04399   -0.00465    0.01457    0.00178
C41   1    0.587085    0.333065    0.152490    11.00000    0.02964    0.02838 =
         0.03935    0.00034    0.00787    0.00767
AFIX  43
H41   2    0.561872    0.395777    0.165135    11.00000   -1.20000
AFIX   0
C42   1    0.664987    0.331949    0.099044    11.00000    0.02781    0.03050 =
         0.03915    0.00029    0.01053    0.00281
AFIX  43
H42   2    0.691357    0.392498    0.076418    11.00000   -1.20000
AFIX   0
C47   1    0.779955    0.293050   -0.042313    11.00000    0.04401    0.02938 =
         0.05843    0.00371    0.02548    0.00892
AFIX  43
H47   2    0.733623    0.343202   -0.043002    11.00000   -1.20000
AFIX   0
C48   1    0.847865    0.278529   -0.100333    11.00000    0.04590    0.03237 =
         0.05315    0.00515    0.02225    0.00355
AFIX  43
H48   2    0.846396    0.319011   -0.140451    11.00000   -1.20000
AFIX   0
H11O  2    0.394987    0.236994    0.234523    11.00000    0.03687
H12O  2    0.217397   -0.119059    0.267149    11.00000    0.04308
H5O   2    0.019544    0.217379    0.826210    11.00000    0.05019
H4O   2   -0.113381   -0.128279    0.903931    11.00000    0.06063
H13O  2    0.014638   -0.187650    0.366456    11.00000    0.05403
H8O   2   -0.009428    0.623164    0.390008    11.00000    0.06272
H9O   2    0.377044    0.541321    0.225387    11.00000    0.07790
H2O   2   -0.100916   -0.443430    0.897121    11.00000    0.14901
H6O   2    0.214431    0.288464    0.733926    11.00000    0.05927
H1O   2    0.264115   -0.531194    0.718912    11.00000    0.05487
HKLF    4

REM  datam in P-1
REM R1 =  0.0666 for    9440 Fo > 4sig(Fo)  and  0.1023 for all   13902 data
REM    896 parameters refined using      0 restraints

END

WGHT      0.0880      2.1715

REM Highest difference peak  0.873,  deepest hole -0.684,  1-sigma level  0.086
Q1    1   0.8554  0.3181  0.0098  11.00000  0.05    0.87
Q2    1  -0.5982 -0.2199  1.1041  11.00000  0.05    0.87
Q3    1   0.9335  0.3042 -0.0435  11.00000  0.05    0.85
Q4    1  -0.5012 -0.0691  1.1668  11.00000  0.05    0.79
Q5    1  -0.6798 -0.2083  1.1556  11.00000  0.05    0.73
Q6    1  -0.3334 -0.0974  0.9349  11.00000  0.05    0.71
Q7    1  -0.4134 -0.0854  0.9809  11.00000  0.05    0.70
Q8    1   0.9656  0.2187 -0.0590  11.00000  0.05    0.70
Q9    1  -0.5832 -0.0595  1.2094  11.00000  0.05    0.66
Q10   1  -0.3319 -0.1765  1.0728  11.00000  0.05    0.60
Q11   1  -0.2450 -0.1729  1.0156  11.00000  0.05    0.57
Q12   1   0.5227  0.3029  0.1109  11.00000  0.05    0.55
Q13   1   0.6090  0.2986  0.0486  11.00000  0.05    0.49
Q14   1   0.0570 -0.3430  0.8036  11.00000  0.05    0.44
Q15   1   0.4376  0.5154  0.4120  11.00000  0.05    0.40
Q16   1   0.1839  0.4379  0.2983  11.00000  0.05    0.40
Q17   1   0.4267  0.1345  0.4556  11.00000  0.05    0.38
Q18   1   0.1997  0.5849  0.2700  11.00000  0.05    0.38
Q19   1   0.6930  0.2205  0.1110  11.00000  0.05    0.36
Q20   1   0.4489  0.4814 -0.1226  11.00000  0.05    0.36
Q21   1   0.2997  0.4410 -0.0714  11.00000  0.05    0.36
Q22   1   0.1160 -0.2650  0.7672  11.00000  0.05    0.35
Q23   1   0.3634  0.4169 -0.1043  11.00000  0.05    0.35
Q24   1   0.1479  0.1448  0.7533  11.00000  0.05    0.34
Q25   1   0.4568  0.4655 -0.0623  11.00000  0.05    0.34
Q26   1   0.6267  0.5026  0.3070  11.00000  0.05    0.33
Q27   1   0.6276  0.1584  0.5073  11.00000  0.05    0.33
Q28   1   0.1624  0.1840  0.3178  11.00000  0.05    0.33
Q29   1   0.1572 -0.0452  0.7583  11.00000  0.05    0.33
Q30   1   0.3380  0.5174  0.0424  11.00000  0.05    0.33
Q31   1   0.4674  0.1725  0.6131  11.00000  0.05    0.32
Q32   1   0.0669 -0.4792  0.8435  11.00000  0.05    0.32
Q33   1   0.1865 -0.4056  0.7511  11.00000  0.05    0.32
Q34   1  -0.2225 -0.1257  0.9838  11.00000  0.05    0.32
Q35   1   0.0845 -0.1058  0.7815  11.00000  0.05    0.32
Q36   1   0.6986  0.2346  0.5906  11.00000  0.05    0.32
Q37   1   0.4223  0.0985  0.5442  11.00000  0.05    0.32
Q38   1   0.5068  0.4037  0.3696  11.00000  0.05    0.31
Q39   1   0.1011 -0.0505  0.3567  11.00000  0.05    0.31
Q40   1   0.4465  0.2023  0.5553  11.00000  0.05    0.31
Q41   1   0.3033  0.1108  0.5100  11.00000  0.05    0.31
Q42   1   0.3266  0.4806  0.4939  11.00000  0.05    0.31
Q43   1   0.4195  0.0772  0.5999  11.00000  0.05    0.31
Q44   1   0.6764  0.1604  0.5229  11.00000  0.05    0.31
Q45   1   0.5721  0.5179  0.3307  11.00000  0.05    0.31
Q46   1   0.6697  0.1413  0.5776  11.00000  0.05    0.30
Q47   1   0.2806  0.3264  0.2611  11.00000  0.05    0.30
Q48   1   0.5385  0.3832  0.3896  11.00000  0.05    0.30
Q49   1   0.2328  0.5038  0.2740  11.00000  0.05    0.30
Q50   1   0.0227  0.0774  0.3764  11.00000  0.05    0.30
;
_shelx_res_checksum              34665
_shelx_hkl_file
;
   0   0   3    2.24    0.07
   0   0  -3    1.75    0.04
   0   0   4    4.79    0.14
   0   0  -4    5.00    0.14
   0   0  -4    4.90    0.11
   0   0   5    1.34    0.08
   0   0  -5    1.24    0.09
   0   0  -5    1.28    0.05
   0   0   6   45.90    1.38
   0   0  -6   46.19    1.05
   0   0  -6   48.50    1.40
   0   0   7   -0.03    0.04
   0   0  -7   -0.01    0.03
   0   0  -7    0.03    0.05
   0   0   8    2.72    0.16
   0   0  -8    2.38    0.14
   0   0  -8    2.53    0.10
   0   0   9    2.78    0.15
   0   0  -9    3.04    0.17
   0   0  -9    2.98    0.13
   0   0  10    2.55    0.18
   0   0 -10    2.88    0.18
   0   0 -10    2.76    0.13
   0   0  11    1.65    0.14
   0   0 -11    1.77    0.11
   0   0 -11    2.33    0.15
   0   0  12    0.66    0.11
   0   0 -12    0.27    0.09
   0   0 -12    0.38    0.07
   0   0  13   10.83    0.54
   0   0 -13    9.66    0.40
   0   0 -13   11.07    0.59
   0   0  14    3.52    0.32
   0   0 -14    3.53    0.22
   0   0 -14    4.17    0.33
   0   0  15    1.68    0.19
   0   0 -15    1.93    0.23
   0   0 -15    1.62    0.14
   0   0  16    4.27    0.39
   0   0 -16    3.99    0.26
   0   0 -16    5.34    0.39
   0   0  17    0.60    0.13
   0   0 -17    0.42    0.09
   0   0 -17    0.64    0.15
   0   0  18    0.88    0.21
   0   0 -18    1.08    0.19
   0   0 -18    0.88    0.13
   0   0  19    1.24    0.26
   0   0 -19    1.53    0.29
   0   0  20    0.15    0.17
   0   0 -20    0.42    0.18
   0   0  21    0.15    0.15
   0   0 -21   -0.00    0.14
   0   0  22   -0.15    0.18
   0   0 -22   -0.13    0.16
   0   0 -23    0.05    0.18
   0   1 -23   -0.31    0.24
   0   1 -22    0.85    0.28
   0   1 -21   -0.29    0.19
   0  -1  21   -0.07    0.15
   0   1 -20    0.49    0.20
   0   1 -20    0.68    0.14
   0  -1  20    0.71    0.20
   0   1 -19    0.80    0.18
   0   1 -19    0.38    0.12
   0  -1  19    0.81    0.19
   0   1 -18    0.03    0.07
   0   1 -18    0.14    0.12
   0  -1  18   -0.13    0.10
   0   1 -17    0.05    0.15
   0   1 -17    0.21    0.09
   0  -1  17    0.14    0.12
   0   1 -16    2.90    0.22
   0   1 -16    3.68    0.34
   0  -1  16    2.91    0.30
   0   1 -15    1.57    0.22
   0   1 -15    1.09    0.14
   0  -1  15    1.14    0.17
   0   1 -14    0.78    0.14
   0   1 -14    0.59    0.12
   0  -1  14    0.58    0.14
   0   1 -13   20.41    0.99
   0  -1  13   20.55    0.96
   0   1 -12   12.79    0.52
   0   1 -12   13.30    0.68
   0  -1  12   12.46    0.59
   0   1 -11   10.22    0.48
   0   1 -11    9.75    0.40
   0  -1  11    9.58    0.44
   0   1 -10   19.27    0.66
   0   1 -10   19.02    0.82
   0  -1  10   18.96    0.75
   0   1  -9    0.09    0.05
   0   1  -9    0.08    0.05
   0  -1   9    0.06    0.05
   0   1  -8    0.28    0.06
   0   1  -8    0.22    0.05
   0  -1   8    0.20    0.05
   0   1  -7    8.87    0.32
   0   1  -7    9.07    0.28
   0  -1   7    9.34    0.31
   0   1  -6    3.15    0.12
   0   1  -6    3.38    0.14
   0  -1   6    3.43    0.13
   0   1  -5    1.27    0.06
   0   1  -5    1.23    0.07
   0  -1   5    1.34    0.07
   0   1  -4    3.25    0.09
   0   1  -4    3.66    0.11
   0  -1   4    3.29    0.09
   0   1  -3   10.57    0.24
   0   1  -3   10.56    0.21
   0  -1   3   11.15    0.18
   0   1   3    1.12    0.06
   0  -1  -3    1.26    0.06
   0   1   4    0.05    0.04
   0  -1  -4   -0.03    0.03
   0  -1  -4    0.00    0.01
   0   1   5   58.21    1.80
   0  -1  -5   60.06    1.60
   0   1   6   26.12    0.89
   0  -1  -6   25.40    0.75
   0   1   7    6.54    0.29
   0  -1  -7    6.79    0.25
   0  -1  -7    5.90    0.15
   0   1   8   21.88    0.87
   0  -1  -8   22.25    0.78
   0   1   9   15.38    0.66
   0  -1  -9   14.90    0.57
   0  -1  -9   13.45    0.36
   0   1  10    3.76    0.24
   0  -1 -10    3.62    0.20
   0  -1 -10    2.96    0.12
   0   1  11    3.04    0.20
   0  -1 -11    2.24    0.10
   0  -1 -11    2.47    0.18
   0   1  12    6.72    0.37
   0  -1 -12    6.42    0.41
   0   1  13    9.06    0.54
   0  -1 -13    9.12    0.50
   0  -1 -13    7.98    0.30
   0   1  14    9.57    0.59
   0  -1 -14    8.15    0.35
   0  -1 -14    9.43    0.60
   0   1  15    0.53    0.13
   0  -1 -15    0.60    0.12
   0  -1 -15    0.33    0.07
   0   1  16    1.31    0.22
   0  -1 -16    1.61    0.21
   0  -1 -16    0.77    0.11
   0   1  17    1.88    0.27
   0  -1 -17    1.11    0.12
   0  -1 -17    1.88    0.21
   0   1  18    0.98    0.20
   0  -1 -18    1.02    0.24
   0   1  19   -0.02    0.16
   0  -1 -19    0.19    0.13
   0   1  20    0.38    0.24
   0  -1 -20    0.76    0.19
   0   1  21    0.34    0.20
   0  -1 -21    0.72    0.24
   0   1  22   -0.06    0.18
   0  -1 -22    0.14    0.15
   0   1  23    0.09    0.23
   0  -1 -23    0.26    0.20
   0   2 -23    0.08    0.20
   0   2 -22    0.37    0.17
   0   2 -21    1.73    0.27
   0   2 -21    0.91    0.20
   0   2 -20    0.28    0.12
   0   2 -20    0.24    0.16
   0  -2  20    0.19    0.15
   0   2 -19    1.04    0.20
   0   2 -19    0.81    0.17
   0  -2  19    0.84    0.18
   0   2 -18    0.02    0.15
   0   2 -18   -0.15    0.09
   0  -2  18   -0.13    0.12
   0   2 -17    1.80    0.21
   0   2 -17    2.15    0.25
   0  -2  17    1.71    0.23
   0   2 -16    2.85    0.27
   0   2 -16    2.44    0.23
   0  -2  16    2.21    0.25
   0   2 -15    0.12    0.13
   0   2 -15    0.26    0.09
   0  -2  15    0.29    0.10
   0   2 -14    0.55    0.12
   0   2 -14    0.38    0.11
   0  -2  14    0.39    0.11
   0   2 -13    1.45    0.16
   0   2 -13    1.41    0.15
   0  -2  13    1.15    0.14
   0   2 -12    0.95    0.12
   0   2 -12    0.98    0.12
   0   2 -11    0.83    0.11
   0   2 -11    0.76    0.11
   0  -2  11    0.86    0.10
   0   2 -10    0.44    0.08
   0   2 -10    0.49    0.07
   0  -2  10    0.40    0.07
   0   2  -9    6.54    0.31
   0   2  -9    6.19    0.27
   0  -2   9    6.46    0.25
   0   2  -8    2.67    0.17
   0   2  -8    2.84    0.14
   0  -2   8    2.62    0.13
   0   2  -7    4.42    0.16
   0   2  -7    4.33    0.18
   0  -2   7    4.54    0.16
   0   2  -6    0.26    0.05
   0   2  -6    0.23    0.04
   0  -2   6    0.16    0.03
   0   2  -5    4.21    0.16
   0   2  -5    4.27    0.14
   0  -2   5    3.94    0.11
   0   2  -4    0.02    0.03
   0  -2   4    0.02    0.02
   0  -2   4    0.04    0.04
   0   2  -3   38.77    0.82
   0   2  -3   33.41    0.62
   0  -2   3   35.63    0.53
   0  -2   3   38.60    0.91
   0   2  -2   15.62    0.32
   0  -2   2   14.30    0.20
   0  -2   2   15.07    0.33
   0   2  -1   45.11    0.85
   0  -2   1   44.37    0.88
   0  -2   0    0.43    0.02
   0  -2   0    0.40    0.02
   0   2   1    0.33    0.02
   0  -2  -1    0.22    0.03
   0  -2  -1    0.33    0.02
   0  -2  -1    0.17    0.02
   0   2   2    2.36    0.04
   0   2   2    2.19    0.11
   0  -2  -2    2.20    0.05
   0  -2  -2    2.56    0.09
   0   2   3    0.48    0.06
   0  -2  -3    0.42    0.05
   0   2   4    0.95    0.10
   0  -2  -4    0.90    0.07
   0   2   5    2.25    0.16
   0  -2  -5    2.39    0.12
   0   2   6    0.35    0.06
   0  -2  -6    0.18    0.05
   0   2   7    2.46    0.18
   0  -2  -7    2.06    0.12
   0   2   8   -0.04    0.06
   0  -2  -8    0.05    0.02
   0  -2  -8    0.10    0.06
   0   2   9    1.28    0.12
   0  -2  -9    0.82    0.05
   0  -2  -9    0.97    0.10
   0   2  10    0.80    0.12
   0  -2 -10    0.35    0.04
   0  -2 -10    0.52    0.10
   0   2  11    8.95    0.57
   0  -2 -11    8.48    0.42
   0   2  12    0.33    0.13
   0  -2 -12    0.11    0.09
   0   2  13   12.67    0.85
   0  -2 -13   11.64    0.64
   0   2  14   -0.03    0.09
   0  -2 -14    0.14    0.09
   0  -2 -14    0.03    0.04
   0   2  15    0.29    0.11
   0  -2 -15    0.11    0.05
   0  -2 -15    0.21    0.10
   0   2  16    0.83    0.22
   0  -2 -16    0.58    0.18
   0   2  17    0.19    0.17
   0  -2 -17    0.19    0.12
   0   2  18    2.72    0.37
   0  -2 -18    2.80    0.32
   0   2  19    0.61    0.26
   0  -2 -19    0.59    0.22
   0   2  20    0.02    0.16
   0  -2 -20    0.00    0.11
   0   2  21    1.68    0.38
   0  -2 -21    1.57    0.36
   0   2  22    0.14    0.19
   0  -2 -22    0.24    0.19
   0   2  23   -0.03    0.23
   0  -2 -23    0.22    0.21
   0   3 -23    1.20    0.30
   0   3 -22    0.10    0.13
   0   3 -22    0.02    0.20
   0   3 -21    0.05    0.12
   0   3 -21    0.10    0.18
   0   3 -20   -0.06    0.11
   0   3 -20    0.03    0.13
   0   3 -19    0.78    0.16
   0   3 -19    1.39    0.26
   0  -3  19    0.94    0.18
   0   3 -18    1.90    0.24
   0   3 -18    2.00    0.25
   0  -3  18    1.36    0.21
   0   3 -17    0.60    0.19
   0   3 -17    0.50    0.15
   0  -3  17    0.61    0.13
   0   3 -16    1.61    0.22
   0   3 -16    1.86    0.23
   0  -3  16    2.19    0.19
   0   3 -15    0.06    0.09
   0   3 -15    0.22    0.09
   0  -3  15   -0.03    0.08
   0   3 -14    3.15    0.26
   0   3 -14    2.83    0.24
   0  -3  14    2.35    0.19
   0   3 -13    1.06    0.15
   0   3 -13    1.16    0.16
   0  -3  13    1.08    0.11
   0   3 -12    2.84    0.19
   0   3 -12    2.81    0.21
   0  -3  12    2.73    0.17
   0   3 -11    3.54    0.22
   0   3 -11    3.52    0.21
   0  -3  11    3.39    0.17
   0   3 -10    0.23    0.06
   0   3 -10    0.53    0.09
   0  -3  10    0.22    0.05
   0   3  -9    0.96    0.11
   0   3  -9    1.13    0.11
   0  -3   9    1.14    0.09
   0   3  -8    7.47    0.31
   0  -3   8    6.99    0.23
   0   3  -7    0.01    0.04
   0  -3   7    0.13    0.06
   0  -3   7   -0.01    0.03
   0   3  -6    4.80    0.19
   0  -3   6    4.91    0.22
   0  -3   6    4.46    0.13
   0   3  -5   20.46    0.58
   0  -3   5   18.91    0.63
   0   3  -4   29.48    0.82
   0  -3   4   30.65    0.90
   0   3  -3    5.61    0.17
   0  -3   3    6.09    0.22
   0   3  -2   73.20    1.79
   0  -3   2   74.43    1.83
   0  -3   2   71.01    1.44
   0   3  -1    7.61    0.20
   0  -3   1    7.95    0.21
   0  -3   1    7.48    0.16
   0   3   0  255.27    5.99
   0  -3   0  263.93    6.37
   0  -3   0  259.85    5.63
   0   3   1   34.68    0.69
   0  -3  -1   34.80    0.81
   0  -3  -1   34.01    0.75
   0  -3  -2    3.40    0.11
   0  -3  -2    3.56    0.13
   0   3   3    0.07    0.05
   0   3   3    0.01    0.01
   0  -3  -3    0.07    0.04
   0   3   4    1.17    0.03
   0  -3  -4    1.26    0.09
   0   3   5   25.95    1.01
   0  -3  -5   26.35    0.80
   0   3   6    3.52    0.25
   0  -3  -6    3.62    0.19
   0   3   7   14.80    0.68
   0  -3  -7   13.73    0.52
   0   3   8    1.57    0.17
   0  -3  -8    1.59    0.12
   0   3   9    0.06    0.07
   0  -3  -9   -0.01    0.02
   0  -3  -9    0.06    0.05
   0   3  10    1.40    0.17
   0  -3 -10    1.33    0.13
   0   3  11    1.55    0.20
   0  -3 -11    1.50    0.15
   0   3  12    1.66    0.22
   0  -3 -12    1.39    0.17
   0   3  13    4.28    0.40
   0  -3 -13    4.41    0.35
   0   3  14    4.49    0.45
   0  -3 -14    3.33    0.30
   0   3  15    0.30    0.15
   0  -3 -15    0.08    0.11
   0   3  16    0.21    0.17
   0  -3 -16    0.10    0.12
   0   3  17    0.11    0.14
   0  -3 -17    0.10    0.15
   0   3  18    1.59    0.37
   0  -3 -18    1.54    0.30
   0   3  19    0.46    0.27
   0  -3 -19    0.59    0.20
   0   3  20    0.24    0.20
   0  -3 -20   -0.02    0.13
   0   3  21   -0.21    0.19
   0  -3 -21    0.41    0.18
   0   3  22    2.15    0.47
   0  -3 -22    1.49    0.32
   0   3  23    1.21    0.44
   0  -3 -23    1.13    0.30
   0  -4  23   -0.10    0.21
   0   4 -22    0.38    0.19
   0  -4  22    0.26    0.31
   0   4 -21    0.36    0.18
   0  -4  21    0.63    0.27
   0  -4  20   -0.07    0.22
   0   4 -19    0.16    0.15
   0  -4  19    0.30    0.19
   0   4 -18    0.04    0.09
   0  -4  18    0.08    0.14
   0   4 -17    0.23    0.10
   0  -4  17    0.11    0.10
   0  -4  17    0.05    0.16
   0   4 -16    0.46    0.12
   0  -4  16    0.48    0.12
   0  -4  16    0.39    0.18
   0   4 -15    1.75    0.19
   0  -4  15    1.43    0.19
   0  -4  15    2.20    0.27
   0   4 -14   -0.06    0.07
   0  -4  14    0.07    0.06
   0  -4  14    0.04    0.10
   0   4 -13   -0.01    0.07
   0  -4  13    0.06    0.06
   0  -4  13    0.03    0.10
   0   4 -12    5.44    0.32
   0  -4  12    5.69    0.39
   0  -4  12    5.12    0.25
   0   4 -11    1.04    0.12
   0  -4  11    1.05    0.10
   0  -4  11    1.21    0.16
   0   4 -10    0.38    0.08
   0  -4  10    0.55    0.14
   0  -4  10    0.28    0.05
   0   4  -9    4.29    0.23
   0  -4   9    4.69    0.29
   0   4  -8    7.35    0.33
   0  -4   8    7.02    0.22
   0  -4   8    8.00    0.42
   0   4  -7    7.47    0.31
   0  -4   7    7.52    0.38
   0   4  -6    0.87    0.07
   0  -4   6    1.04    0.11
   0  -4   6    0.74    0.04
   0   4  -5    2.69    0.13
   0  -4   5    3.01    0.17
   0   4  -4    0.01    0.04
   0  -4   4   -0.02    0.02
   0  -4   4    0.04    0.05
   0   4  -3    0.53    0.06
   0  -4   3    0.46    0.07
   0   4  -2   22.35    0.63
   0  -4   2   22.40    0.65
   0   4  -1   14.88    0.41
   0  -4   1   14.86    0.34
   0  -4   1   14.84    0.44
   0   4   0  114.24    2.95
   0  -4   0  116.57    3.20
   0  -4   0  117.12    2.82
   0   4   1   -0.02    0.03
   0  -4  -1   -0.02    0.03
   0  -4  -1   -0.03    0.03
   0   4   2    7.59    0.19
   0  -4  -2    7.67    0.26
   0  -4  -2    7.18    0.23
   0   4   3    0.50    0.10
   0   4   3    0.60    0.04
   0  -4  -3    0.67    0.06
   0   4   4   37.11    0.72
   0   4   4   38.13    1.56
   0  -4  -4   38.84    1.21
   0   4   5   13.28    0.60
   0  -4  -5   12.99    0.47
   0   4   6   57.25    2.43
   0  -4  -6   53.09    1.91
   0   4   7   12.24    0.62
   0  -4  -7   11.07    0.47
   0   4   8    2.67    0.25
   0  -4  -8    2.70    0.20
   0   4   9   11.72    0.69
   0  -4  -9   11.00    0.52
   0   4  10    7.41    0.59
   0  -4 -10    7.08    0.41
   0   4  11   10.33    0.68
   0  -4 -11    9.74    0.56
   0   4  12    5.40    0.45
   0  -4 -12    4.26    0.32
   0   4  13    0.71    0.18
   0  -4 -13    0.23    0.15
   0   4  14    0.11    0.16
   0  -4 -14    0.25    0.11
   0   4  15    0.51    0.25
   0  -4 -15    0.42    0.14
   0   4  16    1.05    0.29
   0  -4 -16    0.91    0.24
   0   4  17   -0.21    0.14
   0  -4 -17    0.30    0.14
   0   4  18    0.26    0.19
   0  -4 -18    0.24    0.19
   0   4  19    2.20    0.47
   0  -4 -19    1.61    0.31
   0   4  20   -0.01    0.24
   0  -4 -20   -0.21    0.16
   0   4  21    0.22    0.25
   0  -4 -21    0.45    0.19
   0   4  22    0.50    0.27
   0  -4 -22    0.40    0.28
   0   5 -23    0.32    0.20
   0  -5  23    0.07    0.29
   0   5 -22   -0.06    0.15
   0  -5  22    0.01    0.18
   0   5 -21    7.36    0.77
   0  -5  21    9.04    0.95
   0   5 -20    3.37    0.39
   0  -5  20    4.09    0.62
   0  -5  19    3.00    0.44
   0   5 -18    1.61    0.23
   0  -5  18    1.42    0.31
   0   5 -17   -0.08    0.11
   0  -5  17   -0.16    0.14
   0   5 -16    2.46    0.26
   0  -5  16    2.32    0.40
   0   5 -15    0.65    0.14
   0  -5  15    0.51    0.18
   0   5 -14    0.37    0.12
   0  -5  14    0.10    0.07
   0  -5  14    0.30    0.17
   0   5 -13    0.46    0.11
   0  -5  13    0.02    0.13
   0  -5  13    0.25    0.06
   0   5 -12    0.30    0.09
   0  -5  12   -0.00    0.10
   0  -5  12    0.04    0.04
   0   5 -11    0.04    0.08
   0  -5  11    0.02    0.03
   0  -5  11    0.12    0.10
   0   5 -10    0.30    0.10
   0  -5  10    0.63    0.10
   0  -5  10    0.23    0.05
   0   5  -9    0.12    0.06
   0  -5   9    0.06    0.03
   0  -5   9    0.05    0.09
   0   5  -8    1.92    0.15
   0  -5   8    2.00    0.17
   0   5  -7    0.37    0.07
   0  -5   7    0.49    0.10
   0  -5   7    0.28    0.03
   0   5  -6    2.05    0.16
   0  -5   6    2.25    0.18
   0   5  -5   49.37    1.69
   0  -5   5   48.59    1.76
   0   5  -4   10.80    0.41
   0  -5   4   11.56    0.43
   0   5  -3    0.25    0.06
   0  -5   3    0.42    0.07
   0  -5   3    0.29    0.04
   0   5  -2   26.30    0.82
   0  -5   2   27.19    0.66
   0  -5   2   27.91    0.90
   0   5  -1    1.05    0.08
   0  -5   1    0.97    0.06
   0  -5   1    0.91    0.08
   0   5   0   -0.02    0.04
   0  -5   0   -0.05    0.04
   0  -5   0    0.01    0.03
   0   5   1    0.67    0.06
   0  -5  -1    0.67    0.06
   0  -5  -1    0.65    0.06
   0   5   2    0.56    0.05
   0  -5  -2    0.49    0.06
   0  -5  -2    0.32    0.05
   0   5   3    0.03    0.03
   0   5   3    0.25    0.07
   0   5   4    9.71    0.48
   0   5   4    9.44    0.25
   0  -5  -4    9.59    0.40
   0   5   5    6.56    0.42
   0  -5  -5    6.00    0.26
   0   5   6    2.21    0.21
   0  -5  -6    2.18    0.15
   0   5   7    5.34    0.39
   0  -5  -7    5.29    0.28
   0   5   8    0.23    0.12
   0   5   9    1.58    0.23
   0  -5  -9    1.50    0.16
   0   5  10   10.03    0.71
   0  -5 -10    9.57    0.55
   0   5  11   11.62    0.86
   0  -5 -11   11.52    0.70
   0   5  12    2.29    0.32
   0  -5 -12    2.18    0.26
   0   5  13    9.42    0.88
   0  -5 -13    8.59    0.53
   0   5  14    6.57    0.76
   0  -5 -14    6.19    0.52
   0   5  15    1.96    0.35
   0  -5 -15    1.64    0.24
   0   5  16   14.94    1.26
   0  -5 -16   12.84    0.98
   0   5  17    2.98    0.57
   0  -5 -17    3.57    0.44
   0   5  18    0.37    0.27
   0  -5 -18    0.34    0.21
   0   5  19    0.18    0.30
   0  -5 -19    0.63    0.24
   0   5  20    1.28    0.41
   0  -5 -20    1.54    0.35
   0   5  21    0.83    0.42
   0  -5 -21    0.80    0.30
   0   5  22    0.10    0.25
   0  -5 -22   -0.08    0.19
   0   6 -23    0.10    0.19
   0   6 -22    1.29    0.37
   0  -6  22    2.44    0.43
   0   6 -21   -0.00    0.17
   0  -6  21    0.20    0.22
   0   6 -20    1.40    0.35
   0  -6  20    2.68    0.46
   0   6 -19    0.41    0.21
   0  -6  19    0.78    0.28
   0   6 -18    5.33    0.59
   0  -6  18    6.68    0.73
   0   6 -17    4.77    0.49
   0  -6  17    4.53    0.52
   0   6 -16    0.16    0.12
   0  -6  16   -0.11    0.13
   0   6 -15    0.63    0.15
   0  -6  15    0.80    0.20
   0   6 -14    0.65    0.15
   0  -6  14    0.71    0.22
   0   6 -13    5.14    0.44
   0  -6  13    5.46    0.49
   0   6 -12    0.08    0.11
   0  -6  12    0.16    0.10
   0   6 -11    6.56    0.42
   0  -6  11    7.95    0.52
   0   6 -10    0.57    0.11
   0  -6  10    0.50    0.15
   0   6  -9    1.54    0.15
   0  -6   9    1.32    0.16
   0   6  -8    4.99    0.33
   0  -6   8    5.35    0.32
   0   6  -7   14.22    0.65
   0  -6   7   14.67    0.69
   0   6  -6   20.52    0.84
   0  -6   6   21.97    0.95
   0   6  -5   39.39    1.41
   0  -6   5   35.40    0.95
   0  -6   5   41.61    1.49
   0   6  -4    8.43    0.34
   0  -6   4    7.91    0.33
   0   6  -3   30.79    1.12
   0  -6   3   31.18    0.80
   0  -6   3   30.97    1.12
   0   6  -2    6.47    0.27
   0  -6   2    6.90    0.28
   0  -6   2    6.46    0.21
   0   6  -1    1.30    0.09
   0  -6   1    1.54    0.12
   0  -6   1    1.40    0.08
   0   6   0    0.32    0.06
   0  -6   0    0.37    0.06
   0  -6   0    0.35    0.06
   0   6   1    1.72    0.11
   0  -6  -1    2.09    0.12
   0  -6  -1    2.12    0.10
   0   6   2   10.30    0.34
   0   6   2    8.77    0.44
   0  -6  -2    9.48    0.37
   0   6   3    9.19    0.29
   0   6   3    8.58    0.44
   0  -6  -3    8.95    0.36
   0   6   4    1.87    0.10
   0   6   4    2.29    0.22
   0  -6  -4    1.75    0.13
   0   6   5    1.13    0.17
   0   6   5    0.83    0.06
   0  -6  -5    1.02    0.12
   0   6   6    2.64    0.29
   0  -6  -6    2.30    0.17
   0   6   7    5.65    0.46
   0  -6  -7    5.47    0.33
   0   6   8    0.57    0.19
   0  -6  -8    0.46    0.12
   0   6   9    0.40    0.19
   0  -6  -9    0.42    0.13
   0   6  10    0.18    0.20
   0  -6 -10    0.44    0.11
   0   6  11    0.87    0.24
   0  -6 -11    0.95    0.16
   0   6  12    1.94    0.31
   0  -6 -12    2.07    0.23
   0   6  13    0.68    0.22
   0  -6 -13    0.51    0.14
   0   6  14   -0.15    0.23
   0  -6 -14    0.31    0.12
   0   6  15    0.07    0.19
   0  -6 -15    0.36    0.16
   0   6  16    1.68    0.40
   0  -6 -16    1.57    0.30
   0   6  17    1.26    0.39
   0  -6 -17    0.92    0.22
   0   6  18    0.99    0.33
   0  -6 -18    0.39    0.20
   0   6  19   -0.12    0.24
   0  -6 -19    0.53    0.22
   0   6  20    0.62    0.35
   0  -6 -20    1.03    0.33
   0   6  21    0.38    0.35
   0  -6 -21    0.24    0.23
   0   7 -22    0.16    0.13
   0  -7  22   -0.45    0.21
   0   7 -21    0.11    0.18
   0  -7  21    0.51    0.26
   0   7 -20   -0.15    0.19
   0  -7  20   -0.17    0.24
   0   7 -19    0.21    0.19
   0  -7  19    0.26    0.20
   0   7 -18    2.46    0.40
   0  -7  18    2.32    0.39
   0   7 -17   11.93    1.01
   0  -7  17   12.17    1.11
   0   7 -16    6.04    0.57
   0  -7  16    6.55    0.61
   0   7 -15    4.12    0.41
   0  -7  15    4.68    0.45
   0   7 -14    3.38    0.27
   0  -7  14    0.40    0.23
   0   7 -13    0.12    0.11
   0  -7  13   -0.14    0.10
   0   7 -12    1.25    0.18
   0  -7  12    1.21    0.24
   0   7 -11    0.66    0.16
   0  -7  11    0.68    0.18
   0   7 -10    2.22    0.21
   0  -7  10    2.46    0.26
   0   7  -9    3.21    0.24
   0  -7   9    3.10    0.26
   0   7  -8    0.06    0.08
   0  -7   8    0.23    0.08
   0  -7   8    0.07    0.03
   0   7  -7    0.24    0.07
   0  -7   7    0.21    0.10
   0  -7   7    0.02    0.03
   0   7  -6    5.60    0.30
   0  -7   6    6.09    0.31
   0   7  -5    3.94    0.27
   0  -7   5    4.59    0.27
   0  -7   5    4.20    0.15
   0   7  -4    0.34    0.08
   0  -7   4    0.40    0.05
   0  -7   4    0.54    0.10
   0   7  -3   16.45    0.65
   0  -7   3   17.09    0.52
   0  -7   3   17.33    0.69
   0   7  -2    9.82    0.45
   0  -7   2    9.28    0.39
   0  -7   2    9.57    0.32
   0   7  -1    7.00    0.35
   0  -7   1    7.09    0.31
   0  -7   1    7.47    0.27
   0   7   0    6.48    0.31
   0  -7   0    7.51    0.34
   0  -7   0    6.81    0.25
   0   7   1    0.58    0.08
   0  -7  -1    0.56    0.09
   0  -7  -1    0.68    0.08
   0   7   2    1.86    0.12
   0   7   2    2.00    0.20
   0  -7  -2    1.98    0.14
   0   7   3    2.30    0.14
   0   7   3    2.30    0.20
   0  -7  -3    2.26    0.15
   0   7   4   10.95    0.62
   0   7   4    9.70    0.36
   0  -7  -4   10.28    0.47
   0   7   5    0.92    0.07
   0   7   5    1.29    0.17
   0  -7  -5    1.16    0.14
   0   7   6    1.49    0.19
   0  -7  -6    0.82    0.14
   0   7   7    0.08    0.13
   0  -7  -7    0.10    0.07
   0   7   8    0.53    0.19
   0  -7  -8    0.31    0.10
   0   7   9    2.00    0.30
   0  -7  -9    2.03    0.19
   0   7  10   -0.05    0.15
   0  -7 -10    0.22    0.12
   0   7  11    6.97    0.65
   0  -7 -11    6.65    0.53
   0   7  12    0.39    0.25
   0  -7 -12    0.22    0.16
   0   7  13    3.26    0.49
   0  -7 -13    3.07    0.36
   0   7  14    3.58    0.47
   0  -7 -14    2.75    0.37
   0   7  15    0.28    0.20
   0  -7 -15   -0.06    0.10
   0   7  16   -0.16    0.22
   0  -7 -16    0.04    0.13
   0   7  17    5.48    0.78
   0  -7 -17    4.85    0.54
   0   7  18    1.89    0.53
   0  -7 -18    1.75    0.33
   0   7  19    0.26    0.36
   0  -7 -19    0.54    0.25
   0   7  20    0.07    0.24
   0  -7 -20    0.25    0.23
   0   7  21    1.13    0.35
   0  -7 -21    0.35    0.32
   0   8 -21    0.26    0.21
   0  -8  21    0.50    0.30
   0   8 -20    0.11    0.18
   0  -8  20   -0.27    0.21
   0   8 -19    0.79    0.29
   0  -8  19    1.27    0.28
   0   8 -18    0.06    0.19
   0  -8  18    0.15    0.20
   0   8 -17    0.09    0.12
   0  -8  17   -0.14    0.13
   0   8 -16   15.43    1.22
   0  -8  16   15.99    1.21
   0   8 -15    0.34    0.20
   0  -8  15    0.59    0.22
   0   8 -14    0.13    0.12
   0  -8  14   -0.00    0.13
   0   8 -13    0.31    0.17
   0  -8  13    0.49    0.16
   0   8 -12    0.08    0.10
   0  -8  12    0.16    0.12
   0   8 -11    1.44    0.23
   0  -8  11    1.47    0.21
   0   8 -10    0.02    0.08
   0  -8  10   -0.04    0.08
   0   8  -9    0.15    0.13
   0  -8   9    0.39    0.13
   0   8  -8    1.10    0.16
   0  -8   8    1.37    0.16
   0   8  -7    0.07    0.08
   0  -8   7    0.05    0.04
   0  -8   7    0.22    0.08
   0   8  -6    1.09    0.15
   0  -8   6    0.74    0.13
   0   8  -5    0.84    0.13
   0  -8   5    0.64    0.11
   0  -8   5    0.82    0.06
   0   8  -4    0.07    0.06
   0  -8   4    0.09    0.04
   0  -8   4    0.13    0.06
   0   8  -3    0.37    0.08
   0  -8   3    0.59    0.07
   0  -8   3    0.61    0.09
   0   8  -2    1.26    0.14
   0  -8   2    1.14    0.12
   0  -8   2    1.45    0.10
   0   8  -1    0.84    0.11
   0  -8   1    0.71    0.08
   0  -8   1    0.71    0.12
   0   8   0    0.09    0.07
   0  -8   0    0.08    0.04
   0  -8   0    0.12    0.06
   0   8   1    1.22    0.14
   0   8   1    1.12    0.11
   0  -8  -1    1.28    0.12
   0   8   2    0.84    0.10
   0   8   2    0.97    0.13
   0  -8  -2    0.80    0.13
   0   8   3    4.04    0.31
   0  -8  -3    4.32    0.29
   0   8   4    0.06    0.05
   0   8   4   -0.07    0.09
   0  -8  -4    0.08    0.08
   0   8   5    2.16    0.15
   0   8   5    3.26    0.34
   0  -8  -5    2.90    0.23
   0   8   6    1.79    0.28
   0  -8  -6    2.11    0.19
   0   8   7    3.31    0.33
   0  -8  -7    2.63    0.23
   0   8   8    0.65    0.17
   0  -8  -8    0.29    0.11
   0   8   9    2.86    0.44
   0  -8  -9    2.50    0.24
   0   8  10   19.19    1.47
   0  -8 -10   18.03    1.12
   0   8  11   10.87    0.95
   0  -8 -11    9.03    0.73
   0   8  12    1.12    0.38
   0  -8 -12    1.26    0.25
   0   8  13    0.29    0.23
   0  -8 -13    0.28    0.18
   0   8  14    0.09    0.21
   0  -8 -14   -0.03    0.10
   0   8  15    2.01    0.47
   0  -8 -15    1.08    0.25
   0   8  16    5.21    0.76
   0  -8 -16    4.96    0.59
   0   8  17    2.29    0.59
   0  -8 -17    1.71    0.32
   0   8  18    2.36    0.53
   0  -8 -18    1.25    0.31
   0   8  19    1.28    0.39
   0  -8 -19    0.96    0.35
   0   8  20   -0.05    0.27
   0  -8 -20   -0.06    0.20
   0   9 -21    1.19    0.42
   0  -9  21    2.16    0.50
   0   9 -20    2.18    0.52
   0  -9  20    2.89    0.56
   0   9 -19    0.14    0.19
   0  -9  19    0.29    0.21
   0   9 -18    0.30    0.23
   0  -9  18    0.24    0.26
   0   9 -17    4.14    0.59
   0  -9  17    4.50    0.63
   0   9 -16    1.27    0.28
   0  -9  16    1.25    0.28
   0   9 -15    4.50    0.54
   0  -9  15    4.48    0.55
   0   9 -14    2.29    0.32
   0  -9  14    2.17    0.38
   0   9 -13    0.02    0.15
   0  -9  13    0.25    0.14
   0   9 -12   -0.06    0.10
   0  -9  12    0.09    0.10
   0   9 -11    0.24    0.15
   0  -9  11    0.16    0.13
   0   9 -10    3.38    0.35
   0  -9  10    3.06    0.32
   0   9  -9    0.93    0.17
   0  -9   9    1.07    0.17
   0   9  -8    2.09    0.23
   0  -9   8    2.07    0.24
   0   9  -7   -0.03    0.10
   0  -9   7    0.41    0.08
   0  -9   7   -0.01    0.03
   0   9  -6    1.00    0.17
   0  -9   6    0.85    0.08
   0  -9   6    1.11    0.17
   0   9  -5    0.94    0.15
   0  -9   5    0.71    0.07
   0  -9   5    0.74    0.14
   0   9  -4    0.69    0.14
   0  -9   4    0.74    0.08
   0  -9   4    1.03    0.12
   0   9  -3    0.92    0.14
   0  -9   3    0.99    0.09
   0  -9   3    1.15    0.15
   0   9  -2    2.85    0.21
   0  -9   2    3.44    0.17
   0  -9   2    3.56    0.23
   0   9  -1    0.04    0.07
   0  -9   1   -0.03    0.07
   0  -9   1    0.24    0.06
   0   9   0    0.10    0.07
   0   9   0    0.12    0.10
   0  -9   0    0.15    0.08
   0   9   1    0.04    0.09
   0   9   1    0.16    0.07
   0  -9  -1    0.20    0.08
   0   9   2   -0.05    0.06
   0   9   2    0.21    0.11
   0  -9  -2    0.13    0.07
   0   9   3    2.42    0.16
   0   9   3    2.83    0.32
   0  -9  -3    2.61    0.20
   0   9   4    1.30    0.12
   0   9   4    1.59    0.26
   0  -9  -4    1.91    0.18
   0   9   5    0.16    0.07
   0   9   5    0.63    0.19
   0  -9  -5    0.43    0.10
   0   9   6    0.16    0.12
   0   9   6    0.05    0.05
   0  -9  -6    0.07    0.08
   0   9   7    1.05    0.23
   0  -9  -7    0.33    0.12
   0   9   8    0.96    0.26
   0  -9  -8    1.15    0.20
   0   9   9    1.56    0.32
   0  -9  -9    1.78    0.25
   0   9  10    1.00    0.34
   0  -9 -10    0.88    0.22
   0   9  11    0.17    0.21
   0  -9 -11    0.23    0.13
   0   9  12    1.21    0.41
   0  -9 -12    1.44    0.23
   0   9  13    2.49    0.51
   0  -9 -13    3.00    0.36
   0   9  14    0.09    0.32
   0  -9 -14    0.47    0.21
   0   9  15    1.26    0.36
   0  -9 -15    0.76    0.25
   0   9  16    3.52    0.67
   0  -9 -16    3.08    0.43
   0   9  17    1.83    0.65
   0  -9 -17    1.91    0.41
   0   9  18    1.31    0.39
   0  -9 -18    0.79    0.32
   0   9  19   -0.38    0.29
   0  -9 -19    0.25    0.18
   0  10 -20    0.08    0.26
   0 -10  20    0.54    0.28
   0  10 -19    0.29    0.25
   0 -10  19    0.22    0.21
   0  10 -18    0.05    0.17
   0 -10  18    0.26    0.19
   0  10 -17   -0.17    0.18
   0 -10  17    0.28    0.19
   0  10 -16    1.52    0.33
   0 -10  16    2.80    0.43
   0  10 -15    3.71    0.57
   0 -10  15    4.73    0.51
   0  10 -14    2.11    0.34
   0 -10  14    2.50    0.34
   0  10 -13   -0.07    0.12
   0 -10  13    0.22    0.15
   0  10 -12    0.05    0.14
   0 -10  12    0.10    0.15
   0  10 -11    1.09    0.20
   0 -10  11    0.78    0.23
   0  10 -10    0.94    0.20
   0 -10  10    0.81    0.19
   0  10  -9   28.90    1.75
   0 -10   9   31.12    1.78
   0  10  -8    0.75    0.22
   0 -10   8    1.06    0.21
   0  10  -7    0.72    0.15
   0 -10   7    0.27    0.15
   0  10  -6    0.08    0.10
   0 -10   6    0.04    0.05
   0 -10   6    0.01    0.08
   0  10  -5    2.55    0.25
   0 -10   5    2.78    0.14
   0 -10   5    3.07    0.27
   0  10  -4    0.22    0.09
   0 -10   4    0.18    0.11
   0 -10   4    0.19    0.06
   0  10  -3    5.63    0.42
   0 -10   3    5.97    0.30
   0 -10   3    6.07    0.40
   0  10  -2    2.11    0.23
   0  10  -2    2.58    0.20
   0 -10   2    2.03    0.20
   0  10  -1    0.29    0.11
   0 -10   1    0.41    0.10
   0  10   0    5.67    0.43
   0  10   0    4.92    0.30
   0 -10   0    5.63    0.39
   0  10   1    3.42    0.27
   0  10   1    4.31    0.38
   0 -10  -1    4.85    0.33
   0  10   2   -0.01    0.14
   0  10   2    0.09    0.07
   0 -10  -2    0.17    0.11
   0  10   3    0.92    0.14
   0 -10  -3    1.47    0.17
   0  10   4    1.81    0.21
   0  10   4    2.77    0.34
   0 -10  -4    3.35    0.27
   0  10   5    1.83    0.16
   0  10   5    2.97    0.39
   0 -10  -5    3.09    0.28
   0  10   6    3.61    0.45
   0 -10  -6    3.55    0.34
   0  10   7    0.53    0.25
   0 -10  -7    0.38    0.13
   0  10   8   -0.02    0.18
   0 -10  -8    0.16    0.11
   0  10   9   13.85    1.38
   0 -10  -9   12.61    0.84
   0  10  10    4.31    0.63
   0 -10 -10    5.14    0.51
   0  10  11   -0.15    0.24
   0 -10 -11   -0.13    0.16
   0  10  12    1.69    0.39
   0 -10 -12    1.59    0.31
   0  10  13    0.67    0.37
   0 -10 -13    0.51    0.23
   0  10  14    0.73    0.36
   0 -10 -14    0.76    0.23
   0  10  15    0.19    0.30
   0 -10 -15    0.10    0.15
   0  10  16   -0.05    0.25
   0 -10 -16    0.15    0.20
   0  10  17    0.02    0.32
   0 -10 -17   -0.09    0.16
   0  10  18    0.00    0.23
   0 -10 -18    0.07    0.21
   0  11 -19    0.17    0.24
   0 -11  19    0.02    0.20
   0  11 -18    0.81    0.31
   0 -11  18    1.30    0.31
   0  11 -17    0.08    0.19
   0 -11  17    0.00    0.17
   0  11 -16    0.00    0.18
   0 -11  16   -0.08    0.16
   0  11 -15   -0.05    0.14
   0 -11  15    0.12    0.15
   0  11 -14    0.10    0.18
   0 -11  14   -0.24    0.17
   0  11 -13    0.16    0.20
   0 -11  13    0.23    0.15
   0  11 -12    0.60    0.21
   0 -11  12    1.01    0.21
   0  11 -11    0.23    0.15
   0 -11  11    0.36    0.16
   0  11 -10    4.66    0.46
   0 -11  10    4.92    0.44
   0  11  -9    0.05    0.12
   0 -11   9   -0.10    0.12
   0  11  -8    1.63    0.28
   0 -11   8    1.71    0.26
   0  11  -7    0.54    0.15
   0 -11   7    0.60    0.17
   0  11  -6   -0.01    0.09
   0 -11   6   -0.04    0.04
   0  11  -5   -0.03    0.06
   0  11  -5    0.06    0.09
   0 -11   5    0.10    0.08
   0  11  -4    0.46    0.15
   0  11  -4    0.40    0.12
   0 -11   4    0.22    0.13
   0  11  -3    4.46    0.36
   0  11  -3    4.32    0.35
   0 -11   3    4.41    0.38
   0  11  -2    0.88    0.18
   0  11  -2    1.24    0.18
   0 -11   2    0.56    0.18
   0  11  -1    0.66    0.17
   0  11  -1    0.93    0.19
   0 -11   1    0.89    0.18
   0  11   0   10.95    0.65
   0  11   0   12.14    0.83
   0 -11   0   12.96    0.76
   0  11   1    0.57    0.15
   0  11   1    0.69    0.21
   0 -11  -1    0.69    0.17
   0  11   2   16.70    0.92
   0  11   2   17.61    1.21
   0 -11  -2   17.75    0.96
   0  11   3    0.21    0.18
   0  11   3    0.12    0.09
   0 -11  -3    0.17    0.10
   0  11   4    0.16    0.10
   0  11   4    0.72    0.22
   0 -11  -4    0.76    0.16
   0  11   5    0.31    0.12
   0  11   5    0.23    0.20
   0 -11  -5    0.60    0.16
   0  11   6    1.67    0.35
   0 -11  -6    1.81    0.28
   0  11   7   41.79    3.33
   0 -11  -7   38.13    2.23
   0  11   8    3.81    0.53
   0 -11  -8    3.12    0.35
   0  11   9   14.81    1.37
   0 -11  -9   13.33    1.03
   0  11  10    0.53    0.38
   0 -11 -10    0.92    0.26
   0  11  11   15.18    1.49
   0 -11 -11   13.41    1.05
   0  11  12    0.46    0.37
   0 -11 -12    0.49    0.23
   0  11  13    0.01    0.26
   0 -11 -13    0.35    0.21
   0  11  14    3.28    0.78
   0 -11 -14    2.51    0.38
   0  11  15    0.62    0.33
   0 -11 -15    0.44    0.22
   0  11  16    0.14    0.38
   0 -11 -16    0.20    0.22
   0  11  17   -0.10    0.30
   0 -11 -17    0.20    0.19
   0  12 -18   -0.39    0.19
   0 -12  18    0.33    0.17
   0  12 -17    1.82    0.43
   0 -12  17    2.66    0.42
   0  12 -16    3.07    0.52
   0 -12  16    4.63    0.53
   0  12 -15    0.90    0.28
   0 -12  15    0.37    0.24
   0  12 -14    1.10    0.30
   0 -12  14    1.95    0.38
   0  12 -13    0.22    0.18
   0 -12  13    0.20    0.21
   0  12 -12    0.67    0.23
   0 -12  12    1.07    0.23
   0  12 -11    0.18    0.16
   0 -12  11    0.57    0.17
   0  12 -10    0.24    0.17
   0 -12  10   -0.05    0.16
   0  12  -9    0.70    0.21
   0 -12   9    0.80    0.22
   0  12  -8    3.41    0.39
   0 -12   8    4.77    0.45
   0  12  -7    0.17    0.13
   0 -12   7    0.23    0.14
   0  12  -6    0.37    0.17
   0 -12   6    0.24    0.12
   0  12  -5   -0.03    0.09
   0  12  -5    0.08    0.12
   0 -12   5    0.13    0.11
   0  12  -4    3.91    0.36
   0  12  -4    3.71    0.34
   0 -12   4    3.83    0.37
   0  12  -3    0.93    0.19
   0  12  -3    0.84    0.21
   0 -12   3    0.83    0.20
   0  12  -2    3.89    0.39
   0  12  -2    3.07    0.37
   0 -12   2    3.51    0.31
   0  12  -1    0.45    0.18
   0  12  -1    0.48    0.16
   0 -12   1    0.49    0.16
   0  12   0    0.01    0.14
   0  12   0   -0.05    0.11
   0 -12   0    0.20    0.12
   0  12   1    0.68    0.23
   0  12   1    0.76    0.17
   0 -12  -1    0.65    0.15
   0  12   2    1.12    0.29
   0  12   2    0.82    0.18
   0 -12  -2    1.21    0.18
   0  12   3    0.06    0.18
   0  12   3    0.27    0.12
   0 -12  -3    0.31    0.14
   0  12   4    1.27    0.26
   0  12   4    0.60    0.16
   0 -12  -4    1.09    0.21
   0  12   5    0.02    0.21
   0  12   5    0.00    0.09
   0 -12  -5    0.39    0.12
   0  12   6    1.50    0.40
   0 -12  -6    1.26    0.27
   0  12   7    1.63    0.39
   0 -12  -7    0.77    0.20
   0  12   8    8.75    0.95
   0 -12  -8    7.80    0.67
   0  12   9    6.51    0.81
   0 -12  -9    5.59    0.56
   0  12  10   -0.53    0.28
   0 -12 -10    0.01    0.14
   0  12  11    0.58    0.31
   0 -12 -11    0.56    0.21
   0  12  12    0.44    0.34
   0 -12 -12    0.65    0.21
   0  12  13    0.70    0.40
   0 -12 -13    0.29    0.20
   0  12  14    1.49    0.43
   0 -12 -14    0.79    0.34
   0  12  15    0.05    0.30
   0 -12 -15    0.01    0.16
   0  13 -16    1.37    0.43
   0 -13  16    1.72    0.35
   0  13 -15    1.35    0.40
   0 -13  15    2.90    0.41
   0  13 -14    0.28    0.22
   0 -13  14    0.64    0.27
   0  13 -13    0.42    0.23
   0 -13  13    0.71    0.26
   0  13 -12    1.06    0.30
   0 -13  12    1.79    0.29
   0  13 -11    3.78    0.48
   0 -13  11    4.53    0.48
   0  13 -10    3.09    0.44
   0 -13  10    3.42    0.40
   0  13  -9    7.69    0.71
   0 -13   9    9.08    0.77
   0  13  -8    0.84    0.21
   0  13  -7    0.15    0.18
   0 -13   7    0.26    0.16
   0  13  -6    0.65    0.19
   0 -13   6    0.72    0.19
   0  13  -5    4.20    0.36
   0 -13   5    0.77    0.27
   0  13  -4    0.55    0.17
   0  13  -4    0.30    0.16
   0 -13   4    0.68    0.18
   0  13  -3    1.79    0.32
   0  13  -3    2.41    0.31
   0 -13   3    1.91    0.24
   0  13  -2    0.38    0.20
   0  13  -2    0.65    0.19
   0 -13   2    0.57    0.18
   0  13  -1    3.35    0.40
   0  13  -1    4.15    0.46
   0 -13   1    3.91    0.41
   0  13   0    0.10    0.15
   0  13   0    0.29    0.20
   0 -13   0    0.48    0.17
   0  13   1    1.96    0.29
   0  13   1    1.26    0.26
   0 -13  -1    1.50    0.28
   0  13   2    0.34    0.15
   0  13   2    0.52    0.23
   0 -13  -2    0.28    0.17
   0  13   3    0.04    0.10
   0  13   3   -0.40    0.18
   0 -13  -3    0.02    0.13
   0  13   4    1.24    0.35
   0  13   4    0.91    0.18
   0 -13  -4    1.09    0.21
   0  13   5    4.37    0.63
   0 -13  -5    3.00    0.45
   0  13   6    0.21    0.21
   0 -13  -6    0.07    0.16
   0  13   7    1.80    0.44
   0 -13  -7    2.17    0.30
   0  13   8   -0.15    0.21
   0 -13  -8   -0.13    0.14
   0  13   9    0.10    0.31
   0 -13  -9    0.19    0.15
   0  13  10    0.38    0.25
   0 -13 -10   -0.08    0.13
   0  13  11    0.14    0.23
   0 -13 -11   -0.12    0.15
   0  13  12   -0.13    0.28
   0 -13 -12    0.32    0.20
   0  13  13    0.10    0.42
   0 -13 -13    0.41    0.25
   0  13  14    0.12    0.38
   0 -13 -14    0.26    0.21
   0  14 -15    0.20    0.16
   0 -14  15   -0.16    0.15
   0  14 -14    0.28    0.19
   0 -14  14    0.23    0.24
   0  14 -13   -0.00    0.14
   0 -14  13    0.05    0.15
   0  14 -12    0.25    0.16
   0 -14  12   -0.04    0.17
   0  14 -11    0.28    0.14
   0 -14  11   -0.27    0.13
   0  14 -10    0.22    0.18
   0 -14  10    0.18    0.16
   0  14  -9    0.20    0.23
   0 -14   9    0.49    0.17
   0  14  -8    0.50    0.28
   0 -14   8    1.00    0.26
   0  14  -7    0.26    0.18
   0 -14   7    0.54    0.16
   0  14  -6    1.06    0.34
   0 -14   6    2.07    0.29
   0  14  -5    0.19    0.17
   0 -14   5    0.44    0.17
   0  14  -4    0.94    0.27
   0 -14   4    0.84    0.25
   0  14  -3    5.58    0.63
   0  14  -3    6.32    0.65
   0 -14   3    6.51    0.58
   0  14  -2    0.37    0.18
   0  14  -2    0.13    0.18
   0 -14   2    0.30    0.17
   0  14  -1    0.01    0.14
   0  14  -1   -0.01    0.12
   0 -14   1    0.01    0.10
   0  14   0    0.87    0.24
   0  14   0    0.95    0.32
   0 -14   0    1.15    0.21
   0  14   1    1.46    0.39
   0  14   1    1.06    0.27
   0 -14  -1    2.03    0.30
   0  14   2    0.33    0.19
   0  14   2    0.37    0.29
   0 -14  -2    1.03    0.21
   0  14   3    4.05    0.58
   0  14   3    1.79    0.34
   0 -14  -3    3.63    0.35
   0  14   4    0.16    0.21
   0 -14  -4   -0.02    0.12
   0  14   5    1.58    0.44
   0 -14  -5    1.14    0.25
   0  14   6    0.25    0.29
   0 -14  -6    0.19    0.18
   0  14   7    0.46    0.34
   0 -14  -7    0.31    0.22
   0  14   8    2.01    0.61
   0 -14  -8    2.15    0.39
   0  14   9    0.17    0.33
   0 -14  -9    0.21    0.21
   0  14  10    0.03    0.27
   0 -14 -10    0.24    0.17
   0  14  11    0.78    0.38
   0 -14 -11    0.51    0.25
   0  14  12    1.46    0.48
   0 -14 -12    1.08    0.39
   0  15 -13    0.06    0.18
   0  15 -12   -0.02    0.19
   0 -15  12    0.37    0.21
   0  15 -11    0.16    0.18
   0 -15  11    0.04    0.18
   0  15 -10    0.01    0.21
   0 -15  10    0.17    0.18
   0  15  -9    0.23    0.21
   0 -15   9    0.00    0.18
   0  15  -8   -0.06    0.21
   0 -15   8    0.83    0.19
   0  15  -7   -0.08    0.19
   0  15  -6    0.14    0.16
   0  15  -5    0.12    0.18
   0 -15   5    0.19    0.16
   0  15  -4    0.33    0.20
   0 -15   4    0.08    0.15
   0  15  -3    1.10    0.29
   0 -15   3    0.98    0.22
   0  15  -2    0.82    0.26
   0  15  -2    0.93    0.26
   0 -15   2    0.63    0.20
   0  15  -1    1.23    0.33
   0  15  -1    1.13    0.29
   0 -15   1    1.06    0.23
   0  15   0   -0.10    0.17
   0  15   0   -0.03    0.14
   0 -15   0    0.03    0.12
   0  15   1    0.60    0.28
   0  15   1    0.39    0.20
   0 -15  -1    0.32    0.18
   0  15   2    1.35    0.28
   0  15   2    1.44    0.36
   0 -15  -2    1.75    0.27
   0  15   3    0.13    0.25
   0  15   4    0.70    0.32
   0 -15  -4    0.15    0.22
   0  15   5   -0.14    0.27
   0 -15  -5    0.19    0.15
   0  15   6   -0.09    0.21
   0 -15  -6   -0.01    0.14
   0  15   7    0.07    0.25
   0 -15  -7    0.22    0.17
   0 -15  -8   -0.11    0.16
   0  15   9   -0.03    0.26
   0 -15  -9    0.18    0.21
   0  16 -10    0.82    0.30
   0  16  -9   -0.01    0.24
   0 -16   9   -0.19    0.20
   0  16  -8    1.04    0.32
   0 -16   8    0.77    0.23
   0  16  -7    0.68    0.32
   0  16  -6    0.17    0.18
   0 -16   6    0.10    0.20
   0  16  -5    1.51    0.40
   0 -16   5    1.61    0.36
   0  16  -4    0.57    0.22
   0 -16   4    0.07    0.15
   0  16  -3    1.04    0.34
   0 -16   3    1.53    0.33
   0  16  -2    0.49    0.25
   0 -16   2    0.37    0.22
   0  16  -1    0.06    0.17
   0 -16   1    0.07    0.13
   0  16   0    0.43    0.27
   0  16   0    0.73    0.34
   0 -16   0    0.88    0.22
   0  16   1    0.02    0.23
   0 -16  -1   -0.10    0.15
   0  16   2   -0.11    0.23
   0 -16  -2    0.11    0.16
   0  16   3    1.34    0.44
   0 -16  -3    0.89    0.32
   0  16   4    0.08    0.27
   0 -16  -4    0.08    0.20
   0  16   5    1.59    0.51
   0 -16  -5    1.08    0.34
   0  16   6   -0.00    0.23
   0 -16  -6   -0.06    0.15
   0  17  -3    0.03    0.19
   0  17  -2   -0.00    0.17
   0 -17   2    0.01    0.16
   0 -17   1    0.27    0.22
   0 -17   0    0.99    0.27
   1 -17  -1    0.62    0.25
   1 -17   0    0.65    0.22
   1 -17   1   -0.02    0.14
  -1  17  -1    0.18    0.15
   1 -17   2    0.20    0.19
  -1  17  -2   -0.01    0.20
   1 -17   3    3.29    0.46
  -1  17  -3    2.26    0.52
   1 -17   4    0.30    0.19
  -1  17  -4    0.46    0.22
   1 -17   5    0.58    0.23
  -1  17  -5    0.16    0.28
  -1  16   7    0.10    0.34
   1 -16  -6    2.13    0.47
  -1  16   6    3.07    0.71
   1 -16  -5   -0.06    0.18
  -1  16   5   -0.04    0.28
   1 -16  -4    0.02    0.24
  -1  16   4    1.04    0.35
   1 -16  -3    1.47    0.29
  -1  16   3    1.91    0.44
   1 -16  -2    0.36    0.17
  -1  16   2    0.23    0.26
   1 -16  -1    0.83    0.19
  -1  16   1    0.05    0.20
  -1  16   1    1.13    0.34
   1 -16   0    0.15    0.14
  -1  16   0    0.16    0.18
  -1  16   0    0.03    0.25
   1 -16   1    0.67    0.20
  -1  16  -1    1.02    0.32
  -1  16  -1    0.51    0.26
   1 -16   2    0.21    0.15
  -1  16  -2    0.22    0.20
   1 -16   3    0.20    0.17
  -1  16  -3    0.21    0.21
   1 -16   4    0.15    0.20
  -1  16  -4    0.45    0.23
   1 -16   5   -0.06    0.15
  -1  16  -5   -0.05    0.14
   1 -16   6   -0.01    0.13
  -1  16  -6    0.17    0.18
   1 -16   7    0.38    0.19
  -1  16  -7    0.08    0.18
   1 -16   8    0.18    0.16
  -1  16  -8    0.12    0.23
   1 -16   9   -0.04    0.17
  -1  16  -9   -0.06    0.20
   1 -16  10    0.01    0.16
  -1  16 -10   -0.00    0.16
  -1  15  10    0.70    0.50
   1 -15  -9    0.61    0.27
  -1  15   9    0.18    0.36
   1 -15  -8    1.03    0.32
  -1  15   8    0.80    0.41
   1 -15  -7    0.21    0.20
  -1  15   7    0.08    0.30
   1 -15  -6    0.02    0.18
  -1  15   6    0.18    0.28
   1 -15  -5    1.14    0.32
  -1  15   5    1.78    0.48
   1 -15  -4    0.18    0.19
  -1  15   4    0.27    0.30
   1 -15  -3    0.07    0.15
  -1  15   3   -0.06    0.21
   1 -15  -2    1.14    0.26
  -1  15   2    1.39    0.39
  -1  15   2    0.73    0.25
   1 -15  -1    0.14    0.16
  -1  15   1    0.04    0.16
  -1  15   1    0.19    0.22
   1 -15   0    0.37    0.16
  -1  15   0    0.20    0.20
  -1  15   0    0.43    0.21
   1 -15   1    3.95    0.39
  -1  15  -1    3.75    0.57
  -1  15  -1    2.55    0.39
   1 -15   2    0.77    0.18
  -1  15  -2    0.30    0.24
  -1  15  -2    0.12    0.17
   1 -15   3    0.09    0.14
  -1  15  -3    0.19    0.17
  -1  15  -3   -0.06    0.17
   1 -15   4    0.78    0.21
  -1  15  -4    0.26    0.24
   1 -15   5   -0.19    0.15
  -1  15  -5    0.04    0.14
   1 -15   6    0.08    0.13
  -1  15  -6    0.16    0.18
   1 -15   7    0.15    0.16
  -1  15  -7    0.08    0.15
   1 -15   8    0.63    0.17
  -1  15  -8    0.26    0.22
   1 -15   9    0.30    0.19
  -1  15  -9    0.20    0.23
   1 -15  10   -0.11    0.13
  -1  15 -10    0.10    0.18
  -1  15 -11    0.60    0.29
   1 -15  12    0.27    0.20
  -1  15 -12    0.45    0.27
   1 -15  13    0.42    0.24
  -1  15 -13    0.19    0.26
   1 -14 -12   -0.25    0.25
  -1  14  12   -0.45    0.42
   1 -14 -11    1.32    0.38
  -1  14  11    1.40    0.49
   1 -14 -10    0.71    0.25
  -1  14  10    1.19    0.41
   1 -14  -9    0.90    0.24
  -1  14   9    0.42    0.44
   1 -14  -8   -0.07    0.12
  -1  14   8    0.22    0.25
   1 -14  -7    0.01    0.12
   1 -14  -6    0.06    0.16
  -1  14   6    1.04    0.26
   1 -14  -5    2.26    0.35
  -1  14   5    2.50    0.57
   1 -14  -4    0.95    0.27
  -1  14   4    1.09    0.39
   1 -14  -3    0.70    0.19
  -1  14   3    0.30    0.16
  -1  14   3    0.33    0.29
   1 -14  -2    1.94    0.25
  -1  14   2    2.17    0.44
  -1  14   2    1.14    0.28
   1 -14  -1    0.39    0.17
  -1  14   1    0.11    0.15
  -1  14   1    0.20    0.22
   1 -14   0    0.89    0.19
  -1  14   0    0.80    0.21
  -1  14   0    1.17    0.30
   1 -14   1    0.09    0.14
  -1  14  -1    0.25    0.15
  -1  14  -1    0.00    0.18
   1 -14   2    0.72    0.20
  -1  14  -2    0.69    0.23
  -1  14  -2    0.64    0.22
   1 -14   3    2.01    0.25
  -1  14  -3    2.11    0.31
  -1  14  -3    1.41    0.26
   1 -14   4    0.15    0.14
  -1  14  -4    1.51    0.20
  -1  14  -4    0.15    0.21
   1 -14   5    0.36    0.14
  -1  14  -5    0.15    0.16
   1 -14   6    0.04    0.10
  -1  14  -6   -0.18    0.15
   1 -14   7   -0.08    0.10
  -1  14  -7    0.09    0.15
   1 -14   8    2.17    0.33
  -1  14  -8    1.75    0.32
   1 -14   9    0.06    0.13
  -1  14  -9   -0.03    0.12
   1 -14  10    1.40    0.33
  -1  14 -10    1.43    0.28
   1 -14  11    0.19    0.17
  -1  14 -11   -0.04    0.16
   1 -14  12    0.52    0.28
  -1  14 -12    0.99    0.26
   1 -14  13    0.37    0.22
  -1  14 -13    0.02    0.19
   1 -14  14   -0.06    0.15
  -1  14 -14    0.09    0.15
   1 -14  15    0.11    0.23
  -1  14 -15    0.16    0.24
   1 -13 -14    0.02    0.19
  -1  13  14    0.48    0.30
   1 -13 -13   -0.07    0.18
  -1  13  13   -0.07    0.25
   1 -13 -12    0.19    0.20
  -1  13  12    0.29    0.36
   1 -13 -11    0.96    0.25
  -1  13  11    1.25    0.43
   1 -13 -10    0.69    0.22
  -1  13  10    0.80    0.45
   1 -13  -9    0.19    0.15
  -1  13   9    0.20    0.24
   1 -13  -8   -0.21    0.15
  -1  13   8   -0.34    0.25
   1 -13  -7    0.43    0.19
  -1  13   7    0.44    0.33
   1 -13  -6    0.15    0.16
  -1  13   6    0.29    0.22
   1 -13  -5    1.69    0.25
  -1  13   5    2.07    0.45
   1 -13  -4    1.83    0.27
  -1  13   4    0.91    0.24
  -1  13   4    2.31    0.42
   1 -13  -3    1.02    0.20
  -1  13   3    0.59    0.16
  -1  13   3    0.63    0.24
   1 -13  -2    0.40    0.15
  -1  13   2    0.03    0.19
  -1  13   2    0.35    0.13
   1 -13  -1    0.18    0.11
  -1  13   1    0.09    0.13
  -1  13   1    0.41    0.19
  -1  13   0    2.09    0.26
  -1  13   0    2.28    0.38
   1 -13   1    2.02    0.26
  -1  13  -1    2.06    0.31
  -1  13  -1    1.20    0.22
   1 -13   2    0.10    0.10
  -1  13  -2    0.13    0.14
  -1  13  -2   -0.05    0.11
   1 -13   3    0.32    0.15
  -1  13  -3    0.32    0.13
  -1  13  -3    0.20    0.12
   1 -13   4    0.18    0.09
   1 -13   4    0.29    0.11
  -1  13  -4    0.09    0.15
   1 -13   5    0.21    0.14
   1 -13   5    0.30    0.09
  -1  13  -5    0.14    0.14
   1 -13   6    0.44    0.15
  -1  13  -6    0.21    0.15
   1 -13   7    0.83    0.21
  -1  13  -7    0.91    0.25
   1 -13   8    0.98    0.20
  -1  13  -8    0.96    0.27
   1 -13   9    3.27    0.35
  -1  13  -9    2.28    0.44
   1 -13  10   -0.30    0.19
  -1  13 -10   -0.07    0.20
   1 -13  11    4.65    0.52
  -1  13 -11    3.54    0.56
   1 -13  12    0.04    0.16
  -1  13 -12    0.02    0.13
   1 -13  13    0.06    0.17
  -1  13 -13   -0.12    0.15
   1 -13  14    0.43    0.21
  -1  13 -14    0.35    0.22
   1 -13  15    1.89    0.41
  -1  13 -15    1.44    0.41
   1 -13  16    1.24    0.31
  -1  13 -16    0.94    0.31
   1 -13  17    0.95    0.29
  -1  13 -17    0.79    0.30
   1 -12 -15    2.36    0.42
  -1  12  15    2.86    0.68
   1 -12 -14    0.93    0.32
  -1  12  14    0.64    0.53
   1 -12 -13    0.60    0.23
  -1  12  13    0.83    0.38
   1 -12 -12   -0.20    0.16
  -1  12  12   -0.13    0.32
   1 -12 -11    6.61    0.74
  -1  12  11    8.40    1.00
   1 -12 -10    2.01    0.34
  -1  12  10    1.50    0.55
   1 -12  -9    1.72    0.28
  -1  12   9    2.03    0.42
   1 -12  -8    0.19    0.13
  -1  12   8    0.31    0.26
   1 -12  -7    0.63    0.22
  -1  12   7    0.94    0.26
   1 -12  -6    2.25    0.32
  -1  12   6    2.26    0.50
   1 -12  -5    0.33    0.14
  -1  12   5    0.05    0.09
  -1  12   5    0.45    0.19
   1 -12  -4    3.04    0.26
  -1  12   4    2.77    0.44
  -1  12   4    1.55    0.22
   1 -12  -3    0.16    0.11
  -1  12   3    0.14    0.14
  -1  12   3   -0.01    0.09
   1 -12  -2    4.88    0.39
  -1  12   2    5.08    0.52
  -1  12   2    2.84    0.34
   1 -12  -1    1.16    0.21
  -1  12   1    0.72    0.18
  -1  12   1    1.57    0.26
   1 -12   0    2.41    0.26
  -1  12   0    2.06    0.26
  -1  12   0    1.53    0.25
   1 -12   1    0.56    0.12
   1 -12   1    0.38    0.15
  -1  12  -1    0.57    0.15
   1 -12   2    3.25    0.32
   1 -12   2    3.68    0.26
  -1  12  -2    3.07    0.29
   1 -12   3    1.44    0.16
   1 -12   3    1.59    0.22
  -1  12  -3    1.21    0.24
   1 -12   4    1.35    0.18
   1 -12   4    1.81    0.17
  -1  12  -4    1.23    0.24
   1 -12   5    0.54    0.10
   1 -12   5    0.70    0.16
  -1  12  -5    0.46    0.14
   1 -12   6    0.11    0.11
   1 -12   6    0.35    0.08
  -1  12  -6    0.28    0.13
   1 -12   7    0.01    0.11
  -1  12  -7    0.18    0.12
   1 -12   8    5.93    0.47
  -1  12  -8    5.33    0.49
   1 -12   9    0.00    0.17
  -1  12  -9    0.36    0.15
   1 -12  10   11.61    0.90
  -1  12 -10    9.62    0.76
   1 -12  11   -0.09    0.16
  -1  12 -11   -0.06    0.17
   1 -12  12    0.23    0.16
  -1  12 -12   -0.06    0.17
   1 -12  13    0.22    0.19
  -1  12 -13    0.13    0.15
   1 -12  14    0.03    0.18
  -1  12 -14    0.09    0.17
   1 -12  15    0.42    0.25
  -1  12 -15    0.54    0.26
   1 -12  16    1.75    0.32
  -1  12 -16    0.97    0.30
   1 -12  17    0.35    0.22
  -1  12 -17    0.04    0.24
   1 -12  18    0.02    0.22
  -1  12 -18    0.39    0.22
   1 -11 -17   -0.09    0.15
  -1  11  17    0.21    0.30
   1 -11 -16    0.90    0.29
  -1  11  16    0.68    0.38
   1 -11 -15    1.09    0.27
  -1  11  15    1.73    0.44
   1 -11 -14    0.20    0.19
  -1  11  14   -0.09    0.31
   1 -11 -13   -0.13    0.17
  -1  11  13    0.51    0.23
   1 -11 -12    3.06    0.38
  -1  11  12    4.62    0.76
   1 -11 -11    0.73    0.19
  -1  11  11    0.38    0.31
   1 -11 -10    1.00    0.20
  -1  11  10    0.34    0.31
   1 -11  -9    5.65    0.57
  -1  11   9    7.54    0.92
   1 -11  -8    4.34    0.44
  -1  11   8    5.32    0.63
   1 -11  -7    0.27    0.12
  -1  11   7    0.23    0.24
   1 -11  -6    0.32    0.13
  -1  11   6    0.33    0.18
  -1  11   6    0.12    0.09
   1 -11  -5    7.11    0.57
  -1  11   5    7.42    0.82
   1 -11  -4   23.66    1.39
  -1  11   4   23.67    1.74
   1 -11  -3    2.33    0.26
  -1  11   3    1.55    0.23
  -1  11   3    2.25    0.31
   1 -11  -2    0.60    0.13
  -1  11   2   -0.08    0.17
  -1  11   2    0.12    0.09
   1 -11  -1   16.51    0.89
   1 -11  -1   16.26    0.78
  -1  11   1   15.91    0.92
   1 -11   0    9.58    0.52
   1 -11   0    9.56    0.59
  -1  11   0    7.80    0.59
   1 -11   1    2.34    0.27
   1 -11   1    2.42    0.21
  -1  11  -1    1.92    0.21
   1 -11   2    0.87    0.14
  -1  11  -2    0.90    0.19
   1 -11   3    1.43    0.17
   1 -11   3    1.71    0.16
  -1  11  -3    1.21    0.22
   1 -11   4    1.99    0.20
   1 -11   4    2.44    0.18
  -1  11  -4    2.09    0.26
   1 -11   5    4.92    0.29
   1 -11   5    4.47    0.32
  -1  11  -5    3.92    0.39
   1 -11   6   -0.02    0.06
   1 -11   6   -0.13    0.12
  -1  11  -6    0.79    0.13
   1 -11   7   -0.03    0.10
  -1  11  -7   -0.20    0.12
   1 -11   8    1.49    0.21
  -1  11  -8    1.44    0.27
   1 -11   9    0.89    0.18
  -1  11  -9    0.79    0.18
   1 -11  10    0.87    0.22
   1 -11  11    0.64    0.17
  -1  11 -11    0.37    0.20
   1 -11  12    0.26    0.14
  -1  11 -12    0.11    0.16
   1 -11  13    0.12    0.12
  -1  11 -13   -0.04    0.13
   1 -11  14    0.96    0.33
  -1  11 -14    1.19    0.30
   1 -11  15    1.68    0.31
  -1  11 -15    1.20    0.28
   1 -11  16   -0.14    0.22
  -1  11 -16   -0.19    0.20
   1 -11  17    0.44    0.31
  -1  11 -17    0.71    0.22
   1 -11  18   -0.06    0.18
  -1  11 -18    0.05    0.17
   1 -11  19    0.18    0.20
  -1  11 -19    0.04    0.23
   1 -10 -18   -0.45    0.23
  -1  10  18    0.25    0.31
   1 -10 -17    0.01    0.14
  -1  10  17   -0.05    0.22
   1 -10 -16    1.81    0.44
  -1  10  16    3.57    0.69
   1 -10 -15    0.25    0.19
  -1  10  15    1.25    0.38
   1 -10 -14    0.43    0.25
  -1  10  14    1.18    0.34
   1 -10 -13    1.18    0.25
  -1  10  13    1.77    0.48
   1 -10 -12    0.03    0.10
  -1  10  12   -0.15    0.20
   1 -10 -11    3.64    0.37
  -1  10  11    3.52    0.59
   1 -10 -10    1.22    0.21
  -1  10  10    1.30    0.42
   1 -10  -9    0.76    0.20
  -1  10   9    0.58    0.33
   1 -10  -8    0.23    0.12
  -1  10   8    0.55    0.20
   1 -10  -7    0.00    0.12
  -1  10   7   -0.13    0.14
   1 -10  -6    0.01    0.11
  -1  10   6    0.16    0.07
  -1  10   6   -0.06    0.17
   1 -10  -5    0.76    0.15
  -1  10   5    0.18    0.10
  -1  10   5    0.73    0.22
   1 -10  -4   10.91    0.62
  -1  10   4    8.59    0.48
  -1  10   4   10.46    0.76
   1 -10  -3    8.86    0.47
  -1  10   3    8.81    0.60
  -1  10   3    7.04    0.47
   1 -10  -2   11.33    0.60
   1 -10  -2   12.20    0.67
  -1  10   2   10.77    0.59
   1 -10  -1    4.93    0.35
   1 -10  -1    4.51    0.30
  -1  10   1    4.25    0.32
   1 -10   0    0.21    0.08
   1 -10   0    0.27    0.09
  -1  10   0    0.24    0.11
   1 -10   1    1.04    0.15
   1 -10   1    1.75    0.14
  -1  10  -1    1.20    0.18
   1 -10   2    1.43    0.14
   1 -10   2    1.55    0.17
  -1  10  -2    1.15    0.18
   1 -10   3   -0.00    0.06
   1 -10   3    0.09    0.07
  -1  10  -3    0.01    0.09
   1 -10   4    3.33    0.20
   1 -10   4    3.13    0.26
  -1  10  -4    3.08    0.31
   1 -10   5    3.41    0.30
   1 -10   5    4.03    0.22
  -1  10  -5    3.19    0.31
   1 -10   6    0.41    0.08
   1 -10   6    0.54    0.14
  -1  10  -6    0.51    0.15
   1 -10   7    1.74    0.13
   1 -10   7    1.96    0.23
  -1  10  -7    1.52    0.19
   1 -10   8    0.61    0.07
   1 -10   8    0.24    0.15
  -1  10  -8    0.47    0.14
   1 -10   9   -0.05    0.10
  -1  10  -9    0.08    0.11
   1 -10  10    0.18    0.11
  -1  10 -10   -0.13    0.09
   1 -10  11    0.29    0.14
  -1  10 -11   -0.01    0.14
   1 -10  12    0.38    0.18
  -1  10 -12    0.14    0.14
   1 -10  13    0.36    0.19
  -1  10 -13    0.20    0.19
   1 -10  14    1.98    0.27
  -1  10 -14    1.12    0.27
   1 -10  15    0.64    0.24
  -1  10 -15    0.31    0.23
   1 -10  16    1.26    0.36
  -1  10 -16    1.69    0.31
   1 -10  17   -0.04    0.19
  -1  10 -17    0.09    0.15
   1 -10  18   -0.32    0.22
  -1  10 -18    0.05    0.20
   1 -10  19    0.91    0.33
  -1  10 -19    1.27    0.32
   1 -10  20   -0.09    0.23
  -1  10 -20   -0.06    0.19
   1  -9 -19    0.13    0.23
  -1   9  19    1.77    0.45
   1  -9 -18    0.57    0.23
  -1   9  18    0.37    0.43
   1  -9 -17    1.16    0.31
  -1   9  17    1.02    0.44
   1  -9 -16    0.66    0.22
  -1   9  16    0.85    0.33
   1  -9 -15    1.67    0.33
  -1   9  15    1.61    0.52
   1  -9 -14   -0.02    0.12
  -1   9  14   -0.12    0.24
   1  -9 -13    0.21    0.15
  -1   9  13   -0.04    0.20
   1  -9 -12    0.13    0.14
  -1   9  12   -0.12    0.17
   1  -9 -11    6.94    0.62
  -1   9  11    8.83    0.97
   1  -9 -10    3.99    0.41
  -1   9  10    3.96    0.60
   1  -9  -9    0.59    0.16
  -1   9   9    1.18    0.25
   1  -9  -8    0.53    0.15
  -1   9   8    0.52    0.20
   1  -9  -7    0.27    0.14
  -1   9   7    0.48    0.08
   1  -9  -6    0.01    0.10
  -1   9   6   -0.00    0.13
  -1   9   6    0.16    0.06
   1  -9  -5    0.45    0.10
  -1   9   5    0.18    0.08
  -1   9   5    0.39    0.14
   1  -9  -4    1.01    0.15
  -1   9   4    0.89    0.19
  -1   9   4    0.78    0.11
   1  -9  -3   -0.10    0.08
   1  -9  -3    0.11    0.06
  -1   9   3    0.06    0.06
   1  -9  -2    0.97    0.10
   1  -9  -2    0.79    0.11
  -1   9   2    0.69    0.12
   1  -9  -1    0.49    0.08
   1  -9  -1    0.50    0.11
  -1   9   1    0.38    0.08
   1  -9   0   -0.08    0.06
   1  -9   0    0.02    0.06
  -1   9   0    0.03    0.05
   1  -9   1    1.09    0.12
   1  -9   1    0.99    0.12
  -1   9  -1    1.13    0.12
   1  -9   2    0.16    0.06
   1  -9   2   -0.04    0.08
  -1   9  -2    0.13    0.07
   1  -9   3    1.29    0.14
   1  -9   3    1.01    0.10
  -1   9  -3    0.73    0.12
   1  -9   4    0.19    0.06
   1  -9   4    0.23    0.09
  -1   9  -4    0.25    0.10
   1  -9   5    3.52    0.17
   1  -9   5    2.85    0.21
  -1   9  -5    3.04    0.29
   1  -9   6    0.09    0.07
   1  -9   6    0.04    0.05
  -1   9  -6    0.06    0.07
   1  -9   7    0.10    0.05
   1  -9   7    0.07    0.08
  -1   9  -7   -0.15    0.09
   1  -9   8    0.09    0.05
   1  -9   8    0.05    0.09
  -1   9  -8   -0.09    0.08
   1  -9   9    0.15    0.11
   1  -9   9    0.07    0.06
  -1   9  -9    0.18    0.11
   1  -9  10    0.19    0.10
  -1   9 -10   -0.11    0.10
   1  -9  11    2.33    0.29
  -1   9 -11    1.80    0.28
   1  -9  12   -0.02    0.13
  -1   9 -12   -0.12    0.10
   1  -9  13    1.62    0.29
  -1   9 -13    1.34    0.25
   1  -9  14    1.02    0.22
  -1   9 -14    1.22    0.26
   1  -9  15    0.82    0.23
  -1   9 -15    0.70    0.20
   1  -9  16    0.26    0.23
  -1   9 -16    0.27    0.17
   1  -9  17    1.62    0.31
  -1   9 -17    1.18    0.33
   1  -9  18    2.08    0.38
  -1   9 -18    1.95    0.43
   1  -9  19    0.09    0.23
  -1   9 -19    0.16    0.22
   1  -9  20    0.25    0.26
  -1   9 -20    0.22    0.19
   1  -9  21    1.01    0.27
  -1   9 -21    0.02    0.24
   1  -8 -20    0.50    0.26
  -1   8  20    0.14    0.39
   1  -8 -19    0.59    0.29
  -1   8  19    0.82    0.45
   1  -8 -18    3.37    0.50
  -1   8  18    2.52    0.64
   1  -8 -17    0.49    0.21
  -1   8  17    1.33    0.35
   1  -8 -16    0.63    0.21
  -1   8  16    1.22    0.35
   1  -8 -15    1.94    0.35
  -1   8  15    3.65    0.58
   1  -8 -14    0.51    0.16
  -1   8  14    0.24    0.33
   1  -8 -13   -0.03    0.10
  -1   8  13    0.11    0.18
   1  -8 -12    6.42    0.56
  -1   8  12    7.34    0.77
   1  -8 -11    6.01    0.51
  -1   8  11    6.43    0.69
   1  -8 -10    4.28    0.34
  -1   8  10    4.26    0.52
   1  -8  -9    3.34    0.31
  -1   8   9    2.91    0.40
   1  -8  -8    0.21    0.09
  -1   8   8   -0.03    0.15
   1  -8  -7    0.22    0.09
  -1   8   7    0.64    0.14
  -1   8   7    0.14    0.06
   1  -8  -6    0.38    0.09
  -1   8   6    0.46    0.13
  -1   8   6    0.20    0.07
   1  -8  -5   13.99    0.67
  -1   8   5   13.15    0.52
  -1   8   5   13.06    0.82
   1  -8  -4    0.84    0.13
   1  -8  -4    1.04    0.12
   1  -8  -3   13.23    0.57
   1  -8  -3   14.68    0.61
  -1   8   3   13.62    0.56
   1  -8  -2    0.05    0.06
   1  -8  -2    0.03    0.05
  -1   8   2   -0.07    0.05
   1  -8  -1    0.02    0.06
   1  -8  -1    0.11    0.06
  -1   8   1   -0.06    0.06
   1  -8   0    2.12    0.17
   1  -8   0    2.03    0.15
  -1   8   0    1.71    0.15
   1  -8   1   16.11    0.62
   1  -8   1   17.25    0.71
  -1   8  -1   15.87    0.67
   1  -8   2   -0.12    0.07
   1  -8   2    0.08    0.05
  -1   8  -2    0.16    0.08
   1  -8   3   10.17    0.49
   1  -8   3   10.85    0.41
  -1   8  -3   10.77    0.50
   1  -8   4    0.24    0.06
   1  -8   4    0.21    0.09
  -1   8  -4    0.07    0.09
   1  -8   5    5.53    0.25
   1  -8   5    6.61    0.35
  -1   8  -5    6.50    0.35
   1  -8   6    0.04    0.06
   1  -8   6    0.24    0.07
  -1   8  -6   -0.03    0.08
   1  -8   7    0.65    0.11
   1  -8   7    0.64    0.08
  -1   8  -7    0.77    0.11
   1  -8   8    0.25    0.06
   1  -8   8    0.33    0.13
  -1   8  -8    0.44    0.10
   1  -8   9    0.53    0.10
   1  -8   9    0.15    0.05
  -1   8  -9    0.10    0.11
   1  -8  10    0.53    0.16
  -1   8 -10    0.39    0.12
   1  -8  11    0.36    0.12
  -1   8 -11    0.31    0.12
   1  -8  12    0.12    0.10
  -1   8 -12   -0.01    0.09
   1  -8  13    1.49    0.26
  -1   8 -13    1.25    0.25
   1  -8  14    0.29    0.15
  -1   8 -14    0.26    0.16
   1  -8  15    0.32    0.18
  -1   8 -15    0.34    0.15
   1  -8  16   -0.28    0.15
  -1   8 -16   -0.06    0.14
   1  -8  17    0.36    0.22
  -1   8 -17    0.26    0.16
   1  -8  18    0.87    0.25
  -1   8 -18    0.88    0.29
   1  -8  19    1.80    0.40
  -1   8 -19    1.45    0.37
   1  -8  20    0.43    0.23
  -1   8 -20    0.29    0.25
   1  -8  21    1.18    0.31
  -1   8 -21    0.56    0.33
  -1   8 -22    3.01    0.60
   1  -7 -21    0.20    0.23
  -1   7  21    0.18    0.31
   1  -7 -20    0.22    0.22
  -1   7  20    0.21    0.26
   1  -7 -19    0.95    0.27
  -1   7  19    0.31    0.36
   1  -7 -18    1.87    0.38
  -1   7  18    2.10    0.49
   1  -7 -17    2.19    0.33
  -1   7  17    3.29    0.61
   1  -7 -16    0.27    0.14
  -1   7  16    0.05    0.29
   1  -7 -15    0.78    0.23
  -1   7  15    1.43    0.37
   1  -7 -14    0.11    0.10
  -1   7  14   -0.05    0.22
   1  -7 -13    0.58    0.18
  -1   7  13    0.49    0.22
   1  -7 -12    0.16    0.12
  -1   7  12   -0.01    0.16
   1  -7 -11    4.43    0.41
  -1   7  11    5.60    0.55
   1  -7 -10    1.29    0.19
  -1   7  10    0.97    0.25
   1  -7  -9    0.55    0.12
  -1   7   9    0.75    0.23
   1  -7  -8    2.19    0.21
  -1   7   8    2.20    0.32
   1  -7  -7    3.87    0.24
  -1   7   7    3.70    0.37
   1  -7  -6    7.82    0.37
  -1   7   6    6.68    0.27
  -1   7   6    8.43    0.52
   1  -7  -5    0.46    0.08
  -1   7   5    0.45    0.12
  -1   7   5    0.21    0.05
   1  -7  -4   37.90    1.47
   1  -7  -4   39.19    1.51
  -1   7   4   39.11    1.30
   1  -7  -3    3.24    0.18
   1  -7  -3    3.98    0.23
  -1   7   3    3.88    0.19
   1  -7  -2    2.82    0.17
   1  -7  -2    3.12    0.19
  -1   7   2    2.44    0.16
   1  -7  -1    2.61    0.15
   1  -7  -1    2.60    0.16
  -1   7   1    2.33    0.14
   1  -7   0   30.41    1.01
   1  -7   0   27.00    0.99
  -1   7   0   28.70    1.07
   1  -7   1    3.70    0.19
   1  -7   1    3.92    0.19
  -1   7  -1    3.87    0.23
   1  -7   2   26.69    0.98
   1  -7   2   26.85    0.91
  -1   7  -2   28.16    1.07
   1  -7   3   23.25    0.77
   1  -7   3   24.10    0.91
  -1   7  -3   24.68    0.97
   1  -7   4   19.39    0.81
   1  -7   4   22.90    0.73
  -1   7  -4   19.92    0.88
   1  -7   5    2.66    0.18
   1  -7   5    3.02    0.15
  -1   7  -5    3.10    0.23
   1  -7   6    1.87    0.15
   1  -7   6    1.83    0.10
  -1   7  -6    1.98    0.16
   1  -7   7    0.89    0.08
   1  -7   7    0.92    0.12
  -1   7  -7    0.59    0.12
   1  -7   8   -0.01    0.07
   1  -7   8    0.02    0.04
  -1   7  -8    0.10    0.06
   1  -7   9    6.42    0.38
   1  -7   9    5.01    0.21
  -1   7  -9    5.91    0.36
   1  -7  10    1.54    0.19
   1  -7  10    0.79    0.08
  -1   7 -10    1.26    0.14
   1  -7  11    1.35    0.11
   1  -7  11    2.09    0.24
  -1   7 -11    1.82    0.23
   1  -7  12    0.10    0.13
   1  -7  12    0.06    0.05
  -1   7 -12    0.19    0.11
   1  -7  13    1.43    0.22
  -1   7 -13    1.21    0.22
   1  -7  14    0.02    0.10
   1  -7  15    8.16    0.65
  -1   7 -15    7.95    0.66
   1  -7  16   -0.21    0.14
  -1   7 -16    0.01    0.16
   1  -7  17    0.46    0.21
  -1   7 -17    0.08    0.17
   1  -7  18    0.51    0.24
  -1   7 -18    0.28    0.21
   1  -7  19    0.14    0.17
  -1   7 -19    0.04    0.17
   1  -7  20    1.82    0.37
  -1   7 -20    1.72    0.40
   1  -7  21    7.64    0.84
  -1   7 -21    5.74    0.80
   1  -7  22    5.41    0.66
  -1   7 -22    3.30    0.64
   1  -6 -21    1.03    0.32
  -1   6  21    0.70    0.44
   1  -6 -20    1.01    0.34
  -1   6  20    1.45    0.47
   1  -6 -19    1.58    0.36
  -1   6  19    1.43    0.53
   1  -6 -18    0.24    0.17
  -1   6  18   -0.10    0.22
   1  -6 -17    0.73    0.25
  -1   6  17    1.27    0.33
   1  -6 -16    0.27    0.17
  -1   6  16    0.32    0.22
   1  -6 -15    0.05    0.11
  -1   6  15    0.14    0.17
   1  -6 -14   -0.09    0.14
  -1   6  14   -0.21    0.16
   1  -6 -13    3.65    0.30
  -1   6  13    4.21    0.46
   1  -6 -12    3.20    0.32
  -1   6  12    3.97    0.45
   1  -6 -11    0.12    0.11
  -1   6  11    0.19    0.15
   1  -6 -10    6.68    0.45
  -1   6  10    6.80    0.56
   1  -6  -9   -0.11    0.07
  -1   6   9    0.20    0.14
   1  -6  -8    0.46    0.12
  -1   6   8    0.38    0.15
   1  -6  -7    8.78    0.42
  -1   6   7    9.75    0.59
  -1   6   7    8.63    0.28
   1  -6  -6   -0.08    0.07
  -1   6   6    0.06    0.08
   1  -6  -5    3.19    0.17
   1  -6  -5    3.17    0.19
  -1   6   5    2.50    0.12
   1  -6  -4    2.09    0.13
   1  -6  -4    2.32    0.13
  -1   6   4    2.07    0.12
   1  -6  -3    0.85    0.08
   1  -6  -3    0.81    0.08
  -1   6   3    0.76    0.07
   1  -6  -2    1.16    0.10
   1  -6  -2    1.23    0.11
  -1   6   2    0.93    0.09
   1  -6  -1    1.77    0.10
   1  -6  -1    1.76    0.12
  -1   6   1    1.70    0.11
   1  -6   0    0.59    0.08
   1  -6   0    0.87    0.08
  -1   6   0    0.58    0.07
   1  -6   1    1.83    0.11
   1  -6   1    1.85    0.12
  -1   6  -1    1.93    0.11
   1  -6   2   17.12    0.52
   1  -6   2   16.11    0.56
  -1   6  -2   16.83    0.63
   1  -6   3    6.88    0.30
   1  -6   3    6.93    0.26
  -1   6  -3    7.39    0.34
   1  -6   4   22.83    0.85
   1  -6   4   25.51    0.75
  -1   6  -4   24.15    0.92
   1  -6   5   12.58    0.43
   1  -6   5   15.29    0.60
  -1   6  -5   15.16    0.59
   1  -6   6    0.19    0.05
   1  -6   6    0.36    0.08
  -1   6  -6    0.15    0.07
   1  -6   7   12.47    0.54
   1  -6   7   10.52    0.34
  -1   6  -7   12.89    0.55
   1  -6   8   16.00    0.73
   1  -6   8   13.02    0.42
  -1   6  -8   14.26    0.66
   1  -6   9    3.02    0.27
  -1   6  -9    3.04    0.23
   1  -6  10   15.90    0.82
  -1   6 -10   17.25    0.85
   1  -6  11    2.27    0.14
   1  -6  11    3.21    0.25
  -1   6 -11    3.39    0.26
   1  -6  12   17.66    1.01
   1  -6  12   14.78    0.59
  -1   6 -12   16.55    0.94
   1  -6  13    4.86    0.46
  -1   6 -13    4.74    0.40
   1  -6  14    0.70    0.19
   1  -6  14    0.34    0.09
  -1   6 -14    0.49    0.13
   1  -6  15   -0.04    0.18
  -1   6 -15    0.32    0.11
   1  -6  16    7.75    0.65
  -1   6 -16    6.88    0.56
   1  -6  17    0.56    0.19
  -1   6 -17    0.29    0.14
   1  -6  18    0.35    0.23
  -1   6 -18    0.39    0.19
   1  -6  19    0.33    0.23
  -1   6 -19    0.07    0.17
   1  -6  20   -0.11    0.23
  -1   6 -20    0.20    0.16
   1  -6  21    0.17    0.21
  -1   6 -21    0.14    0.18
   1  -6  22    1.01    0.30
  -1   6 -22    0.46    0.22
  -1   6 -23    0.09    0.19
   1  -5 -22    0.71    0.26
  -1   5  22   -0.04    0.39
   1  -5 -21    1.62    0.40
  -1   5  21    1.61    0.50
   1  -5 -20    0.13    0.14
  -1   5  20   -0.24    0.23
   1  -5 -19    0.95    0.22
  -1   5  19    0.82    0.37
   1  -5 -18    0.46    0.17
  -1   5  18    0.25    0.31
   1  -5 -17    0.20    0.14
  -1   5  17    0.30    0.21
   1  -5 -16    0.16    0.12
  -1   5  16    0.14    0.19
   1  -5 -15    0.63    0.17
  -1   5  15    1.21    0.26
   1  -5 -14    0.87    0.20
  -1   5  14    1.11    0.25
   1  -5 -13    3.41    0.33
  -1   5  13    3.50    0.50
   1  -5 -12    0.23    0.10
  -1   5  12    0.14    0.18
   1  -5 -11    7.71    0.45
  -1   5  11    9.08    0.73
   1  -5 -10   12.01    0.59
  -1   5  10   12.39    0.80
   1  -5  -9   17.58    0.79
  -1   5   9   17.42    1.17
   1  -5  -8   38.91    1.58
  -1   5   8   39.50    2.09
   1  -5  -7   73.91    2.75
  -1   5   7   69.48    1.78
  -1   5   7   74.41    3.61
   1  -5  -6    0.59    0.10
  -1   5   6    0.76    0.12
  -1   5   6    0.55    0.05
   1  -5  -5   20.14    0.72
   1  -5  -5   18.97    0.68
  -1   5   5   19.58    0.53
   1  -5  -4    1.11    0.09
   1  -5  -4    1.07    0.08
  -1   5   4    1.09    0.07
   1  -5  -3    2.40    0.13
   1  -5  -3    2.34    0.13
  -1   5   3    2.46    0.10
   1  -5  -2    0.50    0.06
   1  -5  -2    0.41    0.05
  -1   5   2    0.47    0.05
   1  -5  -1   18.20    0.57
   1  -5  -1   18.66    0.57
  -1   5   1   18.82    0.55
   1  -5   0    0.62    0.06
   1  -5   0    0.61    0.06
  -1   5   0    0.45    0.07
   1  -5   1   17.02    0.49
   1  -5   1   18.06    0.53
  -1   5  -1   17.99    0.59
   1  -5   2    4.24    0.17
   1  -5   2    4.88    0.18
  -1   5  -2    4.53    0.22
   1  -5   3   21.10    0.56
   1  -5   3   18.19    0.59
  -1   5  -3   19.18    0.70
   1  -5   4   25.58    0.70
   1  -5   4   30.22    0.98
  -1   5  -4   30.24    0.99
   1  -5   5    2.80    0.11
   1  -5   5    3.52    0.16
  -1   5  -5    3.38    0.19
   1  -5   6    2.64    0.19
   1  -5   6    2.32    0.11
  -1   5  -6    2.74    0.15
   1  -5   7    0.46    0.09
  -1   5  -7    0.37    0.09
   1  -5   8    1.64    0.09
   1  -5   8    1.90    0.16
  -1   5  -8    1.92    0.14
   1  -5   9    0.26    0.05
   1  -5   9    0.20    0.10
  -1   5  -9    0.35    0.09
   1  -5  10    0.12    0.05
   1  -5  10    0.13    0.09
  -1   5 -10    0.17    0.09
   1  -5  11    7.85    0.53
   1  -5  11    7.26    0.32
  -1   5 -11    8.00    0.42
   1  -5  12    3.65    0.35
   1  -5  12    2.97    0.17
  -1   5 -12    3.37    0.25
   1  -5  13    0.19    0.08
   1  -5  13    0.67    0.16
  -1   5 -13    0.45    0.12
   1  -5  14    0.76    0.11
   1  -5  14    1.15    0.20
  -1   5 -14    0.91    0.17
   1  -5  15    3.42    0.25
   1  -5  15    4.31    0.47
  -1   5 -15    3.60    0.31
   1  -5  16    1.04    0.15
   1  -5  16    1.42    0.25
  -1   5 -16    1.14    0.19
   1  -5  17    0.01    0.10
   1  -5  17    0.26    0.14
  -1   5 -17    0.08    0.13
   1  -5  18    0.25    0.16
  -1   5 -18    0.10    0.15
   1  -5  19    0.33    0.18
  -1   5 -19   -0.10    0.13
   1  -5  20    0.18    0.23
  -1   5 -20    0.17    0.16
   1  -5  21    1.87    0.37
  -1   5 -21    1.48    0.32
   1  -5  22    1.14    0.40
  -1   5 -22    0.88    0.27
   1  -5  23    0.59    0.30
   1  -4 -22    0.27    0.19
  -1   4  22    0.23    0.25
   1  -4 -21    0.19    0.15
  -1   4  21    0.03    0.22
   1  -4 -20    2.56    0.45
  -1   4  20    3.12    0.50
   1  -4 -19    0.31    0.20
  -1   4  19    0.41    0.22
   1  -4 -18    0.91    0.24
  -1   4  18    1.73    0.29
   1  -4 -17    2.31    0.30
  -1   4  17    3.18    0.43
   1  -4 -16    1.17    0.22
  -1   4  16    2.12    0.32
   1  -4 -15    0.94    0.18
  -1   4  15    1.10    0.24
   1  -4 -14    6.44    0.46
  -1   4  14    7.20    0.62
   1  -4 -13    0.43    0.11
  -1   4  13    0.30    0.16
   1  -4 -12   17.18    0.90
  -1   4  12   17.90    1.23
   1  -4 -11    2.03    0.19
  -1   4  11    3.03    0.29
   1  -4 -10    6.76    0.39
  -1   4  10    7.44    0.51
   1  -4  -9    1.77    0.16
  -1   4   9    1.56    0.07
  -1   4   9    2.17    0.23
   1  -4  -8    1.94    0.14
  -1   4   8    1.65    0.24
   1  -4  -7    1.01    0.10
  -1   4   7    0.85    0.05
  -1   4   7    0.89    0.13
   1  -4  -6   23.54    0.79
  -1   4   6   22.75    0.54
  -1   4   6   23.42    1.03
   1  -4  -5    5.76    0.23
   1  -4  -5    5.57    0.25
  -1   4   5    6.04    0.17
   1  -4  -4   10.47    0.34
   1  -4  -4   10.17    0.34
  -1   4   4    9.83    0.25
   1  -4  -3    0.31    0.05
   1  -4  -3    0.28    0.06
  -1   4   3    0.41    0.04
   1  -4  -2   11.16    0.34
   1  -4  -2   11.45    0.32
  -1   4   2   11.33    0.30
   1  -4  -1   73.22    1.75
   1  -4  -1   63.80    1.77
  -1   4   1   66.85    1.76
   1  -4   0   60.18    1.50
   1  -4   0   59.87    1.55
  -1   4   0   60.25    1.64
   1  -4   1   31.79    0.83
   1  -4   1   37.07    0.93
  -1   4  -1   35.77    0.98
   1  -4   2   33.35    0.80
   1  -4   2   28.73    0.79
  -1   4  -2   33.53    0.97
   1  -4   3  189.09    5.24
   1  -4   3  204.13    5.93
  -1   4  -3  213.51    6.45
   1  -4   4    0.92    0.06
   1  -4   4    0.82    0.07
  -1   4  -4    0.77    0.09
   1  -4   5    0.16    0.03
   1  -4   5    0.27    0.06
  -1   4  -5    0.17    0.06
   1  -4   6    1.26    0.12
   1  -4   6    1.43    0.08
  -1   4  -6    1.30    0.12
   1  -4   7    6.39    0.32
  -1   4  -7    6.00    0.28
   1  -4   8    0.19    0.10
   1  -4   8    0.38    0.06
  -1   4  -8    0.29    0.06
   1  -4   9    7.82    0.45
   1  -4   9    6.86    0.27
  -1   4  -9    7.14    0.36
   1  -4  10   16.18    0.61
   1  -4  10   16.22    0.80
  -1   4 -10   16.67    0.72
   1  -4  11   -0.03    0.05
   1  -4  11    0.07    0.04
  -1   4 -11   -0.09    0.06
   1  -4  12    0.37    0.08
  -1   4 -12    0.54    0.12
  -1   4 -12    0.42    0.11
   1  -4  13    1.64    0.16
  -1   4 -13    1.85    0.18
  -1   4 -13    1.68    0.19
   1  -4  14    0.20    0.08
  -1   4 -14    0.26    0.13
  -1   4 -14    0.39    0.10
   1  -4  15    0.24    0.09
  -1   4 -15    0.30    0.12
  -1   4 -15    0.42    0.14
   1  -4  16    0.14    0.10
  -1   4 -16    0.34    0.13
  -1   4 -16    0.04    0.12
   1  -4  17    0.84    0.15
  -1   4 -17    0.91    0.18
  -1   4 -17    0.51    0.15
   1  -4  18    1.56    0.23
  -1   4 -18    1.98    0.28
  -1   4 -18    2.18    0.28
   1  -4  19   -0.01    0.12
  -1   4 -19   -0.07    0.12
  -1   4 -19   -0.14    0.15
  -1   4 -20    0.67    0.22
  -1   4 -20    1.11    0.22
   1  -4  21    0.08    0.15
  -1   4 -21    0.41    0.16
   1  -4  22    0.14    0.27
  -1   4 -22    0.67    0.20
   1  -4  23    1.89    0.56
   1  -3 -23   -0.02    0.18
  -1   3  23    0.41    0.25
   1  -3 -22    0.45    0.29
  -1   3  22    0.60    0.32
   1  -3 -21    0.12    0.12
  -1   3  21   -0.36    0.21
   1  -3 -20    2.27    0.34
  -1   3  20    2.23    0.48
   1  -3 -19    1.36    0.27
  -1   3  19    1.02    0.28
   1  -3 -18   -0.16    0.11
  -1   3  18    0.07    0.15
   1  -3 -17    3.47    0.40
  -1   3  17    3.59    0.45
   1  -3 -16    0.14    0.11
  -1   3  16   -0.20    0.13
   1  -3 -15    0.50    0.14
  -1   3  15    0.63    0.23
   1  -3 -14    1.83    0.22
  -1   3  14    2.19    0.33
   1  -3 -13    1.89    0.11
   1  -3 -13    2.44    0.21
  -1   3  13    2.98    0.33
   1  -3 -12    2.23    0.19
  -1   3  12    2.46    0.27
   1  -3 -11    2.29    0.18
   1  -3 -11    2.02    0.10
  -1   3  11    2.71    0.24
   1  -3 -10    0.07    0.07
  -1   3  10   -0.01    0.10
   1  -3  -9    3.38    0.20
  -1   3   9    3.95    0.31
   1  -3  -8    1.58    0.12
   1  -3  -8    1.53    0.07
  -1   3   8    1.79    0.16
   1  -3  -7    3.67    0.20
  -1   3   7    3.65    0.24
   1  -3  -6    0.07    0.04
  -1   3   6   -0.01    0.07
   1  -3  -5    2.14    0.10
   1  -3  -5    2.08    0.11
  -1   3   5    2.13    0.07
   1  -3  -4    0.52    0.06
   1  -3  -4    0.50    0.05
  -1   3   4    0.48    0.03
   1  -3  -3    0.19    0.05
   1  -3  -3    0.26    0.04
  -1   3   3    0.16    0.03
   1  -3  -2   11.00    0.30
  -1   3   2   10.77    0.25
   1  -3  -1    5.92    0.14
   1  -3  -1    5.99    0.17
  -1   3   1    5.81    0.15
   1  -3   0  145.61    3.66
   1  -3   0  157.14    3.27
  -1   3   0  156.87    3.77
   1  -3   1    2.42    0.08
   1  -3   1    2.76    0.10
  -1   3  -1    2.32    0.11
   1  -3   2  411.60   10.45
   1  -3   2  419.13    9.74
  -1   3  -2  420.78   11.52
   1  -3   3    1.17    0.08
   1  -3   3    1.00    0.06
  -1   3  -3    1.47    0.09
   1  -3   4   12.85    0.41
   1  -3   4   13.18    0.31
  -1   3  -4   13.57    0.40
   1  -3   5    6.60    0.27
   1  -3   5    6.53    0.18
  -1   3  -5    6.66    0.22
   1  -3   6   17.10    0.46
  -1   3  -6   16.25    0.52
   1  -3   7    0.02    0.04
  -1   3  -7    0.11    0.05
  -1   3  -7    0.05    0.04
   1  -3   8   35.53    1.10
  -1   3  -8   32.75    1.12
  -1   3  -8   34.21    1.17
   1  -3   9    2.31    0.15
  -1   3  -9    2.64    0.17
  -1   3  -9    2.13    0.15
   1  -3  10    1.31    0.11
  -1   3 -10    1.03    0.14
  -1   3 -10    1.05    0.12
   1  -3  11   -0.01    0.06
  -1   3 -11    0.13    0.07
  -1   3 -11    0.16    0.07
   1  -3  12   14.33    0.63
  -1   3 -12   14.60    0.65
  -1   3 -12   15.45    0.70
   1  -3  13    8.86    0.46
  -1   3 -13    9.95    0.50
  -1   3 -13    9.23    0.50
   1  -3  14    0.22    0.09
  -1   3 -14    0.25    0.09
  -1   3 -14    0.38    0.10
   1  -3  15    5.11    0.35
  -1   3 -15    5.42    0.38
  -1   3 -15    5.49    0.39
   1  -3  16   -0.01    0.09
  -1   3 -16    0.30    0.13
   1  -3  17    0.56    0.14
  -1   3 -17    0.65    0.16
  -1   3 -17    0.74    0.15
   1  -3  18    0.93    0.18
  -1   3 -18    1.11    0.19
  -1   3 -18    1.17    0.25
   1  -3  19   -0.02    0.11
  -1   3 -19    0.06    0.11
  -1   3 -19    0.14    0.10
   1  -3  20    0.57    0.19
  -1   3 -20    1.13    0.20
  -1   3 -20    0.57    0.19
  -1   3 -21    0.13    0.13
  -1   3 -21    0.23    0.18
  -1   3 -22    0.97    0.30
  -1   3 -23    0.44    0.26
   1  -2 -23    0.16    0.17
  -1   2  23   -0.29    0.20
   1  -2 -22   -0.08    0.14
  -1   2  22   -0.07    0.18
   1  -2 -21    0.69    0.21
  -1   2  21    0.62    0.25
   1  -2 -20    2.32    0.37
  -1   2  20    1.90    0.37
   1  -2 -19    0.46    0.16
  -1   2  19    0.19    0.19
   1  -2 -18    0.97    0.23
  -1   2  18    1.13    0.28
   1  -2 -17    2.13    0.25
  -1   2  17    1.98    0.29
   1  -2 -16    0.23    0.13
   1  -2 -16    0.09    0.06
  -1   2  16    0.02    0.12
   1  -2 -15    2.00    0.15
   1  -2 -15    3.92    0.27
   1  -2 -14    0.19    0.06
   1  -2 -14    0.29    0.13
  -1   2  14    0.64    0.13
   1  -2 -13    3.55    0.18
   1  -2 -13    4.24    0.27
  -1   2  13    5.11    0.40
   1  -2 -12    0.53    0.10
   1  -2 -12    0.40    0.06
  -1   2  12    0.26    0.15
   1  -2 -11    9.36    0.32
   1  -2 -11    9.98    0.47
  -1   2  11   11.32    0.59
   1  -2 -10    5.44    0.19
   1  -2 -10    6.56    0.34
  -1   2  10    6.83    0.39
   1  -2  -9   11.66    0.48
  -1   2   9   12.21    0.62
   1  -2  -8   -0.02    0.03
   1  -2  -8    0.10    0.04
  -1   2   8   -0.02    0.07
   1  -2  -7    0.00    0.03
   1  -2  -7    0.08    0.05
  -1   2   7    0.15    0.07
   1  -2  -6    1.56    0.06
   1  -2  -6    1.47    0.10
  -1   2   6    1.52    0.11
   1  -2  -5    0.00    0.03
   1  -2  -5    0.02    0.03
   1  -2  -5    0.01    0.02
   1  -2  -4    3.42    0.12
   1  -2  -4    3.35    0.08
   1  -2  -4    3.45    0.12
   1  -2  -3    0.26    0.04
   1  -2  -3    0.16    0.04
  -1   2   3    0.19    0.02
   1  -2  -2   14.15    0.32
   1  -2  -2   13.68    0.28
  -1   2   2   13.53    0.26
   1  -2  -1    1.19    0.05
   1  -2  -1    1.03    0.03
  -1   2   1    1.30    0.04
   1  -2   0   17.34    0.27
  -1   2   0   19.32    0.37
   1  -2   1    0.06    0.02
   1  -2   1    0.09    0.02
  -1   2  -1    0.01    0.02
   1  -2   2   19.60    0.41
  -1   2  -2   21.00    0.46
   1  -2   3   -0.04    0.02
   1  -2   3    0.04    0.03
  -1   2  -3    0.06    0.03
   1  -2   4    0.32    0.04
  -1   2  -4    0.32    0.04
  -1   2  -4    0.27    0.05
   1  -2   5    3.61    0.13
  -1   2  -5    3.84    0.14
  -1   2  -5    3.37    0.13
   1  -2   6    4.17    0.16
  -1   2  -6    4.25    0.16
  -1   2  -6    4.00    0.17
   1  -2   7    3.36    0.14
  -1   2  -7    3.38    0.15
  -1   2  -7    3.21    0.15
   1  -2   8   12.18    0.44
  -1   2  -8   12.40    0.42
  -1   2  -8   12.23    0.44
   1  -2   9    1.15    0.11
  -1   2  -9    1.30    0.10
  -1   2  -9    1.36    0.11
   1  -2  10    1.38    0.12
  -1   2 -10    1.39    0.13
  -1   2 -10    1.58    0.11
   1  -2  11    6.28    0.32
  -1   2 -11    6.34    0.33
  -1   2 -11    6.30    0.29
   1  -2  12    7.69    0.40
  -1   2 -12    7.51    0.37
  -1   2 -12    7.54    0.40
   1  -2  13    6.48    0.41
  -1   2 -13    7.10    0.43
  -1   2 -13    6.37    0.36
   1  -2  14    2.75    0.25
  -1   2 -14    3.42    0.25
  -1   2 -14    2.69    0.20
   1  -2  15    0.85    0.15
  -1   2 -15    0.78    0.13
  -1   2 -15    0.79    0.16
   1  -2  16    7.51    0.54
  -1   2 -16    8.67    0.63
  -1   2 -16    7.98    0.48
   1  -2  17    1.11    0.20
  -1   2 -17    1.21    0.18
  -1   2 -17    1.35    0.25
   1  -2  18    1.13    0.21
  -1   2 -18    0.77    0.16
  -1   2 -18    1.33    0.21
   1  -2  19    0.26    0.16
  -1   2 -19    0.20    0.14
  -1   2 -19    0.47    0.14
   1  -2  20    0.42    0.17
  -1   2 -20    0.62    0.17
  -1   2 -20    0.20    0.13
   1  -2  21    0.18    0.12
  -1   2 -21   -0.14    0.13
  -1   2 -22    0.23    0.18
  -1   2 -23   -0.15    0.17
   1  -1 -23    0.13    0.21
   1  -1 -22    0.26    0.16
  -1   1  22   -0.05    0.19
   1  -1 -21    1.81    0.31
  -1   1  21    1.83    0.37
   1  -1 -20    0.31    0.22
  -1   1  20    0.37    0.20
   1  -1 -19    1.21    0.26
  -1   1  19    1.20    0.24
   1  -1 -18    0.28    0.10
   1  -1 -18    0.18    0.15
  -1   1  18    0.66    0.16
   1  -1 -17    0.16    0.10
   1  -1 -17    0.01    0.06
   1  -1 -16    2.39    0.27
   1  -1 -16    1.83    0.17
  -1   1  16    2.24    0.25
   1  -1 -15    0.06    0.10
   1  -1 -15    0.13    0.06
  -1   1  15    0.15    0.10
   1  -1 -14    0.96    0.10
   1  -1 -14    1.49    0.16
  -1   1  14    1.44    0.21
   1  -1 -13    1.50    0.16
   1  -1 -13    1.44    0.12
  -1   1  13    2.06    0.22
   1  -1 -12    2.62    0.22
   1  -1 -12    2.02    0.13
  -1   1  12    2.23    0.24
   1  -1 -11    0.10    0.04
   1  -1 -11    0.04    0.06
  -1   1  11   -0.02    0.07
   1  -1 -10    6.27    0.30
   1  -1 -10    5.27    0.21
  -1   1  10    6.73    0.36
   1  -1  -9    0.22    0.08
   1  -1  -9    0.19    0.05
  -1   1   9    0.48    0.07
   1  -1  -8    1.31    0.07
   1  -1  -8    1.11    0.10
  -1   1   8    1.21    0.11
   1  -1  -7    0.63    0.08
  -1   1   7    0.64    0.09
   1  -1  -6    0.09    0.03
   1  -1  -6   -0.05    0.03
  -1   1   6    0.11    0.05
   1  -1  -5    5.71    0.18
   1  -1  -5    5.25    0.13
  -1   1   5    5.47    0.20
   1  -1  -4    3.69    0.10
   1  -1  -4    3.18    0.10
   1  -1  -4    3.33    0.11
   1  -1  -3  103.38    1.88
   1  -1  -3  101.99    2.13
   1  -1  -3  101.22    2.08
   1  -1  -2    5.84    0.10
   1  -1  -2    5.42    0.11
   1  -1   3   32.14    0.69
  -1   1  -3   33.17    0.64
  -1   1  -3   31.96    0.64
   1  -1   4    7.00    0.21
  -1   1  -4    7.13    0.18
  -1   1  -4    6.72    0.18
   1  -1   5    0.03    0.03
  -1   1  -5    0.13    0.03
  -1   1  -5    0.05    0.04
   1  -1   6    1.90    0.10
  -1   1  -6    1.91    0.11
  -1   1  -6    1.99    0.08
   1  -1   7   10.27    0.37
  -1   1  -7   10.74    0.36
  -1   1  -7    9.60    0.29
   1  -1   8    3.29    0.18
  -1   1  -8    3.42    0.14
  -1   1  -8    3.18    0.18
   1  -1   9    1.08    0.11
  -1   1  -9    0.94    0.08
  -1   1  -9    1.01    0.10
   1  -1  10    4.76    0.27
  -1   1 -10    5.06    0.25
  -1   1 -10    5.04    0.21
   1  -1  11    3.54    0.21
  -1   1 -11    3.80    0.19
  -1   1 -11    3.44    0.22
   1  -1  12    3.96    0.28
  -1   1 -12    3.90    0.29
  -1   1 -12    4.13    0.22
   1  -1  13    0.54    0.11
  -1   1 -13    0.61    0.10
  -1   1 -13    1.05    0.15
   1  -1  14    3.01    0.27
  -1   1 -14    3.03    0.23
  -1   1 -14    3.46    0.30
   1  -1  15    2.14    0.23
  -1   1 -15    2.32    0.26
  -1   1 -15    1.86    0.17
   1  -1  16    2.65    0.28
  -1   1 -16    2.09    0.20
  -1   1 -16    2.21    0.30
   1  -1  17    4.82    0.43
  -1   1 -17    3.85    0.29
  -1   1 -17    5.10    0.40
   1  -1  18    0.13    0.13
  -1   1 -18    0.23    0.12
  -1   1 -18   -0.02    0.09
   1  -1  19    4.77    0.47
  -1   1 -19    3.89    0.32
  -1   1 -19    5.62    0.47
   1  -1  20    0.09    0.11
  -1   1 -20    0.04    0.12
   1  -1  21    0.22    0.18
  -1   1 -21    0.44    0.17
   1  -1  22    0.24    0.16
  -1   1 -22    0.01    0.20
  -1   1 -23   -0.11    0.20
   1   0 -23   -0.17    0.21
   1   0 -22    0.28    0.17
  -1   0  22    0.22    0.16
   1   0 -21    0.87    0.22
  -1   0  21    0.37    0.23
   1   0 -20    1.07    0.19
  -1   0  20    0.15    0.20
   1   0 -19    0.62    0.17
   1   0 -19    0.42    0.13
  -1   0  19    0.86    0.19
   1   0 -18    0.52    0.13
   1   0 -18    0.59    0.17
  -1   0  18    0.59    0.18
   1   0 -17    1.98    0.18
   1   0 -17    2.04    0.26
  -1   0  17    2.20    0.26
   1   0 -16    0.61    0.15
   1   0 -16    0.43    0.10
  -1   0  16    0.63    0.16
   1   0 -15    0.06    0.06
   1   0 -15   -0.01    0.09
  -1   0  15   -0.04    0.08
   1   0 -14    0.55    0.10
   1   0 -14    0.78    0.14
  -1   0  14    0.84    0.14
   1   0 -13    0.29    0.08
   1   0 -13    0.54    0.11
  -1   0  13    0.39    0.10
   1   0 -12   20.64    0.74
   1   0 -12   19.50    0.90
  -1   0  12   20.89    0.97
   1   0 -11    0.96    0.09
   1   0 -11    1.16    0.14
  -1   0  11    0.82    0.13
   1   0 -10    0.87    0.08
   1   0 -10    0.92    0.11
  -1   0  10    1.07    0.11
   1   0  -9    0.40    0.07
   1   0  -9    0.41    0.06
  -1   0   9    0.27    0.08
   1   0  -8    1.69    0.09
   1   0  -8    1.82    0.12
  -1   0   8    1.78    0.13
   1   0  -7    4.61    0.16
   1   0  -7    5.11    0.21
  -1   0   7    5.02    0.21
   1   0  -6    4.94    0.16
   1   0  -6    5.09    0.20
  -1   0   6    5.03    0.19
   1   0  -5    6.39    0.17
   1   0  -5    6.34    0.20
  -1   0   5    6.40    0.20
   1   0  -4   15.00    0.33
   1   0  -4   15.70    0.39
   1   0  -3    6.33    0.12
   1   0  -3    6.31    0.15
   1   0  -3    6.35    0.14
   1   0   3    2.89    0.10
  -1   0  -3    2.69    0.06
  -1   0  -3    2.88    0.08
   1   0   4   31.27    0.83
  -1   0  -4   31.15    0.55
  -1   0  -4   32.19    0.75
   1   0   5    0.04    0.04
  -1   0  -5    0.07    0.04
  -1   0  -5    0.05    0.02
   1   0   6   65.26    2.05
  -1   0  -6   63.50    1.87
   1   0   7   45.07    1.51
  -1   0  -7   43.91    1.39
  -1   0  -7   43.28    1.02
   1   0   8    0.95    0.09
  -1   0  -8    0.78    0.05
  -1   0  -8    0.92    0.09
   1   0   9    0.02    0.07
  -1   0  -9    0.14    0.05
  -1   0  -9    0.03    0.03
   1   0  10   12.99    0.58
  -1   0 -10   12.85    0.42
  -1   0 -10   13.30    0.59
   1   0  11   -0.04    0.06
  -1   0 -11    0.01    0.04
  -1   0 -11   -0.03    0.06
   1   0  12    4.35    0.30
  -1   0 -12    4.04    0.19
  -1   0 -12    4.47    0.30
   1   0  13   17.88    0.91
  -1   0 -13   15.89    0.61
  -1   0 -13   19.07    0.88
   1   0  14    0.47    0.10
  -1   0 -14    0.06    0.11
  -1   0 -14   -0.01    0.06
   1   0  15    2.78    0.27
  -1   0 -15    3.06    0.25
  -1   0 -15    2.07    0.17
   1   0  16    4.30    0.33
  -1   0 -16    3.22    0.23
  -1   0 -16    4.41    0.34
   1   0  17    1.04    0.18
  -1   0 -17    0.71    0.13
  -1   0 -17    1.32    0.23
   1   0  18    2.94    0.35
  -1   0 -18    3.12    0.34
   1   0  19    0.11    0.15
  -1   0 -19    0.24    0.14
   1   0  20    0.18    0.15
  -1   0 -20    0.37    0.19
   1   0  21   -0.06    0.15
  -1   0 -21    0.02    0.13
   1   0  22    0.29    0.20
  -1   0 -22    0.13    0.17
   1   0  23   -0.01    0.19
  -1   0 -23    0.19    0.19
   1   1 -23    0.53    0.26
   1   1 -22    2.12    0.40
   1   1 -21   -0.08    0.17
  -1  -1  21    0.11    0.13
   1   1 -20    3.63    0.38
   1   1 -20    6.07    0.54
  -1  -1  20    4.13    0.42
   1   1 -19    1.90    0.24
   1   1 -19    2.32    0.29
  -1  -1  19    1.74    0.27
   1   1 -18    2.33    0.28
   1   1 -18    2.21    0.23
  -1  -1  18    2.30    0.27
   1   1 -17   -0.08    0.09
   1   1 -17   -0.01    0.07
  -1  -1  17    0.07    0.08
   1   1 -16    0.25    0.10
   1   1 -16    0.40    0.15
  -1  -1  16    0.32    0.11
   1   1 -15    1.48    0.19
   1   1 -15    0.82    0.16
  -1  -1  15    2.32    0.18
   1   1 -14    2.95    0.25
   1   1 -14    2.80    0.21
  -1  -1  14    3.07    0.25
   1   1 -13    9.70    0.51
   1   1 -13    9.23    0.44
  -1  -1  13    9.58    0.48
   1   1 -12    2.00    0.20
   1   1 -12    1.79    0.14
  -1  -1  12    1.57    0.15
   1   1 -11   12.75    0.52
   1   1 -11   12.97    0.59
  -1  -1  11   12.19    0.51
   1   1 -10   29.81    1.16
   1   1 -10   30.61    1.03
  -1  -1  10   28.20    1.00
   1   1  -9   -0.05    0.04
   1   1  -9    0.03    0.05
  -1  -1   9    0.10    0.04
   1   1  -8    0.21    0.06
   1   1  -8    0.22    0.06
  -1  -1   8    0.27    0.05
   1   1  -7    4.50    0.18
   1   1  -7    4.58    0.20
  -1  -1   7    4.58    0.18
   1   1  -6   27.33    0.83
   1   1  -6   27.24    0.74
  -1  -1   6   26.35    0.67
   1   1  -5    1.81    0.09
   1   1  -5    1.75    0.08
  -1  -1   5    1.70    0.06
   1   1  -4    9.50    0.25
   1   1  -4    9.01    0.25
   1   1  -3   10.28    0.23
  -1  -1   3   10.23    0.28
  -1  -1   2    8.38    0.19
   1   1   2    8.33    0.18
  -1  -1  -2    5.20    0.13
   1   1   3    0.57    0.05
  -1  -1  -3    0.68    0.04
   1   1   4    1.58    0.09
  -1  -1  -4    1.76    0.08
   1   1   5   60.31    1.85
  -1  -1  -5   61.46    1.69
   1   1   6   21.97    0.76
  -1  -1  -6   22.59    0.68
   1   1   7   12.49    0.47
  -1  -1  -7   13.74    0.45
  -1  -1  -7   11.71    0.25
   1   1   8   25.03    0.95
  -1  -1  -8   25.95    0.91
  -1  -1  -8   25.43    0.57
   1   1   9    4.43    0.25
  -1  -1  -9    4.72    0.26
  -1  -1  -9    4.58    0.14
   1   1  10    0.26    0.09
  -1  -1 -10    0.82    0.11
   1   1  11    2.90    0.20
  -1  -1 -11    3.08    0.19
  -1  -1 -11    2.24    0.10
   1   1  12   10.98    0.58
  -1  -1 -12   12.09    0.56
  -1  -1 -12    9.95    0.34
   1   1  13    8.00    0.56
  -1  -1 -13    8.65    0.51
   1   1  14    6.15    0.50
  -1  -1 -14    6.90    0.48
   1   1  15    0.37    0.15
  -1  -1 -15    0.53    0.13
   1   1  16   -0.14    0.09
  -1  -1 -16    0.07    0.04
  -1  -1 -16   -0.09    0.09
   1   1  17    2.07    0.29
  -1  -1 -17    2.06    0.30
   1   1  18    2.30    0.34
  -1  -1 -18    2.41    0.29
   1   1  19    2.73    0.39
  -1  -1 -19    2.53    0.37
   1   1  20    2.02    0.36
  -1  -1 -20    1.86    0.28
   1   1  21    0.68    0.22
  -1  -1 -21    0.82    0.27
   1   1  22    2.11    0.44
  -1  -1 -22    2.21    0.34
   1   1  23   -0.11    0.23
  -1  -1 -23    0.33    0.22
   1   2 -23    0.94    0.27
   1   2 -22    0.12    0.16
   1   2 -21    4.92    0.48
   1   2 -21    6.10    0.58
   1   2 -20    0.93    0.24
   1   2 -20    0.60    0.17
   1   2 -19    2.72    0.36
   1   2 -19    1.80    0.25
  -1  -2  19    2.42    0.28
   1   2 -18    3.17    0.31
   1   2 -18    2.47    0.27
  -1  -2  18    2.40    0.28
   1   2 -17    0.05    0.07
   1   2 -17   -0.03    0.12
  -1  -2  17    0.01    0.09
   1   2 -16    0.20    0.10
   1   2 -16    0.10    0.09
  -1  -2  16   -0.03    0.09
   1   2 -15    8.96    0.52
   1   2 -15    9.78    0.57
  -1  -2  15    8.45    0.49
   1   2 -14    6.72    0.39
   1   2 -14    6.69    0.47
  -1  -2  14    5.97    0.39
   1   2 -13    2.34    0.25
   1   2 -13    2.50    0.18
  -1  -2  13    2.34    0.18
   1   2 -12    6.76    0.34
   1   2 -12    6.64    0.41
  -1  -2  12    6.13    0.31
   1   2 -11    5.85    0.28
   1   2 -11    5.90    0.32
  -1  -2  11    5.81    0.26
   1   2 -10    4.61    0.24
   1   2 -10    4.65    0.28
  -1  -2  10    4.27    0.19
   1   2  -9    0.93    0.08
   1   2  -9    0.64    0.11
   1   2  -8    2.89    0.17
   1   2  -8    2.87    0.18
  -1  -2   8    3.38    0.13
   1   2  -7    5.89    0.24
   1   2  -7    5.67    0.23
  -1  -2   7    5.74    0.17
   1   2  -6    8.99    0.30
  -1  -2   6    8.21    0.19
  -1  -2   6    8.67    0.35
   1   2  -5    0.00    0.04
  -1  -2   5   -0.02    0.04
  -1  -2   5    0.05    0.01
   1   2  -4    6.35    0.19
  -1  -2   4    6.11    0.21
   1   2  -3    5.24    0.17
  -1  -2   3    4.76    0.17
   1   2  -2    1.46    0.07
   1   2  -2    1.28    0.02
  -1  -2   2    1.43    0.06
   1   2  -1    1.27    0.05
  -1  -2   1    0.95    0.04
  -1  -2   1    1.15    0.06
   1   2   0    3.79    0.09
   1   2   0    3.36    0.10
  -1  -2   0    3.51    0.10
   1   2   1   14.78    0.26
   1   2   1   15.02    0.37
  -1  -2  -1   15.24    0.34
   1   2   2    0.46    0.02
   1   2   2    0.61    0.06
  -1  -2  -2    0.46    0.02
  -1  -2  -2    0.56    0.04
   1   2   3   39.57    1.17
  -1  -2  -3   39.65    1.00
   1   2   4    6.77    0.27
  -1  -2  -4    6.88    0.24
   1   2   5    0.32    0.07
  -1  -2  -5    0.43    0.05
   1   2   6    0.11    0.06
  -1  -2  -6    0.11    0.05
   1   2   7    0.64    0.09
  -1  -2  -7    0.61    0.08
   1   2   8    2.55    0.19
  -1  -2  -8    2.76    0.18
   1   2   9   -0.02    0.08
  -1  -2  -9   -0.04    0.05
  -1  -2  -9   -0.03    0.02
   1   2  10    0.03    0.06
  -1  -2 -10    0.00    0.07
   1   2  11    2.21    0.19
  -1  -2 -11    2.03    0.17
   1   2  12    0.62    0.14
  -1  -2 -12    0.46    0.13
   1   2  13    6.25    0.44
  -1  -2 -13    6.10    0.39
   1   2  14    0.38    0.15
  -1  -2 -14    0.78    0.14
   1   2  15    0.79    0.22
  -1  -2 -15    0.80    0.16
   1   2  16    2.35    0.31
  -1  -2 -16    2.57    0.26
   1   2  17    2.02    0.35
  -1  -2 -17    2.74    0.33
   1   2  18    1.22    0.24
  -1  -2 -18    1.08    0.27
   1   2  19    1.15    0.30
  -1  -2 -19    1.11    0.23
   1   2  20    0.85    0.26
  -1  -2 -20    1.12    0.28
   1   2  21    0.13    0.20
  -1  -2 -21    0.04    0.18
   1   2  22   -0.18    0.16
  -1  -2 -22    0.10    0.14
   1   2  23    2.12    0.52
  -1  -2 -23    2.44    0.51
  -1  -3  23    0.44    0.33
   1   3 -22    0.22    0.16
  -1  -3  22    0.21    0.24
   1   3 -21    0.10    0.12
  -1  -3  21    0.09    0.14
   1   3 -20    0.36    0.15
   1   3 -20    0.27    0.16
   1   3 -19    0.54    0.19
   1   3 -19    0.52    0.16
   1   3 -18    1.33    0.26
   1   3 -18    1.40    0.21
   1   3 -17    1.41    0.22
   1   3 -17    1.38    0.20
  -1  -3  17    1.24    0.17
   1   3 -16    1.20    0.19
   1   3 -16    1.15    0.20
  -1  -3  16    1.15    0.14
   1   3 -15    1.97    0.20
   1   3 -15    1.80    0.17
  -1  -3  15    1.03    0.15
   1   3 -14    0.44    0.12
   1   3 -14    0.45    0.11
  -1  -3  14    0.15    0.08
   1   3 -13   10.33    0.54
   1   3 -13   10.48    0.56
  -1  -3  13    8.91    0.40
   1   3 -12    1.92    0.16
   1   3 -12    2.24    0.19
  -1  -3  12    2.02    0.14
   1   3 -11    0.34    0.08
  -1  -3  11    0.17    0.05
  -1  -3  11    0.12    0.07
   1   3 -10    1.09    0.13
  -1  -3  10    1.05    0.08
  -1  -3  10    1.22    0.15
   1   3  -9   10.85    0.48
  -1  -3   9    9.97    0.57
   1   3  -8    1.37    0.10
  -1  -3   8    1.48    0.18
   1   3  -7   18.08    0.65
  -1  -3   7   18.37    0.78
   1   3  -6    0.99    0.09
  -1  -3   6    1.09    0.09
   1   3  -5    3.92    0.16
  -1  -3   5    3.57    0.17
   1   3  -4    0.04    0.04
  -1  -3   4    0.10    0.04
   1   3  -3    5.43    0.20
  -1  -3   3    5.92    0.22
   1   3  -2    2.93    0.07
   1   3  -2    3.19    0.11
  -1  -3   2    2.79    0.12
   1   3  -1    1.33    0.06
   1   3  -1    1.38    0.06
  -1  -3   1    1.51    0.09
   1   3   0    3.06    0.11
   1   3   0    3.32    0.11
  -1  -3   0    3.34    0.12
   1   3   1   49.12    1.43
   1   3   1   52.03    1.05
  -1  -3  -1   56.23    1.41
   1   3   2  100.14    3.08
  -1  -3  -2   99.84    2.68
   1   3   3    0.58    0.08
  -1  -3  -3    0.66    0.06
   1   3   4    0.15    0.08
  -1  -3  -4    0.18    0.05
   1   3   5   19.32    0.74
  -1  -3  -5   18.62    0.62
   1   3   6    2.92    0.20
  -1  -3  -6    2.99    0.19
   1   3   7   15.37    0.74
  -1  -3  -7   14.09    0.55
   1   3   8    4.16    0.28
  -1  -3  -8    3.93    0.24
   1   3   9    2.07    0.24
  -1  -3  -9    2.17    0.16
   1   3  10    3.98    0.33
  -1  -3 -10    4.36    0.29
   1   3  11    4.64    0.37
  -1  -3 -11    4.16    0.27
   1   3  12    2.76    0.31
  -1  -3 -12    2.75    0.23
   1   3  13    6.23    0.49
  -1  -3 -13    6.07    0.45
   1   3  14    1.82    0.29
  -1  -3 -14    1.82    0.20
   1   3  15    2.03    0.31
  -1  -3 -15    2.49    0.25
   1   3  16    0.39    0.20
  -1  -3 -16    0.20    0.13
   1   3  17    0.23    0.18
  -1  -3 -17    0.46    0.15
   1   3  18    0.43    0.19
  -1  -3 -18   -0.05    0.13
   1   3  19   -0.23    0.17
  -1  -3 -19   -0.07    0.15
   1   3  20    1.08    0.34
  -1  -3 -20    0.93    0.28
   1   3  21    1.30    0.42
  -1  -3 -21    1.64    0.34
   1   3  22   -0.10    0.23
  -1  -3 -22   -0.02    0.16
   1   3  23   -0.49    0.29
  -1  -3 -23   -0.04    0.20
   1   4 -23   -0.02    0.15
  -1  -4  23    0.15    0.20
   1   4 -22    1.29    0.29
  -1  -4  22    1.76    0.47
   1   4 -21    0.02    0.13
  -1  -4  21    0.10    0.18
   1   4 -20    0.03    0.13
  -1  -4  20    0.29    0.22
   1   4 -19    3.12    0.35
  -1  -4  19    3.46    0.47
   1   4 -18    0.94    0.21
  -1  -4  18    0.91    0.26
   1   4 -17    1.24    0.22
  -1  -4  17    1.75    0.29
   1   4 -16    0.20    0.09
  -1  -4  16   -0.17    0.15
   1   4 -15    6.12    0.45
  -1  -4  15    4.66    0.30
  -1  -4  15    6.51    0.53
   1   4 -14    1.59    0.18
  -1  -4  14    0.82    0.11
  -1  -4  14    1.10    0.26
   1   4 -13    0.28    0.10
  -1  -4  13    0.32    0.06
  -1  -4  13    0.50    0.17
   1   4 -12   -0.11    0.09
  -1  -4  12    0.25    0.10
  -1  -4  12    0.15    0.05
   1   4 -11    0.75    0.11
  -1  -4  11    0.53    0.16
   1   4 -10    0.09    0.07
  -1  -4  10    0.09    0.08
  -1  -4  10    0.02    0.03
   1   4  -9    2.42    0.16
  -1  -4   9    2.33    0.20
   1   4  -8    0.89    0.10
  -1  -4   8    0.49    0.03
  -1  -4   8    0.43    0.12
   1   4  -7    8.32    0.35
  -1  -4   7    7.48    0.40
   1   4  -6   21.85    0.76
  -1  -4   6   22.12    0.87
   1   4  -5    2.24    0.13
  -1  -4   5    2.68    0.17
   1   4  -4   -0.02    0.04
  -1  -4   4    0.06    0.05
   1   4  -3    5.02    0.19
  -1  -4   3    4.87    0.21
   1   4  -2    1.05    0.07
   1   4  -2    0.98    0.06
  -1  -4   2    1.05    0.08
   1   4  -1   20.22    0.58
   1   4  -1   22.94    0.62
  -1  -4   1   21.97    0.66
   1   4   0   20.13    0.54
   1   4   0   19.41    0.60
  -1  -4   0   20.43    0.62
   1   4   1   39.44    1.27
   1   4   1   41.87    0.99
  -1  -4  -1   41.87    1.21
   1   4   2   17.52    0.67
   1   4   2   17.87    0.41
  -1  -4  -2   18.49    0.56
   1   4   3   28.23    1.03
  -1  -4  -3   27.40    0.84
   1   4   4    5.95    0.33
  -1  -4  -4    6.07    0.27
   1   4   5    0.65    0.09
  -1  -4  -5    0.12    0.06
   1   4   6    8.35    0.48
  -1  -4  -6    7.95    0.39
   1   4   7    0.74    0.13
  -1  -4  -7    0.57    0.09
   1   4   8    0.07    0.11
  -1  -4  -8    0.09    0.08
   1   4   9    0.02    0.09
  -1  -4  -9    0.12    0.09
   1   4  10    1.16    0.24
  -1  -4 -10    1.35    0.14
   1   4  11   10.23    0.70
  -1  -4 -11   10.09    0.56
   1   4  12    2.02    0.33
  -1  -4 -12    1.91    0.21
   1   4  13    4.09    0.42
  -1  -4 -13    4.56    0.38
   1   4  14    0.31    0.20
  -1  -4 -14    0.37    0.12
   1   4  15    0.15    0.12
  -1  -4 -15   -0.26    0.13
   1   4  16    5.06    0.62
  -1  -4 -16    5.19    0.44
   1   4  17    4.39    0.54
  -1  -4 -17    4.51    0.43
   1   4  18    1.41    0.44
  -1  -4 -18    2.25    0.30
   1   4  19    9.87    1.11
  -1  -4 -19    8.70    0.78
   1   4  20    0.83    0.31
  -1  -4 -20    1.30    0.27
   1   4  21    0.05    0.22
  -1  -4 -21   -0.17    0.16
   1   4  22    4.17    0.73
  -1  -4 -22    5.53    0.64
   1   5 -23    0.72    0.25
  -1  -5  23    0.23    0.41
   1   5 -22    2.14    0.44
  -1  -5  22    4.30    0.56
   1   5 -21    2.50    0.41
  -1  -5  21    3.81    0.59
   1   5 -20    2.37    0.33
  -1  -5  20    2.65    0.54
   1   5 -19    1.01    0.25
  -1  -5  19    1.21    0.35
   1   5 -18    0.51    0.17
  -1  -5  18    0.01    0.23
   1   5 -17    7.19    0.63
  -1  -5  17    7.84    0.78
   1   5 -16    5.37    0.43
  -1  -5  16    5.88    0.56
   1   5 -15    0.26    0.13
  -1  -5  15    0.08    0.15
   1   5 -14   19.77    1.14
  -1  -5  14   19.24    1.23
   1   5 -13   -0.07    0.09
  -1  -5  13   -0.07    0.11
   1   5 -12    0.68    0.16
  -1  -5  12    0.84    0.15
   1   5 -11    1.62    0.17
  -1  -5  11    1.55    0.23
   1   5 -10    6.36    0.39
  -1  -5  10    6.91    0.46
   1   5  -9   16.19    0.71
  -1  -5   9   14.71    0.80
   1   5  -8    2.73    0.19
  -1  -5   8    2.65    0.24
   1   5  -7   12.82    0.58
  -1  -5   7   13.53    0.60
   1   5  -6    0.02    0.06
  -1  -5   6    0.02    0.05
   1   5  -5    1.68    0.12
  -1  -5   5    1.67    0.16
   1   5  -4    5.80    0.24
  -1  -5   4    4.93    0.23
   1   5  -3    5.12    0.24
  -1  -5   3    5.35    0.26
   1   5  -2    0.92    0.08
  -1  -5   2    0.93    0.08
   1   5  -1    2.75    0.14
   1   5  -1    3.16    0.15
  -1  -5   1    3.38    0.17
   1   5   0   24.45    0.82
   1   5   0   24.23    0.72
  -1  -5   0   23.18    0.77
   1   5   1   -0.12    0.05
   1   5   1   -0.00    0.03
  -1  -5  -1    0.03    0.04
   1   5   2   46.14    1.19
   1   5   2   45.76    1.75
  -1  -5  -2   46.88    1.54
   1   5   3    0.06    0.03
   1   5   3    0.06    0.08
  -1  -5  -3   -0.02    0.05
   1   5   4    0.17    0.03
   1   5   4    0.34    0.08
  -1  -5  -4    0.25    0.08
   1   5   5    1.01    0.15
  -1  -5  -5    0.67    0.09
   1   5   6    1.65    0.19
  -1  -5  -6    2.12    0.17
   1   5   7   -0.02    0.11
  -1  -5  -7   -0.03    0.07
   1   5   8    1.18    0.18
  -1  -5  -8    1.31    0.15
   1   5   9    5.12    0.48
  -1  -5  -9    5.55    0.37
   1   5  10    0.88    0.19
  -1  -5 -10    0.90    0.14
   1   5  11    4.63    0.51
  -1  -5 -11    4.06    0.37
   1   5  12   63.13    3.92
  -1  -5 -12   60.77    3.28
   1   5  13   -0.09    0.23
  -1  -5 -13    0.57    0.16
   1   5  14    2.23    0.33
  -1  -5 -14    2.50    0.27
   1   5  15    1.83    0.40
  -1  -5 -15    1.97    0.31
   1   5  16   -0.01    0.16
  -1  -5 -16    0.19    0.12
   1   5  17    1.27    0.27
  -1  -5 -17    0.67    0.21
   1   5  18    7.29    0.83
  -1  -5 -18    6.99    0.75
   1   5  19    1.20    0.36
  -1  -5 -19    1.16    0.33
   1   5  20    0.35    0.32
  -1  -5 -20    0.37    0.25
   1   5  21    1.76    0.42
  -1  -5 -21    1.56    0.43
   1   5  22    1.58    0.56
  -1  -5 -22    1.92    0.47
   1   6 -22    0.04    0.15
  -1  -6  22    0.34    0.25
   1   6 -21    0.20    0.17
  -1  -6  21    0.82    0.29
   1   6 -20    3.62    0.51
  -1  -6  20    5.06    0.65
   1   6 -19    0.09    0.17
  -1  -6  19    0.31    0.24
   1   6 -18    0.10    0.14
  -1  -6  18   -0.34    0.19
   1   6 -17    1.62    0.25
  -1  -6  17    1.26    0.28
   1   6 -16    0.96    0.23
  -1  -6  16    0.87    0.29
   1   6 -15   10.04    0.67
  -1  -6  15    9.40    0.72
   1   6 -14    1.16    0.19
  -1  -6  14    0.78    0.21
   1   6 -13    4.24    0.36
  -1  -6  13    4.94    0.39
   1   6 -12    2.38    0.24
  -1  -6  12    2.75    0.32
   1   6 -11    0.15    0.09
  -1  -6  11    0.15    0.13
   1   6 -10   14.00    0.78
  -1  -6  10   14.96    0.87
   1   6  -9    8.23    0.45
  -1  -6   9    7.70    0.49
   1   6  -8    1.64    0.15
  -1  -6   8    1.73    0.20
   1   6  -7    0.04    0.06
  -1  -6   7   -0.00    0.07
   1   6  -6   11.80    0.56
  -1  -6   6   12.40    0.56
   1   6  -5   19.12    0.78
  -1  -6   5   18.02    0.77
   1   6  -4    0.12    0.07
  -1  -6   4    0.14    0.06
   1   6  -3    0.02    0.05
   1   6  -3    0.03    0.04
  -1  -6   3    0.11    0.07
   1   6  -2    0.64    0.09
   1   6  -2    0.64    0.09
  -1  -6   2    0.84    0.09
   1   6  -1   12.71    0.50
   1   6  -1   12.99    0.48
  -1  -6   1   13.79    0.55
   1   6   0   61.77    1.94
   1   6   0   57.77    2.19
  -1  -6   0   57.85    2.08
   1   6   1   18.82    0.64
   1   6   1   18.85    0.82
  -1  -6  -1   20.98    0.75
   1   6   2   -0.02    0.07
   1   6   2   -0.03    0.04
  -1  -6  -2   -0.03    0.05
   1   6   3    0.87    0.14
   1   6   3    0.60    0.06
  -1  -6  -3    0.83    0.11
   1   6   4   11.23    0.57
  -1  -6  -4   10.52    0.48
   1   6   5    5.19    0.38
  -1  -6  -5    4.61    0.25
   1   6   6    1.70    0.20
  -1  -6  -6    1.88    0.15
   1   6   7    4.88    0.43
  -1  -6  -7    4.41    0.31
   1   6   8    1.66    0.23
  -1  -6  -8    2.09    0.20
   1   6   9    2.87    0.36
  -1  -6  -9    2.35    0.26
   1   6  10    0.13    0.13
  -1  -6 -10    0.08    0.09
   1   6  11    3.35    0.48
  -1  -6 -11    3.13    0.31
   1   6  12    2.45    0.38
  -1  -6 -12    2.44    0.32
   1   6  13    1.00    0.28
  -1  -6 -13    0.48    0.20
   1   6  14    1.57    0.36
  -1  -6 -14    1.87    0.29
   1   6  15    0.49    0.28
  -1  -6 -15    0.79    0.19
   1   6  16    0.61    0.24
  -1  -6 -16    0.59    0.23
   1   6  17    1.17    0.35
  -1  -6 -17    0.58    0.21
   1   6  18    0.58    0.34
  -1  -6 -18    1.26    0.25
   1   6  19    0.36    0.36
  -1  -6 -19    0.55    0.24
   1   6  20    0.55    0.37
  -1  -6 -20    1.29    0.34
   1   6  21   -0.30    0.26
  -1  -6 -21   -0.10    0.25
   1   7 -22    0.06    0.23
  -1  -7  22    0.67    0.28
   1   7 -21    1.47    0.37
  -1  -7  21    1.60    0.45
   1   7 -20    1.05    0.27
  -1  -7  20    1.40    0.39
   1   7 -19    0.02    0.13
  -1  -7  19    0.18    0.20
   1   7 -18    2.88    0.44
  -1  -7  18    3.30    0.46
   1   7 -17   27.96    1.97
  -1  -7  17   30.02    2.20
   1   7 -16    0.37    0.17
  -1  -7  16    0.00    0.16
   1   7 -15    7.22    0.60
  -1  -7  15    8.15    0.65
   1   7 -14    0.12    0.16
  -1  -7  14    0.29    0.14
   1   7 -13    0.54    0.15
  -1  -7  13    0.43    0.21
   1   7 -12    0.37    0.16
  -1  -7  12    0.40    0.14
   1   7 -11    0.31    0.11
  -1  -7  11    0.40    0.16
   1   7 -10    0.47    0.12
  -1  -7  10    0.37    0.13
   1   7  -9    0.82    0.16
  -1  -7   9    0.83    0.17
   1   7  -8    0.64    0.15
  -1  -7   8    0.57    0.16
   1   7  -7   39.31    1.81
  -1  -7   7   43.05    1.96
   1   7  -6    2.51    0.22
  -1  -7   6    2.56    0.22
   1   7  -5    0.12    0.08
   1   7  -5    0.02    0.03
  -1  -7   5    0.24    0.07
   1   7  -4    0.86    0.12
   1   7  -4    0.68    0.07
  -1  -7   4    0.85    0.12
   1   7  -3    6.87    0.32
  -1  -7   3    6.39    0.33
   1   7  -2    0.70    0.10
   1   7  -2    0.74    0.11
  -1  -7   2    0.85    0.10
   1   7  -1    0.14    0.06
   1   7  -1   -0.01    0.05
  -1  -7   1    0.09    0.05
   1   7   0    0.12    0.07
   1   7   0    0.22    0.08
  -1  -7   0    0.25    0.07
   1   7   1   12.76    0.65
   1   7   1   12.79    0.49
  -1  -7  -1   12.78    0.59
   1   7   2    1.33    0.11
   1   7   2    1.36    0.18
  -1  -7  -2    1.49    0.15
   1   7   3    8.16    0.52
   1   7   3    7.95    0.32
  -1  -7  -3    8.23    0.38
   1   7   4    1.02    0.08
  -1  -7  -4    1.38    0.14
   1   7   5    1.37    0.25
  -1  -7  -5    1.65    0.18
   1   7   6    5.65    0.42
  -1  -7  -6    5.01    0.30
   1   7   7    0.01    0.10
  -1  -7  -7    0.02    0.08
   1   7   8    2.13    0.35
  -1  -7  -8    2.10    0.24
  -1  -7  -9    1.14    0.16
   1   7  10    5.21    0.53
  -1  -7 -10    4.38    0.35
   1   7  11    0.17    0.20
  -1  -7 -11    0.49    0.14
   1   7  12    0.18    0.19
  -1  -7 -12   -0.14    0.11
   1   7  13    1.98    0.35
  -1  -7 -13    1.74    0.27
   1   7  14    0.16    0.22
  -1  -7 -14   -0.17    0.13
   1   7  15    1.44    0.36
  -1  -7 -15    1.38    0.30
   1   7  16    0.14    0.24
  -1  -7 -16    0.15    0.14
   1   7  17    0.76    0.31
  -1  -7 -17    0.89    0.28
   1   7  18   -0.03    0.29
  -1  -7 -18    0.22    0.17
   1   7  19    0.67    0.34
  -1  -7 -19    0.89    0.32
   1   7  20    0.60    0.44
  -1  -7 -20    0.91    0.32
   1   8 -21   -0.01    0.22
  -1  -8  21   -0.28    0.22
   1   8 -20    1.94    0.37
  -1  -8  20    2.81    0.52
   1   8 -19    0.94    0.33
  -1  -8  19    1.50    0.32
   1   8 -18    3.64    0.52
  -1  -8  18    3.88    0.52
   1   8 -17    7.02    0.69
  -1  -8  17    8.63    0.77
   1   8 -16    3.13    0.46
  -1  -8  16    3.18    0.53
   1   8 -15    1.95    0.32
  -1  -8  15    2.41    0.39
   1   8 -14    5.09    0.48
  -1  -8  14    5.77    0.59
   1   8 -13    0.22    0.14
  -1  -8  13   -0.08    0.12
   1   8 -12    1.01    0.20
  -1  -8  12    1.34    0.21
   1   8 -11   -0.15    0.11
  -1  -8  11   -0.14    0.12
   1   8 -10    0.67    0.16
  -1  -8  10    0.49    0.15
   1   8  -9   11.19    0.71
  -1  -8   9   12.80    0.80
   1   8  -8    2.39    0.25
  -1  -8   8    2.41    0.27
   1   8  -7    0.75    0.18
  -1  -8   7    1.35    0.15
   1   8  -6    1.48    0.10
   1   8  -6    1.80    0.19
  -1  -8   6    2.31    0.20
   1   8  -5    0.11    0.10
  -1  -8   5    0.24    0.10
   1   8  -4    0.51    0.08
   1   8  -4    0.92    0.11
  -1  -8   4    0.81    0.11
   1   8  -3    0.62    0.11
   1   8  -3    0.61    0.08
  -1  -8   3    0.53    0.12
   1   8  -2    0.97    0.10
   1   8  -2    0.88    0.11
  -1  -8   2    0.95    0.13
   1   8  -1    0.57    0.12
   1   8  -1    0.75    0.11
  -1  -8   1    1.15    0.13
   1   8   0    4.22    0.25
   1   8   0    3.83    0.29
  -1  -8   0    3.91    0.28
   1   8   1    0.94    0.11
   1   8   1    0.58    0.15
  -1  -8  -1    1.04    0.11
   1   8   2    0.11    0.06
   1   8   2    0.09    0.11
  -1  -8  -2    0.20    0.07
   1   8   3    3.11    0.25
   1   8   3    2.45    0.16
  -1  -8  -3    2.60    0.21
   1   8   4    1.27    0.18
   1   8   4    1.09    0.10
  -1  -8  -4    1.40    0.14
   1   8   5    4.11    0.41
  -1  -8  -5    3.79    0.30
   1   8   6    0.01    0.11
   1   8   6    0.04    0.03
  -1  -8  -6   -0.03    0.07
   1   8   7    8.48    0.67
  -1  -8  -7    8.15    0.48
   1   8   8    0.04    0.17
  -1  -8  -8    0.07    0.09
   1   8   9    2.04    0.32
  -1  -8  -9    1.90    0.25
   1   8  10    1.50    0.29
  -1  -8 -10    1.52    0.22
   1   8  11    0.34    0.20
  -1  -8 -11    0.04    0.11
   1   8  12    4.84    0.63
  -1  -8 -12    5.04    0.50
   1   8  13   -0.08    0.21
  -1  -8 -13    0.12    0.15
   1   8  14    0.56    0.28
  -1  -8 -14    0.58    0.19
   1   8  15    0.96    0.40
  -1  -8 -15    0.87    0.23
   1   8  16    2.19    0.43
  -1  -8 -16    1.70    0.37
   1   8  17    0.25    0.36
  -1  -8 -17    0.55    0.20
   1   8  18    0.43    0.23
  -1  -8 -18   -0.05    0.18
   1   8  19   -0.25    0.21
  -1  -8 -19    0.24    0.18
   1   8  20    0.72    0.43
  -1  -8 -20    0.99    0.31
   1   9 -21    0.45    0.27
  -1  -9  21    1.25    0.33
   1   9 -20    0.06    0.16
  -1  -9  20    0.10    0.19
   1   9 -19   -0.02    0.21
  -1  -9  19    0.45    0.24
   1   9 -18    0.87    0.25
  -1  -9  18    1.32    0.38
   1   9 -17    3.23    0.46
  -1  -9  17    2.31    0.44
   1   9 -16    1.05    0.25
  -1  -9  16    1.24    0.28
   1   9 -15    1.99    0.33
  -1  -9  15    2.52    0.35
   1   9 -14    7.06    0.70
  -1  -9  14    7.92    0.76
   1   9 -13    1.61    0.26
  -1  -9  13    1.65    0.27
   1   9 -12    1.85    0.26
  -1  -9  12    2.14    0.34
   1   9 -11    1.26    0.24
  -1  -9  11    2.03    0.31
   1   9 -10    9.33    0.73
  -1  -9  10   10.31    0.65
   1   9  -9    0.30    0.14
  -1  -9   9    0.15    0.14
   1   9  -8   11.04    0.72
  -1  -9   8   10.26    0.62
   1   9  -7    0.47    0.12
  -1  -9   7    0.43    0.12
   1   9  -6    1.21    0.16
   1   9  -6    1.17    0.10
  -1  -9   6    1.51    0.20
   1   9  -5    0.73    0.09
   1   9  -5    1.08    0.14
  -1  -9   5    1.26    0.16
   1   9  -4    2.51    0.25
  -1  -9   4    2.69    0.25
   1   9  -3    0.08    0.08
   1   9  -3    0.10    0.07
  -1  -9   3    0.11    0.09
   1   9  -2    8.28    0.45
   1   9  -2    8.36    0.43
  -1  -9   2    7.54    0.42
   1   9  -1    0.48    0.12
   1   9  -1    0.54    0.13
  -1  -9   1    0.71    0.14
   1   9   0    0.52    0.12
   1   9   0    0.35    0.10
  -1  -9   0    0.31    0.12
   1   9   1    0.34    0.10
   1   9   1    0.57    0.14
  -1  -9  -1    0.48    0.10
   1   9   2    0.01    0.07
   1   9   2    0.10    0.12
  -1  -9  -2    0.27    0.10
   1   9   3    0.60    0.18
   1   9   3    0.55    0.09
  -1  -9  -3    0.53    0.12
   1   9   4    0.32    0.08
   1   9   4    0.53    0.18
  -1  -9  -4    0.48    0.13
   1   9   5    1.90    0.27
  -1  -9  -5    1.88    0.19
   1   9   6    0.29    0.14
  -1  -9  -6    0.19    0.10
   1   9   7    1.51    0.32
  -1  -9  -7    1.40    0.19
   1   9   8    1.32    0.31
  -1  -9  -8    0.78    0.21
   1   9   9   -0.14    0.17
  -1  -9  -9   -0.09    0.10
   1   9  10   -0.17    0.15
  -1  -9 -10    0.16    0.12
   1   9  11    0.95    0.33
  -1  -9 -11    0.74    0.19
   1   9  12   -0.07    0.18
  -1  -9 -12    0.11    0.11
   1   9  13   -0.01    0.25
  -1  -9 -13    0.17    0.14
   1   9  14    0.81    0.34
  -1  -9 -14    1.33    0.31
   1   9  15   -0.01    0.21
  -1  -9 -15    0.10    0.15
   1   9  16    0.88    0.42
  -1  -9 -16    0.79    0.25
   1   9  17   -0.29    0.25
  -1  -9 -17    0.52    0.21
   1   9  18   -0.15    0.29
  -1  -9 -18    0.16    0.17
  -1  -9 -19   -0.01    0.16
   1  10 -20    0.10    0.19
  -1 -10  20   -0.08    0.17
   1  10 -19   -0.05    0.24
  -1 -10  19    0.57    0.26
   1  10 -18   -0.20    0.16
  -1 -10  18    0.18    0.21
   1  10 -17    1.85    0.36
  -1 -10  17    1.53    0.37
   1  10 -16    0.21    0.18
  -1 -10  16    0.34    0.20
   1  10 -15    0.27    0.18
  -1 -10  15    0.48    0.24
   1  10 -14    1.53    0.34
  -1 -10  14    1.43    0.36
   1  10 -13    0.10    0.15
  -1 -10  13   -0.00    0.13
   1  10 -12    2.30    0.29
  -1 -10  12    2.14    0.29
   1  10 -11    1.91    0.25
  -1 -10  11    1.47    0.25
   1  10 -10    2.47    0.32
  -1 -10  10    2.96    0.30
   1  10  -9   10.96    0.74
  -1 -10   9   10.45    0.80
   1  10  -8    0.68    0.17
  -1 -10   8    0.82    0.19
   1  10  -7    6.64    0.55
  -1 -10   7    6.82    0.53
   1  10  -6    0.10    0.13
  -1 -10   6    0.23    0.12
   1  10  -5    0.02    0.07
   1  10  -5    0.16    0.09
  -1 -10   5    0.09    0.09
   1  10  -4    2.28    0.23
   1  10  -4    1.47    0.18
  -1 -10   4    1.58    0.18
   1  10  -3    1.39    0.15
   1  10  -3    0.93    0.16
  -1 -10   3    1.49    0.18
   1  10  -2   -0.02    0.08
   1  10  -2    0.24    0.09
  -1 -10   2    0.06    0.10
   1  10  -1   11.69    0.59
   1  10  -1    9.57    0.65
  -1 -10   1   10.70    0.58
   1  10   0    1.02    0.20
   1  10   0    0.94    0.17
  -1 -10   0    1.43    0.16
   1  10   1    0.64    0.18
   1  10   1    0.80    0.13
  -1 -10  -1    0.73    0.16
   1  10   2    2.74    0.35
   1  10   2    2.14    0.22
  -1 -10  -2    3.36    0.29
   1  10   3    2.87    0.25
   1  10   3    4.51    0.43
  -1 -10  -3    4.43    0.31
   1  10   4    2.40    0.21
   1  10   4    3.74    0.42
  -1 -10  -4    3.78    0.27
   1  10   5    1.63    0.18
   1  10   5    2.81    0.36
  -1 -10  -5    2.86    0.25
   1  10   6    0.08    0.16
  -1 -10  -6    0.15    0.13
   1  10   7   23.52    1.74
  -1 -10  -7   21.49    1.39
   1  10   8    1.00    0.29
  -1 -10  -8    1.03    0.19
   1  10   9   -0.18    0.21
  -1 -10  -9    0.17    0.14
   1  10  10    0.96    0.29
  -1 -10 -10    0.15    0.20
   1  10  11   -0.13    0.22
  -1 -10 -11    0.38    0.18
   1  10  12   -0.02    0.22
  -1 -10 -12    0.34    0.19
   1  10  13    2.67    0.63
  -1 -10 -13    2.43    0.42
   1  10  14    2.29    0.55
  -1 -10 -14    2.25    0.43
   1  10  15    0.34    0.31
  -1 -10 -15    0.37    0.22
   1  10  16    0.54    0.40
  -1 -10 -16    0.65    0.28
   1  10  17    0.38    0.31
  -1 -10 -17    0.26    0.22
  -1 -10 -18    0.25    0.25
   1  11 -19    0.81    0.33
  -1 -11  19    1.32    0.44
   1  11 -18    0.16    0.18
  -1 -11  18    0.17    0.21
   1  11 -17    0.09    0.18
  -1 -11  17   -0.09    0.16
   1  11 -16    0.38    0.19
  -1 -11  16    0.06    0.20
   1  11 -15    0.96    0.27
  -1 -11  15    1.04    0.34
   1  11 -14    0.19    0.16
  -1 -11  14    0.15    0.16
   1  11 -13    0.93    0.31
  -1 -11  13    1.85    0.32
   1  11 -12   -0.19    0.17
  -1 -11  12    0.37    0.15
   1  11 -11    0.52    0.21
  -1 -11  11    0.63    0.19
   1  11 -10    2.45    0.41
  -1 -11  10    3.39    0.40
   1  11  -9    1.41    0.27
  -1 -11   9    1.27    0.26
   1  11  -8    0.53    0.15
  -1 -11   8    0.39    0.17
   1  11  -7    0.12    0.12
  -1 -11   7    0.17    0.11
   1  11  -6   -0.21    0.11
  -1 -11   6    0.17    0.10
   1  11  -5    0.03    0.11
   1  11  -5    0.17    0.09
  -1 -11   5    0.35    0.13
   1  11  -4    0.22    0.10
   1  11  -4    0.33    0.15
  -1 -11   4    0.39    0.11
   1  11  -3    1.99    0.26
   1  11  -3    2.26    0.23
  -1 -11   3    2.09    0.26
   1  11  -2   -0.08    0.09
   1  11  -2    0.11    0.09
  -1 -11   2   -0.05    0.08
   1  11  -1    0.56    0.13
   1  11  -1    0.25    0.15
  -1 -11   1    0.34    0.12
   1  11   0    0.33    0.15
   1  11   0    0.26    0.12
  -1 -11   0    0.30    0.11
   1  11   1    2.88    0.36
   1  11   1    2.26    0.27
  -1 -11  -1    3.34    0.28
   1  11   2    0.41    0.19
   1  11   2    0.28    0.12
  -1 -11  -2    0.73    0.17
   1  11   3    9.56    0.88
  -1 -11  -3   10.24    0.72
   1  11   4    5.33    0.39
   1  11   4    8.11    0.76
  -1 -11  -4    7.68    0.57
   1  11   5   25.83    2.11
  -1 -11  -5   25.55    1.52
   1  11   6    1.09    0.34
  -1 -11  -6    0.92    0.23
   1  11   7    2.95    0.45
  -1 -11  -7    1.60    0.26
   1  11   8    0.51    0.29
  -1 -11  -8    1.20    0.25
   1  11   9    5.72    0.76
  -1 -11  -9    6.05    0.55
   1  11  10    0.00    0.21
  -1 -11 -10   -0.21    0.14
   1  11  11   -0.06    0.28
  -1 -11 -11    0.21    0.15
   1  11  12    0.25    0.29
  -1 -11 -12    0.11    0.15
   1  11  13   -0.13    0.22
  -1 -11 -13    0.17    0.18
   1  11  14    0.07    0.26
  -1 -11 -14    0.15    0.21
   1  11  15    1.98    0.69
  -1 -11 -15    1.87    0.38
   1  11  16   -0.06    0.29
  -1 -11 -16    0.45    0.25
   1  12 -18    0.11    0.19
  -1 -12  18    0.22    0.21
   1  12 -17    0.30    0.26
  -1 -12  17    0.15    0.21
   1  12 -16    3.07    0.57
  -1 -12  16    3.90    0.50
   1  12 -15    0.09    0.21
  -1 -12  15    0.04    0.20
   1  12 -14    0.25    0.17
  -1 -12  14    0.08    0.18
   1  12 -13    0.96    0.28
  -1 -12  13    1.49    0.33
   1  12 -12    2.05    0.35
  -1 -12  12    1.91    0.32
   1  12 -11    0.33    0.21
  -1 -12  11    0.85    0.20
   1  12 -10    1.55    0.34
  -1 -12  10    1.61    0.27
   1  12  -9    0.26    0.20
  -1 -12   9    0.33    0.19
   1  12  -8    0.84    0.23
  -1 -12   8    1.56    0.22
   1  12  -7    0.76    0.18
  -1 -12   7    0.71    0.17
   1  12  -6    2.63    0.38
  -1 -12   6    2.76    0.33
   1  12  -5    3.33    0.41
  -1 -12   5    4.13    0.39
   1  12  -4    1.41    0.19
   1  12  -4    1.30    0.22
  -1 -12   4    1.36    0.20
   1  12  -3    0.14    0.14
   1  12  -3    0.17    0.13
  -1 -12   3    0.41    0.12
   1  12  -2   -0.10    0.12
   1  12  -2   -0.03    0.12
  -1 -12   2   -0.18    0.13
   1  12  -1    3.37    0.42
   1  12  -1    5.24    0.46
  -1 -12   1    4.37    0.37
   1  12   0    7.15    0.66
   1  12   0    6.09    0.54
  -1 -12   0    8.26    0.60
   1  12   1    0.02    0.12
   1  12   1    0.00    0.09
  -1 -12  -1   -0.06    0.11
   1  12   2    0.01    0.10
   1  12   2    0.13    0.16
  -1 -12  -2    0.08    0.10
   1  12   3    1.70    0.22
   1  12   3    2.17    0.31
  -1 -12  -3    2.57    0.31
   1  12   4    2.17    0.27
   1  12   4    4.14    0.45
  -1 -12  -4    4.28    0.33
   1  12   5    1.10    0.30
  -1 -12  -5    0.46    0.22
   1  12   6    1.95    0.37
  -1 -12  -6    0.77    0.22
   1  12   7    1.25    0.40
  -1 -12  -7    1.22    0.24
   1  12   8    1.40    0.39
  -1 -12  -8    0.85    0.27
   1  12   9    1.29    0.49
  -1 -12  -9    1.61    0.34
   1  12  10    0.43    0.32
  -1 -12 -10    0.75    0.25
   1  12  11    0.60    0.38
  -1 -12 -11    1.19    0.29
   1  12  12    1.34    0.45
  -1 -12 -12    1.15    0.36
   1  12  13    0.49    0.35
  -1 -12 -13    0.09    0.18
   1  12  14    0.79    0.55
  -1 -12 -14    0.95    0.27
   1  12  15    0.23    0.34
  -1 -12 -15    0.23    0.27
   1  13 -16    0.60    0.28
  -1 -13  16    1.00    0.28
   1  13 -15   -0.05    0.15
  -1 -13  15    0.05    0.15
   1  13 -14   -0.02    0.16
  -1 -13  14   -0.02    0.17
   1  13 -13    0.32    0.16
  -1 -13  13   -0.10    0.16
   1  13 -12    0.16    0.16
  -1 -13  12    0.04    0.15
   1  13 -11    1.85    0.36
  -1 -13  11    2.80    0.35
   1  13 -10    2.29    0.45
  -1 -13  10    2.44    0.35
   1  13  -9    1.10    0.33
  -1 -13   9    1.25    0.25
   1  13  -8    0.98    0.26
  -1 -13   8    1.52    0.28
   1  13  -7    1.33    0.31
  -1 -13   7    1.34    0.24
   1  13  -6   -0.07    0.13
  -1 -13   6   -0.12    0.11
   1  13  -5    0.20    0.17
  -1 -13   5    0.24    0.16
   1  13  -4   10.24    0.86
  -1 -13   4   10.52    0.78
   1  13  -3    0.43    0.20
  -1 -13   3    0.57    0.20
   1  13  -2    0.20    0.12
   1  13  -2   -0.11    0.12
  -1 -13   2   -0.09    0.09
   1  13  -1    0.94    0.23
   1  13  -1    0.94    0.25
  -1 -13   1    1.03    0.19
   1  13   0    0.23    0.14
   1  13   0    0.16    0.18
  -1 -13   0    0.16    0.16
   1  13   1    2.68    0.36
   1  13   1    3.42    0.47
  -1 -13  -1    4.01    0.36
   1  13   2    4.56    0.44
   1  13   2    2.74    0.34
  -1 -13  -2    3.73    0.43
   1  13   3    0.41    0.26
   1  13   3    0.53    0.14
  -1 -13  -3    0.39    0.20
   1  13   4   -0.00    0.25
  -1 -13  -4    0.42    0.14
   1  13   5    0.36    0.25
  -1 -13  -5    0.72    0.20
   1  13   6    0.43    0.22
  -1 -13  -6    0.21    0.20
   1  13   7    1.30    0.49
  -1 -13  -7    1.81    0.34
   1  13   8    3.30    0.63
  -1 -13  -8    2.58    0.45
   1  13   9    0.72    0.35
  -1 -13  -9    0.28    0.24
   1  13  10    0.74    0.38
  -1 -13 -10    0.91    0.31
   1  13  11    0.18    0.24
  -1 -13 -11    0.05    0.21
   1  13  12   -0.13    0.23
  -1 -13 -12    0.04    0.14
   1  13  13    0.49    0.34
  -1 -13 -13    0.27    0.23
   1  14 -14   -0.17    0.19
  -1 -14  14    0.15    0.17
   1  14 -13    0.25    0.26
  -1 -14  13    0.34    0.21
   1  14 -12   -0.12    0.19
  -1 -14  12   -0.19    0.20
   1  14 -11   -0.05    0.18
  -1 -14  11    0.52    0.21
   1  14 -10   -0.10    0.21
  -1 -14  10    0.36    0.19
   1  14  -9    0.28    0.22
  -1 -14   9    0.33    0.21
   1  14  -8    0.08    0.15
  -1 -14   8    0.20    0.14
   1  14  -7   -0.03    0.16
  -1 -14   7   -0.08    0.15
   1  14  -6    1.30    0.31
  -1 -14   6    1.02    0.22
   1  14  -5    0.19    0.16
  -1 -14   5    0.25    0.18
   1  14  -4    1.43    0.26
  -1 -14   4    1.34    0.29
   1  14  -3    1.11    0.31
  -1 -14   3    1.84    0.29
   1  14  -2    0.25    0.16
   1  14  -2    0.06    0.14
  -1 -14   2    0.29    0.17
   1  14  -1    0.59    0.22
   1  14  -1    0.69    0.24
  -1 -14   1    1.03    0.24
   1  14   0    0.75    0.23
   1  14   0    0.96    0.23
  -1 -14   0    0.85    0.25
   1  14   1    1.65    0.29
   1  14   1    1.76    0.38
  -1 -14  -1    1.75    0.34
   1  14   2    1.63    0.29
   1  14   2    2.46    0.44
  -1 -14  -2    2.52    0.37
   1  14   3    2.17    0.49
  -1 -14  -3    2.31    0.32
   1  14   4    0.31    0.31
  -1 -14  -4    0.71    0.18
   1  14   5    1.12    0.41
   1  14   6    0.06    0.24
  -1 -14  -6   -0.08    0.14
   1  14   7    1.79    0.41
  -1 -14  -7    1.06    0.27
   1  14   8    1.10    0.38
  -1 -14  -8    0.76    0.26
   1  14   9    1.35    0.45
  -1 -14  -9    1.34    0.31
   1  14  10    2.31    0.67
  -1 -14 -10    3.06    0.54
   1  14  11    0.37    0.34
  -1 -14 -11    0.32    0.27
   1  15 -12   -0.06    0.17
  -1 -15  12    0.08    0.15
   1  15 -11    0.10    0.17
  -1 -15  11   -0.17    0.15
   1  15 -10   -0.01    0.20
  -1 -15  10   -0.07    0.18
   1  15  -9    0.45    0.27
  -1 -15   9    1.22    0.24
   1  15  -8    0.09    0.20
   1  15  -7    0.05    0.17
  -1 -15   7    0.21    0.18
   1  15  -6    0.12    0.20
  -1 -15   6    0.14    0.15
   1  15  -5    0.42    0.24
  -1 -15   5    0.40    0.22
   1  15  -4    0.01    0.17
  -1 -15   4   -0.07    0.13
   1  15  -3    0.45    0.25
  -1 -15   3    0.83    0.23
   1  15  -2    0.84    0.23
  -1 -15   2    0.17    0.22
   1  15  -1    0.24    0.19
   1  15  -1    0.12    0.18
  -1 -15   1    0.17    0.19
   1  15   0    0.33    0.21
   1  15   0    0.42    0.24
  -1 -15   0    0.44    0.22
   1  15   1   -0.15    0.16
   1  15   1   -0.00    0.20
  -1 -15  -1   -0.13    0.18
   1  15   2    0.07    0.22
  -1 -15  -2    0.12    0.18
   1  15   3    2.72    0.43
  -1 -15  -3    1.93    0.32
   1  15   4    0.22    0.27
  -1 -15  -4    0.22    0.18
   1  15   5    0.20    0.22
  -1 -15  -5   -0.01    0.16
   1  15   6    0.96    0.31
  -1 -15  -6   -0.07    0.18
   1  15   7    0.54    0.48
  -1 -15  -7    1.05    0.30
   1  15   8    0.59    0.42
  -1 -15  -8    0.57    0.30
   1  15   9    3.15    0.60
  -1 -15  -9    1.63    0.49
   1  16  -9    0.52    0.30
  -1 -16   9    0.32    0.20
   1  16  -8    0.12    0.21
  -1 -16   8    0.30    0.18
   1  16  -7    2.64    0.55
   1  16  -6    0.59    0.28
  -1 -16   6    0.26    0.25
   1  16  -5    0.13    0.24
  -1 -16   5    0.45    0.19
   1  16  -4    0.40    0.23
  -1 -16   4    0.07    0.21
   1  16  -3    0.09    0.19
  -1 -16   3    0.02    0.14
   1  16  -2    0.10    0.22
  -1 -16   2    0.26    0.17
   1  16  -1   -0.11    0.21
  -1 -16   1    0.40    0.20
  -1 -16   0   -0.18    0.21
  -1 -16  -1   -0.06    0.14
   1  16   2    0.36    0.35
  -1 -16  -2    0.65    0.21
   1  16   3    0.43    0.27
  -1 -16  -3   -0.03    0.21
   1  16   4    0.36    0.40
  -1 -16  -4    0.75    0.30
   1  16   5    1.47    0.44
  -1 -16  -5    0.42    0.26
   2 -17  -2    0.39    0.19
   2 -17  -1    0.49    0.21
  -2  17   1   -0.00    0.26
   2 -17   0    1.01    0.30
   2 -17   1    0.16    0.17
  -2  17  -1    0.01    0.19
   2 -17   2    0.84    0.28
  -2  17  -2    0.84    0.31
   2 -17   3    0.30    0.18
  -2  17  -3   -0.01    0.21
   2 -17   4   -0.16    0.15
  -2  17  -4   -0.06    0.21
   2 -17   5    0.42    0.21
  -2  17  -5    0.05    0.21
   2 -16  -7    1.97    0.43
  -2  16   7    2.40    0.71
   2 -16  -6    0.13    0.19
  -2  16   6    0.13    0.33
   2 -16  -5    0.17    0.20
  -2  16   5    0.20    0.32
   2 -16  -4    0.01    0.15
  -2  16   4    0.08    0.26
   2 -16  -3    0.91    0.25
  -2  16   3   -0.06    0.40
   2 -16  -2    0.11    0.19
  -2  16   2    0.44    0.29
   2 -16  -1    0.30    0.19
  -2  16   1    0.31    0.20
  -2  16   1    0.42    0.31
   2 -16   0    0.93    0.29
  -2  16   0    1.26    0.30
  -2  16   0    2.13    0.46
   2 -16   1    1.10    0.27
  -2  16  -1    0.67    0.28
  -2  16  -1    1.12    0.36
   2 -16   2    0.39    0.19
  -2  16  -2    0.40    0.25
  -2  16  -2    0.22    0.21
   2 -16   3    0.66    0.24
  -2  16  -3    0.85    0.24
   2 -16   4   -0.14    0.16
  -2  16  -4    0.03    0.19
   2 -16   5    1.05    0.26
  -2  16  -5    0.88    0.26
   2 -16   6   -0.08    0.15
  -2  16  -6    0.07    0.18
   2 -16   7    1.14    0.25
  -2  16  -7    1.22    0.30
   2 -16   8    0.86    0.26
  -2  16  -8    0.51    0.32
   2 -16   9    0.36    0.20
  -2  16  -9    1.09    0.30
   2 -16  10    0.23    0.15
  -2  16 -10   -0.09    0.22
   2 -15 -10   -0.12    0.20
  -2  15  10    0.02    0.33
   2 -15  -9    1.35    0.35
  -2  15   9    1.26    0.59
   2 -15  -8    2.11    0.42
  -2  15   8    1.96    0.57
   2 -15  -7    1.07    0.29
  -2  15   7    0.66    0.50
   2 -15  -6    0.81    0.27
  -2  15   6    0.88    0.44
   2 -15  -5    0.47    0.21
  -2  15   5    0.33    0.29
   2 -15  -4   -0.09    0.15
  -2  15   4    0.42    0.22
   2 -15  -3    3.71    0.48
  -2  15   3    5.61    0.72
  -2  15   3    2.75    0.38
   2 -15  -2    0.30    0.15
  -2  15   2    0.59    0.30
  -2  15   2    0.19    0.17
   2 -15  -1    1.78    0.31
  -2  15   1    1.94    0.44
  -2  15   1    1.51    0.29
   2 -15   0    0.05    0.14
  -2  15   0   -0.06    0.13
  -2  15   0   -0.22    0.20
   2 -15   1    0.18    0.15
  -2  15  -1    0.37    0.22
  -2  15  -1    0.04    0.16
   2 -15   2    0.59    0.17
  -2  15  -2    0.38    0.17
  -2  15  -2    0.55    0.24
   2 -15   3    0.06    0.13
  -2  15  -3    0.14    0.13
  -2  15  -3   -0.13    0.12
   2 -15   4   -0.00    0.12
   2 -15   4   -0.08    0.09
  -2  15  -4    0.17    0.12
   2 -15   5   -0.04    0.13
  -2  15  -5    0.14    0.16
   2 -15   6    0.10    0.14
  -2  15  -6   -0.20    0.16
   2 -15   7    0.16    0.15
  -2  15  -7    0.01    0.15
   2 -15   8    0.12    0.12
  -2  15  -8   -0.03    0.15
   2 -15   9   -0.10    0.16
  -2  15  -9   -0.06    0.19
   2 -15  10   -0.11    0.16
  -2  15 -10   -0.02    0.18
  -2  15 -11    0.38    0.26
   2 -15  12    1.06    0.25
  -2  15 -12    0.40    0.33
   2 -15  13   -0.29    0.17
  -2  15 -13    0.26    0.16
   2 -14 -12    0.33    0.21
  -2  14  12   -0.14    0.29
   2 -14 -11    0.19    0.16
  -2  14  11   -0.00    0.35
   2 -14 -10    1.24    0.36
  -2  14  10    2.06    0.48
   2 -14  -9   -0.03    0.17
  -2  14   9   -0.16    0.28
   2 -14  -8    1.41    0.32
  -2  14   8    1.23    0.41
   2 -14  -7    1.08    0.29
  -2  14   7    1.40    0.39
   2 -14  -6    0.24    0.14
  -2  14   6    0.11    0.29
   2 -14  -5    0.19    0.13
   2 -14  -4    4.01    0.47
  -2  14   4    4.49    0.73
   2 -14  -3    1.57    0.26
  -2  14   3    0.65    0.22
  -2  14   3    2.18    0.39
   2 -14  -2    3.71    0.40
  -2  14   2    3.52    0.47
  -2  14   2    2.85    0.34
   2 -14  -1    0.21    0.15
  -2  14   1    0.31    0.23
  -2  14   1    0.21    0.15
   2 -14   0   -0.11    0.14
  -2  14   0    0.29    0.15
  -2  14   0    0.07    0.13
   2 -14   1   -0.09    0.10
   2 -14   1    0.09    0.11
  -2  14  -1    0.13    0.10
   2 -14   2    0.43    0.13
   2 -14   2    0.14    0.15
  -2  14  -2    0.09    0.16
   2 -14   3    1.60    0.20
   2 -14   3    1.02    0.23
  -2  14  -3    1.03    0.22
   2 -14   4   -0.11    0.09
   2 -14   4   -0.01    0.11
  -2  14  -4    0.20    0.12
   2 -14   5    1.70    0.29
   2 -14   5    2.00    0.22
  -2  14  -5    1.43    0.33
   2 -14   6    2.13    0.31
  -2  14  -6    1.99    0.30
   2 -14   7    2.58    0.35
  -2  14  -7    2.42    0.33
   2 -14   8    0.28    0.17
  -2  14  -8    0.25    0.17
   2 -14   9    0.47    0.16
  -2  14  -9    0.34    0.20
   2 -14  10    0.77    0.23
  -2  14 -10    0.59    0.22
   2 -14  11    0.22    0.17
  -2  14 -11    0.03    0.16
   2 -14  12    0.36    0.18
  -2  14 -12    0.26    0.21
   2 -14  13    0.53    0.25
  -2  14 -13    0.30    0.27
   2 -14  14    0.31    0.23
  -2  14 -14    0.22    0.26
   2 -14  15    0.17    0.17
  -2  14 -15    0.07    0.19
   2 -13 -14    0.05    0.15
  -2  13  14    0.08    0.27
   2 -13 -13    0.03    0.20
  -2  13  13    0.47    0.34
   2 -13 -12    0.17    0.16
  -2  13  12    0.37    0.36
   2 -13 -11    0.42    0.22
  -2  13  11    0.43    0.32
   2 -13 -10    2.94    0.46
  -2  13  10    3.68    0.73
   2 -13  -9    0.02    0.15
  -2  13   9    0.14    0.22
   2 -13  -8    2.26    0.38
  -2  13   8    3.27    0.61
   2 -13  -7    0.01    0.10
  -2  13   7    0.13    0.19
   2 -13  -6    0.15    0.14
  -2  13   6    0.11    0.25
   2 -13  -5    0.34    0.17
  -2  13   5    1.03    0.21
  -2  13   5    0.06    0.13
   2 -13  -4    0.72    0.18
  -2  13   4    0.67    0.28
  -2  13   4    0.21    0.14
   2 -13  -3    1.39    0.24
  -2  13   3    1.61    0.28
  -2  13   3    0.69    0.21
   2 -13  -2    0.29    0.14
  -2  13   2    0.33    0.14
  -2  13   2    0.32    0.17
   2 -13  -1    2.62    0.28
   2 -13  -1    2.58    0.28
  -2  13   1    1.72    0.29
   2 -13   0    0.70    0.16
   2 -13   0    0.78    0.17
  -2  13   0    0.56    0.18
   2 -13   1    0.38    0.14
   2 -13   1    0.53    0.14
  -2  13  -1    0.29    0.15
   2 -13   2    0.03    0.12
   2 -13   2    0.21    0.13
  -2  13  -2    0.17    0.14
   2 -13   3    0.36    0.14
   2 -13   3    0.30    0.12
  -2  13  -3    0.14    0.16
   2 -13   4    0.79    0.15
   2 -13   4    0.85    0.18
  -2  13  -4    0.56    0.16
   2 -13   5    0.68    0.14
   2 -13   5    0.84    0.18
  -2  13  -5    0.70    0.17
   2 -13   6    1.46    0.19
   2 -13   6    1.30    0.16
  -2  13  -6    0.95    0.22
   2 -13   7    0.24    0.15
  -2  13  -7    0.19    0.14
   2 -13   8    3.57    0.32
  -2  13  -8    2.59    0.36
   2 -13   9    0.36    0.14
  -2  13  -9    0.21    0.16
   2 -13  10   -0.12    0.16
  -2  13 -10   -0.19    0.18
   2 -13  11    0.04    0.14
  -2  13 -11    0.01    0.16
   2 -13  12    0.07    0.12
  -2  13 -12    0.03    0.14
   2 -13  13    0.27    0.15
  -2  13 -13   -0.05    0.16
   2 -13  14    0.21    0.21
  -2  13 -14    0.20    0.23
   2 -13  15    1.25    0.27
  -2  13 -15    0.01    0.20
   2 -13  16    0.47    0.24
  -2  13 -16    0.12    0.26
   2 -13  17   -0.25    0.22
  -2  13 -17    0.03    0.19
   2 -12 -15    0.72    0.31
  -2  12  15    2.31    0.58
   2 -12 -14    0.32    0.22
  -2  12  14    1.15    0.37
   2 -12 -13    0.22    0.16
  -2  12  13   -0.40    0.22
   2 -12 -12    0.12    0.14
  -2  12  12   -0.30    0.27
   2 -12 -11    0.54    0.22
  -2  12  11    0.27    0.29
   2 -12 -10    3.98    0.43
  -2  12  10    4.62    0.69
   2 -12  -9    3.26    0.40
  -2  12   9    3.65    0.69
   2 -12  -8    1.42    0.29
  -2  12   8    1.97    0.39
   2 -12  -7    0.46    0.19
  -2  12   7    1.14    0.33
   2 -12  -6    0.01    0.11
  -2  12   6    0.02    0.08
  -2  12   6    0.02    0.18
   2 -12  -5    3.45    0.29
  -2  12   5    2.49    0.29
  -2  12   5    3.62    0.44
   2 -12  -4   12.92    0.78
  -2  12   4   11.96    1.01
  -2  12   4    7.47    0.65
   2 -12  -3    5.81    0.38
   2 -12  -3    5.50    0.42
  -2  12   3    3.48    0.38
   2 -12  -2    1.29    0.16
   2 -12  -2    1.02    0.19
  -2  12   2    0.76    0.19
   2 -12  -1    1.11    0.18
   2 -12  -1    1.02    0.19
  -2  12   1    1.04    0.20
   2 -12   0    0.51    0.13
   2 -12   0    0.41    0.11
  -2  12   0    0.16    0.14
   2 -12   1    0.76    0.13
   2 -12   1    0.69    0.14
  -2  12  -1    0.57    0.18
   2 -12   2    0.74    0.16
   2 -12   2    1.05    0.18
  -2  12  -2    0.70    0.16
   2 -12   3    2.05    0.19
   2 -12   3    1.39    0.21
  -2  12  -3    0.82    0.20
   2 -12   4    0.89    0.16
   2 -12   4    0.64    0.13
  -2  12  -4    0.57    0.16
   2 -12   5    2.14    0.22
   2 -12   5    2.53    0.20
  -2  12  -5    1.95    0.27
   2 -12   6    1.52    0.22
   2 -12   6    1.31    0.15
  -2  12  -6    1.41    0.23
   2 -12   7    2.52    0.25
  -2  12  -7    1.69    0.27
   2 -12   8    0.61    0.14
   2 -12   8    0.36    0.09
  -2  12  -8    0.31    0.17
   2 -12   9    0.85    0.17
  -2  12  -9    0.70    0.23
   2 -12  10   -0.07    0.13
  -2  12 -10   -0.04    0.11
   2 -12  11    1.48    0.23
  -2  12 -11    0.93    0.26
   2 -12  12    0.19    0.18
  -2  12 -12    0.22    0.19
   2 -12  13    0.60    0.25
  -2  12 -13    0.86    0.23
   2 -12  14    4.50    0.46
  -2  12 -14    3.05    0.54
   2 -12  15    1.29    0.31
  -2  12 -15    0.91    0.26
   2 -12  16    1.01    0.30
  -2  12 -16    0.68    0.31
   2 -12  17    0.22    0.21
  -2  12 -17    0.24    0.21
   2 -12  18   -0.03    0.17
  -2  12 -18    0.09    0.20
   2 -11 -17    0.96    0.31
  -2  11  17    0.79    0.46
   2 -11 -16    1.28    0.29
  -2  11  16    1.29    0.59
   2 -11 -15    0.18    0.19
  -2  11  15    0.06    0.27
   2 -11 -14    2.47    0.38
  -2  11  14    3.49    0.61
   2 -11 -13    1.00    0.24
  -2  11  13    1.47    0.48
   2 -11 -12   -0.10    0.15
  -2  11  12   -0.08    0.28
   2 -11 -11    0.68    0.18
  -2  11  11   -0.26    0.25
   2 -11 -10    6.30    0.63
  -2  11  10    7.25    0.83
   2 -11  -9    2.57    0.33
  -2  11   9    2.70    0.49
   2 -11  -8    3.31    0.31
  -2  11   8    3.45    0.58
   2 -11  -7    1.15    0.21
  -2  11   7    0.73    0.16
  -2  11   7    1.34    0.33
   2 -11  -6    8.36    0.53
  -2  11   6    7.52    0.76
   2 -11  -5    8.98    0.52
  -2  11   5    6.02    0.52
  -2  11   5    8.88    0.75
   2 -11  -4    5.02    0.35
   2 -11  -4    5.41    0.39
  -2  11   4    2.89    0.36
   2 -11  -3   52.45    2.50
   2 -11  -3   56.08    2.69
  -2  11   3   50.96    2.63
   2 -11  -2   14.53    0.86
   2 -11  -2   15.64    0.86
  -2  11   2   12.23    0.80
   2 -11  -1    0.32    0.10
   2 -11  -1    0.10    0.13
  -2  11   1    0.30    0.13
   2 -11   0   10.10    0.60
   2 -11   0   10.76    0.62
  -2  11   0    9.01    0.66
   2 -11   1   12.62    0.69
   2 -11   1   13.39    0.68
  -2  11  -1   10.17    0.76
   2 -11   2   16.96    0.85
   2 -11   2   16.51    0.90
  -2  11  -2   16.45    1.05
   2 -11   3   76.75    3.28
   2 -11   3   73.48    3.49
  -2  11  -3   66.33    3.64
   2 -11   4    4.86    0.32
   2 -11   4    3.90    0.34
  -2  11  -4    3.79    0.42
   2 -11   5    0.20    0.10
   2 -11   5    0.51    0.13
  -2  11  -5    0.22    0.15
   2 -11   6    2.87    0.20
   2 -11   6    2.17    0.28
  -2  11  -6    2.59    0.29
   2 -11   7    1.92    0.19
   2 -11   7    1.46    0.15
  -2  11  -7    1.47    0.22
   2 -11   8    0.48    0.16
   2 -11   8    0.53    0.10
  -2  11  -8    0.47    0.18
   2 -11   9    2.40    0.28
   2 -11   9    1.32    0.14
  -2  11  -9    2.29    0.25
   2 -11  10   -0.18    0.14
  -2  11 -10   -0.02    0.14
   2 -11  11    0.24    0.14
  -2  11 -11    0.00    0.12
   2 -11  12    0.23    0.14
  -2  11 -12    0.33    0.17
   2 -11  13    0.42    0.20
  -2  11 -13    0.47    0.18
   2 -11  14   -0.03    0.17
  -2  11 -14   -0.09    0.18
   2 -11  15   -0.07    0.14
  -2  11 -15    0.13    0.14
   2 -11  16    1.99    0.38
  -2  11 -16    1.02    0.26
   2 -11  17   -0.03    0.21
  -2  11 -17    0.23    0.19
   2 -11  18    0.56    0.34
  -2  11 -18    1.07    0.28
  -2  11 -19    0.34    0.22
   2 -10 -18    0.58    0.29
  -2  10  18    0.54    0.45
   2 -10 -17    2.34    0.46
  -2  10  17    3.20    0.64
   2 -10 -16    1.14    0.26
  -2  10  16    0.94    0.42
   2 -10 -15    2.73    0.44
  -2  10  15    3.50    0.63
   2 -10 -14    0.28    0.17
  -2  10  14    0.73    0.33
   2 -10 -13   -0.04    0.13
  -2  10  13    0.06    0.24
   2 -10 -12    2.65    0.37
  -2  10  12    2.65    0.60
   2 -10 -11    0.92    0.19
  -2  10  11    1.46    0.33
   2 -10 -10    4.13    0.42
  -2  10  10    4.25    0.57
   2 -10  -9    0.64    0.18
   2 -10  -8    0.63    0.13
  -2  10   8    0.49    0.24
   2 -10  -7    5.01    0.40
  -2  10   7    4.92    0.54
   2 -10  -6    0.04    0.09
  -2  10   6   -0.03    0.11
  -2  10   6    0.01    0.06
   2 -10  -5   21.94    1.10
   2 -10  -5   21.67    1.04
  -2  10   5   15.67    0.97
   2 -10  -4    6.83    0.43
   2 -10  -4    6.14    0.37
  -2  10   4    5.27    0.37
   2 -10  -3   10.75    0.58
   2 -10  -3   11.09    0.59
  -2  10   3   10.69    0.60
   2 -10  -2   10.92    0.54
   2 -10  -2   10.99    0.55
  -2  10   2    9.81    0.58
   2 -10  -1    1.10    0.15
   2 -10  -1    0.89    0.14
  -2  10   1    0.79    0.16
   2 -10   0    0.23    0.10
   2 -10   0    0.19    0.10
  -2  10   0    0.07    0.10
   2 -10   1    2.58    0.19
   2 -10   1    2.94    0.24
  -2  10  -1    3.04    0.28
   2 -10   2   16.74    0.75
   2 -10   2   16.23    0.79
  -2  10  -2   14.97    0.86
   2 -10   3    0.02    0.06
   2 -10   3    0.13    0.08
  -2  10  -3    0.11    0.08
   2 -10   4    2.58    0.23
   2 -10   4    3.00    0.20
  -2  10  -4    2.53    0.25
   2 -10   5    0.44    0.12
  -2  10  -5    0.35    0.15
   2 -10   6    0.59    0.10
   2 -10   6    0.39    0.13
  -2  10  -6    0.35    0.13
   2 -10   7    0.56    0.10
   2 -10   7    0.55    0.15
  -2  10  -7    0.74    0.17
   2 -10   8    4.83    0.30
   2 -10   8    5.36    0.37
  -2  10  -8    4.85    0.40
   2 -10   9    0.67    0.10
   2 -10   9    0.80    0.17
  -2  10  -9    0.88    0.18
   2 -10  10    0.05    0.06
   2 -10  10   -0.03    0.09
  -2  10 -10    0.05    0.10
   2 -10  11    0.63    0.19
  -2  10 -11    0.44    0.18
   2 -10  12    2.42    0.33
  -2  10 -12    1.50    0.32
   2 -10  13    0.79    0.25
  -2  10 -13    0.97    0.19
   2 -10  14    0.67    0.21
  -2  10 -14    0.19    0.20
   2 -10  15    2.21    0.36
  -2  10 -15    1.42    0.36
   2 -10  16    0.93    0.25
  -2  10 -16    0.88    0.24
   2 -10  17    1.22    0.29
  -2  10 -17    1.08    0.27
   2 -10  18    0.60    0.28
  -2  10 -18    0.23    0.20
   2 -10  19    3.33    0.53
  -2  10 -19    1.43    0.47
   2 -10  20    0.31    0.28
  -2  10 -20    0.30    0.26
   2  -9 -19    0.08    0.21
  -2   9  19    0.35    0.37
   2  -9 -18    0.31    0.28
  -2   9  18    2.11    0.49
   2  -9 -17    1.37    0.29
  -2   9  17    1.61    0.56
   2  -9 -16    1.87    0.37
  -2   9  16    2.43    0.56
   2  -9 -15    0.33    0.18
  -2   9  15    0.17    0.26
   2  -9 -14    0.98    0.20
  -2   9  14    1.02    0.35
   2  -9 -13    4.35    0.41
  -2   9  13    5.14    0.65
   2  -9 -12    0.23    0.15
  -2   9  12    0.08    0.22
   2  -9 -11    3.31    0.38
  -2   9  11    3.80    0.54
   2  -9 -10    4.06    0.38
  -2   9  10    3.19    0.51
   2  -9  -9    0.68    0.14
  -2   9   9    0.89    0.25
   2  -9  -8    2.54    0.26
  -2   9   8    2.19    0.35
   2  -9  -7    2.03    0.21
  -2   9   7    1.59    0.14
  -2   9   7    2.53    0.35
   2  -9  -6    0.48    0.11
   2  -9  -6    0.44    0.12
  -2   9   6    0.39    0.09
   2  -9  -5    3.83    0.30
   2  -9  -5    4.14    0.28
  -2   9   5    3.50    0.24
   2  -9  -4    3.88    0.25
   2  -9  -4    3.66    0.26
  -2   9   4    3.15    0.23
   2  -9  -3    0.09    0.09
   2  -9  -3    0.84    0.11
  -2   9   3    0.21    0.09
   2  -9  -2    0.83    0.12
   2  -9  -2    0.94    0.14
  -2   9   2    1.01    0.13
   2  -9  -1    0.80    0.12
   2  -9  -1    0.57    0.10
  -2   9   1    0.73    0.12
   2  -9   0    0.52    0.10
   2  -9   0    0.50    0.09
  -2   9   0    0.48    0.11
   2  -9   1    0.08    0.07
   2  -9   1    0.07    0.07
  -2   9  -1    0.13    0.07
   2  -9   2    0.77    0.11
   2  -9   2    0.69    0.11
  -2   9  -2    0.63    0.14
   2  -9   3    0.06    0.07
   2  -9   3    0.08    0.06
  -2   9  -3    0.05    0.07
   2  -9   4    0.39    0.08
   2  -9   4    0.35    0.08
  -2   9  -4    0.43    0.12
   2  -9   5    0.12    0.07
   2  -9   5    0.11    0.07
  -2   9  -5    0.11    0.10
   2  -9   6    0.63    0.14
   2  -9   6    1.05    0.11
  -2   9  -6    0.85    0.14
   2  -9   7    0.85    0.10
   2  -9   7    0.79    0.15
  -2   9  -7    0.82    0.17
   2  -9   8    2.44    0.25
   2  -9   8    2.36    0.15
  -2   9  -8    2.19    0.26
   2  -9   9    0.62    0.09
   2  -9   9    0.83    0.16
  -2   9  -9    0.39    0.14
   2  -9  10    0.25    0.08
   2  -9  10    0.45    0.15
  -2   9 -10    0.20    0.11
   2  -9  11    0.05    0.05
   2  -9  11   -0.06    0.08
  -2   9 -11   -0.12    0.10
   2  -9  12    0.26    0.13
  -2   9 -12    0.08    0.14
   2  -9  13    2.26    0.31
  -2   9 -13    1.84    0.27
   2  -9  14    4.58    0.47
  -2   9 -14    2.68    0.38
   2  -9  15    0.71    0.22
  -2   9 -15    0.32    0.17
   2  -9  16    4.65    0.50
  -2   9 -16    2.55    0.42
   2  -9  17    0.36    0.20
  -2   9 -17    0.03    0.15
   2  -9  18    0.16    0.18
  -2   9 -18    0.34    0.21
   2  -9  19    0.19    0.20
  -2   9 -19   -0.08    0.20
   2  -9  20   -0.14    0.16
  -2   9 -20    0.17    0.18
   2  -9  21   -0.05    0.19
  -2   9 -21   -0.17    0.22
   2  -8 -20    0.83    0.26
  -2   8  20    0.51    0.50
  -2   8  19    0.87    0.49
   2  -8 -18    0.28    0.18
  -2   8  18    0.46    0.34
   2  -8 -17    0.11    0.17
  -2   8  17    1.15    0.34
   2  -8 -16    0.73    0.25
  -2   8  16    1.27    0.43
   2  -8 -15    0.36    0.17
  -2   8  15   -0.07    0.30
   2  -8 -14    0.97    0.19
  -2   8  14    1.45    0.40
   2  -8 -13    1.33    0.21
  -2   8  13    1.58    0.43
   2  -8 -12    0.43    0.17
  -2   8  12    0.79    0.30
   2  -8 -11    3.75    0.37
  -2   8  11    3.57    0.49
   2  -8 -10   -0.11    0.11
  -2   8  10   -0.04    0.15
   2  -8  -9    4.19    0.30
  -2   8   9    3.81    0.45
   2  -8  -8    8.41    0.49
  -2   8   8    6.97    0.71
   2  -8  -7    2.56    0.20
  -2   8   7    1.53    0.26
  -2   8   7    2.00    0.15
   2  -8  -6    9.32    0.47
   2  -8  -6    9.71    0.50
  -2   8   6    8.24    0.40
   2  -8  -5   14.29    0.66
   2  -8  -5   14.29    0.62
  -2   8   5   13.85    0.59
   2  -8  -4    0.00    0.07
   2  -8  -4    0.06    0.07
  -2   8   4    0.05    0.06
   2  -8  -3    6.04    0.33
   2  -8  -3    5.24    0.28
  -2   8   3    5.41    0.29
   2  -8  -2    0.06    0.07
   2  -8  -2   -0.04    0.06
  -2   8   2    0.03    0.06
   2  -8  -1    5.93    0.30
   2  -8  -1    5.56    0.31
  -2   8   1    5.95    0.32
   2  -8   0    5.21    0.26
   2  -8   0    5.41    0.26
  -2   8   0    5.74    0.30
   2  -8   1   53.71    2.06
   2  -8   1   56.26    2.06
  -2   8  -1   54.20    2.32
   2  -8   2    8.54    0.38
   2  -8   2    7.62    0.36
  -2   8  -2    7.84    0.46
   2  -8   3   32.40    1.25
   2  -8   3   33.38    1.27
  -2   8  -3   32.01    1.43
   2  -8   4    2.35    0.17
   2  -8   4    2.40    0.18
  -2   8  -4    2.72    0.20
   2  -8   5    0.35    0.08
   2  -8   5    0.41    0.08
  -2   8  -5    0.45    0.10
   2  -8   6    0.36    0.09
   2  -8   6    0.41    0.07
  -2   8  -6    0.46    0.10
   2  -8   7    1.61    0.12
   2  -8   7    1.97    0.18
  -2   8  -7    1.86    0.19
   2  -8   8    2.08    0.13
   2  -8   8    2.82    0.21
  -2   8  -8    2.35    0.21
   2  -8   9    0.22    0.11
  -2   8  -9    0.14    0.09
   2  -8  10    3.15    0.18
   2  -8  10    4.51    0.31
  -2   8 -10    3.98    0.31
   2  -8  11    0.38    0.08
   2  -8  11    0.85    0.17
  -2   8 -11    0.40    0.12
   2  -8  12    0.30    0.09
   2  -8  12    0.71    0.17
  -2   8 -12    0.50    0.12
   2  -8  13    0.31    0.13
   2  -8  13    0.19    0.07
  -2   8 -13    0.33    0.15
   2  -8  14    0.03    0.12
  -2   8 -14   -0.03    0.12
   2  -8  15    0.58    0.22
  -2   8 -15    0.70    0.22
   2  -8  16    2.33    0.37
  -2   8 -16    1.68    0.34
   2  -8  17    1.24    0.28
  -2   8 -17    1.69    0.27
   2  -8  18    0.35    0.24
  -2   8 -18    0.41    0.19
   2  -8  19    1.10    0.27
  -2   8 -19    0.69    0.25
   2  -8  20   -0.14    0.16
  -2   8 -20    0.07    0.15
   2  -8  21    0.26    0.29
  -2   8 -21    0.36    0.21
   2  -7 -21    0.15    0.17
  -2   7  21    0.08    0.35
   2  -7 -20    0.27    0.19
  -2   7  20    0.24    0.35
   2  -7 -19    0.25    0.19
  -2   7  19    0.62    0.35
   2  -7 -18    0.82    0.22
  -2   7  18    0.54    0.41
   2  -7 -17    0.96    0.23
  -2   7  17    1.07    0.44
   2  -7 -16    2.07    0.28
  -2   7  16    2.11    0.54
   2  -7 -15    0.97    0.22
  -2   7  15    0.91    0.36
   2  -7 -14    1.01    0.18
  -2   7  14    1.44    0.37
   2  -7 -13    0.38    0.15
  -2   7  13    0.26    0.26
   2  -7 -12    2.38    0.25
  -2   7  12    2.62    0.39
   2  -7 -11    1.44    0.18
  -2   7  11    1.99    0.31
   2  -7 -10    3.14    0.26
  -2   7  10    3.62    0.46
   2  -7  -9    0.54    0.11
  -2   7   9    0.69    0.18
   2  -7  -8    1.26    0.16
  -2   7   8    1.10    0.10
  -2   7   8    1.11    0.20
   2  -7  -7    0.04    0.08
   2  -7  -7   -0.06    0.07
  -2   7   7    0.03    0.04
   2  -7  -6    0.00    0.05
   2  -7  -6    0.03    0.06
  -2   7   6    0.04    0.04
   2  -7  -5    3.80    0.20
   2  -7  -5    4.42    0.23
  -2   7   5    3.55    0.21
   2  -7  -4   11.49    0.49
   2  -7  -4   11.65    0.50
  -2   7   4   12.07    0.46
   2  -7  -3    0.72    0.08
   2  -7  -3    0.48    0.08
  -2   7   3    0.65    0.09
   2  -7  -2    0.07    0.06
   2  -7  -2    0.06    0.07
  -2   7   2    0.16    0.06
   2  -7  -1    0.15    0.05
   2  -7  -1    0.23    0.06
  -2   7   1    0.40    0.07
   2  -7   0   13.12    0.51
   2  -7   0   14.49    0.52
  -2   7   0   14.26    0.59
   2  -7   1   69.22    2.40
   2  -7   1   67.15    2.29
  -2   7  -1   70.24    2.63
   2  -7   2   14.07    0.54
   2  -7   2   14.12    0.54
  -2   7  -2   15.55    0.63
   2  -7   3   34.08    1.24
   2  -7   3   37.69    1.28
  -2   7  -3   34.85    1.48
   2  -7   4    0.30    0.07
   2  -7   4    0.50    0.08
  -2   7  -4    0.77    0.12
   2  -7   5   16.36    0.66
   2  -7   5   18.30    0.62
  -2   7  -5   17.77    0.77
   2  -7   6    5.77    0.27
   2  -7   6    7.04    0.36
  -2   7  -6    6.27    0.35
   2  -7   7    6.18    0.33
   2  -7   7    5.40    0.26
  -2   7  -7    4.72    0.34
   2  -7   8    0.75    0.14
  -2   7  -8    0.79    0.15
   2  -7   9    4.21    0.32
  -2   7  -9    4.13    0.32
   2  -7  10    1.97    0.23
  -2   7 -10    1.75    0.18
   2  -7  11    0.28    0.13
   2  -7  11    0.14    0.06
  -2   7 -11    0.18    0.10
   2  -7  12    5.76    0.41
   2  -7  12    3.80    0.23
  -2   7 -12    5.15    0.35
   2  -7  13    0.74    0.11
   2  -7  13    0.87    0.18
  -2   7 -13    1.07    0.20
   2  -7  14    3.08    0.30
   2  -7  14    2.07    0.19
  -2   7 -14    3.00    0.33
   2  -7  15    0.59    0.19
  -2   7 -15    0.77    0.21
   2  -7  16    0.44    0.21
  -2   7 -16    0.44    0.16
   2  -7  17    0.73    0.20
  -2   7 -17    0.45    0.17
   2  -7  18    0.19    0.17
  -2   7 -18   -0.06    0.15
   2  -7  19   -0.02    0.18
  -2   7 -19   -0.04    0.15
   2  -7  20    6.18    0.71
  -2   7 -20    3.32    0.60
   2  -7  21    0.74    0.37
  -2   7 -21    0.89    0.25
   2  -7  22    5.80    0.80
  -2   7 -22    3.81    0.67
   2  -6 -21    0.03    0.15
  -2   6  21    0.21    0.27
   2  -6 -20    1.00    0.26
  -2   6  20    1.42    0.49
   2  -6 -19    0.09    0.14
  -2   6  19    0.09    0.27
   2  -6 -18    7.75    0.78
  -2   6  18    9.57    1.18
   2  -6 -17    2.20    0.40
  -2   6  17    3.57    0.50
   2  -6 -16    0.80    0.23
  -2   6  16    0.95    0.29
   2  -6 -15    0.09    0.10
  -2   6  15   -0.06    0.16
   2  -6 -14    0.48    0.14
  -2   6  14    0.79    0.27
   2  -6 -13    0.36    0.14
  -2   6  13    0.26    0.24
   2  -6 -12    3.25    0.26
  -2   6  12    2.92    0.41
   2  -6 -11    0.90    0.17
  -2   6  11    1.11    0.28
   2  -6 -10    0.28    0.11
  -2   6  10    0.53    0.15
  -2   6  10    0.23    0.05
   2  -6  -9    1.35    0.16
  -2   6   9    1.88    0.26
  -2   6   9    1.25    0.09
   2  -6  -8   18.37    0.83
  -2   6   8   18.49    0.62
  -2   6   8   18.46    1.06
   2  -6  -7    0.87    0.09
   2  -6  -7    0.37    0.12
  -2   6   7    0.59    0.06
   2  -6  -6    1.89    0.15
   2  -6  -6    2.09    0.17
  -2   6   6    1.75    0.10
   2  -6  -5    2.24    0.17
   2  -6  -5    2.54    0.16
  -2   6   5    2.40    0.12
   2  -6  -4    2.47    0.15
   2  -6  -4    2.34    0.15
  -2   6   4    2.24    0.12
   2  -6  -3    0.93    0.08
   2  -6  -3    1.11    0.11
  -2   6   3    0.66    0.08
   2  -6  -2    6.05    0.23
   2  -6  -2    6.73    0.29
  -2   6   2    6.33    0.26
   2  -6  -1   24.62    0.86
   2  -6  -1   25.98    0.80
  -2   6   1   26.33    0.89
   2  -6   0    0.88    0.10
   2  -6   0    0.92    0.08
  -2   6   0    0.84    0.09
   2  -6   1   12.39    0.45
   2  -6   1   10.22    0.35
  -2   6  -1   11.65    0.47
   2  -6   2    2.07    0.12
   2  -6   2    1.87    0.12
  -2   6  -2    1.58    0.15
   2  -6   3    1.90    0.12
   2  -6   3    1.69    0.11
  -2   6  -3    1.76    0.14
   2  -6   4   13.19    0.45
   2  -6   4   14.21    0.50
  -2   6  -4   14.85    0.59
   2  -6   5    2.91    0.17
   2  -6   5    3.55    0.17
  -2   6  -5    3.12    0.22
   2  -6   6    0.01    0.05
   2  -6   6    0.02    0.06
  -2   6  -6    0.10    0.06
   2  -6   7   25.22    0.87
   2  -6   7   32.22    1.21
  -2   6  -7   29.90    1.20
   2  -6   8   18.74    0.86
  -2   6  -8   17.70    0.81
   2  -6   9   10.20    0.41
   2  -6   9   12.58    0.62
  -2   6  -9   12.18    0.58
   2  -6  10    2.87    0.24
   2  -6  10    2.27    0.16
  -2   6 -10    3.25    0.22
   2  -6  11    4.83    0.25
   2  -6  11    5.63    0.35
  -2   6 -11    5.25    0.38
   2  -6  12    0.25    0.08
   2  -6  12    0.33    0.15
  -2   6 -12    0.52    0.11
   2  -6  13    1.50    0.15
   2  -6  13    1.55    0.23
  -2   6 -13    1.68    0.23
   2  -6  14   13.82    0.74
   2  -6  14   18.63    1.17
  -2   6 -14   16.99    1.06
   2  -6  15    1.43    0.18
   2  -6  15    1.78    0.32
  -2   6 -15    1.97    0.22
   2  -6  16   -0.31    0.13
   2  -6  16   -0.04    0.07
  -2   6 -16    0.32    0.11
   2  -6  17    0.99    0.23
  -2   6 -17    0.69    0.21
   2  -6  18    1.01    0.23
  -2   6 -18    0.56    0.19
   2  -6  19    1.02    0.28
  -2   6 -19    0.66    0.26
   2  -6  20    1.08    0.32
  -2   6 -20    1.45    0.30
   2  -6  21    0.09    0.23
  -2   6 -21   -0.14    0.14
   2  -6  22    0.19    0.20
  -2   6 -22    0.00    0.18
   2  -5 -22    0.23    0.17
  -2   5  22   -0.11    0.27
   2  -5 -21    0.09    0.16
  -2   5  21    0.14    0.25
   2  -5 -20    1.34    0.35
  -2   5  20    2.21    0.49
   2  -5 -19    0.32    0.16
  -2   5  19   -0.52    0.24
   2  -5 -18    4.41    0.44
  -2   5  18    4.49    0.63
   2  -5 -17    1.34    0.24
  -2   5  17    1.45    0.35
   2  -5 -16    0.89    0.19
  -2   5  16    1.44    0.34
   2  -5 -15    3.19    0.32
  -2   5  15    3.78    0.55
   2  -5 -14    6.08    0.44
  -2   5  14    7.42    0.65
   2  -5 -13    0.97    0.15
  -2   5  13    1.30    0.25
   2  -5 -12    0.43    0.14
  -2   5  12    0.86    0.23
   2  -5 -11   16.23    0.80
  -2   5  11   18.80    1.16
   2  -5 -10    1.07    0.15
  -2   5  10    1.58    0.21
  -2   5  10    0.91    0.07
   2  -5  -9   17.39    0.75
  -2   5   9   17.38    1.06
  -2   5   9   15.38    0.49
   2  -5  -8   26.07    1.02
  -2   5   8   25.48    1.32
  -2   5   8   24.57    0.74
   2  -5  -7    7.23    0.34
   2  -5  -7    6.97    0.33
  -2   5   7    7.26    0.25
   2  -5  -6    3.71    0.18
   2  -5  -6    4.12    0.23
  -2   5   6    3.62    0.15
   2  -5  -5    3.68    0.18
   2  -5  -5    3.38    0.18
  -2   5   5    3.64    0.15
   2  -5  -4    0.65    0.07
   2  -5  -4    0.59    0.08
  -2   5   4    0.50    0.06
   2  -5  -3    0.04    0.04
   2  -5  -3   -0.01    0.04
  -2   5   3    0.02    0.04
   2  -5  -2    0.14    0.04
   2  -5  -2    0.20    0.05
  -2   5   2    0.05    0.04
   2  -5  -1    2.16    0.12
   2  -5  -1    2.20    0.10
  -2   5   1    2.15    0.12
   2  -5   0   12.40    0.34
   2  -5   0   13.02    0.45
  -2   5   0   11.71    0.42
   2  -5   1   37.04    1.11
   2  -5   1   34.78    0.92
  -2   5  -1   35.31    1.13
   2  -5   2    5.99    0.23
   2  -5   2    6.09    0.21
  -2   5  -2    5.72    0.27
   2  -5   3    0.64    0.07
   2  -5   3    0.63    0.06
  -2   5  -3    0.54    0.07
   2  -5   4    0.15    0.05
   2  -5   4    0.17    0.05
  -2   5  -4    0.35    0.07
   2  -5   5    1.95    0.10
   2  -5   5    1.81    0.13
  -2   5  -5    1.77    0.13
   2  -5   6    1.95    0.12
   2  -5   6    2.25    0.15
  -2   5  -6    2.48    0.18
   2  -5   7   19.55    0.64
   2  -5   7   18.93    0.79
  -2   5  -7   18.55    0.80
   2  -5   8    2.84    0.16
   2  -5   8    2.96    0.19
  -2   5  -8    2.73    0.19
   2  -5   9    0.11    0.06
   2  -5   9    0.11    0.10
  -2   5  -9    0.16    0.07
   2  -5  10   14.99    0.78
   2  -5  10   12.60    0.53
  -2   5 -10   14.66    0.70
   2  -5  11    0.23    0.10
  -2   5 -11    0.17    0.10
   2  -5  12    0.41    0.09
   2  -5  12    0.49    0.14
  -2   5 -12    0.37    0.10
   2  -5  13    0.69    0.11
   2  -5  13    0.69    0.17
  -2   5 -13    0.67    0.16
   2  -5  14    0.92    0.13
   2  -5  14    1.23    0.23
  -2   5 -14    0.67    0.14
   2  -5  15    0.41    0.12
   2  -5  15    0.68    0.22
  -2   5 -15    0.76    0.16
   2  -5  16    0.52    0.18
   2  -5  16    0.35    0.13
  -2   5 -16    0.56    0.16
   2  -5  17    0.01    0.08
   2  -5  17   -0.08    0.11
  -2   5 -17    0.05    0.11
   2  -5  18    0.01    0.16
  -2   5 -18   -0.05    0.12
   2  -5  19    1.68    0.38
  -2   5 -19    1.06    0.28
   2  -5  20   -0.13    0.18
  -2   5 -20   -0.10    0.15
   2  -5  21    0.58    0.29
  -2   5 -21    0.21    0.19
   2  -5  22    0.36    0.20
  -2   5 -22   -0.09    0.16
   2  -5  23    0.15    0.28
   2  -4 -22    3.20    0.46
  -2   4  22    3.05    0.55
   2  -4 -21    1.31    0.35
  -2   4  21    1.61    0.44
   2  -4 -20   10.05    0.81
  -2   4  20   10.27    1.20
   2  -4 -19    1.13    0.32
  -2   4  19    1.75    0.45
   2  -4 -18    7.86    0.66
  -2   4  18    9.79    1.05
   2  -4 -17    1.39    0.24
  -2   4  17    1.80    0.33
   2  -4 -16   -0.10    0.13
  -2   4  16    0.22    0.14
   2  -4 -15    0.57    0.18
  -2   4  15    1.16    0.28
   2  -4 -14    0.27    0.12
  -2   4  14   -0.07    0.13
   2  -4 -13    3.22    0.27
  -2   4  13    3.67    0.44
   2  -4 -12    0.07    0.10
  -2   4  12    0.03    0.11
   2  -4 -11    4.93    0.32
  -2   4  11    5.56    0.49
  -2   4  11    4.65    0.19
   2  -4 -10    3.25    0.21
  -2   4  10    3.69    0.35
  -2   4  10    2.92    0.13
   2  -4  -9   10.00    0.45
  -2   4   9    9.76    0.64
   2  -4  -8    5.75    0.27
  -2   4   8    5.47    0.19
  -2   4   8    5.04    0.35
   2  -4  -7   -0.08    0.06
   2  -4  -7    0.23    0.05
  -2   4   7   -0.03    0.03
   2  -4  -6    0.18    0.07
   2  -4  -6    0.32    0.06
  -2   4   6    0.22    0.05
   2  -4  -5    3.03    0.15
   2  -4  -5    3.03    0.17
  -2   4   5    2.90    0.11
   2  -4  -4    0.21    0.05
   2  -4  -4    0.18    0.04
  -2   4   4    0.24    0.04
   2  -4  -3   35.05    0.93
   2  -4  -3   35.98    1.08
  -2   4   3   34.22    0.95
   2  -4  -2    0.88    0.06
   2  -4  -2    1.16    0.09
  -2   4   2    1.07    0.07
   2  -4  -1   49.73    1.42
   2  -4  -1   45.46    1.03
  -2   4   1   46.68    1.32
   2  -4   0    0.10    0.03
  -2   4   0    0.08    0.04
   2  -4   1  165.38    4.65
  -2   4  -1  165.04    5.03
   2  -4   2    4.16    0.15
   2  -4   2    3.87    0.13
  -2   4  -2    4.30    0.20
   2  -4   3   54.24    1.53
   2  -4   3   60.12    1.56
  -2   4  -3   67.10    1.97
   2  -4   4    9.65    0.30
   2  -4   4    9.65    0.32
  -2   4  -4    9.58    0.35
   2  -4   5    3.23    0.14
   2  -4   5    3.25    0.16
  -2   4  -5    2.88    0.16
   2  -4   6    6.20    0.29
   2  -4   6    6.47    0.24
  -2   4  -6    7.06    0.31
   2  -4   7    3.55    0.23
   2  -4   7    3.56    0.17
  -2   4  -7    3.23    0.18
   2  -4   8    6.31    0.33
   2  -4   8    6.49    0.26
  -2   4  -8    6.51    0.32
   2  -4   9    0.03    0.05
  -2   4  -9    0.00    0.06
  -2   4  -9   -0.01    0.06
   2  -4  10    0.16    0.07
  -2   4 -10    0.21    0.08
  -2   4 -10    0.13    0.07
   2  -4  11    1.21    0.13
  -2   4 -11    1.33    0.14
  -2   4 -11    1.72    0.15
   2  -4  12    2.21    0.17
  -2   4 -12    2.40    0.23
  -2   4 -12    2.26    0.20
   2  -4  13    0.50    0.11
  -2   4 -13    0.58    0.13
  -2   4 -13    0.44    0.11
   2  -4  14    7.30    0.44
  -2   4 -14    7.45    0.45
  -2   4 -14    6.66    0.44
   2  -4  15    0.26    0.09
  -2   4 -15    0.01    0.11
  -2   4 -15    0.09    0.10
   2  -4  16    4.02    0.32
  -2   4 -16    3.79    0.37
  -2   4 -16    4.60    0.41
   2  -4  17    1.50    0.21
  -2   4 -17    2.03    0.25
  -2   4 -17    1.29    0.26
   2  -4  18    0.40    0.15
  -2   4 -18    0.68    0.17
  -2   4 -18    0.55    0.18
   2  -4  19    0.61    0.16
  -2   4 -19    0.64    0.21
  -2   4 -19    0.17    0.16
   2  -4  20    0.45    0.17
  -2   4 -20    0.72    0.18
  -2   4 -20    0.15    0.17
  -2   4 -21    0.42    0.21
  -2   4 -21    0.80    0.19
  -2   4 -22    0.10    0.19
   2  -4  23   -0.06    0.15
   2  -3 -23    0.27    0.26
  -2   3  23    0.81    0.34
   2  -3 -22    4.49    0.58
  -2   3  22    4.96    0.81
   2  -3 -21    0.48    0.24
  -2   3  21    0.32    0.28
   2  -3 -20    0.46    0.20
  -2   3  20    0.54    0.28
   2  -3 -19   14.17    1.11
  -2   3  19   14.42    1.35
   2  -3 -18    0.01    0.10
  -2   3  18   -0.04    0.14
   2  -3 -17    2.95    0.36
  -2   3  17    3.77    0.51
   2  -3 -16    0.09    0.10
  -2   3  16   -0.01    0.16
   2  -3 -15    0.16    0.06
   2  -3 -15    0.31    0.13
   2  -3 -14    1.63    0.22
  -2   3  14    1.64    0.31
   2  -3 -13    2.50    0.15
   2  -3 -13    3.01    0.24
  -2   3  13    3.20    0.31
   2  -3 -12    0.16    0.09
   2  -3 -12    0.08    0.05
  -2   3  12    0.25    0.13
   2  -3 -11    0.38    0.06
   2  -3 -11    0.50    0.11
  -2   3  11    0.34    0.15
   2  -3 -10    2.03    0.19
   2  -3 -10    2.23    0.12
  -2   3  10    2.06    0.25
   2  -3  -9    0.88    0.11
   2  -3  -9    0.62    0.07
  -2   3   9    0.63    0.11
   2  -3  -8    0.33    0.07
   2  -3  -8    0.42    0.05
  -2   3   8    0.45    0.09
   2  -3  -7    1.52    0.12
   2  -3  -7    1.42    0.11
   2  -3  -7    1.32    0.08
   2  -3  -6    0.23    0.06
   2  -3  -6    0.18    0.05
  -2   3   6    0.19    0.04
   2  -3  -5    2.80    0.13
   2  -3  -5    2.90    0.14
   2  -3  -4    6.03    0.21
   2  -3  -4    6.31    0.20
  -2   3   4    5.86    0.18
   2  -3  -3    0.37    0.04
   2  -3  -3    0.30    0.05
  -2   3   3    0.34    0.04
   2  -3  -2    0.50    0.05
   2  -3  -2    0.42    0.03
  -2   3   2    0.38    0.04
   2  -3  -1    1.64    0.08
   2  -3  -1    1.53    0.05
  -2   3   1    1.54    0.07
   2  -3   0   20.00    0.35
   2  -3   0   21.02    0.54
  -2   3   0   20.82    0.54
   2  -3   1    2.55    0.10
   2  -3   1    2.52    0.07
  -2   3  -1    2.55    0.12
   2  -3   2   11.49    0.33
   2  -3   2   13.17    0.28
  -2   3  -2   14.83    0.41
   2  -3   3    0.18    0.04
   2  -3   3    0.16    0.04
  -2   3  -3    0.21    0.05
   2  -3   4    1.51    0.07
   2  -3   4    1.58    0.10
  -2   3  -4    1.42    0.11
   2  -3   5    1.77    0.10
  -2   3  -5    1.49    0.08
  -2   3  -5    2.01    0.12
   2  -3   6    0.43    0.07
  -2   3  -6    0.52    0.06
  -2   3  -6    0.56    0.06
   2  -3   7    8.80    0.33
  -2   3  -7    7.97    0.29
  -2   3  -7    8.78    0.33
   2  -3   8   27.65    0.98
  -2   3  -8   27.15    0.95
  -2   3  -8   28.63    1.00
   2  -3   9    2.21    0.15
  -2   3  -9    2.52    0.17
  -2   3  -9    2.41    0.17
   2  -3  10    5.10    0.28
  -2   3 -10    4.91    0.25
  -2   3 -10    5.19    0.26
   2  -3  11    0.25    0.07
  -2   3 -11    0.24    0.08
  -2   3 -11    0.21    0.09
   2  -3  12   11.28    0.56
  -2   3 -12   11.70    0.54
  -2   3 -12   10.97    0.60
   2  -3  13    5.55    0.35
  -2   3 -13    4.93    0.34
  -2   3 -13    5.96    0.36
   2  -3  14    5.60    0.38
  -2   3 -14    5.35    0.36
  -2   3 -14    5.76    0.37
   2  -3  15    5.68    0.42
  -2   3 -15    7.08    0.49
  -2   3 -15    5.84    0.41
   2  -3  16    1.25    0.20
  -2   3 -16    1.09    0.19
  -2   3 -16    1.56    0.19
   2  -3  17    0.66    0.16
  -2   3 -17    0.48    0.16
  -2   3 -17    0.55    0.15
   2  -3  18    4.70    0.44
  -2   3 -18    4.32    0.41
  -2   3 -18    5.41    0.51
   2  -3  19    1.49    0.24
  -2   3 -19    1.35    0.22
  -2   3 -19    1.10    0.22
   2  -3  20    0.69    0.22
  -2   3 -20    0.60    0.20
  -2   3 -20    1.30    0.21
   2  -3  21    1.59    0.28
  -2   3 -21    0.92    0.25
  -2   3 -21    1.98    0.29
  -2   3 -22    0.64    0.21
  -2   3 -23    0.72    0.32
   2  -2 -23    2.43    0.36
  -2   2  23    1.36    0.41
   2  -2 -22   -0.04    0.22
  -2   2  22   -0.41    0.25
   2  -2 -21    1.27    0.31
  -2   2  21    0.81    0.35
   2  -2 -20    3.49    0.40
  -2   2  20    3.73    0.55
   2  -2 -19    0.25    0.16
  -2   2  19   -0.04    0.18
   2  -2 -18   10.56    0.86
  -2   2  18   10.89    0.95
   2  -2 -17    0.29    0.11
   2  -2 -17    0.68    0.15
  -2   2  17    0.49    0.19
   2  -2 -16    0.67    0.10
   2  -2 -16    0.55    0.15
  -2   2  16    0.86    0.23
   2  -2 -15    0.20    0.15
   2  -2 -15    0.45    0.08
  -2   2  15    0.67    0.16
   2  -2 -14    2.18    0.21
   2  -2 -14    2.07    0.16
  -2   2  14    2.70    0.32
   2  -2 -13    0.51    0.09
   2  -2 -13    0.64    0.12
  -2   2  13    0.57    0.15
   2  -2 -12    8.12    0.35
   2  -2 -12    8.01    0.48
  -2   2  12    8.53    0.55
   2  -2 -11    0.04    0.05
   2  -2 -11    0.13    0.08
  -2   2  11    0.51    0.11
   2  -2 -10   11.53    0.54
   2  -2 -10   11.32    0.39
  -2   2  10   11.93    0.61
   2  -2  -9    3.02    0.18
  -2   2   9    2.72    0.23
   2  -2  -8   11.20    0.36
   2  -2  -8   10.62    0.44
  -2   2   8   11.02    0.53
   2  -2  -7    4.43    0.19
   2  -2  -7    4.68    0.17
   2  -2  -7    4.90    0.22
   2  -2  -6    2.06    0.10
   2  -2  -6    1.97    0.12
   2  -2  -6    2.06    0.12
   2  -2  -5    0.21    0.04
   2  -2  -5    0.33    0.05
   2  -2  -5    0.33    0.04
   2  -2  -4    6.08    0.18
   2  -2  -4    5.76    0.16
   2  -2  -4    5.80    0.17
   2  -2  -3    2.12    0.10
   2  -2  -3    2.15    0.07
  -2   2   3    1.78    0.08
   2  -2  -2    6.30    0.13
   2  -2  -2    6.32    0.19
  -2   2   2    6.09    0.17
   2  -2  -1    0.69    0.02
   2  -2  -1    0.66    0.05
  -2   2   1    0.79    0.05
   2  -2   0   11.55    0.29
  -2   2   0   11.92    0.30
   2  -2   1    2.19    0.08
  -2   2  -1    2.53    0.10
   2  -2   2    7.14    0.21
  -2   2  -2    7.96    0.22
   2  -2   3    9.09    0.26
  -2   2  -3    9.40    0.28
  -2   2  -3    8.32    0.19
   2  -2   4   39.33    1.06
  -2   2  -4   40.75    1.08
  -2   2  -4   37.58    0.89
   2  -2   5    8.72    0.30
  -2   2  -5    7.49    0.26
  -2   2  -5    8.52    0.26
   2  -2   6    6.81    0.24
  -2   2  -6    6.91    0.24
  -2   2  -6    6.06    0.22
   2  -2   7    3.52    0.18
  -2   2  -7    3.30    0.18
  -2   2  -7    3.69    0.16
   2  -2   8    5.17    0.26
  -2   2  -8    5.45    0.23
  -2   2  -8    5.72    0.26
   2  -2   9    1.01    0.10
  -2   2  -9    1.24    0.10
  -2   2  -9    0.99    0.11
   2  -2  10    0.56    0.09
  -2   2 -10    0.31    0.07
  -2   2 -10    0.44    0.08
   2  -2  11    0.53    0.11
  -2   2 -11    0.47    0.11
  -2   2 -11    0.72    0.09
   2  -2  12    3.32    0.25
  -2   2 -12    3.26    0.24
  -2   2 -12    3.08    0.21
   2  -2  13    0.17    0.09
  -2   2 -13    0.21    0.08
  -2   2 -13    0.18    0.11
   2  -2  14    4.56    0.31
  -2   2 -14    5.00    0.29
  -2   2 -14    5.00    0.38
   2  -2  15    0.14    0.10
  -2   2 -15    0.16    0.08
  -2   2 -15   -0.08    0.09
   2  -2  16    1.03    0.18
  -2   2 -16    0.81    0.14
  -2   2 -16    0.62    0.15
   2  -2  17    2.30    0.28
  -2   2 -17    2.30    0.26
  -2   2 -17    1.95    0.21
   2  -2  18    0.23    0.15
  -2   2 -18    0.24    0.11
  -2   2 -18    0.35    0.14
   2  -2  19    4.92    0.46
  -2   2 -19    4.86    0.43
  -2   2 -19    3.43    0.35
   2  -2  20    0.81    0.21
  -2   2 -20    0.97    0.21
  -2   2 -20    0.51    0.16
   2  -2  21    2.13    0.36
  -2   2 -21    2.80    0.34
   2  -2  22    0.23    0.19
  -2   2 -22    0.23    0.17
  -2   2 -23    1.17    0.29
   2  -1 -23    0.24    0.23
   2  -1 -22   -0.04    0.18
  -2   1  22   -0.06    0.18
   2  -1 -21    1.50    0.33
  -2   1  21    1.60    0.37
   2  -1 -20   -0.01    0.13
  -2   1  20   -0.10    0.16
   2  -1 -19    0.87    0.19
   2  -1 -19    1.63    0.25
  -2   1  19    2.18    0.30
   2  -1 -18    2.51    0.28
   2  -1 -18    1.93    0.19
  -2   1  18    1.70    0.28
   2  -1 -17    0.81    0.13
   2  -1 -17    1.38    0.21
  -2   1  17    1.73    0.24
   2  -1 -16    1.22    0.19
   2  -1 -16    1.06    0.13
  -2   1  16    1.07    0.25
   2  -1 -15    0.22    0.10
  -2   1  15    0.06    0.15
   2  -1 -14    3.48    0.21
   2  -1 -14    3.82    0.30
  -2   1  14    4.46    0.38
   2  -1 -13    5.67    0.35
   2  -1 -13    5.23    0.27
  -2   1  13    6.63    0.45
   2  -1 -12   18.13    0.73
   2  -1 -12   19.25    0.86
  -2   1  12   20.82    1.08
   2  -1 -11    0.72    0.08
   2  -1 -11    0.68    0.11
  -2   1  11    0.85    0.14
   2  -1 -10    0.01    0.04
   2  -1 -10    0.03    0.05
  -2   1  10   -0.00    0.07
   2  -1  -9    0.47    0.07
   2  -1  -9    0.72    0.10
  -2   1   9    0.59    0.11
   2  -1  -8    2.94    0.13
   2  -1  -8    2.86    0.17
  -2   1   8    2.89    0.19
   2  -1  -7   10.23    0.31
   2  -1  -7   10.41    0.35
   2  -1  -7    9.52    0.29
   2  -1  -6   27.66    0.84
   2  -1  -6   25.97    0.72
   2  -1  -6   26.57    0.71
   2  -1  -5   20.87    0.54
   2  -1  -5   20.40    0.58
   2  -1  -5   20.51    0.53
   2  -1  -4    0.93    0.06
   2  -1  -4    0.81    0.05
   2  -1  -4    0.82    0.06
   2  -1  -3   10.40    0.24
   2  -1  -3   11.44    0.29
   2  -1  -3   10.29    0.27
   2  -1  -2   35.08    0.76
   2  -1  -2   35.05    0.60
   2  -1  -2   36.55    0.78
   2  -1  -1   17.41    0.35
   2  -1  -1   16.76    0.21
  -2   1   1   16.16    0.22
  -2   1   1   17.18    0.38
   2  -1   0    0.03    0.02
  -2   1   0    0.04    0.02
  -2   1   0    0.04    0.00
   2  -1   1    6.54    0.16
  -2   1  -1    6.50    0.17
   2  -1   2    4.94    0.15
  -2   1  -2    4.72    0.13
  -2   1  -2    4.39    0.09
   2  -1   3   65.18    1.67
  -2   1  -3   64.53    1.31
  -2   1  -3   63.74    1.48
   2  -1   4    4.24    0.19
  -2   1  -4    3.95    0.14
  -2   1  -4    3.99    0.14
   2  -1   5   38.02    1.14
  -2   1  -5   38.24    0.95
  -2   1  -5   35.36    0.97
   2  -1   6    0.29    0.07
  -2   1  -6    0.29    0.04
  -2   1  -6    0.23    0.06
   2  -1   7    0.44    0.07
  -2   1  -7    0.50    0.06
  -2   1  -7    0.59    0.06
   2  -1   8    5.33    0.27
  -2   1  -8    5.36    0.19
  -2   1  -8    5.50    0.25
   2  -1   9    0.78    0.12
  -2   1  -9    0.90    0.11
   2  -1  10    4.53    0.26
  -2   1 -10    4.41    0.19
  -2   1 -10    4.65    0.25
   2  -1  11    7.90    0.42
  -2   1 -11    7.23    0.31
  -2   1 -11    7.19    0.36
   2  -1  12    1.41    0.19
  -2   1 -12    1.63    0.12
  -2   1 -12    1.37    0.18
   2  -1  13    0.07    0.08
  -2   1 -13    0.09    0.06
  -2   1 -13    0.18    0.10
   2  -1  14    0.30    0.12
  -2   1 -14    0.08    0.07
  -2   1 -14    0.28    0.09
   2  -1  15   11.90    0.77
  -2   1 -15   12.03    0.69
  -2   1 -15   11.60    0.58
   2  -1  16    1.28    0.23
  -2   1 -16    1.07    0.14
  -2   1 -16    1.78    0.20
   2  -1  17    3.64    0.39
  -2   1 -17    3.19    0.26
  -2   1 -17    4.67    0.41
   2  -1  18    0.57    0.15
  -2   1 -18    0.28    0.11
  -2   1 -18    0.69    0.19
   2  -1  19    0.38    0.15
  -2   1 -19    0.90    0.18
   2  -1  20    0.13    0.13
  -2   1 -20    0.13    0.14
   2  -1  21    0.22    0.19
  -2   1 -21    0.26    0.19
   2  -1  22    0.04    0.16
  -2   1 -22    0.07    0.18
   2  -1  23    0.49    0.25
  -2   1 -23    0.61    0.23
   2   0 -23    0.40    0.23
   2   0 -22   -0.10    0.17
   2   0 -21    2.17    0.38
  -2   0  21    1.79    0.34
   2   0 -20   -0.01    0.10
   2   0 -20   -0.17    0.17
  -2   0  20    0.65    0.15
   2   0 -19    1.59    0.22
   2   0 -19    2.48    0.30
  -2   0  19    2.31    0.32
   2   0 -18    0.43    0.13
   2   0 -18    0.58    0.15
  -2   0  18    0.75    0.19
   2   0 -17    1.13    0.16
   2   0 -17    1.81    0.21
  -2   0  17    1.53    0.22
   2   0 -16    0.02    0.08
   2   0 -16    0.28    0.10
  -2   0  16    0.10    0.11
   2   0 -15    3.02    0.32
  -2   0  15    2.82    0.30
   2   0 -14   -0.15    0.07
   2   0 -14   -0.01    0.08
  -2   0  14    0.15    0.09
   2   0 -13    4.99    0.30
   2   0 -13    5.66    0.35
  -2   0  13    5.61    0.37
   2   0 -12    6.85    0.34
   2   0 -12    7.10    0.44
  -2   0  12    7.78    0.42
   2   0 -11    0.15    0.07
   2   0 -11    0.20    0.06
  -2   0  11    0.14    0.09
   2   0 -10    2.84    0.17
   2   0 -10    2.92    0.18
  -2   0  10    2.93    0.21
   2   0  -9    3.69    0.21
   2   0  -9    3.79    0.16
  -2   0   9    3.67    0.21
   2   0  -8   -0.05    0.05
   2   0  -8    0.16    0.05
  -2   0   8    0.02    0.05
   2   0  -7   21.56    0.65
   2   0  -7   22.21    0.73
   2   0  -6    5.24    0.18
   2   0  -6    5.03    0.18
   2   0  -6    4.61    0.14
   2   0  -5   30.02    0.66
   2   0  -5   29.54    0.79
   2   0  -4   11.23    0.31
   2   0  -4   10.50    0.28
   2   0  -4   10.94    0.24
   2   0  -3   40.20    0.94
   2   0  -3   39.78    0.76
   2   0  -3   39.27    0.85
   2   0  -2   13.59    0.30
   2   0  -2   13.13    0.25
  -2   0   2   11.69    0.27
   2   0  -1    4.22    0.11
   2   0  -1    3.92    0.08
   2   0   0    4.22    0.10
  -2   0   0    4.67    0.08
   2   0   1    0.03    0.03
  -2   0  -1    0.03    0.02
  -2   0  -1   -0.00    0.02
   2   0   2    0.43    0.05
  -2   0  -2    0.45    0.03
  -2   0  -2    0.48    0.04
   2   0   3  235.42    6.61
  -2   0  -3  239.03    5.11
  -2   0  -3  234.09    5.39
   2   0   4 1003.94   34.05
  -2   0  -4 1007.89   28.90
  -2   0  -4 1006.16   23.76
   2   0   5  738.82   26.43
  -2   0  -5  732.06   18.61
  -2   0  -5  736.78   22.41
   2   0   6  112.31    3.78
  -2   0  -6  112.04    2.66
  -2   0  -6  115.02    3.43
   2   0   7   13.41    0.54
  -2   0  -7   12.69    0.33
  -2   0  -7   13.87    0.49
   2   0   8    0.03    0.06
  -2   0  -8    0.05    0.03
  -2   0  -8    0.03    0.05
   2   0   9   25.49    1.03
  -2   0  -9   22.11    0.61
  -2   0  -9   24.94    0.98
   2   0  10   35.41    1.60
  -2   0 -10   35.46    1.06
  -2   0 -10   35.85    1.48
   2   0  11    3.94    0.26
  -2   0 -11    4.67    0.28
  -2   0 -11    3.72    0.17
   2   0  12    1.31    0.16
  -2   0 -12    0.89    0.12
  -2   0 -12    0.83    0.08
   2   0  13    4.59    0.37
  -2   0 -13    5.53    0.32
  -2   0 -13    4.43    0.23
   2   0  14    2.41    0.28
  -2   0 -14    3.05    0.28
  -2   0 -14    2.26    0.16
   2   0  15   -0.10    0.08
  -2   0 -15    0.00    0.04
  -2   0 -15    0.08    0.08
   2   0  16    0.02    0.10
  -2   0 -16    0.14    0.07
  -2   0 -16    0.25    0.13
   2   0  17    7.98    0.61
  -2   0 -17    8.36    0.58
   2   0  18    0.11    0.13
  -2   0 -18    0.23    0.16
   2   0  19    0.84    0.19
  -2   0 -19    0.53    0.18
   2   0  20   -0.22    0.17
  -2   0 -20    0.00    0.17
   2   0  21   -0.05    0.16
  -2   0 -21    0.17    0.14
   2   0  22    0.10    0.26
  -2   0 -22    1.11    0.27
   2   0  23    0.82    0.30
  -2   0 -23    0.93    0.32
   2   1 -23    0.58    0.24
   2   1 -22    1.50    0.31
   2   1 -21    0.04    0.11
   2   1 -21    0.07    0.14
   2   1 -20    4.84    0.45
   2   1 -20    6.99    0.56
  -2  -1  20    4.88    0.52
   2   1 -19    3.49    0.33
   2   1 -19    4.06    0.41
  -2  -1  19    2.38    0.33
   2   1 -18    0.35    0.11
   2   1 -18    0.09    0.13
  -2  -1  18    0.21    0.12
   2   1 -17    0.77    0.16
   2   1 -17    0.51    0.13
  -2  -1  17    0.73    0.18
   2   1 -16    1.08    0.16
   2   1 -16    1.40    0.23
  -2  -1  16    0.90    0.16
   2   1 -15   11.33    0.66
   2   1 -15   10.55    0.56
  -2  -1  15   10.45    0.58
   2   1 -14    4.40    0.31
  -2  -1  14    4.14    0.29
   2   1 -13    8.93    0.42
   2   1 -13    9.65    0.56
  -2  -1  13    9.11    0.49
   2   1 -12    3.12    0.25
   2   1 -12    2.63    0.21
  -2  -1  12    2.50    0.19
   2   1 -11    3.66    0.22
   2   1 -11    3.57    0.19
  -2  -1  11    4.17    0.22
   2   1 -10    4.05    0.22
   2   1 -10    4.23    0.22
  -2  -1  10    4.31    0.21
   2   1  -9    0.31    0.08
   2   1  -9    0.62    0.08
  -2  -1   9    0.28    0.07
   2   1  -8   38.50    1.25
   2   1  -8   38.07    1.34
  -2  -1   8   38.70    1.21
   2   1  -7   14.05    0.50
   2   1  -7   13.65    0.46
  -2  -1   7   13.74    0.42
   2   1  -6   65.12    1.93
   2   1  -6   63.53    1.84
  -2  -1   6   61.18    1.55
   2   1  -5   21.93    0.40
   2   1  -5   22.39    0.64
  -2  -1   5   21.91    0.72
   2   1  -4   16.28    0.43
   2   1  -4   15.70    0.27
  -2  -1   4   15.59    0.47
   2   1  -3    1.40    0.08
  -2  -1   3    1.40    0.07
   2   1  -2    5.11    0.14
  -2  -1   2    4.40    0.12
   2   1  -1    0.58    0.04
   2   1  -1    0.58    0.03
  -2  -1   1    0.47    0.03
   2   1   0    1.57    0.06
   2   1   0    1.64    0.06
  -2  -1   0    1.43    0.05
   2   1   1    0.20    0.03
   2   1   1    0.25    0.03
  -2  -1  -1    0.21    0.03
   2   1   2   12.16    0.23
   2   1   2   13.71    0.36
  -2  -1  -2   13.16    0.30
   2   1   3   15.38    0.48
  -2  -1  -3   16.30    0.43
   2   1   4  215.37    6.85
  -2  -1  -4  205.44    4.04
  -2  -1  -4  212.42    5.83
   2   1   5   16.78    0.56
  -2  -1  -5   17.36    0.53
  -2  -1  -5   15.40    0.29
   2   1   6    6.41    0.29
  -2  -1  -6    7.18    0.28
   2   1   7   11.28    0.45
  -2  -1  -7    9.90    0.21
  -2  -1  -7   11.82    0.43
   2   1   8    8.97    0.39
  -2  -1  -8    7.79    0.19
  -2  -1  -8    9.05    0.35
   2   1   9   15.13    0.66
  -2  -1  -9   15.30    0.61
  -2  -1  -9   14.70    0.38
   2   1  10    6.54    0.38
  -2  -1 -10    6.42    0.31
  -2  -1 -10    5.52    0.17
   2   1  11    3.09    0.22
  -2  -1 -11    2.48    0.12
  -2  -1 -11    3.25    0.24
   2   1  12   11.35    0.62
  -2  -1 -12    9.44    0.33
  -2  -1 -12   10.96    0.57
   2   1  13    1.05    0.16
  -2  -1 -13    0.57    0.06
  -2  -1 -13    0.73    0.15
   2   1  14    0.37    0.15
  -2  -1 -14    0.56    0.15
   2   1  15    0.05    0.12
  -2  -1 -15    0.13    0.11
   2   1  16   -0.07    0.12
  -2  -1 -16    0.16    0.12
   2   1  17    4.08    0.44
  -2  -1 -17    3.86    0.37
   2   1  18    5.58    0.58
  -2  -1 -18    5.61    0.47
   2   1  19    3.81    0.50
  -2  -1 -19    4.71    0.48
   2   1  20   -0.00    0.13
  -2  -1 -20   -0.09    0.12
   2   1  21    2.09    0.46
  -2  -1 -21    2.49    0.43
   2   1  22    2.16    0.46
  -2  -1 -22    2.11    0.37
   2   1  23    0.52    0.28
  -2  -1 -23    1.08    0.28
  -2  -2  23    0.99    0.24
   2   2 -22   -0.03    0.12
   2   2 -22    0.12    0.14
   2   2 -21    2.76    0.42
   2   2 -21    1.59    0.31
   2   2 -20    0.85    0.17
   2   2 -20   -0.05    0.19
   2   2 -19    2.28    0.29
   2   2 -19    2.53    0.37
   2   2 -18    0.19    0.11
   2   2 -18    0.21    0.12
  -2  -2  18    0.00    0.10
   2   2 -17    3.45    0.36
   2   2 -17    2.43    0.27
  -2  -2  17    2.38    0.27
   2   2 -16    8.16    0.50
   2   2 -16    7.95    0.54
  -2  -2  16    6.36    0.45
   2   2 -15    1.17    0.16
   2   2 -15    1.05    0.16
  -2  -2  15    0.70    0.12
   2   2 -14   12.94    0.72
   2   2 -14   12.20    0.66
  -2  -2  14   11.81    0.58
   2   2 -13    6.37    0.40
   2   2 -13    7.02    0.43
  -2  -2  13    6.60    0.34
   2   2 -12   30.33    1.40
  -2  -2  12   27.91    1.11
   2   2 -11   -0.08    0.05
   2   2 -11    0.00    0.07
  -2  -2  11   -0.03    0.04
   2   2 -10    0.20    0.06
   2   2 -10    0.32    0.08
  -2  -2  10    0.23    0.05
   2   2  -9   17.81    0.70
  -2  -2   9   17.60    0.54
   2   2  -8   37.02    1.27
  -2  -2   8   38.18    1.61
  -2  -2   8   36.79    0.96
   2   2  -7    9.63    0.37
  -2  -2   7    9.76    0.43
  -2  -2   7    9.51    0.25
   2   2  -6   27.76    0.86
  -2  -2   6   27.95    1.02
  -2  -2   6   26.26    0.53
   2   2  -5    5.00    0.20
  -2  -2   5    5.08    0.21
   2   2  -4    0.48    0.05
  -2  -2   4    0.36    0.06
   2   2  -3   -0.03    0.03
  -2  -2   3   -0.02    0.04
   2   2  -2    6.24    0.12
   2   2  -2    5.48    0.17
  -2  -2   2    5.51    0.18
   2   2  -1   21.78    0.53
   2   2  -1   22.36    0.45
  -2  -2   1   22.33    0.57
   2   2   0    1.21    0.05
   2   2   0    1.12    0.07
  -2  -2   0    1.21    0.07
   2   2   1    0.21    0.03
   2   2   1    0.18    0.04
  -2  -2  -1    0.24    0.04
   2   2   2   95.69    2.02
   2   2   2  104.61    2.96
  -2  -2  -2   99.34    2.54
   2   2   3   93.40    2.94
  -2  -2  -3   95.45    2.64
   2   2   4   20.40    0.72
  -2  -2  -4   21.33    0.64
   2   2   5    1.93    0.16
  -2  -2  -5    2.06    0.11
   2   2   6    0.99    0.12
  -2  -2  -6    0.78    0.02
  -2  -2  -6    0.91    0.09
   2   2   7    7.96    0.42
  -2  -2  -7    7.84    0.32
   2   2   8    0.03    0.06
  -2  -2  -8    0.02    0.06
   2   2   9    0.08    0.09
  -2  -2  -9    0.17    0.07
   2   2  10   -0.02    0.09
  -2  -2 -10    0.11    0.07
   2   2  11    0.85    0.14
  -2  -2 -11    0.87    0.12
   2   2  12    0.75    0.14
  -2  -2 -12    0.80    0.15
   2   2  13    0.10    0.09
  -2  -2 -13    0.20    0.10
   2   2  14    1.25    0.18
  -2  -2 -14    1.20    0.16
   2   2  15    0.30    0.12
  -2  -2 -15    0.11    0.14
   2   2  16    0.33    0.18
  -2  -2 -16    0.43    0.17
   2   2  17    0.26    0.19
  -2  -2 -17    0.38    0.18
   2   2  18    1.95    0.34
  -2  -2 -18    1.45    0.26
   2   2  19    0.43    0.15
  -2  -2 -19   -0.07    0.14
   2   2  20    0.67    0.27
  -2  -2 -20    0.54    0.21
   2   2  21    0.43    0.27
  -2  -2 -21    0.43    0.25
   2   2  22    0.03    0.17
  -2  -2 -22   -0.13    0.15
   2   2  23    3.95    0.79
  -2  -2 -23    5.21    0.59
  -2  -3  23    0.27    0.32
   2   3 -22    0.33    0.18
  -2  -3  22    0.25    0.24
   2   3 -21    0.31    0.17
  -2  -3  21    0.08    0.28
   2   3 -20    0.12    0.12
  -2  -3  20    0.29    0.19
   2   3 -19    0.06    0.11
  -2  -3  19    0.06    0.18
   2   3 -18    1.38    0.23
  -2  -3  18    1.49    0.36
   2   3 -17    0.33    0.13
  -2  -3  17    0.13    0.18
   2   3 -16    0.20    0.11
  -2  -3  16    0.05    0.07
  -2  -3  16    0.19    0.13
   2   3 -15    0.13    0.10
  -2  -3  15    0.06    0.06
  -2  -3  15    0.08    0.16
   2   3 -14    4.82    0.33
  -2  -3  14    5.77    0.53
   2   3 -13    3.18    0.25
  -2  -3  13    3.62    0.31
  -2  -3  13    2.44    0.15
   2   3 -12    0.13    0.08
  -2  -3  12   -0.04    0.10
   2   3 -11    0.62    0.09
  -2  -3  11    0.51    0.13
  -2  -3  11    0.45    0.05
   2   3 -10   -0.05    0.06
  -2  -3  10    0.19    0.08
  -2  -3  10    0.09    0.03
   2   3  -9    0.33    0.08
  -2  -3   9    0.23    0.09
  -2  -3   9    0.19    0.03
   2   3  -8   23.46    0.90
  -2  -3   8   22.59    1.01
   2   3  -7    5.16    0.23
  -2  -3   7    4.57    0.25
   2   3  -6    2.48    0.16
  -2  -3   6    2.20    0.14
   2   3  -5   13.70    0.45
  -2  -3   5   13.15    0.48
   2   3  -4    0.30    0.06
  -2  -3   4    0.24    0.06
   2   3  -3    0.29    0.05
  -2  -3   3    0.19    0.05
   2   3  -2   25.50    0.71
  -2  -3   2   25.18    0.74
   2   3  -1    2.98    0.11
   2   3  -1    3.19    0.11
  -2  -3   1    3.30    0.15
   2   3   0    1.77    0.09
   2   3   0    1.89    0.09
  -2  -3   0    1.92    0.09
   2   3   1   15.41    0.46
   2   3   1   15.77    0.38
  -2  -3  -1   14.67    0.44
   2   3   2    3.22    0.16
   2   3   2    3.05    0.10
  -2  -3  -2    3.28    0.14
   2   3   3   28.97    0.64
   2   3   3   33.63    1.06
  -2  -3  -3   33.33    0.95
   2   3   4    0.38    0.02
   2   3   4    0.39    0.07
  -2  -3  -4    0.51    0.06
   2   3   5    4.37    0.23
  -2  -3  -5    4.84    0.21
   2   3   6    2.80    0.19
  -2  -3  -6    3.14    0.18
   2   3   7   -0.02    0.06
  -2  -3  -7    0.08    0.06
   2   3   8   10.08    0.55
  -2  -3  -8   10.28    0.46
   2   3   9   -0.06    0.08
  -2  -3  -9    0.07    0.07
   2   3  10    7.18    0.45
  -2  -3 -10    8.15    0.42
   2   3  11    2.15    0.23
  -2  -3 -11    2.63    0.21
   2   3  12    1.98    0.24
  -2  -3 -12    2.10    0.20
   2   3  13    0.14    0.13
  -2  -3 -13    0.09    0.09
   2   3  14    1.20    0.29
  -2  -3 -14    1.75    0.23
   2   3  15    1.34    0.29
  -2  -3 -15    1.52    0.25
   2   3  16    2.20    0.30
  -2  -3 -16    1.98    0.26
   2   3  17    1.41    0.26
  -2  -3 -17    1.47    0.24
   2   3  18   -0.35    0.21
  -2  -3 -18   -0.19    0.15
   2   3  19    0.35    0.25
  -2  -3 -19    0.32    0.17
   2   3  20    0.03    0.17
  -2  -3 -20    0.13    0.15
   2   3  21   -0.03    0.28
  -2  -3 -21    0.65    0.25
   2   3  22   -0.01    0.22
  -2  -3 -22    0.46    0.23
   2   4 -23    0.30    0.21
  -2  -4  23    0.39    0.27
   2   4 -22    0.55    0.22
  -2  -4  22    0.53    0.34
  -2  -4  21    5.41    0.68
   2   4 -20   -0.03    0.14
  -2  -4  20   -0.13    0.18
   2   4 -19    1.99    0.32
  -2  -4  19    2.82    0.45
   2   4 -18    0.24    0.12
  -2  -4  18    0.28    0.23
   2   4 -17    1.32    0.23
  -2  -4  17    1.38    0.30
   2   4 -16    0.18    0.11
  -2  -4  16    0.12    0.15
   2   4 -15    3.17    0.32
  -2  -4  15    4.05    0.39
   2   4 -14    0.84    0.15
  -2  -4  14    1.15    0.21
   2   4 -13    4.46    0.35
  -2  -4  13    4.59    0.46
   2   4 -12    0.45    0.12
  -2  -4  12    0.32    0.16
   2   4 -11    1.46    0.17
  -2  -4  11    1.63    0.19
   2   4 -10    6.94    0.38
  -2  -4  10    6.31    0.44
   2   4  -9    0.56    0.12
  -2  -4   9    0.73    0.11
   2   4  -8    6.37    0.34
  -2  -4   8    6.19    0.38
   2   4  -7    0.32    0.08
  -2  -4   7    0.30    0.10
   2   4  -6    8.13    0.34
  -2  -4   6    7.41    0.39
   2   4  -5   11.73    0.45
  -2  -4   5   11.98    0.50
   2   4  -4    3.15    0.17
  -2  -4   4    2.84    0.17
   2   4  -3   -0.06    0.04
   2   4  -3   -0.03    0.02
  -2  -4   3    0.13    0.05
   2   4  -2    0.76    0.08
   2   4  -2    0.71    0.05
  -2  -4   2    0.84    0.08
   2   4  -1   10.69    0.31
   2   4  -1   11.49    0.36
  -2  -4   1   10.83    0.38
   2   4   0   13.11    0.43
   2   4   0   11.67    0.35
  -2  -4   0   13.49    0.45
   2   4   1    8.15    0.32
   2   4   1    8.00    0.24
  -2  -4  -1    7.73    0.29
   2   4   2   26.91    0.93
  -2  -4  -2   24.72    0.81
   2   4   3    4.66    0.24
   2   4   3    3.99    0.13
  -2  -4  -3    4.67    0.20
   2   4   4    1.37    0.14
  -2  -4  -4    1.78    0.13
   2   4   5    7.23    0.43
  -2  -4  -5    7.87    0.35
   2   4   6    2.32    0.20
  -2  -4  -6    2.27    0.16
   2   4   7    0.10    0.08
   2   4   8    3.60    0.28
  -2  -4  -8    3.70    0.27
   2   4   9    2.94    0.26
  -2  -4  -9    3.68    0.26
   2   4  10   10.88    0.69
  -2  -4 -10   11.96    0.62
   2   4  11    0.25    0.12
  -2  -4 -11    0.21    0.10
   2   4  12    0.54    0.14
  -2  -4 -12    0.18    0.14
   2   4  13    0.80    0.20
  -2  -4 -13    1.00    0.16
   2   4  14    0.39    0.18
  -2  -4 -14    0.21    0.12
   2   4  15    0.42    0.23
  -2  -4 -15    0.45    0.17
   2   4  16    0.43    0.20
  -2  -4 -16    0.53    0.20
   2   4  17    0.11    0.17
  -2  -4 -17    0.27    0.15
   2   4  18    0.30    0.23
   2   4  19    1.01    0.30
  -2  -4 -19    1.23    0.27
   2   4  20    0.04    0.25
  -2  -4 -20    0.71    0.20
   2   4  21    0.10    0.25
  -2  -4 -21    0.13    0.17
   2   4  22    0.01    0.20
  -2  -4 -22    0.11    0.17
   2   5 -23    0.35    0.21
  -2  -5  23    0.24    0.33
   2   5 -22    1.47    0.34
  -2  -5  22    2.12    0.43
   2   5 -21    1.08    0.29
  -2  -5  21    1.24    0.35
   2   5 -20   -0.00    0.12
  -2  -5  20    0.33    0.20
   2   5 -19    0.44    0.19
  -2  -5  19    0.30    0.27
   2   5 -18    0.71    0.22
  -2  -5  18    0.78    0.24
   2   5 -17    0.20    0.11
  -2  -5  17   -0.03    0.17
   2   5 -16   27.55    1.66
  -2  -5  16   29.15    2.04
   2   5 -15    2.60    0.31
  -2  -5  15    2.62    0.35
   2   5 -14   27.02    1.50
  -2  -5  14   26.44    1.62
   2   5 -13    2.61    0.26
  -2  -5  13    1.72    0.24
   2   5 -12    0.54    0.14
  -2  -5  12    0.62    0.15
   2   5 -11    0.69    0.12
  -2  -5  11    0.75    0.18
   2   5 -10    0.28    0.08
  -2  -5  10   -0.08    0.11
   2   5  -9    7.60    0.40
  -2  -5   9    6.39    0.40
   2   5  -8   26.44    1.10
  -2  -5   8   24.76    1.17
   2   5  -7   28.24    1.18
  -2  -5   7   25.75    1.12
  -2  -5   6    1.40    0.14
   2   5  -5    3.92    0.24
  -2  -5   5    4.05    0.23
   2   5  -4    6.36    0.30
  -2  -5   4    5.67    0.26
   2   5  -3    1.41    0.13
  -2  -5   3    1.57    0.12
   2   5  -2    2.75    0.16
  -2  -5   2    2.42    0.15
   2   5  -1   13.28    0.46
   2   5  -1   12.11    0.41
  -2  -5   1   12.26    0.46
   2   5   0    2.97    0.15
   2   5   0    3.39    0.16
  -2  -5   0    3.16    0.17
   2   5   1    6.33    0.24
   2   5   1    6.18    0.29
  -2  -5  -1    6.49    0.30
   2   5   2    9.20    0.43
  -2  -5  -2    8.76    0.36
   2   5   3    4.08    0.22
   2   5   3    3.36    0.13
  -2  -5  -3    3.89    0.19
   2   5   4    0.01    0.03
   2   5   4    0.26    0.09
  -2  -5  -4    0.14    0.05
   2   5   5    4.68    0.28
   2   5   5    3.94    0.13
  -2  -5  -5    4.64    0.24
   2   5   6    0.18    0.09
  -2  -5  -6    0.19    0.07
   2   5   7    0.94    0.15
  -2  -5  -7    0.96    0.14
   2   5   8    0.06    0.09
  -2  -5  -8    0.08    0.07
   2   5   9    4.61    0.38
  -2  -5  -9    4.23    0.29
   2   5  10    0.15    0.12
  -2  -5 -10    0.16    0.12
   2   5  11   -0.03    0.10
  -2  -5 -11    0.01    0.08
   2   5  12    0.16    0.15
  -2  -5 -12    0.10    0.11
   2   5  13   -0.03    0.14
  -2  -5 -13    0.02    0.09
   2   5  14    0.76    0.23
  -2  -5 -14    0.91    0.19
   2   5  15    2.02    0.40
  -2  -5 -15    3.53    0.38
   2   5  16    1.29    0.37
  -2  -5 -16    1.17    0.24
   2   5  17    0.13    0.21
  -2  -5 -17    0.07    0.14
   2   5  18    3.10    0.55
  -2  -5 -18    3.72    0.49
   2   5  19    0.37    0.27
  -2  -5 -19    0.22    0.18
   2   5  20    3.99    0.58
  -2  -5 -20    0.86    0.32
   2   5  21    2.53    0.55
  -2  -5 -21    3.14    0.46
   2   6 -22    0.00    0.17
  -2  -6  22   -0.10    0.22
   2   6 -21    1.07    0.32
  -2  -6  21    1.61    0.44
   2   6 -20    3.46    0.45
  -2  -6  20    4.39    0.63
   2   6 -19    0.10    0.15
  -2  -6  19   -0.06    0.20
   2   6 -18    4.29    0.43
  -2  -6  18    4.36    0.53
   2   6 -17    9.82    0.82
  -2  -6  17   10.20    0.96
   2   6 -16    0.75    0.18
  -2  -6  16    0.71    0.23
   2   6 -15    3.00    0.36
  -2  -6  15    2.71    0.43
   2   6 -14    3.82    0.39
  -2  -6  14    4.30    0.47
   2   6 -13    3.38    0.29
  -2  -6  13    3.09    0.33
   2   6 -12    0.47    0.11
  -2  -6  12    0.13    0.15
   2   6 -11   -0.16    0.09
   2   6 -10    8.99    0.53
  -2  -6  10    8.50    0.54
   2   6  -9    6.69    0.42
  -2  -6   9    7.24    0.47
   2   6  -8   55.88    2.48
  -2  -6   8   56.29    2.65
   2   6  -7    2.05    0.19
  -2  -6   7    2.32    0.20
   2   6  -6    4.83    0.31
  -2  -6   6    4.34    0.30
   2   6  -5    0.10    0.06
   2   6  -5    0.10    0.02
  -2  -6   5    0.02    0.06
   2   6  -4    0.87    0.06
   2   6  -4    0.85    0.10
  -2  -6   4    1.12    0.11
   2   6  -3   39.41    1.17
   2   6  -3   42.58    1.56
  -2  -6   3   40.34    1.53
   2   6  -2   80.66    2.82
  -2  -6   2   76.91    2.91
   2   6  -1    2.44    0.16
  -2  -6   1    2.10    0.15
   2   6   0   19.86    0.79
   2   6   0   20.82    0.76
  -2  -6   0   20.49    0.80
   2   6   1    0.38    0.10
   2   6   1    0.43    0.07
  -2  -6  -1    0.57    0.08
   2   6   2   10.97    0.41
   2   6   2   12.37    0.58
  -2  -6  -2   12.19    0.51
   2   6   3   12.77    0.65
  -2  -6  -3   12.13    0.53
   2   6   4    7.74    0.44
  -2  -6  -4    7.56    0.40
   2   6   5    2.84    0.24
  -2  -6  -5    2.67    0.19
   2   6   6    0.08    0.15
  -2  -6  -6    0.52    0.11
   2   6   7    0.73    0.17
  -2  -6  -7    0.56    0.11
   2   6   8    0.04    0.12
  -2  -6  -8    0.04    0.09
   2   6   9    0.09    0.15
  -2  -6  -9    0.13    0.09
   2   6  10    3.81    0.38
  -2  -6 -10    3.57    0.28
   2   6  11   -0.06    0.14
  -2  -6 -11    0.06    0.09
   2   6  12    3.89    0.43
  -2  -6 -12    4.19    0.42
   2   6  13   -0.26    0.20
  -2  -6 -13   -0.14    0.14
   2   6  14    0.46    0.18
  -2  -6 -14   -0.09    0.12
   2   6  15    0.54    0.21
  -2  -6 -15    0.27    0.16
   2   6  16    1.06    0.29
  -2  -6 -16    0.81    0.27
   2   6  17    2.16    0.44
  -2  -6 -17    0.88    0.28
   2   6  18   -0.13    0.22
  -2  -6 -18   -0.33    0.22
   2   6  19    0.11    0.21
  -2  -6 -19    0.18    0.20
   2   6  20    0.22    0.23
  -2  -6 -20   -0.19    0.18
   2   6  21   -0.07    0.29
  -2  -6 -21    0.76    0.25
   2   7 -22    0.45    0.24
  -2  -7  22    1.23    0.38
   2   7 -21    1.47    0.39
  -2  -7  21    2.46    0.49
   2   7 -20    0.04    0.17
  -2  -7  20   -0.33    0.22
   2   7 -19    0.20    0.15
  -2  -7  19    0.31    0.24
   2   7 -18    0.89    0.26
  -2  -7  18    1.06    0.27
   2   7 -17    0.18    0.12
  -2  -7  17   -0.29    0.17
   2   7 -16    0.31    0.19
  -2  -7  16    0.32    0.23
   2   7 -15    0.17    0.16
  -2  -7  15    0.17    0.15
   2   7 -14    0.04    0.10
  -2  -7  14   -0.16    0.16
   2   7 -13   14.51    0.93
  -2  -7  13   14.72    1.10
   2   7 -12    1.48    0.22
  -2  -7  12    1.84    0.27
   2   7 -11   18.44    1.03
  -2  -7  11   17.82    1.06
   2   7 -10    0.93    0.15
  -2  -7  10    0.67    0.15
   2   7  -9    0.20    0.09
  -2  -7   9    0.11    0.11
   2   7  -8    0.37    0.10
  -2  -7   8    0.45    0.12
   2   7  -7    7.27    0.46
  -2  -7   7    6.61    0.40
   2   7  -6    0.94    0.13
  -2  -7   6    0.93    0.15
   2   7  -5    1.63    0.15
   2   7  -5    1.34    0.07
  -2  -7   5    1.53    0.17
   2   7  -4    0.10    0.04
   2   7  -4    0.07    0.07
  -2  -7   4    0.08    0.07
   2   7  -3    1.58    0.12
   2   7  -3    1.79    0.14
  -2  -7   3    1.78    0.15
   2   7  -2    2.89    0.17
   2   7  -2    2.63    0.17
  -2  -7   2    2.90    0.19
   2   7  -1    0.48    0.10
   2   7  -1    0.60    0.09
  -2  -7   1    0.77    0.10
   2   7   0    0.37    0.09
   2   7   0    0.33    0.08
  -2  -7   0    0.28    0.08
   2   7   1    4.77    0.30
   2   7   1    4.31    0.23
  -2  -7  -1    4.60    0.26
   2   7   2   10.04    0.43
   2   7   2    9.91    0.53
  -2  -7  -2   10.43    0.52
   2   7   3   13.30    0.48
   2   7   3   13.77    0.76
  -2  -7  -3   13.94    0.63
   2   7   4    8.11    0.31
   2   7   4    9.09    0.53
  -2  -7  -4    8.80    0.42
   2   7   5    0.15    0.10
   2   7   5    0.13    0.04
  -2  -7  -5    0.25    0.10
   2   7   6   10.49    0.71
  -2  -7  -6   10.70    0.57
   2   7   7    0.13    0.13
  -2  -7  -7   -0.00    0.10
   2   7   8   -0.12    0.12
  -2  -7  -8   -0.11    0.11
   2   7   9    1.46    0.25
  -2  -7  -9    1.06    0.17
   2   7  10   -0.09    0.14
  -2  -7 -10   -0.05    0.10
   2   7  11    0.56    0.21
  -2  -7 -11    0.54    0.15
   2   7  12   -0.07    0.12
  -2  -7 -12    0.08    0.10
   2   7  13    1.55    0.33
  -2  -7 -13    0.80    0.20
   2   7  14    1.41    0.34
  -2  -7 -14    1.65    0.25
   2   7  15    0.83    0.25
  -2  -7 -15    0.29    0.17
   2   7  16    0.93    0.32
  -2  -7 -16    1.32    0.31
   2   7  17    0.18    0.24
  -2  -7 -17    0.08    0.15
   2   7  18    0.20    0.24
  -2  -7 -18    0.12    0.21
   2   7  19    0.15    0.24
  -2  -7 -19   -0.13    0.19
   2   7  20   -0.02    0.32
  -2  -7 -20    0.26    0.20
   2   8 -21    0.12    0.20
  -2  -8  21    0.61    0.26
   2   8 -20    0.21    0.19
  -2  -8  20   -0.03    0.20
   2   8 -19    0.11    0.12
  -2  -8  19   -0.23    0.20
   2   8 -18    1.19    0.36
  -2  -8  18    2.45    0.37
   2   8 -17   -0.07    0.14
  -2  -8  17   -0.25    0.17
   2   8 -16    1.49    0.29
  -2  -8  16    2.04    0.41
   2   8 -15    1.35    0.30
  -2  -8  15    1.90    0.36
   2   8 -14    0.61    0.23
  -2  -8  14    0.80    0.21
   2   8 -13   13.02    0.88
  -2  -8  13   13.24    0.95
   2   8 -12    5.87    0.46
  -2  -8  12    5.42    0.48
   2   8 -11    3.76    0.35
  -2  -8  11    3.62    0.37
   2   8 -10    0.14    0.11
  -2  -8  10    0.13    0.12
   2   8  -9    2.92    0.32
  -2  -8   9    3.10    0.30
   2   8  -8    0.20    0.11
  -2  -8   8   -0.05    0.11
   2   8  -7    3.06    0.25
  -2  -8   7    3.12    0.31
   2   8  -6    1.49    0.18
  -2  -8   6    1.02    0.15
   2   8  -5    0.40    0.10
  -2  -8   5    0.36    0.10
   2   8  -4    0.72    0.12
   2   8  -4    0.34    0.07
  -2  -8   4    0.50    0.10
   2   8  -3    0.16    0.06
   2   8  -3    0.13    0.08
  -2  -8   3    0.01    0.07
   2   8  -2    0.33    0.09
   2   8  -2    0.24    0.07
  -2  -8   2    0.07    0.08
   2   8  -1    0.55    0.11
   2   8  -1    0.40    0.08
  -2  -8   1    0.40    0.12
   2   8   0    0.05    0.07
   2   8   0    0.07    0.07
  -2  -8   0   -0.01    0.09
   2   8   1    1.40    0.17
   2   8   1    1.34    0.13
  -2  -8  -1    1.45    0.15
   2   8   2    0.79    0.15
   2   8   2    0.45    0.10
  -2  -8  -2    0.95    0.11
   2   8   3    3.34    0.29
   2   8   3    3.44    0.20
  -2  -8  -3    4.11    0.26
   2   8   4    0.42    0.15
   2   8   4    0.30    0.08
  -2  -8  -4    0.46    0.12
   2   8   5    8.28    0.65
  -2  -8  -5    8.29    0.46
   2   8   6    0.14    0.12
  -2  -8  -6   -0.01    0.08
   2   8   7    2.81    0.39
  -2  -8  -7    2.56    0.25
   2   8   8    2.63    0.37
  -2  -8  -8    2.10    0.24
   2   8   9    0.10    0.17
  -2  -8  -9    0.01    0.12
   2   8  10   -0.07    0.21
  -2  -8 -10   -0.15    0.12
   2   8  11    0.56    0.27
  -2  -8 -11    0.42    0.19
   2   8  12    0.44    0.25
  -2  -8 -12    0.62    0.21
   2   8  13    0.68    0.23
  -2  -8 -13    0.59    0.21
   2   8  14    0.32    0.22
  -2  -8 -14    0.31    0.17
   2   8  15   -0.01    0.21
  -2  -8 -15   -0.03    0.12
   2   8  16   -0.02    0.22
  -2  -8 -16    0.51    0.22
   2   8  17    1.26    0.35
  -2  -8 -17    0.56    0.25
   2   8  18   -0.11    0.34
  -2  -8 -18    0.51    0.24
   2   8  19    0.40    0.41
  -2  -8 -19    0.50    0.22
   2   9 -20    0.02    0.16
  -2  -9  20    0.16    0.18
   2   9 -19   -0.09    0.17
  -2  -9  19    0.06    0.19
   2   9 -18    0.09    0.16
  -2  -9  18    0.12    0.17
   2   9 -17   -0.16    0.18
  -2  -9  17   -0.10    0.18
   2   9 -16    2.22    0.42
  -2  -9  16    2.80    0.41
   2   9 -15   -0.22    0.14
  -2  -9  15    0.04    0.16
   2   9 -14    0.96    0.20
  -2  -9  14    0.75    0.23
   2   9 -13    0.77    0.22
  -2  -9  13    1.00    0.28
   2   9 -12    0.19    0.13
  -2  -9  12    0.07    0.17
   2   9 -11    0.24    0.13
  -2  -9  11    0.09    0.15
  -2  -9  10   10.75    0.77
   2   9  -9    0.32    0.14
  -2  -9   9    0.84    0.16
   2   9  -8    7.27    0.57
  -2  -9   8    7.37    0.55
   2   9  -7    0.52    0.13
  -2  -9   7    0.49    0.14
   2   9  -6    3.69    0.32
  -2  -9   6    3.14    0.27
   2   9  -5    5.69    0.29
   2   9  -5    8.06    0.45
  -2  -9   5    7.82    0.47
   2   9  -4    1.37    0.12
   2   9  -4    1.06    0.16
  -2  -9   4    1.25    0.16
   2   9  -3    2.93    0.26
   2   9  -3    2.82    0.21
  -2  -9   3    3.31    0.26
   2   9  -2    3.37    0.27
   2   9  -2    3.42    0.24
  -2  -9   2    4.37    0.31
   2   9  -1    2.04    0.20
   2   9  -1    1.84    0.20
  -2  -9   1    2.43    0.21
   2   9   0    1.38    0.15
   2   9   0    1.31    0.17
  -2  -9   0    1.10    0.17
   2   9   1    0.99    0.18
   2   9   1    0.96    0.13
  -2  -9  -1    1.23    0.17
   2   9   2    4.13    0.37
   2   9   2    3.60    0.28
  -2  -9  -2    4.70    0.31
   2   9   3    6.42    0.48
   2   9   3    5.68    0.33
  -2  -9  -3    6.54    0.46
   2   9   4    0.65    0.18
   2   9   4    0.36    0.08
  -2  -9  -4    0.44    0.15
   2   9   5    0.95    0.19
   2   9   5    0.32    0.08
  -2  -9  -5    0.56    0.15
   2   9   6    0.91    0.26
  -2  -9  -6    0.92    0.20
   2   9   7    7.37    0.66
  -2  -9  -7    7.00    0.56
   2   9   8    0.06    0.19
  -2  -9  -8    0.51    0.13
   2   9   9    1.32    0.29
  -2  -9  -9    1.14    0.24
   2   9  10   -0.03    0.21
  -2  -9 -10    0.24    0.13
   2   9  11    0.16    0.19
  -2  -9 -11   -0.02    0.11
   2   9  12    0.20    0.27
  -2  -9 -12    0.22    0.16
   2   9  13    0.39    0.26
  -2  -9 -13    0.21    0.16
   2   9  14   -0.12    0.18
  -2  -9 -14    0.19    0.15
   2   9  15    0.15    0.30
  -2  -9 -15    1.10    0.28
   2   9  16    1.78    0.51
  -2  -9 -16    1.35    0.33
   2   9  17   -0.16    0.29
  -2  -9 -17   -0.05    0.21
   2   9  18    0.10    0.24
  -2  -9 -18    0.05    0.17
   2  10 -19   -0.22    0.18
  -2 -10  19   -0.08    0.20
   2  10 -18   -0.02    0.18
  -2 -10  18   -0.06    0.16
   2  10 -17   -0.35    0.20
  -2 -10  17    0.13    0.19
   2  10 -16   -0.02    0.14
  -2 -10  16    0.19    0.16
   2  10 -15    0.11    0.12
  -2 -10  15   -0.16    0.13
   2  10 -14    1.12    0.27
  -2 -10  14    1.35    0.35
   2  10 -13    1.55    0.26
  -2 -10  13    1.56    0.27
   2  10 -12    0.16    0.12
  -2 -10  12   -0.04    0.15
   2  10 -11    1.88    0.26
  -2 -10  11    1.61    0.33
   2  10 -10    1.26    0.22
  -2 -10  10    1.22    0.26
   2  10  -9    2.25    0.28
  -2 -10   9    1.55    0.26
   2  10  -8   -0.20    0.10
  -2 -10   8    0.11    0.10
   2  10  -7    0.74    0.17
  -2 -10   7    1.04    0.21
   2  10  -6    0.60    0.17
  -2 -10   6    0.72    0.18
   2  10  -5   13.83    0.68
   2  10  -5   18.94    1.05
  -2 -10   5   17.93    0.90
   2  10  -4    6.02    0.46
   2  10  -4    5.23    0.33
  -2 -10   4    6.62    0.47
   2  10  -3    2.45    0.25
   2  10  -3    1.50    0.17
  -2 -10   3    1.99    0.20
   2  10  -2    0.69    0.16
   2  10  -2    0.99    0.18
  -2 -10   2    1.21    0.16
   2  10  -1    0.00    0.08
   2  10  -1   -0.06    0.08
  -2 -10   1    0.01    0.08
   2  10   0    0.26    0.11
   2  10   0    0.24    0.13
  -2 -10   0    0.43    0.11
   2  10   1   13.43    0.92
   2  10   1   14.62    0.77
  -2 -10  -1   14.74    0.83
   2  10   2   10.34    0.58
   2  10   2    9.51    0.69
  -2 -10  -2   10.38    0.63
   2  10   3    8.71    0.53
   2  10   3   10.02    0.81
  -2 -10  -3   11.26    0.65
   2  10   4    1.48    0.26
   2  10   4    1.31    0.15
  -2 -10  -4    1.85    0.21
   2  10   5    6.97    0.61
  -2 -10  -5    6.47    0.54
   2  10   6    0.42    0.19
  -2 -10  -6    0.01    0.14
   2  10   7    0.26    0.21
  -2 -10  -7    0.14    0.12
   2  10   8    7.77    0.87
  -2 -10  -8    7.79    0.65
   2  10   9    4.13    0.61
  -2 -10  -9    3.18    0.36
   2  10  10    0.74    0.33
  -2 -10 -10    0.74    0.20
   2  10  11    1.28    0.38
  -2 -10 -11    0.77    0.22
   2  10  12    0.04    0.29
  -2 -10 -12    0.22    0.15
   2  10  13    0.02    0.22
  -2 -10 -13   -0.06    0.13
   2  10  14    0.35    0.27
  -2 -10 -14    0.33    0.19
   2  10  15   -0.25    0.20
  -2 -10 -15    0.16    0.20
   2  10  16    2.80    0.69
  -2 -10 -16    2.21    0.44
   2  10  17    0.75    0.49
  -2 -10 -17    0.59    0.33
   2  11 -18    0.23    0.24
  -2 -11  18    0.32    0.28
   2  11 -17   -0.05    0.15
  -2 -11  17   -0.03    0.22
   2  11 -16    0.15    0.17
  -2 -11  16    0.09    0.21
   2  11 -15    0.78    0.23
  -2 -11  15    1.08    0.25
   2  11 -14    1.27    0.27
  -2 -11  14    1.23    0.28
   2  11 -13    1.03    0.24
  -2 -11  13    1.17    0.26
   2  11 -12    0.12    0.13
  -2 -11  12   -0.04    0.17
   2  11 -11    0.74    0.21
  -2 -11  11    0.82    0.24
   2  11 -10    0.07    0.16
  -2 -11  10    0.15    0.15
   2  11  -9    0.42    0.15
  -2 -11   9    0.46    0.17
   2  11  -8    1.20    0.23
  -2 -11   8    1.52    0.26
   2  11  -7    1.79    0.30
  -2 -11   7    1.66    0.24
   2  11  -6    4.36    0.48
  -2 -11   6    4.94    0.39
   2  11  -5    0.05    0.10
  -2 -11   5    0.04    0.09
   2  11  -4    0.51    0.13
   2  11  -4    0.34    0.11
  -2 -11   4    0.53    0.15
   2  11  -3    0.44    0.12
   2  11  -3    0.73    0.14
  -2 -11   3    0.47    0.13
   2  11  -2    0.05    0.12
   2  11  -2    0.18    0.12
  -2 -11   2    0.36    0.14
   2  11  -1    0.13    0.13
   2  11  -1    0.34    0.13
  -2 -11   1    0.23    0.12
   2  11   0    1.02    0.17
   2  11   0    0.88    0.19
  -2 -11   0    0.65    0.19
   2  11   1    0.99    0.18
   2  11   1    1.07    0.23
  -2 -11  -1    0.93    0.22
   2  11   2    8.38    0.67
   2  11   2    8.49    0.54
  -2 -11  -2    9.15    0.59
   2  11   3    0.87    0.16
   2  11   3    1.04    0.25
  -2 -11  -3    0.70    0.18
   2  11   4    1.80    0.21
   2  11   4    2.71    0.34
  -2 -11  -4    3.08    0.34
   2  11   5    0.06    0.16
  -2 -11  -5    0.01    0.11
   2  11   6    2.31    0.43
  -2 -11  -6    2.31    0.36
   2  11   7    3.78    0.50
  -2 -11  -7    3.52    0.38
   2  11   8    4.07    0.58
  -2 -11  -8    4.07    0.42
   2  11   9    6.71    0.79
  -2 -11  -9    5.85    0.66
   2  11  10    0.03    0.17
  -2 -11 -10   -0.03    0.15
   2  11  11    3.64    0.65
  -2 -11 -11    4.01    0.53
   2  11  12   12.89    1.46
  -2 -11 -12   12.30    1.21
   2  11  13   10.50    1.26
  -2 -11 -13    9.57    0.94
   2  11  14    9.15    1.17
  -2 -11 -14    9.23    0.91
   2  11  15   -0.03    0.29
  -2 -11 -15   -0.04    0.21
   2  11  16    0.05    0.35
  -2 -11 -16    0.18    0.21
   2  12 -17    0.07    0.23
  -2 -12  17    0.15    0.23
   2  12 -16   -0.11    0.23
  -2 -12  16   -0.19    0.24
   2  12 -15    4.01    0.56
  -2 -12  15    5.77    0.71
   2  12 -14    0.70    0.24
  -2 -12  14    1.04    0.25
   2  12 -13    0.05    0.17
  -2 -12  13   -0.17    0.18
   2  12 -12    1.82    0.39
  -2 -12  12    1.95    0.39
   2  12 -11    0.03    0.18
  -2 -12  11    0.09    0.14
   2  12 -10    0.14    0.15
  -2 -12  10    0.05    0.16
   2  12  -9   -0.09    0.14
  -2 -12   9    0.10    0.13
   2  12  -8    0.64    0.17
  -2 -12   8    0.26    0.18
   2  12  -7    0.91    0.24
  -2 -12   7    0.83    0.23
   2  12  -6    0.24    0.14
  -2 -12   6    0.19    0.15
   2  12  -5    1.16    0.23
  -2 -12   5    1.19    0.19
   2  12  -4    3.24    0.35
  -2 -12   4    3.23    0.31
   2  12  -3    4.62    0.41
   2  12  -3    3.50    0.38
  -2 -12   3    5.42    0.43
   2  12  -2    0.51    0.14
   2  12  -2    0.43    0.17
  -2 -12   2    0.46    0.18
   2  12  -1    3.85    0.37
   2  12  -1    3.09    0.34
  -2 -12   1    3.13    0.32
   2  12   0    2.45    0.34
   2  12   0    2.41    0.31
  -2 -12   0    2.89    0.35
   2  12   1    1.19    0.21
   2  12   1    0.76    0.25
  -2 -12  -1    1.16    0.20
   2  12   2    1.46    0.23
   2  12   2    1.61    0.28
  -2 -12  -2    1.92    0.28
   2  12   3    0.28    0.17
   2  12   3    0.03    0.09
  -2 -12  -3   -0.02    0.11
   2  12   4    0.01    0.16
   2  12   4   -0.04    0.08
  -2 -12  -4    0.09    0.10
   2  12   5    1.04    0.32
  -2 -12  -5    0.90    0.26
   2  12   6    0.40    0.25
  -2 -12  -6    0.70    0.18
   2  12   7    0.73    0.28
  -2 -12  -7    0.15    0.16
   2  12   8    0.08    0.23
  -2 -12  -8   -0.10    0.14
   2  12   9    0.21    0.23
  -2 -12  -9   -0.02    0.13
   2  12  10   -0.11    0.23
  -2 -12 -10    0.06    0.16
   2  12  11    1.51    0.51
  -2 -12 -11    1.08    0.28
   2  12  12   -0.49    0.30
  -2 -12 -12   -0.14    0.19
   2  12  13    5.60    1.01
  -2 -12 -13    4.68    0.76
   2  12  14    1.31    0.52
  -2 -12 -14    0.97    0.39
   2  13 -16    0.40    0.26
  -2 -13  16    0.17    0.23
   2  13 -15    0.75    0.37
  -2 -13  15    0.99    0.35
   2  13 -14    0.35    0.28
  -2 -13  14    0.52    0.29
   2  13 -13   -0.01    0.16
  -2 -13  13   -0.12    0.18
   2  13 -12    0.00    0.15
  -2 -13  12   -0.06    0.14
   2  13 -11   -0.10    0.20
  -2 -13  11    0.26    0.16
   2  13 -10    0.86    0.22
  -2 -13  10   -0.04    0.19
   2  13  -9    0.77    0.23
  -2 -13   9    0.67    0.21
   2  13  -8    0.07    0.20
  -2 -13   8    0.23    0.15
   2  13  -7    3.28    0.48
  -2 -13   7    2.83    0.41
   2  13  -6    0.05    0.16
  -2 -13   6    0.30    0.16
   2  13  -5    8.79    0.73
  -2 -13   5    7.78    0.63
   2  13  -4    1.38    0.24
  -2 -13   4    1.11    0.22
   2  13  -3    0.28    0.15
  -2 -13   3    0.39    0.14
   2  13  -2    0.80    0.21
   2  13  -2    1.07    0.23
  -2 -13   2    1.05    0.20
   2  13  -1    1.49    0.29
   2  13  -1    1.51    0.30
  -2 -13   1    2.26    0.27
   2  13   0    1.30    0.27
   2  13   0    1.05    0.26
  -2 -13   0    1.51    0.23
   2  13   1    1.24    0.32
   2  13   1    1.25    0.25
  -2 -13  -1    1.86    0.31
   2  13   2    4.67    0.58
   2  13   2    3.50    0.40
  -2 -13  -2    5.80    0.52
   2  13   3    3.37    0.38
   2  13   3    5.34    0.61
  -2 -13  -3    5.15    0.45
   2  13   4    3.92    0.71
  -2 -13  -4   10.32    0.66
   2  13   5    0.54    0.32
  -2 -13  -5    0.66    0.25
   2  13   6    2.94    0.49
  -2 -13  -6    2.63    0.46
   2  13   7    0.55    0.28
  -2 -13  -7    0.02    0.20
   2  13   8    1.79    0.58
  -2 -13  -8    2.15    0.43
   2  13   9    0.48    0.42
  -2 -13  -9    0.78    0.28
   2  13  10   -0.13    0.20
  -2 -13 -10    0.08    0.16
   2  13  11    0.10    0.22
  -2 -13 -11    0.03    0.15
   2  13  12    0.67    0.36
  -2 -13 -12    0.72    0.27
   2  13  13    1.56    0.52
  -2 -13 -13    1.78    0.48
   2  14 -14   -0.00    0.21
  -2 -14  14   -0.04    0.20
   2  14 -13   -0.23    0.25
  -2 -14  13   -0.17    0.20
   2  14 -12    0.02    0.18
  -2 -14  12    0.27    0.21
   2  14 -11    0.10    0.14
  -2 -14  11   -0.11    0.18
   2  14 -10    0.22    0.26
  -2 -14  10    0.48    0.19
   2  14  -9    0.12    0.17
  -2 -14   9    0.08    0.15
   2  14  -8    0.06    0.23
  -2 -14   8    0.50    0.20
   2  14  -7    0.43    0.27
  -2 -14   7    0.74    0.19
   2  14  -6    0.01    0.16
  -2 -14   6    0.37    0.18
   2  14  -5    0.56    0.21
  -2 -14   5    0.74    0.19
   2  14  -4    0.20    0.19
  -2 -14   4    0.23    0.18
   2  14  -3    1.72    0.32
  -2 -14   3    1.72    0.32
   2  14  -2    0.30    0.19
  -2 -14   2    0.25    0.15
   2  14  -1    0.02    0.17
   2  14  -1    0.18    0.15
  -2 -14   1    0.09    0.14
   2  14   0    1.04    0.25
   2  14   0    0.56    0.17
  -2 -14   0    0.60    0.19
   2  14   1    1.60    0.26
   2  14   1    2.01    0.39
  -2 -14  -1    2.33    0.30
   2  14   2    1.71    0.29
   2  14   2    2.56    0.43
  -2 -14  -2    2.18    0.31
   2  14   3    0.64    0.28
  -2 -14  -3    0.38    0.19
   2  14   4   -0.38    0.19
  -2 -14  -4    0.22    0.13
   2  14   5    0.16    0.24
  -2 -14  -5    0.12    0.15
   2  14   6    0.50    0.34
  -2 -14  -6    0.45    0.20
   2  14   7    3.26    0.65
  -2 -14  -7    2.54    0.39
   2  14   8    2.79    0.65
  -2 -14  -8    2.19    0.41
   2  14   9    2.54    0.72
  -2 -14  -9    2.61    0.51
   2  14  10    2.63    0.53
  -2 -14 -10    1.62    0.48
   2  15 -11    0.38    0.22
  -2 -15  11    0.18    0.24
   2  15 -10    0.20    0.23
  -2 -15  10    0.08    0.21
   2  15  -9    0.58    0.22
  -2 -15   9    0.25    0.26
   2  15  -8    0.50    0.23
   2  15  -7   -0.02    0.18
   2  15  -6    0.11    0.18
  -2 -15   6   -0.11    0.13
   2  15  -5    0.13    0.19
  -2 -15   5    0.08    0.17
   2  15  -4    0.29    0.21
  -2 -15   4    0.21    0.16
   2  15  -3    0.21    0.18
  -2 -15   3    0.03    0.17
   2  15  -2    0.31    0.19
  -2 -15   2    0.09    0.19
   2  15  -1    0.04    0.15
  -2 -15   1    0.04    0.13
   2  15   0    0.37    0.22
   2  15   0    0.08    0.19
  -2 -15   0    0.48    0.18
   2  15   1    1.71    0.43
  -2 -15  -1    2.03    0.33
   2  15   2   -0.01    0.20
  -2 -15  -2    0.06    0.17
   2  15   3    0.01    0.24
  -2 -15  -3    0.23    0.19
   2  15   4    0.49    0.35
  -2 -15  -4    0.79    0.29
   2  15   5   -0.16    0.19
  -2 -15  -5    0.11    0.15
   2  15   6    1.79    0.61
  -2 -15  -6    2.06    0.36
   2  15   7   -0.17    0.23
  -2 -15  -7   -0.01    0.16
   2  15   8    0.27    0.42
  -2 -15  -8    0.55    0.29
   2  16  -8   -0.08    0.18
   2  16  -7   -0.32    0.21
   2  16  -6    0.32    0.17
  -2 -16   6   -0.12    0.15
   2  16  -5    0.17    0.17
  -2 -16   5   -0.06    0.15
   2  16  -4   -0.12    0.16
  -2 -16   4    0.24    0.18
   2  16  -3    3.13    0.60
  -2 -16   3    4.64    0.50
   2  16  -2   -0.02    0.17
  -2 -16   2    0.05    0.17
   2  16  -1    0.25    0.21
  -2 -16   1    0.20    0.22
  -2 -16   0    1.11    0.27
  -2 -16  -1    0.41    0.25
  -2 -16  -2    0.53    0.27
   2  16   3    0.20    0.33
  -2 -16  -3    0.46    0.21
   2  16   4    0.54    0.33
  -2 -16  -4    0.20    0.25
  -3  17   2    1.17    0.48
   3 -17  -1    0.00    0.16
  -3  17   1   -0.08    0.24
   3 -17   0    0.92    0.24
  -3  17   0    0.84    0.38
  -3  17   0    0.35    0.26
   3 -17   1    0.79    0.23
  -3  17  -1    0.53    0.34
  -3  17  -1    0.43    0.26
   3 -17   2    0.28    0.18
  -3  17  -2    0.15    0.21
   3 -17   3    0.12    0.19
  -3  17  -3    0.50    0.24
   3 -17   4   -0.00    0.16
  -3  17  -4    0.14    0.19
   3 -17   5    0.18    0.15
  -3  17  -5   -0.09    0.16
   3 -16  -7    0.05    0.17
  -3  16   7   -0.23    0.24
   3 -16  -6    0.08    0.17
  -3  16   6   -0.07    0.28
   3 -16  -5    0.52    0.23
  -3  16   5    0.18    0.40
   3 -16  -4    0.31    0.21
  -3  16   4    0.36    0.30
   3 -16  -3    0.82    0.26
  -3  16   3    0.67    0.34
   3 -16  -2    3.97    0.48
  -3  16   2    2.60    0.42
  -3  16   2    4.88    0.72
   3 -16  -1    0.61    0.20
  -3  16   1    0.31    0.32
  -3  16   1    0.20    0.20
   3 -16   0    1.66    0.31
  -3  16   0    1.68    0.45
  -3  16   0    1.59    0.31
   3 -16   1    0.10    0.11
  -3  16  -1   -0.08    0.14
  -3  16  -1   -0.02    0.15
   3 -16   2    0.26    0.14
   3 -16   2   -0.06    0.16
  -3  16  -2    0.16    0.15
   3 -16   3   -0.16    0.16
   3 -16   3   -0.19    0.13
  -3  16  -3   -0.00    0.18
   3 -16   4   -0.01    0.14
  -3  16  -4   -0.07    0.13
   3 -16   5    1.66    0.30
  -3  16  -5    1.37    0.34
   3 -16   6    0.05    0.15
  -3  16  -6    0.14    0.18
   3 -16   7    0.28    0.14
  -3  16  -7   -0.15    0.17
   3 -16   8    1.35    0.30
  -3  16  -8    1.61    0.33
   3 -16   9   -0.00    0.18
  -3  16  -9    0.33    0.18
   3 -16  10    0.54    0.22
  -3  16 -10    0.23    0.22
   3 -15 -10    1.15    0.31
  -3  15  10    0.54    0.44
   3 -15  -9    0.70    0.23
  -3  15   9    0.57    0.47
   3 -15  -8    0.16    0.15
  -3  15   8    0.17    0.35
   3 -15  -7    1.58    0.29
  -3  15   7    2.07    0.50
   3 -15  -6    0.06    0.18
  -3  15   6    0.54    0.31
   3 -15  -5    0.11    0.14
  -3  15   5    0.22    0.23
   3 -15  -4    0.95    0.25
  -3  15   4    1.06    0.38
   3 -15  -3    2.38    0.33
  -3  15   3    1.66    0.31
  -3  15   3    1.85    0.51
   3 -15  -2    0.25    0.20
  -3  15   2    0.70    0.21
  -3  15   2    0.52    0.26
   3 -15  -1    2.57    0.28
   3 -15  -1    2.59    0.31
  -3  15   1    1.00    0.34
   3 -15   0    0.43    0.18
   3 -15   0    0.40    0.18
  -3  15   0    0.26    0.19
   3 -15   1    1.47    0.23
   3 -15   1    1.11    0.20
  -3  15  -1    0.93    0.28
   3 -15   2    1.48    0.25
   3 -15   2    1.12    0.21
  -3  15  -2    0.63    0.27
   3 -15   3    2.51    0.26
   3 -15   3    2.29    0.34
  -3  15  -3    2.34    0.40
   3 -15   4    1.01    0.19
   3 -15   4    1.13    0.19
  -3  15  -4    0.72    0.25
   3 -15   5    3.04    0.32
   3 -15   5    3.66    0.39
  -3  15  -5    2.73    0.38
   3 -15   6    2.32    0.35
  -3  15  -6    2.14    0.33
   3 -15   7    0.10    0.14
  -3  15  -7    0.07    0.14
   3 -15   8    0.12    0.13
  -3  15  -8   -0.02    0.14
   3 -15   9    0.18    0.17
  -3  15  -9    0.27    0.16
   3 -15  10    0.25    0.19
  -3  15 -10    0.30    0.21
   3 -15  11   -0.15    0.18
  -3  15 -11   -0.10    0.18
   3 -15  12    1.00    0.26
  -3  15 -12    0.36    0.27
   3 -15  13    0.25    0.23
  -3  15 -13    0.31    0.27
   3 -14 -12    0.30    0.24
  -3  14  12    0.62    0.44
   3 -14 -11    0.04    0.17
  -3  14  11    0.17    0.27
   3 -14 -10    0.21    0.19
  -3  14  10    0.21    0.35
   3 -14  -9    0.73    0.20
  -3  14   9    0.49    0.35
   3 -14  -8    0.74    0.20
  -3  14   8    0.29    0.39
   3 -14  -7    0.16    0.13
  -3  14   7    0.22    0.24
   3 -14  -6   -0.01    0.13
  -3  14   6    0.09    0.21
   3 -14  -5    0.25    0.17
  -3  14   5    1.11    0.30
  -3  14   5    0.22    0.15
   3 -14  -4    0.06    0.10
  -3  14   4    0.14    0.21
  -3  14   4   -0.04    0.12
   3 -14  -3    0.34    0.13
   3 -14  -3    0.04    0.15
  -3  14   3    0.08    0.15
   3 -14  -2    1.04    0.24
   3 -14  -2    0.96    0.18
  -3  14   2    1.19    0.23
   3 -14  -1    1.41    0.19
   3 -14  -1    1.17    0.21
  -3  14   1    0.69    0.20
   3 -14   0    0.93    0.21
   3 -14   0    0.88    0.19
  -3  14   0    0.21    0.20
   3 -14   1    0.50    0.15
   3 -14   1    0.55    0.14
  -3  14  -1    0.40    0.20
   3 -14   2    4.74    0.40
   3 -14   2    4.47    0.39
  -3  14  -2    2.51    0.47
   3 -14   3   10.76    0.69
   3 -14   3   10.38    0.65
  -3  14  -3    7.15    0.71
   3 -14   4    3.83    0.34
   3 -14   4    4.70    0.35
  -3  14  -4    2.44    0.41
   3 -14   5    5.46    0.40
   3 -14   5    5.53    0.46
  -3  14  -5    3.96    0.49
   3 -14   6    1.51    0.24
   3 -14   6    1.47    0.19
  -3  14  -6    0.94    0.32
  -3  14  -7    1.51    0.33
   3 -14   8    1.60    0.25
  -3  14  -8    0.98    0.25
   3 -14   9    1.13    0.24
  -3  14  -9    0.68    0.22
   3 -14  10    3.80    0.36
  -3  14 -10    0.76    0.28
   3 -14  11    1.05    0.27
  -3  14 -11    1.10    0.34
   3 -14  12    0.13    0.17
  -3  14 -12    0.13    0.22
   3 -14  13    0.48    0.23
  -3  14 -13    0.14    0.21
   3 -14  14    0.90    0.29
  -3  14 -14    0.45    0.32
   3 -14  15    0.81    0.31
  -3  14 -15    0.68    0.34
   3 -13 -14    0.08    0.23
  -3  13  14    0.69    0.39
   3 -13 -13   -0.01    0.17
  -3  13  13   -0.16    0.27
   3 -13 -12    0.47    0.23
  -3  13  12    0.21    0.40
   3 -13 -11    0.20    0.15
  -3  13  11    0.20    0.33
   3 -13 -10    2.33    0.32
  -3  13  10    2.33    0.53
   3 -13  -9    0.03    0.15
  -3  13   9   -0.38    0.22
   3 -13  -8    0.94    0.19
  -3  13   8    1.21    0.40
   3 -13  -7    0.02    0.10
  -3  13   7    0.07    0.18
   3 -13  -6    1.19    0.23
  -3  13   6    1.53    0.31
  -3  13   6    0.85    0.18
   3 -13  -5    0.20    0.10
  -3  13   5    0.38    0.18
  -3  13   5   -0.07    0.11
   3 -13  -4    0.07    0.11
   3 -13  -4   -0.06    0.09
  -3  13   4    0.07    0.10
   3 -13  -3    0.72    0.18
   3 -13  -3    0.66    0.18
  -3  13   3    0.59    0.17
   3 -13  -2   -0.09    0.09
   3 -13  -2   -0.16    0.12
  -3  13   2    0.07    0.09
   3 -13  -1    0.69    0.15
   3 -13  -1    0.70    0.14
  -3  13   1    0.66    0.19
   3 -13   0    0.83    0.18
   3 -13   0    0.56    0.14
  -3  13   0    0.64    0.16
   3 -13   1    0.60    0.15
   3 -13   1    1.01    0.18
  -3  13  -1    0.82    0.21
   3 -13   2    0.88    0.15
   3 -13   2    0.65    0.17
  -3  13  -2    0.59    0.20
   3 -13   3    0.18    0.12
   3 -13   3    0.07    0.11
  -3  13  -3    0.28    0.16
   3 -13   4    0.61    0.14
  -3  13  -4    0.64    0.22
   3 -13   5    5.72    0.44
   3 -13   5    5.58    0.38
  -3  13  -5    4.54    0.52
   3 -13   6    0.60    0.16
   3 -13   6    0.45    0.13
  -3  13  -6    0.39    0.21
   3 -13   7   -0.03    0.09
   3 -13   7    0.15    0.11
  -3  13  -7    0.13    0.15
   3 -13   8    0.62    0.13
   3 -13   8    0.69    0.19
  -3  13  -8    0.68    0.19
   3 -13   9    0.16    0.13
  -3  13  -9    0.00    0.13
   3 -13  10    1.03    0.23
  -3  13 -10    0.57    0.26
   3 -13  11   -0.17    0.15
  -3  13 -11    0.29    0.15
   3 -13  12    0.26    0.17
  -3  13 -12    0.39    0.17
   3 -13  13    0.42    0.17
  -3  13 -13   -0.08    0.22
   3 -13  14    1.36    0.27
  -3  13 -14    1.08    0.31
   3 -13  15    0.33    0.22
  -3  13 -15    0.07    0.21
   3 -13  16    0.50    0.20
  -3  13 -16    0.20    0.22
   3 -12 -15    0.18    0.21
  -3  12  15    0.46    0.39
   3 -12 -14    0.08    0.25
  -3  12  14    1.66    0.42
   3 -12 -13    2.33    0.36
  -3  12  13    3.61    0.58
   3 -12 -12    0.01    0.15
  -3  12  12   -0.19    0.22
   3 -12 -11    2.42    0.35
  -3  12  11    2.74    0.48
   3 -12 -10    0.43    0.19
  -3  12  10    0.17    0.35
   3 -12  -9    2.90    0.37
  -3  12   9    2.91    0.64
   3 -12  -8    0.70    0.19
  -3  12   8    0.41    0.25
   3 -12  -7    0.18    0.13
  -3  12   7    0.10    0.10
  -3  12   7    0.47    0.19
   3 -12  -6    0.99    0.17
  -3  12   6    0.49    0.14
  -3  12   6    0.17    0.16
   3 -12  -5    0.65    0.17
  -3  12   5    0.28    0.13
   3 -12  -4    0.29    0.16
   3 -12  -4    0.55    0.13
  -3  12   4    0.14    0.13
   3 -12  -3    0.20    0.10
   3 -12  -3    0.01    0.10
  -3  12   3    0.09    0.10
   3 -12  -2    3.81    0.31
   3 -12  -2    3.54    0.27
  -3  12   2    3.00    0.35
   3 -12  -1    0.38    0.12
   3 -12  -1    0.23    0.13
  -3  12   1    0.46    0.12
   3 -12   0    0.18    0.08
   3 -12   0   -0.13    0.09
  -3  12   0    0.01    0.11
   3 -12   1    0.13    0.12
   3 -12   1    0.43    0.10
  -3  12  -1    0.18    0.15
   3 -12   2    0.22    0.11
   3 -12   2    0.09    0.10
  -3  12  -2    0.15    0.13
   3 -12   3    0.56    0.14
   3 -12   3    0.62    0.14
  -3  12  -3    0.49    0.18
   3 -12   4    3.59    0.29
   3 -12   4    3.70    0.31
  -3  12  -4    3.47    0.40
   3 -12   5    5.81    0.37
   3 -12   5    5.17    0.39
  -3  12  -5    4.79    0.45
   3 -12   6    1.09    0.14
   3 -12   6    0.64    0.14
  -3  12  -6    0.86    0.20
   3 -12   7    0.91    0.14
   3 -12   7    1.09    0.20
  -3  12  -7    1.40    0.25
   3 -12   8    0.66    0.18
   3 -12   8    0.57    0.12
  -3  12  -8    1.07    0.19
   3 -12   9    0.88    0.14
   3 -12   9    1.32    0.19
  -3  12  -9    1.45    0.23
   3 -12  10   -0.00    0.13
  -3  12 -10   -0.12    0.14
   3 -12  11    0.77    0.20
  -3  12 -11    0.24    0.17
   3 -12  12    1.61    0.30
  -3  12 -12    1.29    0.30
   3 -12  13    2.42    0.38
  -3  12 -13    1.77    0.33
   3 -12  14    1.52    0.30
  -3  12 -14    0.80    0.27
   3 -12  15    1.47    0.27
  -3  12 -15    0.95    0.36
   3 -12  16    1.10    0.36
  -3  12 -16    1.17    0.29
   3 -12  17   -0.22    0.22
  -3  12 -17   -0.01    0.21
   3 -12  18   -0.02    0.21
  -3  12 -18    0.14    0.21
   3 -11 -17    0.02    0.17
  -3  11  17    0.44    0.28
   3 -11 -16    1.29    0.31
  -3  11  16    1.15    0.57
   3 -11 -15   -0.13    0.16
  -3  11  15    0.20    0.28
   3 -11 -14    0.03    0.17
  -3  11  14    0.51    0.32
   3 -11 -13    0.08    0.14
  -3  11  13    0.48    0.25
   3 -11 -12    0.68    0.20
  -3  11  12    0.15    0.29
  -3  11  11    0.21    0.23
   3 -11 -10   -0.05    0.12
  -3  11  10    0.33    0.19
   3 -11  -9    0.78    0.21
  -3  11   9    1.13    0.28
   3 -11  -8    1.86    0.25
  -3  11   8    1.60    0.32
   3 -11  -7    0.61    0.12
  -3  11   7    0.18    0.15
   3 -11  -6    8.69    0.55
   3 -11  -6    8.75    0.57
  -3  11   6    6.08    0.48
   3 -11  -5    1.93    0.21
   3 -11  -5    2.04    0.26
  -3  11   5    1.42    0.21
   3 -11  -4    4.79    0.37
   3 -11  -4    5.34    0.42
  -3  11   4    4.53    0.37
   3 -11  -3    1.43    0.19
   3 -11  -3    1.57    0.17
  -3  11   3    1.34    0.21
   3 -11  -2    1.03    0.15
   3 -11  -2    1.06    0.15
  -3  11   2    0.72    0.18
   3 -11  -1    0.19    0.11
   3 -11  -1    0.01    0.11
  -3  11   1    0.71    0.14
   3 -11   0   42.42    1.97
   3 -11   0   40.36    1.89
  -3  11   0   35.93    2.07
   3 -11   1    4.01    0.33
   3 -11   1    4.04    0.30
  -3  11  -1    3.09    0.37
   3 -11   2    0.31    0.11
   3 -11   2    0.20    0.10
  -3  11  -2    0.81    0.17
   3 -11   3   36.75    1.74
   3 -11   3   33.74    1.66
  -3  11  -3   34.52    2.08
   3 -11   4   32.13    1.46
   3 -11   4   29.73    1.43
  -3  11  -4   28.71    1.68
   3 -11   5   18.58    0.86
   3 -11   5   17.60    0.94
  -3  11  -5   17.33    1.16
   3 -11   6   -0.08    0.08
   3 -11   6   -0.16    0.08
  -3  11  -6    0.18    0.11
   3 -11   7    2.18    0.21
   3 -11   7    2.43    0.26
  -3  11  -7    2.46    0.30
   3 -11   8    0.06    0.11
   3 -11   8    0.03    0.08
  -3  11  -8    0.01    0.10
   3 -11   9    3.53    0.25
   3 -11   9    3.98    0.37
  -3  11  -9    3.54    0.42
   3 -11  10    6.07    0.49
   3 -11  10    5.01    0.31
  -3  11 -10    4.41    0.46
   3 -11  11    0.12    0.12
  -3  11 -11    0.32    0.17
   3 -11  12    0.03    0.14
  -3  11 -12    0.09    0.11
   3 -11  13    1.79    0.29
  -3  11 -13    0.90    0.24
   3 -11  14    0.69    0.26
  -3  11 -14    0.70    0.27
   3 -11  15    2.50    0.42
  -3  11 -15    1.57    0.38
   3 -11  16    1.52    0.29
  -3  11 -16    0.96    0.25
   3 -11  17    0.04    0.15
  -3  11 -17    0.05    0.16
   3 -11  18    0.70    0.23
  -3  11 -18    0.21    0.21
   3 -11  19    1.99    0.45
  -3  11 -19    1.34    0.42
   3 -10 -18   -0.02    0.16
  -3  10  18    0.05    0.27
   3 -10 -17   -0.18    0.20
  -3  10  17   -0.19    0.35
   3 -10 -16   -0.09    0.13
  -3  10  16   -0.21    0.31
   3 -10 -15    3.21    0.45
  -3  10  15    3.95    0.65
   3 -10 -14    0.47    0.21
  -3  10  14    0.43    0.29
   3 -10 -13   -0.12    0.13
  -3  10  13    0.16    0.20
   3 -10 -12    0.23    0.13
  -3  10  12    0.03    0.23
   3 -10 -11    0.53    0.14
  -3  10  11    0.36    0.25
   3 -10 -10    1.18    0.25
  -3  10  10    2.13    0.34
   3 -10  -9    0.58    0.14
  -3  10   9    1.13    0.30
   3 -10  -8    0.34    0.13
  -3  10   8    0.29    0.18
  -3  10   8    0.19    0.09
   3 -10  -7    1.93    0.19
   3 -10  -7    1.79    0.17
  -3  10   7    0.97    0.18
   3 -10  -6    0.20    0.10
   3 -10  -6   -0.09    0.09
  -3  10   6    0.03    0.07
   3 -10  -5    4.72    0.33
   3 -10  -5    5.28    0.36
  -3  10   5    4.76    0.33
   3 -10  -4    0.13    0.09
   3 -10  -4    0.28    0.10
  -3  10   4    0.19    0.08
   3 -10  -3    0.51    0.13
   3 -10  -3    0.29    0.11
  -3  10   3    0.30    0.09
   3 -10  -2    0.83    0.13
   3 -10  -2    0.75    0.12
  -3  10   2    0.93    0.12
   3 -10  -1    2.20    0.23
   3 -10  -1    2.16    0.20
  -3  10   1    2.28    0.23
   3 -10   0    0.41    0.11
   3 -10   0    0.52    0.10
  -3  10   0    0.45    0.13
   3 -10   1    1.11    0.15
   3 -10   1    0.85    0.12
  -3  10  -1    0.66    0.14
   3 -10   2   18.35    0.87
   3 -10   2   17.65    0.80
  -3  10  -2   18.44    1.04
   3 -10   3    1.16    0.14
   3 -10   3    1.31    0.13
  -3  10  -3    1.15    0.17
   3 -10   4   14.37    0.70
   3 -10   4   15.18    0.70
  -3  10  -4   14.56    0.88
   3 -10   5    0.44    0.11
   3 -10   5    0.61    0.10
  -3  10  -5    0.47    0.13
   3 -10   6    1.15    0.16
  -3  10  -6    1.07    0.20
   3 -10   7    1.08    0.13
   3 -10   7    1.00    0.16
  -3  10  -7    0.97    0.18
   3 -10   8    1.98    0.18
   3 -10   8    3.09    0.27
  -3  10  -8    2.56    0.29
   3 -10   9   11.28    0.55
   3 -10   9   13.97    0.80
  -3  10  -9   11.55    0.85
   3 -10  10    1.78    0.17
   3 -10  10    2.83    0.27
  -3  10 -10    1.27    0.30
   3 -10  11    0.99    0.13
   3 -10  11    1.44    0.24
  -3  10 -11    1.61    0.21
   3 -10  12    1.26    0.14
   3 -10  12    2.45    0.29
  -3  10 -12    1.34    0.23
   3 -10  13    0.93    0.23
  -3  10 -13    0.58    0.19
   3 -10  14    4.50    0.48
  -3  10 -14    3.38    0.47
   3 -10  15    2.32    0.37
  -3  10 -15    1.67    0.38
   3 -10  16    2.66    0.42
  -3  10 -16    2.09    0.42
   3 -10  17    2.30    0.46
  -3  10 -17    2.30    0.43
   3 -10  18   -0.12    0.18
  -3  10 -18    0.07    0.17
   3 -10  19    0.44    0.22
  -3  10 -19    0.17    0.23
   3 -10  20    0.65    0.32
  -3  10 -20    0.37    0.31
   3  -9 -19   -0.06    0.15
  -3   9  19   -0.52    0.35
   3  -9 -18    4.25    0.54
  -3   9  18    6.25    0.99
   3  -9 -17    1.61    0.31
  -3   9  17    2.67    0.62
   3  -9 -16    0.04    0.18
  -3   9  16    1.05    0.33
   3  -9 -15    0.07    0.14
  -3   9  15    0.15    0.22
   3  -9 -14    0.53    0.17
  -3   9  14    0.75    0.28
   3  -9 -13    0.86    0.22
  -3   9  13    1.07    0.32
   3  -9 -12    1.78    0.27
  -3   9  12    1.78    0.39
   3  -9 -11    0.48    0.13
  -3   9  11    0.12    0.22
   3  -9 -10    0.63    0.15
  -3   9  10    0.77    0.28
   3  -9  -9    0.22    0.08
  -3   9   9   -0.22    0.17
  -3   9   9    0.06    0.07
   3  -9  -8    1.32    0.19
   3  -9  -8    1.31    0.17
  -3   9   8    0.67    0.12
   3  -9  -7    0.80    0.14
   3  -9  -7    0.99    0.14
  -3   9   7    0.44    0.11
   3  -9  -6    0.85    0.15
   3  -9  -6    0.58    0.11
  -3   9   6    0.42    0.10
   3  -9  -5    0.76    0.12
   3  -9  -5    0.63    0.12
  -3   9   5    0.71    0.11
   3  -9  -4    1.36    0.14
   3  -9  -4    1.45    0.19
  -3   9   4    1.08    0.14
   3  -9  -3    1.51    0.15
   3  -9  -3    1.59    0.15
  -3   9   3    1.61    0.16
   3  -9  -2    0.15    0.08
   3  -9  -2    0.17    0.07
  -3   9   2    0.29    0.09
   3  -9  -1    0.30    0.08
   3  -9  -1    0.34    0.09
  -3   9   1    0.49    0.09
   3  -9   0    2.39    0.20
   3  -9   0    2.34    0.17
  -3   9   0    1.91    0.21
   3  -9   1    2.36    0.19
   3  -9   1    2.21    0.17
  -3   9  -1    2.47    0.20
   3  -9   2    0.47    0.10
   3  -9   2    0.54    0.10
  -3   9  -2    0.63    0.11
   3  -9   3    0.11    0.07
   3  -9   3    0.23    0.07
  -3   9  -3    0.20    0.11
   3  -9   4   -0.04    0.07
   3  -9   4    0.12    0.06
  -3   9  -4    0.07    0.09
   3  -9   5    0.33    0.09
   3  -9   5    0.31    0.09
  -3   9  -5    0.28    0.12
   3  -9   6   -0.00    0.07
   3  -9   6   -0.01    0.06
  -3   9  -6    0.14    0.08
   3  -9   7    1.15    0.12
   3  -9   7    1.08    0.13
  -3   9  -7    1.13    0.16
   3  -9   8    0.58    0.14
   3  -9   8    0.71    0.10
  -3   9  -8    0.78    0.15
   3  -9   9   -0.15    0.10
   3  -9   9   -0.07    0.07
  -3   9  -9    0.11    0.09
   3  -9  10    0.09    0.08
  -3   9 -10    0.13    0.10
   3  -9  11    0.32    0.09
   3  -9  11    0.62    0.15
  -3   9 -11    0.17    0.12
   3  -9  12    0.22    0.11
   3  -9  12    0.09    0.07
  -3   9 -12    0.32    0.12
   3  -9  13    0.35    0.15
   3  -9  13    0.32    0.09
  -3   9 -13    0.47    0.14
   3  -9  14    1.53    0.28
  -3   9 -14    1.16    0.22
   3  -9  15    0.09    0.17
  -3   9 -15    0.24    0.14
   3  -9  16    1.30    0.31
  -3   9 -16    1.17    0.24
   3  -9  17    0.25    0.20
  -3   9 -17    0.09    0.14
   3  -9  18    0.30    0.19
  -3   9 -18    0.17    0.18
   3  -9  19    1.08    0.30
  -3   9 -19    0.19    0.27
   3  -9  20    0.02    0.15
  -3   9 -20   -0.01    0.17
   3  -9  21   -0.12    0.20
  -3   9 -21   -0.11    0.23
   3  -8 -20   -0.25    0.22
  -3   8  20   -0.21    0.37
   3  -8 -19    0.07    0.18
  -3   8  19    0.09    0.30
   3  -8 -18    0.83    0.24
  -3   8  18    1.03    0.44
   3  -8 -17   -0.15    0.13
  -3   8  17   -0.04    0.23
   3  -8 -16    0.89    0.23
  -3   8  16    0.77    0.34
   3  -8 -15    0.07    0.15
  -3   8  15    0.28    0.21
   3  -8 -14    0.17    0.11
  -3   8  14   -0.02    0.23
   3  -8 -13    0.79    0.20
  -3   8  13    1.22    0.36
   3  -8 -12    1.77    0.21
  -3   8  12    1.88    0.35
   3  -8 -11    2.26    0.27
  -3   8  11    2.50    0.37
   3  -8 -10    0.56    0.13
  -3   8  10    0.86    0.22
  -3   8  10    0.24    0.07
   3  -8  -9    9.49    0.50
  -3   8   9    6.63    0.33
   3  -8  -8    1.45    0.15
   3  -8  -8    1.47    0.16
  -3   8   8    1.02    0.12
   3  -8  -7    0.37    0.13
   3  -8  -7    0.46    0.10
  -3   8   7    0.27    0.08
   3  -8  -6    7.14    0.37
   3  -8  -6    6.60    0.32
  -3   8   6    5.87    0.32
   3  -8  -5    1.04    0.12
   3  -8  -5    0.95    0.13
  -3   8   5    0.91    0.12
   3  -8  -4    2.47    0.18
   3  -8  -4    2.19    0.17
  -3   8   4    2.44    0.18
   3  -8  -3    0.50    0.08
   3  -8  -3    0.48    0.09
  -3   8   3    0.49    0.10
   3  -8  -2    0.02    0.05
   3  -8  -2    0.07    0.07
  -3   8   2    0.05    0.07
   3  -8  -1    1.20    0.10
   3  -8  -1    1.00    0.15
  -3   8   1    1.20    0.12
   3  -8   0    4.13    0.20
   3  -8   0    3.59    0.21
  -3   8   0    3.75    0.24
   3  -8   1    6.53    0.36
   3  -8   1    6.23    0.28
  -3   8  -1    6.25    0.33
   3  -8   2    6.72    0.34
   3  -8   2    6.88    0.31
  -3   8  -2    6.77    0.37
   3  -8   3    1.14    0.13
   3  -8   3    1.24    0.12
  -3   8  -3    1.08    0.17
   3  -8   4   11.11    0.49
   3  -8   4   12.26    0.52
  -3   8  -4   11.99    0.66
   3  -8   5    3.54    0.23
   3  -8   5    3.78    0.21
  -3   8  -5    3.70    0.32
   3  -8   6    0.66    0.12
   3  -8   6    0.85    0.10
  -3   8  -6    0.97    0.13
   3  -8   7    4.98    0.29
   3  -8   7    5.27    0.28
  -3   8  -7    4.50    0.35
   3  -8   8    1.99    0.16
   3  -8   8    1.17    0.12
  -3   8  -8    1.46    0.18
   3  -8   9    3.66    0.30
   3  -8   9    3.45    0.21
  -3   8  -9    3.36    0.33
   3  -8  10    5.38    0.31
   3  -8  10    6.10    0.43
  -3   8 -10    5.63    0.44
   3  -8  11    0.38    0.09
   3  -8  11    0.16    0.15
  -3   8 -11    0.36    0.15
   3  -8  12    0.34    0.09
   3  -8  12    0.25    0.15
  -3   8 -12    0.11    0.12
   3  -8  13    2.59    0.22
   3  -8  13    3.82    0.37
  -3   8 -13    2.92    0.30
   3  -8  14    1.14    0.16
   3  -8  14    1.93    0.28
  -3   8 -14    1.70    0.22
   3  -8  15    0.02    0.09
   3  -8  15    0.26    0.13
  -3   8 -15    0.29    0.15
   3  -8  16    0.79    0.22
  -3   8 -16    0.26    0.20
   3  -8  17    0.48    0.21
  -3   8 -17    0.16    0.16
   3  -8  18    0.22    0.22
  -3   8 -18    0.72    0.19
   3  -8  19   -0.12    0.13
  -3   8 -19    0.14    0.14
   3  -8  20   -0.01    0.18
  -3   8 -20   -0.01    0.17
   3  -8  21    1.14    0.32
  -3   8 -21    0.16    0.30
   3  -7 -20   -0.19    0.20
  -3   7  20   -0.16    0.33
   3  -7 -19    1.11    0.31
  -3   7  19    1.05    0.48
   3  -7 -18    0.10    0.14
  -3   7  18   -0.02    0.27
   3  -7 -17    0.10    0.13
  -3   7  17    0.32    0.22
   3  -7 -16    1.07    0.21
  -3   7  16    1.61    0.36
   3  -7 -15    0.09    0.12
  -3   7  15    0.34    0.20
   3  -7 -14    0.19    0.14
  -3   7  14    0.30    0.25
   3  -7 -13    0.75    0.17
  -3   7  13    0.88    0.26
   3  -7 -12    3.01    0.28
  -3   7  12    3.58    0.45
   3  -7 -11    2.37    0.25
  -3   7  11    1.98    0.15
  -3   7  11    2.93    0.34
   3  -7 -10    0.14    0.10
  -3   7  10    0.43    0.16
  -3   7  10    0.06    0.05
   3  -7  -9    1.32    0.15
   3  -7  -9    0.69    0.17
  -3   7   9    0.93    0.10
   3  -7  -8    6.31    0.33
   3  -7  -8    6.16    0.35
  -3   7   8    5.53    0.27
   3  -7  -7    0.21    0.07
   3  -7  -7   -0.06    0.08
  -3   7   7    0.08    0.05
   3  -7  -6    0.05    0.06
   3  -7  -6    0.02    0.06
  -3   7   6   -0.00    0.05
   3  -7  -5    1.36    0.12
   3  -7  -5    1.66    0.14
  -3   7   5    1.19    0.10
   3  -7  -4    3.11    0.17
   3  -7  -4    3.24    0.23
  -3   7   4    2.93    0.17
   3  -7  -3    7.55    0.32
   3  -7  -3    8.07    0.38
  -3   7   3    8.22    0.35
   3  -7  -2    0.46    0.09
   3  -7  -2    0.24    0.06
  -3   7   2    0.33    0.08
   3  -7  -1    4.92    0.26
   3  -7  -1    4.18    0.19
  -3   7   1    4.54    0.26
   3  -7   0    6.85    0.27
   3  -7   0    7.82    0.36
  -3   7   0    7.02    0.37
   3  -7   1    1.38    0.12
   3  -7   1    1.21    0.09
  -3   7  -1    0.97    0.11
   3  -7   2    5.54    0.23
   3  -7   2    5.95    0.30
  -3   7  -2    5.84    0.33
   3  -7   3   34.67    1.24
   3  -7   3   32.98    1.12
  -3   7  -3   32.21    1.35
   3  -7   4    3.51    0.19
   3  -7   4    4.33    0.21
  -3   7  -4    4.24    0.30
   3  -7   5    8.93    0.40
   3  -7   5    8.32    0.37
  -3   7  -5    8.19    0.44
   3  -7   6    3.05    0.18
   3  -7   6    3.59    0.22
  -3   7  -6    3.64    0.28
   3  -7   7    1.18    0.13
   3  -7   7    1.59    0.12
  -3   7  -7    1.61    0.16
   3  -7   8    7.39    0.39
   3  -7   8    6.26    0.32
  -3   7  -8    7.86    0.47
   3  -7   9    6.34    0.33
   3  -7   9    7.85    0.44
  -3   7  -9    6.82    0.42
   3  -7  10    0.91    0.14
   3  -7  10    1.06    0.14
  -3   7 -10    1.07    0.15
   3  -7  11    0.09    0.06
   3  -7  11    0.02    0.09
  -3   7 -11   -0.13    0.10
   3  -7  12    0.23    0.09
   3  -7  12    0.40    0.11
  -3   7 -12    0.06    0.11
   3  -7  13    3.90    0.28
   3  -7  13    4.67    0.42
  -3   7 -13    4.58    0.39
   3  -7  14    6.50    0.53
   3  -7  14    4.47    0.36
  -3   7 -14    5.12    0.41
   3  -7  15    2.61    0.26
   3  -7  15    4.06    0.42
  -3   7 -15    2.86    0.34
   3  -7  16    1.49    0.24
   3  -7  16    2.38    0.30
  -3   7 -16    2.28    0.33
   3  -7  17    0.03    0.17
  -3   7 -17    0.10    0.12
   3  -7  18    0.93    0.28
  -3   7 -18    0.43    0.23
   3  -7  19    5.18    0.60
  -3   7 -19    4.32    0.59
   3  -7  20    2.70    0.49
  -3   7 -20    2.96    0.41
   3  -7  21    1.19    0.39
  -3   7 -21    0.63    0.30
   3  -7  22   -0.09    0.27
  -3   7 -22   -0.19    0.22
   3  -6 -21    0.30    0.24
  -3   6  21    0.58    0.39
   3  -6 -20    7.08    0.70
  -3   6  20    8.25    1.15
   3  -6 -19    5.25    0.56
  -3   6  19    5.54    0.78
   3  -6 -18    2.21    0.38
  -3   6  18    2.51    0.49
   3  -6 -17    7.83    0.71
  -3   6  17    8.65    1.04
   3  -6 -16    0.01    0.13
  -3   6  16   -0.13    0.17
   3  -6 -15    1.62    0.24
  -3   6  15    1.08    0.34
   3  -6 -14    0.85    0.20
  -3   6  14    1.20    0.34
   3  -6 -13   -0.19    0.12
   3  -6 -12   -0.03    0.07
  -3   6  12    0.21    0.15
  -3   6  12    0.00    0.05
   3  -6 -11    9.93    0.58
  -3   6  11   11.71    0.79
  -3   6  11    9.41    0.40
   3  -6 -10    0.43    0.10
  -3   6  10    0.85    0.17
   3  -6  -9    0.43    0.11
   3  -6  -9    0.62    0.10
   3  -6  -8    1.61    0.14
   3  -6  -8    2.04    0.19
   3  -6  -7    1.76    0.16
   3  -6  -7    1.48    0.14
  -3   6   7    1.20    0.11
   3  -6  -6    0.14    0.06
   3  -6  -6    0.11    0.07
  -3   6   6    0.13    0.05
   3  -6  -5    0.15    0.05
   3  -6  -5    0.23    0.08
  -3   6   5    0.11    0.06
   3  -6  -4    0.50    0.06
   3  -6  -4    0.45    0.08
  -3   6   4    0.40    0.07
   3  -6  -3    4.17    0.21
   3  -6  -3    3.63    0.16
  -3   6   3    3.67    0.19
   3  -6  -2    0.64    0.07
   3  -6  -2    0.68    0.08
  -3   6   2    0.91    0.09
   3  -6  -1    1.25    0.12
   3  -6  -1    1.02    0.07
  -3   6   1    1.32    0.11
   3  -6   0    3.52    0.19
   3  -6   0    3.39    0.13
  -3   6   0    3.06    0.18
   3  -6   1    8.13    0.32
   3  -6   1    7.86    0.26
  -3   6  -1    7.65    0.34
   3  -6   2    0.81    0.09
   3  -6   2    0.79    0.07
  -3   6  -2    1.00    0.10
   3  -6   3    0.36    0.06
   3  -6   3    0.53    0.07
  -3   6  -3    0.44    0.09
   3  -6   4    5.14    0.23
   3  -6   4    4.33    0.20
  -3   6  -4    5.73    0.27
   3  -6   5    1.30    0.11
   3  -6   5    1.23    0.11
  -3   6  -5    1.02    0.12
   3  -6   6    0.38    0.08
   3  -6   6    0.35    0.08
  -3   6  -6    0.22    0.08
   3  -6   7    3.94    0.22
   3  -6   7    3.93    0.22
  -3   6  -7    4.18    0.26
   3  -6   8    0.45    0.08
   3  -6   8    0.31    0.10
  -3   6  -8    0.26    0.11
   3  -6   9   15.21    0.68
   3  -6   9   17.39    0.78
  -3   6  -9   19.44    0.92
   3  -6  10    2.63    0.20
   3  -6  10    3.12    0.25
  -3   6 -10    3.02    0.23
   3  -6  11    0.02    0.07
   3  -6  11    0.05    0.10
  -3   6 -11    0.13    0.08
   3  -6  12    7.09    0.44
   3  -6  12    9.33    0.61
  -3   6 -12    8.45    0.55
   3  -6  13    3.71    0.29
   3  -6  13    4.86    0.45
  -3   6 -13    4.50    0.34
   3  -6  14   10.30    0.76
   3  -6  14    8.99    0.56
  -3   6 -14    8.84    0.67
   3  -6  15    4.05    0.35
   3  -6  15    5.01    0.46
  -3   6 -15    5.45    0.49
   3  -6  16    1.03    0.17
   3  -6  16    1.49    0.29
  -3   6 -16    0.97    0.24
   3  -6  17    0.19    0.19
   3  -6  17    0.25    0.12
  -3   6 -17    0.19    0.17
   3  -6  18    1.85    0.39
   3  -6  18    1.65    0.24
  -3   6 -18    1.62    0.32
   3  -6  19    0.14    0.21
  -3   6 -19    0.04    0.16
   3  -6  20    6.53    0.70
  -3   6 -20    4.21    0.62
   3  -6  21    4.90    0.58
  -3   6 -21    2.77    0.53
   3  -6  22    0.09    0.22
  -3   6 -22    0.01    0.14
   3  -5 -22   -0.00    0.20
  -3   5  22    0.18    0.26
   3  -5 -21    0.84    0.23
  -3   5  21    0.12    0.40
   3  -5 -20    2.14    0.33
  -3   5  20    1.93    0.45
   3  -5 -19    0.89    0.27
  -3   5  19    1.16    0.35
   3  -5 -18    1.03    0.23
  -3   5  18    1.34    0.41
   3  -5 -17   -0.22    0.15
  -3   5  17    0.05    0.18
   3  -5 -16    0.10    0.13
  -3   5  16   -0.09    0.20
   3  -5 -15    1.20    0.19
  -3   5  15    1.14    0.33
   3  -5 -14    1.22    0.18
  -3   5  14    1.85    0.29
   3  -5 -13    0.28    0.10
  -3   5  13    0.36    0.16
  -3   5  13    0.21    0.07
   3  -5 -12   15.66    0.82
  -3   5  12   18.32    1.28
  -3   5  12   15.84    0.64
   3  -5 -11    1.02    0.17
  -3   5  11    1.14    0.12
  -3   5  11    1.63    0.26
   3  -5 -10    4.50    0.30
  -3   5  10    5.34    0.41
  -3   5  10    4.68    0.22
   3  -5  -9    0.68    0.10
   3  -5  -9    0.70    0.09
  -3   5   9    0.57    0.08
   3  -5  -8    7.19    0.36
   3  -5  -8    7.20    0.32
  -3   5   8    7.15    0.29
   3  -5  -7    2.96    0.18
   3  -5  -7    3.21    0.19
  -3   5   7    2.70    0.15
   3  -5  -6    3.10    0.17
   3  -5  -6    3.53    0.22
  -3   5   6    3.17    0.17
   3  -5  -5    4.85    0.21
   3  -5  -5    5.17    0.27
  -3   5   5    4.61    0.21
   3  -5  -4    9.83    0.40
   3  -5  -4    9.04    0.31
  -3   5   4    9.56    0.35
   3  -5  -3  116.87    3.24
   3  -5  -3  119.50    4.10
  -3   5   3  115.16    3.91
   3  -5  -2    8.13    0.31
   3  -5  -2    7.22    0.21
  -3   5   2    6.72    0.30
   3  -5  -1   22.79    0.78
   3  -5  -1   20.86    0.49
  -3   5   1   22.31    0.76
   3  -5   0    5.27    0.21
  -3   5   0    4.70    0.23
   3  -5   1   12.90    0.46
   3  -5   1   12.38    0.32
  -3   5  -1   13.07    0.51
   3  -5   2    2.28    0.14
   3  -5   2    1.62    0.08
  -3   5  -2    1.57    0.12
   3  -5   3   15.10    0.50
   3  -5   3   15.97    0.45
  -3   5  -3   18.19    0.65
   3  -5   4   11.51    0.38
   3  -5   4   13.23    0.47
  -3   5  -4   12.67    0.54
   3  -5   5    2.20    0.13
   3  -5   5    1.70    0.12
  -3   5  -5    2.05    0.15
   3  -5   6   -0.07    0.05
   3  -5   6   -0.01    0.05
  -3   5  -6   -0.02    0.06
   3  -5   7   10.80    0.45
   3  -5   7   10.65    0.47
  -3   5  -7   10.96    0.49
   3  -5   8    3.55    0.23
  -3   5  -8    2.50    0.20
   3  -5   9    4.35    0.25
   3  -5   9    4.05    0.30
  -3   5  -9    3.99    0.25
   3  -5  10    0.05    0.07
   3  -5  10    0.03    0.07
  -3   5 -10    0.15    0.07
   3  -5  11    2.73    0.27
   3  -5  11    2.16    0.19
  -3   5 -11    2.44    0.20
   3  -5  12    2.91    0.23
   3  -5  12    2.75    0.27
  -3   5 -12    3.09    0.24
   3  -5  13    0.12    0.08
   3  -5  13    0.18    0.08
  -3   5 -13    0.10    0.09
   3  -5  14    0.54    0.12
  -3   5 -14    0.40    0.12
  -3   5 -14    0.37    0.14
   3  -5  15    1.15    0.20
  -3   5 -15    1.85    0.23
  -3   5 -15    1.61    0.25
   3  -5  16    0.18    0.10
  -3   5 -16    0.02    0.13
  -3   5 -16    0.14    0.13
   3  -5  17    0.65    0.16
  -3   5 -17    0.49    0.15
  -3   5 -17    0.73    0.16
   3  -5  18    0.64    0.19
  -3   5 -18    0.79    0.22
  -3   5 -18    1.02    0.20
   3  -5  19    0.45    0.18
   3  -5  19    1.05    0.19
  -3   5 -19    0.88    0.22
   3  -5  20    1.04    0.29
  -3   5 -20    0.78    0.24
   3  -5  21    1.08    0.31
  -3   5 -21    0.72    0.27
   3  -5  22   -0.06    0.24
  -3   5 -22    0.18    0.17
   3  -5  23    0.19    0.23
   3  -4 -22    2.12    0.38
  -3   4  22    2.53    0.48
   3  -4 -21    0.80    0.31
  -3   4  21    1.02    0.41
   3  -4 -20    2.59    0.40
  -3   4  20    4.06    0.65
   3  -4 -19    2.12    0.36
  -3   4  19    2.57    0.44
   3  -4 -18    2.10    0.29
  -3   4  18    2.47    0.50
   3  -4 -17    0.17    0.16
  -3   4  17    0.22    0.23
   3  -4 -16    2.80    0.33
  -3   4  16    3.84    0.53
   3  -4 -15    1.30    0.13
   3  -4 -15    1.17    0.24
  -3   4  15    1.70    0.27
   3  -4 -14    0.68    0.16
   3  -4 -14    0.41    0.09
  -3   4  14    0.74    0.23
   3  -4 -13    3.96    0.30
   3  -4 -13    4.01    0.22
  -3   4  13    4.53    0.49
   3  -4 -12    1.50    0.16
   3  -4 -12    1.43    0.12
  -3   4  12    1.46    0.23
   3  -4 -11    0.63    0.13
  -3   4  11    0.41    0.14
   3  -4 -10   11.74    0.55
  -3   4  10   11.15    0.43
  -3   4  10   11.40    0.67
   3  -4  -9    0.30    0.07
   3  -4  -9    0.13    0.08
  -3   4   9    0.23    0.06
   3  -4  -8    0.58    0.08
   3  -4  -8    0.43    0.07
  -3   4   8    0.42    0.07
   3  -4  -7    0.30    0.06
   3  -4  -7    0.17    0.07
  -3   4   7    0.11    0.05
   3  -4  -6    1.52    0.11
   3  -4  -6    1.65    0.12
  -3   4   6    1.71    0.11
   3  -4  -5   15.24    0.48
   3  -4  -5   14.39    0.51
  -3   4   5   14.09    0.48
   3  -4  -4    4.32    0.19
  -3   4   4    4.02    0.17
   3  -4  -3   32.38    0.79
   3  -4  -3   33.14    1.05
  -3   4   3   32.59    1.03
   3  -4  -2    0.14    0.03
   3  -4  -2    0.07    0.05
  -3   4   2    0.09    0.05
   3  -4  -1   19.85    0.62
   3  -4  -1   18.76    0.40
  -3   4   1   21.47    0.65
   3  -4   0   27.51    0.83
   3  -4   0   24.05    0.47
  -3   4   0   27.96    0.88
   3  -4   1    1.79    0.06
   3  -4   1    1.89    0.10
  -3   4  -1    1.87    0.11
   3  -4   2   18.54    0.59
  -3   4  -2   21.01    0.69
   3  -4   3    0.91    0.08
   3  -4   3    0.65    0.05
  -3   4  -3    0.92    0.08
   3  -4   4    2.68    0.14
   3  -4   4    2.41    0.11
  -3   4  -4    2.42    0.16
   3  -4   5    3.88    0.17
   3  -4   5    4.51    0.19
  -3   4  -5    4.27    0.23
   3  -4   6    1.53    0.10
   3  -4   6    1.52    0.13
  -3   4  -6    1.71    0.13
   3  -4   7   19.21    0.70
  -3   4  -7   16.48    0.57
  -3   4  -7   19.18    0.75
   3  -4   8    4.83    0.25
  -3   4  -8    4.88    0.24
  -3   4  -8    4.66    0.28
   3  -4   9    6.01    0.30
  -3   4  -9    5.29    0.27
  -3   4  -9    6.02    0.30
   3  -4  10    0.11    0.06
  -3   4 -10   -0.06    0.06
  -3   4 -10   -0.04    0.05
   3  -4  11    1.69    0.16
  -3   4 -11    1.98    0.16
  -3   4 -11    1.81    0.18
   3  -4  12    0.74    0.10
  -3   4 -12    0.74    0.11
  -3   4 -12    0.70    0.12
   3  -4  13    6.21    0.39
  -3   4 -13    6.64    0.43
  -3   4 -13    6.46    0.41
   3  -4  14    0.41    0.12
  -3   4 -14    0.55    0.12
  -3   4 -14    0.45    0.13
   3  -4  15    0.22    0.11
  -3   4 -15    0.37    0.13
  -3   4 -15    0.31    0.11
   3  -4  16    0.84    0.17
  -3   4 -16    1.06    0.19
  -3   4 -16    0.70    0.17
   3  -4  17    1.52    0.23
  -3   4 -17    1.57    0.24
  -3   4 -17    2.01    0.22
   3  -4  18   -0.12    0.11
  -3   4 -18   -0.05    0.14
  -3   4 -18    0.02    0.11
   3  -4  19    0.54    0.18
  -3   4 -19    0.93    0.19
  -3   4 -19    0.55    0.19
   3  -4  20    1.06    0.22
  -3   4 -20    0.67    0.24
  -3   4 -20    1.60    0.28
  -3   4 -21    0.36    0.20
  -3   4 -21    0.13    0.16
  -3   4 -22    0.05    0.14
  -3   4 -23   -0.05    0.15
   3  -3 -22    2.63    0.46
  -3   3  22    2.51    0.53
   3  -3 -21    0.47    0.20
  -3   3  21    0.52    0.29
   3  -3 -20    4.23    0.46
  -3   3  20    4.24    0.60
   3  -3 -19    3.32    0.45
  -3   3  19    2.65    0.55
   3  -3 -18    1.61    0.27
  -3   3  18    1.85    0.33
   3  -3 -17    8.49    0.50
   3  -3 -17   10.28    0.68
  -3   3  17   11.78    1.01
   3  -3 -16    3.79    0.26
   3  -3 -16    4.87    0.41
  -3   3  16    5.15    0.49
   3  -3 -15    1.27    0.15
   3  -3 -15    1.17    0.18
  -3   3  15    1.69    0.28
   3  -3 -14    4.00    0.26
   3  -3 -14    4.70    0.33
  -3   3  14    5.20    0.52
   3  -3 -13    5.80    0.30
   3  -3 -13    6.16    0.44
  -3   3  13    7.03    0.58
   3  -3 -12    2.70    0.20
   3  -3 -12    2.13    0.16
  -3   3  12    2.16    0.31
   3  -3 -11    1.05    0.16
   3  -3 -11    1.21    0.11
  -3   3  11    1.74    0.21
   3  -3 -10    1.13    0.11
   3  -3 -10    0.95    0.11
  -3   3  10    0.95    0.14
   3  -3  -9    0.60    0.10
   3  -3  -9    0.58    0.08
   3  -3  -9    0.63    0.08
   3  -3  -8    0.39    0.08
   3  -3  -8    0.34    0.06
   3  -3  -8    0.36    0.07
   3  -3  -7    3.53    0.16
   3  -3  -7    3.25    0.15
   3  -3  -7    3.34    0.19
   3  -3  -6   -0.07    0.05
   3  -3  -6    0.02    0.03
   3  -3  -5    1.39    0.09
   3  -3  -5    1.67    0.10
  -3   3   5    1.49    0.09
   3  -3  -4    0.09    0.04
   3  -3  -4    0.13    0.06
  -3   3   4    0.14    0.04
   3  -3  -3   21.64    0.48
   3  -3  -3   23.44    0.69
  -3   3   3   20.34    0.63
   3  -3  -2    9.20    0.30
   3  -3  -2    8.71    0.19
  -3   3   2    8.33    0.29
   3  -3  -1   -0.03    0.04
   3  -3  -1    0.00    0.01
  -3   3   1    0.02    0.03
   3  -3   0    1.72    0.10
  -3   3   0    1.87    0.10
   3  -3   1   -0.02    0.03
  -3   3  -1   -0.02    0.04
   3  -3   2    3.20    0.13
  -3   3  -2    3.72    0.15
   3  -3   3    0.20    0.04
   3  -3   3    0.08    0.03
  -3   3  -3    0.26    0.05
   3  -3   4    0.26    0.05
  -3   3  -4    0.28    0.04
  -3   3  -4    0.32    0.05
   3  -3   5    2.26    0.13
  -3   3  -5    1.59    0.08
  -3   3  -5    2.06    0.11
   3  -3   6   10.68    0.41
  -3   3  -6   10.53    0.34
  -3   3  -6   10.25    0.38
   3  -3   7    3.97    0.21
  -3   3  -7    3.51    0.17
  -3   3  -7    3.96    0.20
   3  -3   8    9.90    0.45
  -3   3  -8    9.71    0.39
  -3   3  -8   10.65    0.42
   3  -3   9    3.91    0.23
  -3   3  -9    4.36    0.23
  -3   3  -9    4.46    0.22
   3  -3  10   13.67    0.62
  -3   3 -10   15.86    0.68
  -3   3 -10   15.66    0.67
   3  -3  11    1.75    0.18
  -3   3 -11    1.85    0.19
  -3   3 -11    2.22    0.15
   3  -3  12    9.37    0.54
  -3   3 -12    9.88    0.51
  -3   3 -12    9.39    0.48
   3  -3  13    6.33    0.43
  -3   3 -13    5.66    0.38
  -3   3 -13    6.30    0.37
   3  -3  14    4.21    0.36
  -3   3 -14    4.32    0.31
  -3   3 -14    4.68    0.36
   3  -3  15    4.92    0.40
  -3   3 -15    4.76    0.37
  -3   3 -15    5.02    0.41
   3  -3  16    0.41    0.14
  -3   3 -16    0.41    0.13
  -3   3 -16    0.29    0.12
   3  -3  17    1.13    0.22
  -3   3 -17    0.79    0.18
  -3   3 -17    1.37    0.19
   3  -3  18    0.64    0.16
  -3   3 -18    0.76    0.22
  -3   3 -18    0.78    0.17
   3  -3  19    1.74    0.27
  -3   3 -19    2.08    0.31
  -3   3 -19    0.95    0.24
   3  -3  20    1.01    0.21
  -3   3 -20    1.49    0.28
  -3   3 -20    0.82    0.21
   3  -3  21    0.58    0.22
  -3   3 -21    1.06    0.27
  -3   3 -22    0.16    0.20
  -3   3 -23    1.87    0.42
   3  -2 -23    0.60    0.29
   3  -2 -22    1.92    0.32
  -3   2  22    1.75    0.45
   3  -2 -21    0.25    0.16
  -3   2  21    0.07    0.21
   3  -2 -20    3.83    0.42
  -3   2  20    3.23    0.54
   3  -2 -19    0.05    0.14
  -3   2  19   -0.02    0.18
   3  -2 -18    5.41    0.40
   3  -2 -18    6.79    0.61
  -3   2  18    9.15    0.78
   3  -2 -17    2.59    0.22
   3  -2 -17    2.51    0.35
  -3   2  17    3.23    0.42
   3  -2 -16    0.49    0.19
   3  -2 -16    0.69    0.11
  -3   2  16    0.63    0.19
   3  -2 -15    0.56    0.14
   3  -2 -15    0.48    0.10
  -3   2  15    0.83    0.21
   3  -2 -14    8.01    0.51
  -3   2  14    9.74    0.72
   3  -2 -13   15.86    0.67
   3  -2 -13   15.02    0.78
  -3   2  13   17.75    1.10
   3  -2 -12    4.60    0.29
   3  -2 -12    4.49    0.26
  -3   2  12    5.32    0.38
   3  -2 -11   13.21    0.53
   3  -2 -11   13.04    0.59
  -3   2  11   14.63    0.80
   3  -2 -10    0.07    0.05
   3  -2 -10    0.06    0.06
  -3   2  10   -0.08    0.08
   3  -2  -9    0.33    0.09
   3  -2  -9    0.36    0.07
   3  -2  -9    0.43    0.07
   3  -2  -8    0.66    0.08
   3  -2  -8    0.79    0.10
   3  -2  -8    0.87    0.09
   3  -2  -7   34.61    1.10
   3  -2  -7   35.52    1.12
   3  -2  -7   35.93    1.20
   3  -2  -6    4.67    0.19
   3  -2  -6    4.71    0.20
   3  -2  -6    4.95    0.19
   3  -2  -5   64.34    1.92
   3  -2  -5   66.38    1.91
   3  -2  -5   67.37    1.86
   3  -2  -4   23.85    0.62
   3  -2  -4   25.15    0.73
   3  -2  -4   24.72    0.69
   3  -2  -3    0.07    0.03
   3  -2  -3    0.05    0.03
  -3   2   3    0.12    0.02
   3  -2  -2    8.54    0.27
  -3   2   2    7.68    0.24
   3  -2  -1    5.18    0.18
  -3   2   1    4.87    0.17
   3  -2   0    0.44    0.05
  -3   2   0    0.34    0.05
   3  -2   1    8.10    0.24
  -3   2  -1    8.53    0.27
   3  -2   2    7.08    0.23
  -3   2  -2    6.79    0.25
   3  -2   3    2.19    0.13
  -3   2  -3    2.19    0.12
   3  -2   4    4.37    0.19
  -3   2  -4    4.23    0.17
  -3   2  -4    3.68    0.12
   3  -2   5    0.79    0.09
  -3   2  -5    0.88    0.08
  -3   2  -5    0.60    0.06
   3  -2   6    2.86    0.17
  -3   2  -6    2.60    0.13
  -3   2  -6    2.72    0.15
   3  -2   7    6.02    0.27
  -3   2  -7    6.77    0.26
  -3   2  -7    6.02    0.25
   3  -2   8    0.06    0.07
  -3   2  -8    0.06    0.05
  -3   2  -8    0.08    0.06
   3  -2   9    0.85    0.12
  -3   2  -9    1.05    0.11
  -3   2  -9    0.89    0.11
   3  -2  10    0.22    0.08
  -3   2 -10    0.29    0.07
  -3   2 -10    0.16    0.07
   3  -2  11    2.76    0.21
  -3   2 -11    3.37    0.20
  -3   2 -11    2.87    0.19
   3  -2  12    0.63    0.14
  -3   2 -12    0.65    0.10
  -3   2 -12    0.74    0.11
   3  -2  13    0.19    0.08
  -3   2 -13    0.12    0.07
  -3   2 -13    0.19    0.08
   3  -2  14    0.87    0.18
  -3   2 -14    1.11    0.14
  -3   2 -14    1.02    0.15
   3  -2  15    0.24    0.13
  -3   2 -15    0.27    0.11
  -3   2 -15    0.18    0.09
   3  -2  16   -0.10    0.08
  -3   2 -16    0.02    0.08
  -3   2 -16    0.06    0.07
   3  -2  17    0.83    0.20
  -3   2 -17    0.78    0.17
  -3   2 -17    0.58    0.14
   3  -2  18    0.41    0.16
  -3   2 -18    0.36    0.17
  -3   2 -18    0.83    0.14
   3  -2  19    1.93    0.29
  -3   2 -19    1.17    0.21
  -3   2 -19    1.99    0.27
   3  -2  20    1.13    0.29
  -3   2 -20    1.71    0.31
   3  -2  21    1.00    0.27
  -3   2 -21    0.97    0.28
   3  -2  22    0.44    0.19
  -3   2 -22    0.43    0.25
  -3   2 -23    0.64    0.22
   3  -1 -23    0.17    0.16
   3  -1 -22    0.28    0.17
   3  -1 -21    0.26    0.16
  -3   1  21    0.08    0.20
   3  -1 -20   -0.07    0.11
  -3   1  20    0.09    0.14
   3  -1 -19    0.93    0.16
   3  -1 -19    0.94    0.21
  -3   1  19    0.98    0.25
   3  -1 -18   -0.26    0.13
   3  -1 -18   -0.11    0.10
  -3   1  18   -0.21    0.17
   3  -1 -17    0.35    0.18
   3  -1 -17    0.38    0.11
  -3   1  17    0.62    0.19
   3  -1 -16    5.46    0.34
   3  -1 -16    5.51    0.49
  -3   1  16    6.20    0.56
   3  -1 -15    3.83    0.27
   3  -1 -15    4.37    0.40
  -3   1  15    4.47    0.43
   3  -1 -14   11.49    0.54
   3  -1 -14   11.42    0.64
  -3   1  14   12.00    0.81
   3  -1 -13   -0.02    0.06
   3  -1 -13    0.02    0.08
  -3   1  13   -0.02    0.09
   3  -1 -12   12.49    0.54
   3  -1 -12   14.17    0.72
  -3   1  12   14.17    0.78
   3  -1 -11    1.32    0.14
   3  -1 -11    1.59    0.13
  -3   1  11    1.75    0.19
   3  -1 -10    5.31    0.25
   3  -1 -10    5.02    0.27
  -3   1  10    4.96    0.32
   3  -1  -9   19.43    0.77
   3  -1  -9   18.68    0.66
   3  -1  -9   17.69    0.58
   3  -1  -8    8.17    0.30
   3  -1  -8    8.14    0.28
   3  -1  -8    8.51    0.36
   3  -1  -7   20.25    0.63
   3  -1  -7   21.79    0.71
   3  -1  -7   21.25    0.69
   3  -1  -6   39.21    1.16
   3  -1  -6   37.62    1.14
   3  -1  -6   36.84    1.05
   3  -1  -5    9.63    0.33
   3  -1  -5    9.66    0.30
   3  -1  -4   31.39    0.79
   3  -1  -4   33.85    0.87
   3  -1  -4   32.56    0.92
   3  -1  -3    5.71    0.19
   3  -1  -3    5.49    0.17
   3  -1  -3    5.19    0.13
   3  -1  -2    4.95    0.16
   3  -1  -2    5.14    0.16
  -3   1   2    4.41    0.12
   3  -1  -1   29.83    0.71
   3  -1  -1   28.90    0.73
   3  -1   0    4.58    0.16
  -3   1   0    4.67    0.15
   3  -1   1   47.63    1.26
  -3   1  -1   47.15    1.28
   3  -1   2   73.90    2.12
  -3   1  -2   76.63    1.37
  -3   1  -2   78.87    2.05
   3  -1   3    0.46    0.08
  -3   1  -3    0.53    0.04
  -3   1  -3    0.54    0.05
   3  -1   4  110.65    3.57
  -3   1  -4  117.81    3.26
  -3   1  -4  114.87    2.84
   3  -1   5   21.34    0.73
  -3   1  -5   20.58    0.58
  -3   1  -5   20.02    0.55
   3  -1   6   12.43    0.47
  -3   1  -6   12.65    0.42
  -3   1  -6   12.43    0.39
   3  -1   7    6.36    0.31
  -3   1  -7    6.27    0.23
  -3   1  -7    6.24    0.25
   3  -1   8    0.78    0.10
  -3   1  -8    0.33    0.06
  -3   1  -8    0.25    0.06
   3  -1   9    8.43    0.43
  -3   1  -9    9.49    0.36
  -3   1  -9    9.18    0.41
   3  -1  10    2.61    0.23
  -3   1 -10    2.70    0.15
  -3   1 -10    2.62    0.19
   3  -1  11    0.20    0.12
  -3   1 -11    0.39    0.08
  -3   1 -11    0.33    0.08
   3  -1  12    1.78    0.20
  -3   1 -12    1.87    0.20
  -3   1 -12    1.74    0.13
   3  -1  13    1.15    0.19
  -3   1 -13    1.27    0.14
  -3   1 -13    1.18    0.15
   3  -1  14    0.66    0.16
  -3   1 -14    0.65    0.12
  -3   1 -14    0.34    0.10
   3  -1  15    5.21    0.42
  -3   1 -15    3.94    0.28
  -3   1 -15    5.46    0.40
   3  -1  16   -0.01    0.11
  -3   1 -16   -0.00    0.08
  -3   1 -16    0.02    0.06
   3  -1  17    1.10    0.21
  -3   1 -17    0.88    0.21
  -3   1 -17    0.46    0.13
   3  -1  18    0.18    0.15
  -3   1 -18    0.15    0.15
  -3   1 -18    0.08    0.09
   3  -1  19    0.29    0.17
  -3   1 -19    0.32    0.16
   3  -1  20    1.07    0.23
  -3   1 -20    1.35    0.30
   3  -1  21    0.17    0.14
  -3   1 -21    0.01    0.15
   3  -1  22    2.18    0.41
  -3   1 -22    2.24    0.36
   3  -1  23    1.93    0.44
  -3   1 -23    2.72    0.46
   3   0 -23    0.08    0.16
   3   0 -22    0.14    0.16
   3   0 -21    1.62    0.33
   3   0 -20    0.15    0.12
   3   0 -20    0.20    0.18
  -3   0  20    0.16    0.17
   3   0 -19    0.28    0.16
   3   0 -19    0.07    0.11
   3   0 -18    0.47    0.13
   3   0 -18    0.34    0.15
  -3   0  18    0.43    0.17
   3   0 -17    1.36    0.24
   3   0 -17    0.89    0.16
  -3   0  17    1.36    0.23
   3   0 -16    0.12    0.08
   3   0 -16   -0.03    0.12
  -3   0  16    0.04    0.12
   3   0 -15    0.91    0.14
   3   0 -15    0.89    0.16
  -3   0  15    0.98    0.19
   3   0 -14    0.05    0.07
   3   0 -14    0.09    0.09
  -3   0  14    0.09    0.10
   3   0 -13    3.27    0.21
   3   0 -13    3.53    0.30
  -3   0  13    3.46    0.30
   3   0 -12    2.03    0.17
   3   0 -12    2.16    0.22
  -3   0  12    2.34    0.21
   3   0 -11    0.78    0.11
   3   0 -11    0.91    0.14
  -3   0  11    0.85    0.13
   3   0 -10    0.32    0.09
   3   0 -10    0.44    0.10
  -3   0  10    0.45    0.10
   3   0  -9    4.05    0.21
   3   0  -9    3.83    0.22
  -3   0   9    3.84    0.22
   3   0  -8    5.97    0.27
   3   0  -8    5.46    0.19
   3   0  -8    6.21    0.25
   3   0  -7   50.79    1.68
   3   0  -7   52.06    1.69
   3   0  -7   49.24    1.35
   3   0  -6   30.33    0.96
   3   0  -6   28.76    0.74
   3   0  -6   29.04    0.91
   3   0  -5   17.97    0.44
   3   0  -5   18.03    0.55
   3   0  -5   17.64    0.51
   3   0  -4    0.83    0.08
   3   0  -4    0.80    0.05
  -3   0   4    0.83    0.07
   3   0  -3    0.05    0.03
   3   0  -3    0.05    0.03
  -3   0   3    0.03    0.03
   3   0  -2    1.21    0.06
   3   0  -2    1.13    0.07
  -3   0   2    1.42    0.06
   3   0  -1    2.30    0.09
   3   0  -1    2.36    0.09
  -3   0   1    2.20    0.06
   3   0   0    4.87    0.15
   3   0   0    5.45    0.16
  -3   0   0    4.84    0.12
   3   0   1   -0.02    0.04
  -3   0  -1    0.06    0.02
  -3   0  -1   -0.02    0.03
   3   0   2   26.42    0.76
  -3   0  -2   25.91    0.55
  -3   0  -2   25.04    0.66
   3   0   3  100.44    3.04
  -3   0  -3   97.63    2.33
   3   0   4  136.30    4.52
  -3   0  -4  137.87    3.58
  -3   0  -4  144.02    3.78
   3   0   5   37.29    1.28
  -3   0  -5   38.70    1.11
  -3   0  -5   37.47    0.98
   3   0   6    0.73    0.12
  -3   0  -6    0.92    0.07
  -3   0  -6    0.80    0.07
   3   0   7    7.60    0.34
  -3   0  -7    6.65    0.27
  -3   0  -7    6.81    0.22
   3   0   8    1.81    0.16
  -3   0  -8    1.54    0.10
  -3   0  -8    1.64    0.12
   3   0   9   18.04    0.84
  -3   0  -9   19.05    0.59
  -3   0  -9   18.47    0.76
   3   0  10   16.40    0.82
  -3   0 -10   13.81    0.49
  -3   0 -10   15.34    0.64
   3   0  11    1.05    0.20
  -3   0 -11    1.55    0.16
   3   0  12    5.89    0.41
  -3   0 -12    5.43    0.37
  -3   0 -12    4.68    0.23
   3   0  13   -0.07    0.11
  -3   0 -13   -0.04    0.05
   3   0  14   -0.08    0.08
  -3   0 -14   -0.00    0.04
  -3   0 -14    0.06    0.07
   3   0  15    0.93    0.20
  -3   0 -15    0.82    0.15
  -3   0 -15    0.65    0.11
   3   0  16    1.90    0.25
  -3   0 -16    2.11    0.25
  -3   0 -16    0.94    0.14
   3   0  17    1.89    0.31
  -3   0 -17    1.90    0.25
   3   0  18    0.09    0.19
  -3   0 -18    0.98    0.20
   3   0  19    0.23    0.16
  -3   0 -19    0.04    0.12
   3   0  20    0.35    0.20
  -3   0 -20    0.24    0.20
   3   0  21    0.53    0.25
  -3   0 -21    0.69    0.26
   3   0  22    0.29    0.24
  -3   0 -22    0.51    0.21
   3   0  23    1.03    0.36
  -3   0 -23    1.62    0.37
   3   1 -23    0.21    0.20
   3   1 -22    0.33    0.23
   3   1 -21    0.93    0.29
   3   1 -20    0.94    0.24
   3   1 -20    1.03    0.19
   3   1 -19    2.13    0.27
   3   1 -19    2.80    0.38
  -3  -1  19    1.85    0.29
   3   1 -18   -0.05    0.09
   3   1 -18   -0.08    0.10
  -3  -1  18    0.16    0.10
   3   1 -17    1.13    0.21
   3   1 -17    0.70    0.16
  -3  -1  17    0.61    0.16
   3   1 -16    3.51    0.30
   3   1 -16    3.19    0.30
   3   1 -15    4.60    0.34
   3   1 -15    4.69    0.37
  -3  -1  15    4.70    0.39
   3   1 -14    7.19    0.46
   3   1 -14    7.44    0.48
  -3  -1  14    7.80    0.50
   3   1 -13   17.33    0.84
   3   1 -13   17.01    0.86
  -3  -1  13   16.92    0.82
   3   1 -12   -0.11    0.08
   3   1 -12   -0.12    0.07
  -3  -1  12    0.04    0.07
   3   1 -11    9.38    0.47
   3   1 -11    9.25    0.52
  -3  -1  11    9.95    0.45
   3   1 -10   10.72    0.53
   3   1 -10   10.57    0.46
   3   1  -9    6.28    0.29
   3   1  -9    6.18    0.33
  -3  -1   9    6.02    0.26
   3   1  -8   48.65    1.71
   3   1  -8   46.54    1.69
   3   1  -7    6.78    0.29
   3   1  -7    5.96    0.17
  -3  -1   7    6.32    0.34
   3   1  -6   45.90    1.49
   3   1  -6   42.44    0.95
  -3  -1   6   43.93    1.61
   3   1  -5    0.05    0.04
   3   1  -5    0.02    0.02
  -3  -1   5    0.08    0.04
   3   1  -4    8.91    0.29
   3   1  -4    9.06    0.21
  -3  -1   4    8.30    0.30
   3   1  -3    1.75    0.10
   3   1  -3    1.63    0.06
  -3  -1   3    1.66    0.09
   3   1  -2    0.76    0.06
   3   1  -2    0.63    0.04
  -3  -1   2    0.53    0.06
   3   1  -1    0.20    0.04
   3   1  -1    0.01    0.04
  -3  -1   1    0.20    0.04
   3   1   0    6.88    0.20
   3   1   0    7.30    0.23
  -3  -1   0    6.37    0.17
   3   1   1   32.53    0.79
   3   1   1   36.83    1.00
  -3  -1  -1   33.77    0.80
   3   1   2   32.30    0.75
   3   1   2   35.11    1.02
  -3  -1  -2   32.65    0.79
   3   1   3    7.82    0.29
  -3  -1  -3    7.54    0.22
  -3  -1  -3    7.72    0.25
   3   1   4   12.61    0.51
  -3  -1  -4   12.59    0.38
  -3  -1  -4   12.04    0.31
   3   1   5    0.09    0.06
  -3  -1  -5    0.04    0.05
   3   1   6    4.15    0.26
  -3  -1  -6    3.97    0.18
   3   1   7    5.01    0.30
  -3  -1  -7    5.20    0.26
  -3  -1  -7    4.87    0.15
   3   1   8    0.82    0.12
  -3  -1  -8    0.64    0.05
  -3  -1  -8    0.92    0.11
   3   1   9    9.58    0.52
  -3  -1  -9    8.79    0.26
  -3  -1  -9    8.57    0.39
   3   1  10    7.52    0.47
  -3  -1 -10    8.06    0.41
  -3  -1 -10    6.91    0.23
   3   1  11    2.69    0.25
  -3  -1 -11    3.28    0.24
  -3  -1 -11    2.83    0.13
   3   1  12    5.57    0.38
  -3  -1 -12    5.42    0.34
   3   1  13   -0.09    0.10
  -3  -1 -13    0.14    0.08
   3   1  14    0.24    0.09
  -3  -1 -14    0.02    0.05
  -3  -1 -14   -0.01    0.08
   3   1  15    3.35    0.36
  -3  -1 -15    3.03    0.29
   3   1  16    0.27    0.16
  -3  -1 -16    0.35    0.12
   3   1  17    0.16    0.15
  -3  -1 -17    0.06    0.12
   3   1  18    0.98    0.25
  -3  -1 -18    0.60    0.19
   3   1  19    0.61    0.25
  -3  -1 -19    0.73    0.23
   3   1  20    0.21    0.19
  -3  -1 -20    0.21    0.18
   3   1  21   -0.03    0.17
  -3  -1 -21   -0.06    0.13
   3   1  22    0.19    0.23
  -3  -1 -22    0.42    0.23
   3   1  23    0.04    0.21
  -3  -1 -23    0.42    0.23
  -3  -2  23    0.12    0.27
   3   2 -22    0.33    0.17
  -3  -2  22    0.16    0.25
   3   2 -21    0.26    0.12
  -3  -2  21   -0.17    0.26
   3   2 -20    1.30    0.26
  -3  -2  20    1.99    0.35
   3   2 -19   -0.11    0.12
  -3  -2  19   -0.05    0.17
   3   2 -18    1.04    0.19
  -3  -2  18    0.55    0.18
   3   2 -17    0.21    0.13
  -3  -2  17    0.00    0.12
  -3  -2  17    0.21    0.09
   3   2 -16   11.26    0.65
  -3  -2  16    8.70    0.53
   3   2 -15    4.75    0.29
  -3  -2  15    1.30    0.25
   3   2 -14   19.99    0.97
  -3  -2  14   16.20    0.73
   3   2 -13    0.16    0.07
  -3  -2  13    0.09    0.11
  -3  -2  13   -0.02    0.06
   3   2 -12   14.13    0.63
  -3  -2  12   13.15    0.54
  -3  -2  12   14.78    0.84
   3   2 -11    2.30    0.19
  -3  -2  11    2.33    0.23
  -3  -2  11    2.17    0.14
   3   2 -10   13.74    0.58
  -3  -2  10   14.24    0.48
  -3  -2  10   13.90    0.72
   3   2  -9    2.62    0.19
  -3  -2   9    2.61    0.21
  -3  -2   9    2.73    0.13
   3   2  -8    5.43    0.28
  -3  -2   8    5.07    0.29
  -3  -2   8    5.15    0.18
   3   2  -7   89.04    3.19
  -3  -2   7   90.94    3.61
   3   2  -6   33.25    0.62
   3   2  -6   35.03    1.16
  -3  -2   6   33.67    1.25
   3   2  -5   14.30    0.26
   3   2  -5   15.56    0.51
  -3  -2   5   13.57    0.50
   3   2  -4    0.72    0.07
   3   2  -4    0.60    0.03
  -3  -2   4    0.72    0.07
   3   2  -3    0.57    0.03
   3   2  -3    0.70    0.06
  -3  -2   3    0.60    0.06
   3   2  -2    2.86    0.14
   3   2  -2    3.24    0.10
  -3  -2   2    2.94    0.12
   3   2  -1   68.72    1.88
   3   2  -1   66.31    1.65
  -3  -2   1   66.00    1.82
   3   2   0    0.40    0.05
   3   2   0    0.44    0.05
  -3  -2   0    0.33    0.04
   3   2   1   10.96    0.31
   3   2   1    9.58    0.33
  -3  -2  -1    9.15    0.28
   3   2   2   11.91    0.32
   3   2   2   11.30    0.39
  -3  -2  -2   10.84    0.34
   3   2   3    0.02    0.04
  -3  -2  -3   -0.02    0.04
   3   2   4   18.40    0.70
  -3  -2  -4   20.13    0.64
   3   2   5    1.84    0.13
  -3  -2  -5    1.75    0.11
   3   2   6    2.32    0.17
  -3  -2  -6    2.30    0.15
   3   2   7    0.06    0.08
  -3  -2  -7    0.13    0.06
  -3  -2  -7    0.06    0.02
   3   2   8    5.39    0.32
  -3  -2  -8    5.97    0.29
   3   2   9    2.21    0.23
  -3  -2  -9    2.67    0.18
   3   2  10    0.39    0.11
  -3  -2 -10    0.14    0.07
  -3  -2 -10    0.14    0.03
   3   2  11    0.38    0.12
  -3  -2 -11    0.46    0.10
   3   2  12    0.19    0.11
  -3  -2 -12    0.01    0.08
   3   2  13    0.95    0.19
  -3  -2 -13    1.43    0.18
   3   2  14    0.48    0.13
  -3  -2 -14    0.18    0.11
   3   2  15    0.07    0.15
  -3  -2 -15    0.23    0.11
   3   2  16    0.39    0.21
  -3  -2 -16    0.50    0.18
   3   2  17    0.88    0.26
  -3  -2 -17    1.14    0.24
   3   2  18    0.12    0.17
  -3  -2 -18   -0.17    0.14
   3   2  19    0.17    0.19
  -3  -2 -19    0.02    0.14
   3   2  20    0.39    0.22
  -3  -2 -20    0.05    0.16
   3   2  21    0.87    0.34
  -3  -2 -21    2.02    0.30
   3   2  22    1.30    0.30
  -3  -2 -22    0.58    0.33
  -3  -3  23    0.09    0.22
   3   3 -22    0.73    0.25
  -3  -3  22    1.05    0.39
   3   3 -21    0.13    0.14
  -3  -3  21   -0.03    0.19
   3   3 -20    0.78    0.22
  -3  -3  20    0.72    0.35
   3   3 -19    0.63    0.21
  -3  -3  19    0.82    0.30
   3   3 -18    1.70    0.23
  -3  -3  18    2.41    0.35
   3   3 -17    0.73    0.19
  -3  -3  17    1.33    0.25
   3   3 -16    1.31    0.23
  -3  -3  16    2.20    0.29
   3   3 -15    1.04    0.19
  -3  -3  15    1.17    0.27
   3   3 -14    0.38    0.11
  -3  -3  14    0.31    0.16
   3   3 -13    2.19    0.18
  -3  -3  13    2.62    0.31
  -3  -3  13    1.78    0.11
   3   3 -12    3.41    0.25
  -3  -3  12    3.90    0.35
  -3  -3  12    2.80    0.15
   3   3 -11    4.40    0.28
  -3  -3  11    3.81    0.16
  -3  -3  11    4.27    0.31
   3   3 -10    0.01    0.06
  -3  -3  10   -0.00    0.10
  -3  -3  10    0.07    0.03
   3   3  -9    6.10    0.31
  -3  -3   9    5.55    0.37
  -3  -3   9    5.41    0.16
   3   3  -8    8.45    0.38
   3   3  -7    1.57    0.12
  -3  -3   7    1.32    0.13
  -3  -3   7    1.43    0.04
   3   3  -6   22.75    0.81
  -3  -3   6   22.56    0.87
   3   3  -5    1.02    0.10
  -3  -3   5    0.80    0.09
   3   3  -4    7.95    0.32
  -3  -3   4    8.69    0.36
   3   3  -3   22.09    0.43
   3   3  -3   25.20    0.75
  -3  -3   3   22.45    0.76
   3   3  -2    8.62    0.30
   3   3  -2    8.13    0.22
  -3  -3   2    8.44    0.32
   3   3  -1   14.38    0.41
   3   3  -1   14.48    0.46
  -3  -3   1   14.18    0.46
   3   3   0   11.13    0.33
   3   3   0   10.20    0.34
  -3  -3   0    9.30    0.32
   3   3   1    0.01    0.04
   3   3   1    0.03    0.04
  -3  -3  -1   -0.02    0.04
   3   3   2   15.32    0.41
   3   3   2   13.04    0.47
  -3  -3  -2   13.50    0.46
   3   3   3    3.21    0.11
   3   3   3    3.44    0.18
  -3  -3  -3    3.84    0.16
   3   3   4   32.60    1.28
  -3  -3  -4   35.05    1.16
   3   3   5    4.91    0.27
  -3  -3  -5    4.29    0.12
  -3  -3  -5    5.49    0.23
   3   3   6   16.11    0.81
  -3  -3  -6   18.27    0.73
   3   3   7   23.33    1.15
  -3  -3  -7   25.32    1.04
   3   3   8    0.20    0.11
  -3  -3  -8    0.28    0.08
   3   3   9    0.43    0.11
  -3  -3  -9    0.32    0.09
   3   3  10    4.01    0.31
  -3  -3 -10    4.51    0.33
   3   3  11    0.74    0.15
  -3  -3 -11    0.82    0.13
   3   3  12    0.51    0.18
  -3  -3 -12    0.68    0.13
   3   3  13    0.39    0.17
  -3  -3 -13    0.54    0.15
   3   3  14    1.93    0.26
  -3  -3 -14    1.99    0.23
   3   3  15    0.10    0.12
  -3  -3 -15    0.11    0.13
   3   3  16    0.43    0.18
  -3  -3 -16    0.52    0.16
   3   3  17   -0.04    0.13
  -3  -3 -17   -0.07    0.11
   3   3  18    0.85    0.23
  -3  -3 -18    0.63    0.21
   3   3  19    0.63    0.30
  -3  -3 -19    0.91    0.24
   3   3  20   -0.13    0.20
  -3  -3 -20    0.17    0.14
   3   3  21   -0.01    0.25
  -3  -3 -21    0.25    0.17
   3   3  22    0.45    0.22
  -3  -3 -22   -0.06    0.18
   3   4 -23    0.26    0.16
  -3  -4  23    0.13    0.25
   3   4 -22    0.99    0.30
  -3  -4  22    1.67    0.45
   3   4 -21    0.20    0.18
  -3  -4  21    0.18    0.27
   3   4 -20    0.02    0.12
  -3  -4  20    0.26    0.18
   3   4 -19    1.71    0.31
  -3  -4  19    2.18    0.37
   3   4 -18    0.17    0.16
  -3  -4  18    0.56    0.20
   3   4 -17    0.21    0.16
  -3  -4  17    0.77    0.23
   3   4 -16    0.98    0.22
  -3  -4  16    1.61    0.26
   3   4 -15   -0.01    0.11
  -3  -4  15    0.18    0.13
   3   4 -14    4.27    0.33
  -3  -4  14    4.69    0.44
   3   4 -13    0.22    0.10
  -3  -4  13    0.37    0.13
   3   4 -12    0.13    0.09
  -3  -4  12   -0.03    0.10
   3   4 -11    0.52    0.11
  -3  -4  11    0.20    0.15
   3   4 -10   -0.00    0.07
  -3  -4  10    0.22    0.09
   3   4  -9   -0.07    0.06
  -3  -4   9    0.06    0.08
   3   4  -8    3.88    0.23
  -3  -4   8    4.14    0.30
   3   4  -7    1.02    0.13
  -3  -4   7    0.95    0.15
   3   4  -6    3.83    0.24
  -3  -4   6    4.47    0.27
   3   4  -5    2.15    0.13
  -3  -4   5    2.05    0.15
   3   4  -4    0.43    0.08
  -3  -4   4    0.43    0.09
   3   4  -3    4.94    0.21
   3   4  -3    4.55    0.13
  -3  -4   3    4.79    0.22
   3   4  -2    0.30    0.07
   3   4  -2    0.27    0.04
  -3  -4   2    0.32    0.08
   3   4  -1   19.74    0.59
   3   4  -1   21.57    0.68
  -3  -4   1   20.59    0.71
   3   4   0    2.73    0.14
   3   4   0    2.54    0.12
  -3  -4   0    2.70    0.16
   3   4   1    6.81    0.29
   3   4   1    7.28    0.26
  -3  -4  -1    7.39    0.29
   3   4   2   10.18    0.34
   3   4   2   10.71    0.45
  -3  -4  -2   10.32    0.39
   3   4   3    2.88    0.12
   3   4   3    3.36    0.18
  -3  -4  -3    3.24    0.17
   3   4   4    4.10    0.15
   3   4   4    5.13    0.29
  -3  -4  -4    5.01    0.24
   3   4   5    8.59    0.45
  -3  -4  -5    9.72    0.46
   3   4   6   22.27    1.04
  -3  -4  -6   23.91    0.95
   3   4   7    2.23    0.20
  -3  -4  -7    1.99    0.20
   3   4   8    0.64    0.17
  -3  -4  -8    0.82    0.11
   3   4   9    3.63    0.31
  -3  -4  -9    4.31    0.29
   3   4  10    0.05    0.10
  -3  -4 -10    0.06    0.10
   3   4  11    5.94    0.54
  -3  -4 -11    6.01    0.39
   3   4  12    1.03    0.18
  -3  -4 -12    0.74    0.16
   3   4  13    0.86    0.18
  -3  -4 -13    1.15    0.18
   3   4  14    1.15    0.24
  -3  -4 -14    1.43    0.21
   3   4  15    3.44    0.40
  -3  -4 -15    3.84    0.43
   3   4  16   -0.03    0.15
  -3  -4 -16    0.31    0.13
   3   4  17    2.29    0.38
  -3  -4 -17    2.76    0.34
   3   4  18    0.15    0.21
  -3  -4 -18    0.63    0.22
   3   4  19   -0.06    0.24
  -3  -4 -19   -0.23    0.20
   3   4  20   -0.08    0.21
  -3  -4 -20    0.25    0.19
   3   4  21    0.08    0.21
  -3  -4 -21    0.42    0.25
   3   4  22    0.20    0.22
  -3  -4 -22   -0.04    0.22
   3   5 -22    0.36    0.20
  -3  -5  22   -0.03    0.22
   3   5 -21    2.67    0.32
  -3  -5  21    0.10    0.34
   3   5 -20    1.42    0.33
  -3  -5  20    1.81    0.36
   3   5 -19    0.19    0.16
  -3  -5  19    0.14    0.18
   3   5 -18    0.61    0.17
  -3  -5  18    0.88    0.28
   3   5 -17   -0.06    0.11
  -3  -5  17    0.11    0.15
   3   5 -16    1.70    0.29
  -3  -5  16    2.12    0.31
   3   5 -15    0.19    0.12
  -3  -5  15    0.35    0.16
   3   5 -14   -0.18    0.09
  -3  -5  14    0.21    0.12
   3   5 -13    2.56    0.25
  -3  -5  13    2.99    0.31
   3   5 -12    1.13    0.15
  -3  -5  12    1.13    0.18
   3   5 -11    0.67    0.13
  -3  -5  11    1.03    0.16
   3   5 -10    1.22    0.18
  -3  -5  10    1.45    0.18
   3   5  -9    9.31    0.48
  -3  -5   9    9.39    0.54
   3   5  -8    0.01    0.08
  -3  -5   8    0.07    0.07
   3   5  -7   16.01    0.70
  -3  -5   7   16.93    0.81
   3   5  -6    1.44    0.13
  -3  -5   6    1.38    0.17
   3   5  -5    0.47    0.08
  -3  -5   5    0.32    0.09
   3   5  -4   14.53    0.57
  -3  -5   4   14.58    0.60
   3   5  -3    2.22    0.11
   3   5  -3    2.12    0.14
  -3  -5   3    2.31    0.16
   3   5  -2   10.51    0.40
   3   5  -2   10.01    0.31
  -3  -5   2   10.87    0.44
   3   5  -1   23.12    0.79
   3   5  -1   21.32    0.70
  -3  -5   1   23.04    0.88
   3   5   0    0.30    0.07
   3   5   0    0.26    0.06
  -3  -5   0    0.31    0.07
   3   5   1    7.49    0.33
   3   5   1    7.33    0.29
  -3  -5  -1    7.05    0.32
   3   5   2    0.73    0.10
   3   5   2    0.66    0.07
  -3  -5  -2    0.77    0.11
   3   5   3    3.45    0.17
   3   5   3    3.35    0.21
  -3  -5  -3    3.83    0.21
   3   5   4    2.43    0.11
   3   5   4    2.65    0.21
  -3  -5  -4    2.98    0.20
   3   5   5    8.54    0.53
  -3  -5  -5    9.25    0.42
   3   5   6   37.13    1.80
  -3  -5  -6   38.90    1.60
   3   5   7    0.45    0.12
  -3  -5  -7    0.39    0.11
   3   5   8    0.99    0.19
  -3  -5  -8    0.80    0.13
  -3  -5  -9    2.25    0.22
   3   5  10    1.22    0.21
  -3  -5 -10    1.13    0.20
   3   5  11    0.44    0.22
  -3  -5 -11    0.80    0.16
   3   5  12    0.55    0.19
  -3  -5 -12    0.14    0.13
   3   5  13    0.04    0.18
  -3  -5 -13    0.25    0.12
   3   5  14    0.07    0.19
  -3  -5 -14    0.15    0.12
   3   5  15    0.73    0.28
  -3  -5 -15    1.13    0.26
   3   5  16    1.28    0.30
  -3  -5 -16    0.93    0.22
   3   5  17    1.90    0.44
  -3  -5 -17    2.15    0.39
   3   5  18    3.19    0.59
  -3  -5 -18    3.57    0.46
   3   5  19    1.05    0.32
  -3  -5 -19    0.95    0.27
   3   5  20    0.02    0.23
  -3  -5 -20    0.34    0.22
   3   5  21    0.08    0.38
  -3  -5 -21    1.01    0.32
   3   6 -22    0.26    0.19
  -3  -6  22   -0.08    0.21
   3   6 -21    0.63    0.26
  -3  -6  21    0.68    0.35
   3   6 -20    0.72    0.22
  -3  -6  20    1.02    0.28
   3   6 -19    0.40    0.17
  -3  -6  19   -0.05    0.19
   3   6 -18    1.12    0.23
  -3  -6  18    1.08    0.34
   3   6 -17    0.76    0.22
  -3  -6  17    0.67    0.23
   3   6 -16    1.21    0.25
  -3  -6  16    1.31    0.28
   3   6 -15    5.63    0.58
  -3  -6  15    6.89    0.65
   3   6 -14    0.96    0.23
  -3  -6  14    1.24    0.28
   3   6 -13    0.27    0.12
  -3  -6  13    0.16    0.18
   3   6 -12    2.54    0.31
  -3  -6  12    3.23    0.32
   3   6 -11    0.20    0.12
  -3  -6  11    0.19    0.12
   3   6 -10    0.76    0.15
  -3  -6  10    0.73    0.15
   3   6  -9   -0.07    0.08
  -3  -6   9   -0.02    0.11
   3   6  -8   11.27    0.64
  -3  -6   8   12.15    0.70
   3   6  -7   -0.03    0.06
  -3  -6   7    0.03    0.09
   3   6  -6    0.30    0.08
  -3  -6   6    0.34    0.11
   3   6  -5   18.45    0.81
  -3  -6   5   17.40    0.82
   3   6  -4   16.79    0.69
   3   6  -4   15.80    0.44
  -3  -6   4   16.23    0.70
   3   6  -3    0.79    0.06
   3   6  -3    0.84    0.12
  -3  -6   3    0.90    0.11
   3   6  -2    5.60    0.28
   3   6  -2    4.62    0.23
  -3  -6   2    4.81    0.27
   3   6  -1   30.06    1.08
   3   6  -1   31.82    1.23
  -3  -6   1   31.46    1.21
   3   6   0   12.97    0.54
   3   6   0   13.96    0.54
  -3  -6   0   13.85    0.62
   3   6   1    3.77    0.19
   3   6   1    3.14    0.22
  -3  -6  -1    3.77    0.22
   3   6   2    0.15    0.06
   3   6   2    0.14    0.07
  -3  -6  -2    0.16    0.09
   3   6   3   15.63    0.75
   3   6   3   14.07    0.50
  -3  -6  -3   16.19    0.68
   3   6   4   60.63    2.06
   3   6   4   67.80    3.06
  -3  -6  -4   71.80    2.80
   3   6   5    4.73    0.19
   3   6   5    5.41    0.40
  -3  -6  -5    6.90    0.38
   3   6   6    0.22    0.11
  -3  -6  -6    0.41    0.09
   3   6   7    0.04    0.11
  -3  -6  -7    0.06    0.09
   3   6   8   14.52    0.90
  -3  -6  -8   15.99    0.89
   3   6   9    0.34    0.14
  -3  -6  -9   -0.01    0.12
   3   6  10    6.51    0.64
  -3  -6 -10    7.56    0.51
   3   6  11   -0.06    0.14
  -3  -6 -11    0.28    0.14
   3   6  12    0.30    0.16
  -3  -6 -12    0.06    0.15
   3   6  13    1.11    0.27
  -3  -6 -13    1.62    0.29
   3   6  14    0.58    0.22
  -3  -6 -14    0.46    0.22
   3   6  15   -0.05    0.16
  -3  -6 -15    0.18    0.13
   3   6  16    0.57    0.23
  -3  -6 -16    0.30    0.17
   3   6  17    0.16    0.27
  -3  -6 -17    0.33    0.23
   3   6  18   -0.13    0.20
  -3  -6 -18    0.08    0.17
   3   6  19   -0.02    0.25
  -3  -6 -19    0.14    0.18
   3   6  20   -0.10    0.19
  -3  -6 -20    0.13    0.19
   3   6  21   -0.08    0.23
   3   7 -21    0.51    0.25
  -3  -7  21    0.16    0.30
   3   7 -20    1.79    0.43
  -3  -7  20    3.30    0.56
   3   7 -19    0.18    0.16
  -3  -7  19    0.31    0.19
   3   7 -18    1.34    0.31
  -3  -7  18    1.41    0.38
   3   7 -17    0.34    0.18
  -3  -7  17    0.20    0.19
   3   7 -16    0.95    0.21
  -3  -7  16    1.16    0.31
   3   7 -15    1.97    0.26
  -3  -7  15    1.31    0.37
   3   7 -14    0.30    0.15
  -3  -7  14    0.54    0.19
   3   7 -13   29.63    1.72
  -3  -7  13   29.38    1.83
   3   7 -12   31.65    1.83
  -3  -7  12   33.18    1.90
   3   7 -11   18.80    1.08
  -3  -7  11   19.73    1.30
   3   7 -10    0.74    0.19
  -3  -7  10    0.88    0.19
   3   7  -9   -0.01    0.09
  -3  -7   9    0.26    0.12
   3   7  -8    0.86    0.18
  -3  -7   8    0.92    0.15
   3   7  -7    3.02    0.24
  -3  -7   7    2.93    0.24
   3   7  -6    2.90    0.22
  -3  -7   6    2.78    0.23
   3   7  -5    0.66    0.13
   3   7  -5    0.57    0.05
  -3  -7   5    0.78    0.14
   3   7  -4    0.96    0.11
   3   7  -4    0.64    0.06
  -3  -7   4    0.59    0.11
   3   7  -3   22.77    0.79
   3   7  -3   26.36    1.08
  -3  -7   3   26.63    1.13
   3   7  -2    1.28    0.10
   3   7  -2    1.43    0.15
  -3  -7   2    1.24    0.13
   3   7  -1    0.04    0.05
   3   7  -1    0.02    0.06
  -3  -7   1    0.02    0.06
   3   7   0    3.28    0.21
   3   7   0    3.52    0.22
   3   7   1    0.10    0.07
   3   7   1    0.05    0.06
  -3  -7  -1    0.15    0.07
   3   7   2    1.84    0.14
   3   7   2    1.76    0.18
  -3  -7  -2    2.01    0.17
   3   7   3    9.11    0.52
   3   7   3    9.32    0.39
  -3  -7  -3    8.54    0.45
   3   7   4    0.14    0.05
   3   7   4    0.04    0.09
  -3  -7  -4    0.13    0.08
   3   7   5   10.47    0.44
   3   7   5   13.63    0.79
  -3  -7  -5   13.58    0.68
   3   7   6   12.45    0.84
  -3  -7  -6   13.22    0.70
   3   7   7    7.20    0.52
  -3  -7  -7    8.29    0.49
   3   7   8    1.95    0.28
  -3  -7  -8    2.09    0.22
   3   7   9   10.08    0.88
  -3  -7  -9   11.87    0.77
   3   7  10    4.18    0.49
  -3  -7 -10    4.16    0.37
   3   7  11    8.97    0.79
  -3  -7 -11    9.35    0.73
  -3  -7 -12    2.66    0.36
   3   7  13    0.82    0.26
  -3  -7 -13    0.92    0.24
   3   7  14    0.02    0.18
  -3  -7 -14    0.23    0.17
   3   7  15    2.99    0.52
  -3  -7 -15    3.08    0.42
   3   7  16    6.17    0.77
  -3  -7 -16    5.07    0.57
   3   7  17    2.11    0.53
  -3  -7 -17    2.00    0.44
   3   7  18    0.11    0.28
  -3  -7 -18    0.16    0.17
   3   7  19    0.14    0.29
  -3  -7 -19    0.15    0.18
   3   7  20    0.31    0.23
  -3  -7 -20   -0.10    0.24
   3   8 -21    0.15    0.20
  -3  -8  21   -0.01    0.21
   3   8 -20    1.43    0.28
  -3  -8  20    1.02    0.36
   3   8 -19    0.39    0.20
  -3  -8  19    0.78    0.29
   3   8 -18    0.33    0.25
  -3  -8  18    0.71    0.25
   3   8 -17    2.63    0.46
  -3  -8  17    4.03    0.48
   3   8 -16    1.42    0.29
  -3  -8  16    2.02    0.32
   3   8 -15    1.58    0.27
  -3  -8  15    1.37    0.30
   3   8 -14    3.46    0.38
  -3  -8  14    3.14    0.41
   3   8 -13   10.80    0.78
  -3  -8  13   11.88    0.95
   3   8 -12    3.28    0.34
  -3  -8  12    2.98    0.38
   3   8 -11    3.35    0.40
  -3  -8  11    3.61    0.37
   3   8 -10    0.58    0.17
  -3  -8  10    0.72    0.16
   3   8  -9   -0.15    0.09
  -3  -8   9    0.09    0.09
   3   8  -8    0.28    0.13
  -3  -8   8    0.07    0.13
   3   8  -7    5.44    0.38
  -3  -8   7    5.45    0.43
   3   8  -6    0.22    0.10
  -3  -8   6    0.31    0.11
   3   8  -5    3.49    0.27
  -3  -8   5    3.41    0.28
   3   8  -4    2.63    0.14
   3   8  -4    3.18    0.24
  -3  -8   4    3.55    0.24
   3   8  -3    5.45    0.27
   3   8  -3    6.71    0.40
  -3  -8   3    6.61    0.41
   3   8  -2    0.08    0.06
   3   8  -2    0.01    0.06
  -3  -8   2   -0.06    0.06
   3   8  -1    0.11    0.07
   3   8  -1    0.11    0.09
  -3  -8   1    0.47    0.09
   3   8   0    1.49    0.15
   3   8   0    1.68    0.16
  -3  -8   0    1.57    0.20
   3   8   1    1.73    0.16
   3   8   1    1.86    0.20
  -3  -8  -1    2.17    0.18
   3   8   2    1.92    0.15
   3   8   2    2.05    0.23
  -3  -8  -2    1.86    0.20
   3   8   3    0.03    0.05
   3   8   3    0.01    0.08
  -3  -8  -3    0.02    0.07
   3   8   4    0.04    0.12
   3   8   4    0.01    0.05
  -3  -8  -4    0.15    0.08
   3   8   5    1.98    0.27
   3   8   5    1.46    0.11
  -3  -8  -5    1.46    0.18
   3   8   6    2.72    0.32
   3   8   7   -0.06    0.12
  -3  -8  -7    0.05    0.08
   3   8   8    0.27    0.17
  -3  -8  -8    0.69    0.17
   3   8   9   -0.18    0.13
  -3  -8  -9    0.19    0.10
   3   8  10    3.67    0.52
  -3  -8 -10    3.92    0.44
   3   8  11    1.91    0.39
  -3  -8 -11    2.12    0.27
   3   8  12    0.80    0.30
  -3  -8 -12    0.75    0.20
   3   8  13    0.06    0.25
  -3  -8 -13    0.27    0.16
   3   8  14    0.22    0.22
  -3  -8 -14   -0.15    0.14
   3   8  15    3.64    0.68
  -3  -8 -15    3.21    0.53
   3   8  16    0.23    0.25
  -3  -8 -16   -0.14    0.15
   3   8  17    2.30    0.60
  -3  -8 -17    2.03    0.48
   3   8  18    0.69    0.28
  -3  -8 -18    0.16    0.23
  -3  -8 -19    0.21    0.25
   3   9 -20   -0.11    0.20
  -3  -9  20   -0.02    0.19
  -3  -9  19    1.35    0.42
   3   9 -18    0.18    0.17
  -3  -9  18    0.41    0.21
   3   9 -17    1.03    0.29
  -3  -9  17    0.65    0.27
   3   9 -16    0.40    0.21
  -3  -9  16    0.36    0.25
   3   9 -15    4.07    0.54
  -3  -9  15    4.57    0.53
   3   9 -14    2.38    0.40
  -3  -9  14    3.00    0.39
   3   9 -13   -0.34    0.20
  -3  -9  13   -0.35    0.22
   3   9 -12    0.67    0.21
  -3  -9  12    0.56    0.22
   3   9 -11    0.48    0.15
  -3  -9  11    0.36    0.17
   3   9 -10    0.04    0.10
  -3  -9  10    0.00    0.13
   3   9  -9    0.30    0.13
  -3  -9   9    0.01    0.11
   3   9  -8    1.21    0.18
  -3  -9   8    0.96    0.22
   3   9  -7    0.61    0.14
  -3  -9   7    0.62    0.18
   3   9  -6    3.46    0.33
  -3  -9   6    2.94    0.32
   3   9  -5    0.04    0.10
  -3  -9   5    0.01    0.08
   3   9  -4    0.06    0.09
   3   9  -4   -0.02    0.05
  -3  -9   4   -0.09    0.10
   3   9  -3    3.88    0.27
   3   9  -3    2.89    0.21
  -3  -9   3    3.32    0.26
   3   9  -2    2.20    0.17
   3   9  -2    2.58    0.24
  -3  -9   2    2.34    0.21
   3   9  -1    3.63    0.26
   3   9  -1    3.98    0.31
  -3  -9   1    3.81    0.29
   3   9   0    3.67    0.28
   3   9   0    3.49    0.29
  -3  -9   0    3.61    0.27
   3   9   1    0.06    0.07
   3   9   1   -0.02    0.08
  -3  -9  -1    0.02    0.10
   3   9   2    2.75    0.31
   3   9   2    2.76    0.21
  -3  -9  -2    3.18    0.30
   3   9   3    4.19    0.41
   3   9   3    3.43    0.23
  -3  -9  -3    4.78    0.33
   3   9   4    2.27    0.27
   3   9   4    1.82    0.15
  -3  -9  -4    2.27    0.22
   3   9   5    1.19    0.13
   3   9   5    1.42    0.24
  -3  -9  -5    1.74    0.19
   3   9   6    1.14    0.28
  -3  -9  -6    0.89    0.22
   3   9   7    0.12    0.12
  -3  -9  -7   -0.03    0.10
   3   9   8    3.78    0.43
  -3  -9  -8    4.36    0.38
   3   9   9    5.04    0.63
  -3  -9  -9    4.82    0.44
   3   9  10    0.85    0.29
  -3  -9 -10    0.95    0.24
   3   9  11    0.46    0.21
  -3  -9 -11    0.29    0.19
   3   9  12    0.87    0.28
  -3  -9 -12    0.69    0.21
  -3  -9 -13    1.31    0.32
   3   9  14    1.19    0.34
  -3  -9 -14    1.01    0.32
   3   9  15    0.01    0.32
  -3  -9 -15    0.84    0.24
   3   9  16    0.43    0.29
  -3  -9 -16    0.27    0.22
   3   9  17   -0.00    0.32
  -3  -9 -17    0.27    0.24
   3   9  18    0.56    0.46
  -3  -9 -18    1.03    0.30
   3  10 -19    0.56    0.32
  -3 -10  19    0.97    0.32
   3  10 -18    0.01    0.20
  -3 -10  18    0.20    0.22
   3  10 -17    0.43    0.21
  -3 -10  17    0.75    0.31
   3  10 -16    0.24    0.19
  -3 -10  16    0.36    0.26
   3  10 -15    0.39    0.21
  -3 -10  15    0.83    0.24
   3  10 -14    0.71    0.22
  -3 -10  14    0.84    0.25
   3  10 -13   -0.15    0.13
  -3 -10  13   -0.07    0.18
   3  10 -12    0.95    0.27
  -3 -10  12    0.97    0.26
   3  10 -11    0.16    0.13
  -3 -10  11    0.10    0.14
   3  10 -10    0.05    0.11
  -3 -10  10   -0.21    0.14
   3  10  -9   -0.10    0.14
  -3 -10   9    0.46    0.16
   3  10  -8    1.15    0.21
  -3 -10   8    1.42    0.22
   3  10  -7    1.72    0.23
  -3 -10   7    1.90    0.23
   3  10  -6    0.35    0.15
  -3 -10   6    0.16    0.12
   3  10  -5    2.50    0.31
  -3 -10   5    2.65    0.25
   3  10  -4    0.01    0.11
   3  10  -4    0.05    0.07
  -3 -10   4    0.15    0.11
   3  10  -3    3.30    0.27
   3  10  -3    2.57    0.20
  -3 -10   3    2.98    0.27
   3  10  -2    1.38    0.19
   3  10  -2    1.18    0.14
  -3 -10   2    1.27    0.22
   3  10  -1   -0.05    0.07
   3  10  -1   -0.07    0.09
  -3 -10   1    0.10    0.08
   3  10   0    1.54    0.19
   3  10   0    1.32    0.21
  -3 -10   0    1.55    0.21
   3  10   1    2.78    0.29
   3  10   1    3.11    0.27
  -3 -10  -1    3.78    0.31
   3  10   2    0.63    0.19
   3  10   2    0.58    0.12
  -3 -10  -2    0.65    0.19
   3  10   3    4.33    0.31
   3  10   3    6.36    0.54
  -3 -10  -3    6.50    0.48
   3  10   4   16.16    1.09
  -3 -10  -4   14.69    0.91
   3  10   5    0.35    0.20
  -3 -10  -5    0.65    0.16
   3  10   6    1.40    0.33
  -3 -10  -6    1.18    0.26
   3  10   7    5.87    0.57
  -3 -10  -7    6.27    0.52
   3  10   8    2.85    0.42
  -3 -10  -8    3.96    0.45
   3  10   9    8.37    0.96
  -3 -10  -9    9.50    0.84
   3  10  10    5.98    0.76
  -3 -10 -10    5.64    0.56
   3  10  11    0.96    0.29
  -3 -10 -11    0.86    0.24
   3  10  12    0.32    0.25
  -3 -10 -12    0.40    0.18
   3  10  13    0.41    0.26
  -3 -10 -13    0.49    0.25
   3  10  14    4.39    0.71
  -3 -10 -14    3.80    0.62
   3  10  15    0.67    0.41
  -3 -10 -15    1.18    0.29
   3  10  16    1.73    0.56
  -3 -10 -16    2.45    0.43
   3  10  17    0.23    0.30
  -3 -10 -17    0.22    0.25
   3  11 -18    0.43    0.24
  -3 -11  18    1.10    0.34
   3  11 -17    1.63    0.35
  -3 -11  17    2.42    0.44
   3  11 -16    1.46    0.38
  -3 -11  16    3.01    0.47
   3  11 -15    0.31    0.16
  -3 -11  15   -0.01    0.23
   3  11 -14    0.03    0.13
  -3 -11  14    0.02    0.14
   3  11 -13    1.07    0.25
  -3 -11  13    0.85    0.29
   3  11 -12    0.29    0.21
  -3 -11  12    0.41    0.19
   3  11 -11    0.01    0.13
  -3 -11  11    0.22    0.15
   3  11 -10    0.42    0.15
  -3 -11  10    0.06    0.15
   3  11  -9    0.45    0.16
  -3 -11   9    0.29    0.20
   3  11  -8    0.49    0.20
  -3 -11   8    0.50    0.17
   3  11  -7   -0.02    0.11
  -3 -11   7   -0.19    0.14
   3  11  -6    0.78    0.19
  -3 -11   6    1.00    0.18
   3  11  -5    4.50    0.40
  -3 -11   5    4.79    0.38
   3  11  -4    0.12    0.11
  -3 -11   4    0.10    0.11
   3  11  -3    0.66    0.17
   3  11  -3    0.48    0.11
  -3 -11   3    0.67    0.19
   3  11  -2    1.88    0.25
   3  11  -2    1.42    0.19
  -3 -11   2    1.88    0.22
   3  11  -1    0.48    0.13
   3  11  -1    0.48    0.15
  -3 -11   1    0.48    0.14
   3  11   0    0.11    0.13
   3  11   0    0.27    0.12
  -3 -11   0    0.22    0.14
   3  11   1   -0.08    0.12
   3  11   1    0.00    0.08
  -3 -11  -1    0.21    0.11
   3  11   2    0.76    0.20
   3  11   2    0.59    0.14
  -3 -11  -2    0.68    0.18
   3  11   3    0.04    0.12
   3  11   3   -0.01    0.08
  -3 -11  -3    0.22    0.13
   3  11   4    0.22    0.10
   3  11   4    0.47    0.21
  -3 -11  -4    0.76    0.15
   3  11   5    1.12    0.29
  -3 -11  -5    0.84    0.24
   3  11   6    0.40    0.20
  -3 -11  -6    0.38    0.17
   3  11   7    2.05    0.40
  -3 -11  -7    1.91    0.30
   3  11   8    4.30    0.54
  -3 -11  -8    4.64    0.48
   3  11   9    9.03    1.14
  -3 -11  -9   10.76    0.98
   3  11  10   12.50    1.40
  -3 -11 -10   12.52    1.16
   3  11  11    0.36    0.28
  -3 -11 -11    0.15    0.22
   3  11  12    0.37    0.27
  -3 -11 -12    0.55    0.22
  -3 -11 -13   -0.19    0.20
   3  11  14    0.31    0.32
  -3 -11 -14    0.62    0.27
   3  11  15    5.55    0.99
  -3 -11 -15    5.12    0.81
   3  12 -17    0.17    0.23
  -3 -12  17    0.54    0.24
   3  12 -16    1.13    0.30
  -3 -12  16    0.89    0.33
   3  12 -15   -0.00    0.18
  -3 -12  15    0.68    0.22
   3  12 -14    0.07    0.16
  -3 -12  14   -0.29    0.20
   3  12 -13    0.27    0.25
  -3 -12  13    0.56    0.21
   3  12 -12    0.02    0.14
  -3 -12  12   -0.08    0.16
   3  12 -11    0.86    0.23
  -3 -12  11    0.89    0.28
   3  12 -10    8.83    0.91
  -3 -12  10   10.63    0.91
   3  12  -9    0.23    0.15
  -3 -12   9    0.14    0.15
   3  12  -8    0.80    0.21
  -3 -12   8    0.85    0.20
   3  12  -7   -0.23    0.16
  -3 -12   7   -0.03    0.16
   3  12  -6    0.69    0.21
  -3 -12   6    0.67    0.17
   3  12  -5    0.07    0.14
  -3 -12   5    0.10    0.11
   3  12  -4   -0.01    0.13
  -3 -12   4   -0.08    0.11
   3  12  -3    0.55    0.13
   3  12  -3    0.59    0.16
  -3 -12   3    0.90    0.17
   3  12  -2    0.12    0.12
   3  12  -2    0.22    0.15
  -3 -12   2    0.48    0.14
   3  12  -1    0.59    0.17
   3  12  -1    0.75    0.20
  -3 -12   1    0.91    0.18
   3  12   0    0.24    0.14
   3  12   0    0.30    0.14
  -3 -12   0    0.22    0.18
   3  12   1    0.94    0.18
   3  12   1    0.71    0.21
  -3 -12  -1    1.35    0.21
   3  12   2   -0.09    0.13
   3  12   2    0.00    0.09
  -3 -12  -2    0.05    0.10
   3  12   3    2.13    0.37
   3  12   3    1.36    0.22
  -3 -12  -3    2.83    0.33
   3  12   4    1.46    0.34
  -3 -12  -4    1.43    0.28
   3  12   5    3.03    0.42
  -3 -12  -5    3.13    0.35
   3  12   6    0.95    0.31
  -3 -12  -6    0.91    0.24
   3  12   7    0.96    0.34
  -3 -12  -7    2.07    0.29
   3  12   8    0.39    0.22
  -3 -12  -8    0.00    0.18
   3  12   9    1.03    0.29
  -3 -12  -9    0.60    0.29
   3  12  10    0.41    0.30
  -3 -12 -10    0.82    0.28
   3  12  11   -0.12    0.23
  -3 -12 -11    0.12    0.15
   3  12  12    2.03    0.53
  -3 -12 -12    1.52    0.35
   3  12  13    0.34    0.37
  -3 -12 -13    0.49    0.28
   3  12  14    1.71    0.60
  -3 -12 -14    1.48    0.44
   3  13 -15    1.09    0.43
  -3 -13  15    2.19    0.46
   3  13 -14    0.22    0.23
  -3 -13  14    0.11    0.19
   3  13 -13    0.57    0.26
  -3 -13  13    0.68    0.30
   3  13 -12    0.31    0.23
  -3 -13  12    0.76    0.22
   3  13 -11    2.52    0.49
  -3 -13  11    2.81    0.41
   3  13 -10    0.06    0.18
  -3 -13  10    0.44    0.18
   3  13  -9    3.39    0.45
   3  13  -8    0.64    0.25
  -3 -13   8    0.53    0.20
   3  13  -7    0.66    0.26
  -3 -13   7    0.90    0.24
   3  13  -6   -0.16    0.12
  -3 -13   6    0.23    0.12
   3  13  -5    0.64    0.20
  -3 -13   5    0.34    0.21
   3  13  -4   -0.17    0.15
  -3 -13   4    0.09    0.14
   3  13  -3    0.35    0.22
  -3 -13   3    0.82    0.18
   3  13  -2    0.04    0.11
   3  13  -2    0.01    0.15
  -3 -13   2    0.26    0.13
   3  13  -1    1.12    0.24
   3  13  -1    1.29    0.21
  -3 -13   1    1.59    0.24
   3  13   0    0.35    0.15
   3  13   0    0.93    0.18
  -3 -13   0    0.61    0.18
   3  13   1    0.27    0.15
  -3 -13  -1    0.05    0.17
   3  13   2    0.28    0.15
   3  13   2    0.84    0.21
  -3 -13  -2    0.41    0.21
   3  13   3    0.83    0.29
  -3 -13  -3    1.37    0.29
   3  13   4    0.45    0.22
  -3 -13  -4    0.23    0.20
   3  13   5    0.33    0.19
  -3 -13  -5    0.34    0.22
   3  13   6    0.99    0.33
  -3 -13  -6    1.02    0.29
   3  13   7    0.20    0.26
  -3 -13  -7    0.26    0.21
   3  13   8    0.29    0.26
  -3 -13  -8    0.15    0.21
   3  13   9    0.14    0.23
  -3 -13  -9    0.51    0.25
   3  13  10   -0.06    0.25
  -3 -13 -10   -0.06    0.20
   3  13  11    0.40    0.32
  -3 -13 -11    0.18    0.20
  -3 -13 -12    0.94    0.30
   3  14 -13    0.09    0.24
  -3 -14  13    0.26    0.20
   3  14 -12    1.11    0.33
  -3 -14  12    1.37    0.39
   3  14 -11   -0.13    0.23
  -3 -14  11    0.33    0.21
   3  14 -10   -0.02    0.16
  -3 -14  10   -0.09    0.14
   3  14  -9    0.26    0.16
  -3 -14   9   -0.16    0.12
   3  14  -8    0.72    0.29
   3  14  -7    0.21    0.16
  -3 -14   7    0.03    0.17
   3  14  -6   -0.04    0.16
  -3 -14   6    0.25    0.14
   3  14  -5    0.01    0.13
  -3 -14   5    0.05    0.15
   3  14  -4    0.37    0.24
  -3 -14   4    0.64    0.18
   3  14  -3    0.49    0.21
  -3 -14   3    0.26    0.22
   3  14  -2    0.32    0.18
  -3 -14   2    0.19    0.19
   3  14  -1    0.09    0.16
  -3 -14   1    0.37    0.16
   3  14   0    0.16    0.16
   3  14   0    0.12    0.16
  -3 -14   0    0.11    0.15
   3  14   1   -0.06    0.12
   3  14   1    0.01    0.13
  -3 -14  -1    0.09    0.12
   3  14   2    0.04    0.16
  -3 -14  -2    0.11    0.15
   3  14   3   -0.09    0.16
  -3 -14  -3    0.16    0.13
   3  14   4    0.18    0.21
  -3 -14  -4    0.15    0.18
   3  14   5    0.08    0.17
  -3 -14  -5    0.05    0.19
   3  14   6   -0.01    0.25
  -3 -14  -6    0.54    0.25
   3  14   7    0.80    0.40
  -3 -14  -7    1.13    0.35
   3  14   8    0.03    0.22
  -3 -14  -8    0.20    0.19
   3  14   9    0.35    0.45
  -3 -14  -9    1.20    0.31
   3  14  10    0.39    0.47
  -3 -14 -10    1.27    0.38
   3  15 -10    1.57    0.48
  -3 -15  10    2.14    0.44
   3  15  -9    1.00    0.32
  -3 -15   9    0.49    0.25
   3  15  -8    0.02    0.20
  -3 -15   8    0.10    0.15
   3  15  -7    0.87    0.27
   3  15  -6    0.03    0.15
   3  15  -5   -0.05    0.24
  -3 -15   5    0.59    0.18
   3  15  -4    0.08    0.23
  -3 -15   4    0.55    0.21
   3  15  -3    0.21    0.16
  -3 -15   3    0.18    0.16
   3  15  -2    1.32    0.30
  -3 -15   2    0.98    0.31
   3  15  -1    0.21    0.17
  -3 -15   1    0.05    0.15
   3  15   0    0.25    0.19
  -3 -15   0    0.40    0.18
  -3 -15  -1    0.36    0.24
   3  15   2    0.09    0.21
  -3 -15  -2    0.32    0.21
   3  15   3    1.91    0.31
  -3 -15  -3    0.07    0.22
   3  15   4   -0.01    0.23
  -3 -15  -4    0.72    0.21
   3  15   5   -0.00    0.20
  -3 -15  -5   -0.04    0.18
   3  15   6   -0.06    0.27
  -3 -15  -6    0.41    0.24
   3  15   7    0.17    0.28
   3  16  -6    0.09    0.22
   3  16  -5    0.15    0.22
   3  16  -4    0.24    0.22
  -3 -16   4    0.59    0.21
   3  16  -3    0.38    0.24
   3  16  -2    1.71    0.34
  -3 -16   1    4.40    0.55
  -3 -16   0    0.38    0.21
  -3 -16  -1    1.12    0.35
  -3 -16  -2   -0.04    0.15
  -4  17   1    0.46    0.32
  -4  17   0    0.25    0.17
  -4  17   0    0.45    0.25
   4 -17   1    0.37    0.17
  -4  17  -1    0.02    0.20
  -4  17  -2    0.39    0.23
  -4  17  -3    0.10    0.16
  -4  17  -4    0.59    0.28
  -4  17  -5    2.31    0.44
   4 -16  -6    0.12    0.15
  -4  16   6   -0.24    0.22
   4 -16  -5   -0.12    0.16
  -4  16   5   -0.02    0.28
   4 -16  -4    1.68    0.35
  -4  16   4    2.60    0.60
   4 -16  -3    1.58    0.32
  -4  16   3    1.39    0.44
   4 -16  -2    1.02    0.21
   4 -16  -2    0.79    0.25
  -4  16   2    0.84    0.25
   4 -16  -1    0.22    0.20
   4 -16  -1    0.48    0.15
  -4  16   1    0.18    0.21
   4 -16   0   -0.10    0.13
   4 -16   0    0.05    0.12
  -4  16   0    0.09    0.12
   4 -16   1    0.02    0.18
   4 -16   1    1.12    0.18
  -4  16  -1    0.19    0.24
   4 -16   2    0.09    0.11
   4 -16   2   -0.06    0.13
  -4  16  -2    0.05    0.16
   4 -16   3    0.50    0.19
   4 -16   3    0.49    0.19
  -4  16  -3    0.47    0.25
   4 -16   4    4.29    0.43
   4 -16   4    3.87    0.46
  -4  16  -4    3.64    0.51
   4 -16   5    0.17    0.15
  -4  16  -5    0.04    0.20
   4 -16   6    0.68    0.24
  -4  16  -6    1.35    0.31
   4 -16   7    0.14    0.15
  -4  16  -7    0.14    0.20
   4 -16   8    0.19    0.18
  -4  16  -8    0.40    0.22
  -4  16  -9   -0.14    0.20
  -4  16 -10    0.01    0.18
   4 -15  -9    0.18    0.16
  -4  15   9    0.39    0.34
   4 -15  -8    0.05    0.15
  -4  15   8    0.07    0.23
   4 -15  -7    1.20    0.29
  -4  15   7    1.97    0.52
   4 -15  -6    1.42    0.31
  -4  15   6    2.44    0.54
   4 -15  -5    0.25    0.16
  -4  15   5    0.66    0.27
   4 -15  -4    0.71    0.20
   4 -15  -4    0.46    0.18
  -4  15   4    0.40    0.21
   4 -15  -3    0.18    0.19
   4 -15  -3    0.57    0.18
  -4  15   3    0.27    0.18
   4 -15  -2    0.94    0.21
   4 -15  -2    0.75    0.23
  -4  15   2    0.78    0.24
   4 -15  -1   -0.02    0.14
   4 -15  -1   -0.09    0.12
  -4  15   1    0.03    0.14
   4 -15   0    0.88    0.19
   4 -15   0    0.90    0.19
  -4  15   0    0.41    0.25
   4 -15   1    2.54    0.29
   4 -15   1    1.66    0.28
  -4  15  -1    1.47    0.30
   4 -15   2    5.76    0.47
   4 -15   2    3.98    0.44
  -4  15  -2    3.65    0.55
   4 -15   3    2.11    0.30
   4 -15   3    2.34    0.25
  -4  15  -3    1.44    0.40
   4 -15   4    4.66    0.39
   4 -15   4    3.87    0.41
  -4  15  -4    2.59    0.52
   4 -15   5    0.45    0.16
   4 -15   5    0.39    0.17
  -4  15  -5    0.33    0.19
   4 -15   6    1.03    0.19
   4 -15   6    0.61    0.21
  -4  15  -6    1.07    0.23
   4 -15   7   -0.03    0.12
  -4  15  -7    0.08    0.14
   4 -15   8   -0.06    0.13
  -4  15  -8   -0.07    0.14
   4 -15   9    0.83    0.23
  -4  15  -9    0.95    0.26
   4 -15  10    0.25    0.16
  -4  15 -10    0.08    0.21
   4 -15  11   -0.07    0.14
  -4  15 -11    0.09    0.17
   4 -15  12   -0.07    0.18
  -4  15 -12   -0.15    0.17
   4 -14 -12    0.21    0.23
  -4  14  12    0.92    0.42
   4 -14 -11   -0.12    0.18
  -4  14  11   -0.00    0.26
   4 -14 -10    0.19    0.15
  -4  14  10    0.31    0.27
   4 -14  -9   -0.11    0.10
  -4  14   9    0.71    0.25
   4 -14  -8    0.09    0.18
  -4  14   8    0.80    0.26
   4 -14  -7    0.38    0.18
  -4  14   7    0.20    0.26
   4 -14  -6    0.07    0.12
  -4  14   6    0.25    0.20
   4 -14  -5    0.22    0.14
   4 -14  -5    0.12    0.15
  -4  14   5    0.22    0.14
   4 -14  -4    0.41    0.19
   4 -14  -4    0.30    0.17
  -4  14   4    0.55    0.18
   4 -14  -3    1.97    0.29
   4 -14  -3    1.27    0.24
  -4  14   3    0.91    0.24
   4 -14  -2    0.11    0.09
   4 -14  -2   -0.08    0.11
  -4  14   2    0.00    0.12
   4 -14  -1    1.59    0.27
   4 -14  -1    1.22    0.21
  -4  14   1    1.20    0.27
   4 -14   0    0.74    0.19
   4 -14   0    0.69    0.17
  -4  14   0    0.45    0.22
   4 -14   1    0.32    0.15
   4 -14   1    0.20    0.14
  -4  14  -1    0.19    0.14
   4 -14   2    3.31    0.32
   4 -14   2    3.03    0.33
  -4  14  -2    1.97    0.39
   4 -14   3    2.20    0.23
   4 -14   3    2.72    0.29
  -4  14  -3    1.34    0.36
   4 -14   4    1.00    0.18
   4 -14   4    0.80    0.19
  -4  14  -4    0.59    0.26
   4 -14   5    3.91    0.34
   4 -14   5    3.93    0.37
  -4  14  -5    2.73    0.48
   4 -14   6    1.44    0.21
   4 -14   6    1.81    0.24
  -4  14  -6    0.99    0.34
   4 -14   7    0.29    0.15
   4 -14   7    0.28    0.13
  -4  14  -7    0.27    0.22
   4 -14   8    1.03    0.20
  -4  14  -8    0.69    0.24
   4 -14   9    1.37    0.23
  -4  14  -9    0.95    0.27
   4 -14  10    0.16    0.15
  -4  14 -10    0.18    0.20
   4 -14  11    1.17    0.27
  -4  14 -11    1.22    0.28
   4 -14  12    0.78    0.25
  -4  14 -12    0.79    0.25
   4 -14  13   -0.24    0.19
  -4  14 -13   -0.11    0.23
   4 -14  14    0.12    0.22
  -4  14 -14    0.38    0.22
   4 -14  15    1.85    0.40
  -4  14 -15    1.54    0.46
   4 -13 -14    0.09    0.15
   4 -13 -13    0.46    0.22
  -4  13  13    0.23    0.32
   4 -13 -12    0.09    0.16
  -4  13  12   -0.01    0.25
   4 -13 -11    0.19    0.16
  -4  13  11   -0.10    0.24
   4 -13 -10    0.27    0.19
  -4  13  10    0.80    0.36
   4 -13  -9    0.78    0.23
  -4  13   9    1.34    0.41
   4 -13  -8    0.06    0.12
  -4  13   8    0.04    0.19
   4 -13  -7    1.58    0.22
  -4  13   7    0.36    0.22
   4 -13  -6    1.01    0.23
   4 -13  -6    0.68    0.16
  -4  13   6    0.71    0.19
   4 -13  -5    0.09    0.13
   4 -13  -5    0.06    0.11
  -4  13   5    0.03    0.11
   4 -13  -4   -0.10    0.09
   4 -13  -4   -0.00    0.09
  -4  13   4    0.10    0.10
   4 -13  -3    0.87    0.16
   4 -13  -3    0.71    0.16
  -4  13   3    0.14    0.18
   4 -13  -2    0.50    0.12
   4 -13  -2   -0.05    0.12
  -4  13   2    0.14    0.14
   4 -13  -1    1.38    0.18
   4 -13  -1    2.63    0.27
  -4  13   1    1.11    0.23
   4 -13   0    1.13    0.21
   4 -13   0    0.97    0.17
  -4  13   0    0.61    0.20
   4 -13   1    2.53    0.26
   4 -13   1    1.79    0.22
  -4  13  -1    1.41    0.29
   4 -13   2    3.56    0.32
   4 -13   2    3.44    0.30
  -4  13  -2    2.07    0.41
   4 -13   3    1.77    0.19
   4 -13   3    1.51    0.21
  -4  13  -3    1.45    0.30
   4 -13   4    0.64    0.15
   4 -13   4    0.68    0.15
  -4  13  -4    0.51    0.22
   4 -13   5   -0.14    0.09
   4 -13   5   -0.03    0.09
  -4  13  -5    0.21    0.11
   4 -13   6    1.75    0.20
   4 -13   6    1.94    0.22
  -4  13  -6    1.64    0.28
   4 -13   7    0.59    0.16
   4 -13   7    0.74    0.16
  -4  13  -7    0.89    0.25
   4 -13   8    0.91    0.15
   4 -13   8    0.89    0.16
  -4  13  -8    0.67    0.21
   4 -13   9    0.10    0.09
   4 -13   9    0.11    0.10
  -4  13  -9   -0.05    0.14
   4 -13  10    1.53    0.26
  -4  13 -10    0.92    0.32
   4 -13  11    1.74    0.28
  -4  13 -11    1.45    0.30
   4 -13  12    0.08    0.13
  -4  13 -12   -0.13    0.15
   4 -13  13    0.24    0.19
  -4  13 -13    1.29    0.24
   4 -13  14    0.46    0.18
  -4  13 -14    0.19    0.23
   4 -13  15    0.88    0.26
  -4  13 -15    0.43    0.25
   4 -13  16    1.03    0.27
  -4  13 -16    0.90    0.30
   4 -12 -15    0.55    0.22
  -4  12  15    0.21    0.43
   4 -12 -14    0.08    0.15
  -4  12  14    0.53    0.33
   4 -12 -13    0.05    0.16
  -4  12  13    0.47    0.31
   4 -12 -12    0.06    0.12
  -4  12  12   -0.25    0.24
   4 -12 -11    0.07    0.11
  -4  12  11   -0.05    0.19
   4 -12 -10    0.62    0.20
  -4  12  10    0.79    0.30
   4 -12  -9    0.76    0.21
  -4  12   9    1.17    0.31
   4 -12  -8    0.35    0.14
  -4  12   8    0.08    0.14
   4 -12  -7    3.40    0.36
   4 -12  -7    2.97    0.27
  -4  12   7    1.97    0.30
   4 -12  -6    0.52    0.15
   4 -12  -6    0.68    0.18
  -4  12   6    0.26    0.14
   4 -12  -5    0.97    0.20
   4 -12  -5    0.74    0.16
  -4  12   5    0.56    0.16
   4 -12  -4   -0.05    0.12
   4 -12  -4    0.00    0.09
  -4  12   4   -0.07    0.10
   4 -12  -3    0.56    0.17
   4 -12  -3    0.45    0.14
  -4  12   3    0.69    0.16
   4 -12  -2    1.53    0.19
   4 -12  -2    1.68    0.18
  -4  12   2    0.67    0.23
   4 -12  -1    0.22    0.11
   4 -12  -1    0.10    0.09
  -4  12   1    0.76    0.14
   4 -12   0    1.34    0.17
   4 -12   0    1.20    0.17
  -4  12   0    0.85    0.23
   4 -12   1    6.94    0.43
   4 -12   1    6.58    0.44
  -4  12  -1    5.85    0.55
   4 -12   2    0.95    0.18
  -4  12  -2    0.92    0.22
   4 -12   3    0.39    0.14
   4 -12   3    0.59    0.12
  -4  12  -3    0.28    0.18
   4 -12   4    0.36    0.12
   4 -12   4    0.41    0.13
  -4  12  -4    0.49    0.15
   4 -12   5    0.20    0.10
   4 -12   5    0.22    0.10
  -4  12  -5   -0.05    0.13
   4 -12   6    1.31    0.18
   4 -12   6    0.84    0.16
  -4  12  -6    1.16    0.26
   4 -12   7    2.55    0.26
   4 -12   7    2.78    0.26
  -4  12  -7    2.09    0.30
   4 -12   8    0.07    0.09
   4 -12   8   -0.02    0.11
  -4  12  -8    0.08    0.14
   4 -12   9    0.64    0.16
  -4  12  -9    0.32    0.18
   4 -12  10    0.96    0.21
   4 -12  10    1.00    0.15
  -4  12 -10    0.49    0.24
   4 -12  11    2.39    0.31
  -4  12 -11    1.54    0.32
   4 -12  12    0.64    0.22
  -4  12 -12    0.48    0.20
   4 -12  13    1.62    0.30
  -4  12 -13    1.28    0.32
   4 -12  14    0.01    0.17
  -4  12 -14    0.21    0.15
   4 -12  15   -0.05    0.17
  -4  12 -15   -0.09    0.15
   4 -12  16    1.27    0.33
  -4  12 -16    0.90    0.30
   4 -12  17   -0.19    0.16
  -4  12 -17    0.22    0.19
  -4  12 -18    0.26    0.26
  -4  11  17   -0.04    0.30
   4 -11 -16    0.06    0.18
  -4  11  16    0.56    0.35
   4 -11 -15    0.14    0.17
  -4  11  15    0.38    0.33
   4 -11 -14   -0.12    0.12
  -4  11  14    0.22    0.28
   4 -11 -13    0.50    0.22
  -4  11  13    1.77    0.42
   4 -11 -12    0.24    0.13
  -4  11  12    0.35    0.31
   4 -11 -11   -0.00    0.12
  -4  11  11   -0.05    0.21
   4 -11 -10    0.10    0.12
  -4  11  10    0.09    0.19
   4 -11  -9    3.78    0.31
  -4  11   9    1.94    0.32
   4 -11  -8    0.07    0.13
   4 -11  -8    0.08    0.10
  -4  11   8    0.01    0.09
   4 -11  -7    3.11    0.31
   4 -11  -7    2.27    0.22
  -4  11   7    1.69    0.24
   4 -11  -6    0.24    0.10
   4 -11  -6   -0.06    0.10
  -4  11   6    0.03    0.09
   4 -11  -5    0.16    0.13
   4 -11  -5    0.39    0.11
  -4  11   5    0.29    0.12
   4 -11  -4    0.77    0.14
   4 -11  -4    1.01    0.19
  -4  11   4    0.72    0.16
   4 -11  -3    0.99    0.15
   4 -11  -3    1.50    0.22
  -4  11   3    1.13    0.20
   4 -11  -2    9.25    0.56
   4 -11  -2    9.46    0.51
  -4  11   2    9.43    0.61
   4 -11  -1    5.45    0.38
   4 -11  -1    5.28    0.34
  -4  11   1    6.09    0.48
   4 -11   0   37.46    1.83
   4 -11   0   34.52    1.53
  -4  11   0   30.18    1.83
   4 -11   1    1.18    0.19
   4 -11   1    1.47    0.17
  -4  11  -1    1.38    0.25
   4 -11   2   39.90    1.91
   4 -11   2   37.40    1.67
  -4  11  -2   37.19    2.09
   4 -11   3    3.75    0.28
   4 -11   3    3.61    0.32
  -4  11  -3    4.24    0.42
   4 -11   4    0.13    0.11
   4 -11   4    0.09    0.09
  -4  11  -4    0.18    0.12
   4 -11   5    5.95    0.39
   4 -11   5    5.54    0.35
  -4  11  -5    5.32    0.53
   4 -11   6    0.05    0.10
  -4  11  -6    0.00    0.11
   4 -11   7   13.63    0.70
   4 -11   7   15.85    0.85
  -4  11  -7   15.45    1.02
   4 -11   8    2.68    0.25
   4 -11   8    3.01    0.29
  -4  11  -8    3.22    0.39
   4 -11   9    0.77    0.13
   4 -11   9    0.66    0.16
  -4  11  -9    0.30    0.18
   4 -11  10    1.00    0.14
   4 -11  10    0.83    0.19
  -4  11 -10    0.63    0.20
   4 -11  11    0.30    0.11
   4 -11  11    0.62    0.17
  -4  11 -11    0.37    0.20
   4 -11  12    0.88    0.22
   4 -11  12    0.70    0.16
  -4  11 -12    0.62    0.26
   4 -11  13    5.58    0.55
  -4  11 -13    3.91    0.46
   4 -11  14    0.79    0.24
  -4  11 -14    0.47    0.20
   4 -11  15    2.23    0.33
  -4  11 -15    0.69    0.25
   4 -11  16    0.59    0.26
  -4  11 -16    0.48    0.22
   4 -11  17    0.27    0.19
  -4  11 -17   -0.07    0.20
   4 -11  18    0.64    0.24
  -4  11 -18   -0.15    0.23
   4 -11  19    0.24    0.20
  -4  11 -19   -0.13    0.19
   4 -10 -18   -0.00    0.19
  -4  10  18   -0.29    0.31
   4 -10 -17    5.68    0.70
  -4  10  17    7.27    1.18
   4 -10 -16    1.71    0.34
  -4  10  16    2.48    0.63
   4 -10 -15    0.43    0.15
  -4  10  15   -0.13    0.35
   4 -10 -14    1.10    0.27
  -4  10  14    2.23    0.48
   4 -10 -13    1.73    0.28
  -4  10  13    2.43    0.43
   4 -10 -12    3.17    0.37
  -4  10  12    3.71    0.55
   4 -10 -11    1.51    0.20
  -4  10  11    2.00    0.34
   4 -10 -10    0.97    0.18
  -4  10  10    0.51    0.28
   4 -10  -9    0.54    0.13
   4 -10  -9    0.38    0.13
  -4  10   9    0.19    0.10
   4 -10  -8    8.94    0.53
   4 -10  -8    8.32    0.48
  -4  10   8    6.29    0.45
   4 -10  -7    2.69    0.29
   4 -10  -7    1.98    0.21
  -4  10   7    1.65    0.21
   4 -10  -6   -0.01    0.08
   4 -10  -6    0.07    0.10
  -4  10   6    0.13    0.08
   4 -10  -5    0.15    0.12
   4 -10  -5    0.19    0.08
  -4  10   5   -0.04    0.09
   4 -10  -4    0.75    0.13
   4 -10  -4    0.64    0.12
  -4  10   4    0.65    0.14
   4 -10  -3    0.78    0.16
   4 -10  -3    0.64    0.11
  -4  10   3    0.60    0.14
   4 -10  -2   14.64    0.72
   4 -10  -2   13.86    0.65
  -4  10   2   12.78    0.77
   4 -10  -1   10.30    0.50
   4 -10  -1   11.59    0.67
  -4  10   1   10.69    0.62
   4 -10   0   14.13    0.75
   4 -10   0   13.03    0.59
  -4  10   0   12.02    0.76
   4 -10   1    9.69    0.52
   4 -10   1   10.26    0.47
  -4  10  -1    9.25    0.54
   4 -10   2    0.75    0.11
   4 -10   2    0.77    0.14
  -4  10  -2    0.72    0.17
   4 -10   3    2.27    0.21
   4 -10   3    2.18    0.18
  -4  10  -3    1.72    0.28
   4 -10   4   -0.04    0.07
   4 -10   4   -0.03    0.08
  -4  10  -4   -0.07    0.09
   4 -10   5   10.83    0.56
   4 -10   5   10.09    0.52
  -4  10  -5    9.96    0.68
   4 -10   6    9.34    0.50
   4 -10   6    8.44    0.50
  -4  10  -6    7.92    0.64
   4 -10   7    8.64    0.49
   4 -10   7    9.89    0.55
  -4  10  -7    9.52    0.73
   4 -10   8    1.45    0.16
   4 -10   8    1.17    0.20
  -4  10  -8    1.33    0.22
   4 -10   9   -0.06    0.09
  -4  10  -9    0.01    0.10
   4 -10  10    0.00    0.09
   4 -10  10   -0.11    0.10
  -4  10 -10    0.19    0.10
   4 -10  11    6.30    0.49
   4 -10  11    5.45    0.40
  -4  10 -11    4.21    0.47
   4 -10  12    1.56    0.22
   4 -10  12    1.46    0.19
  -4  10 -12    1.05    0.24
   4 -10  13    1.41    0.23
  -4  10 -13    1.15    0.24
   4 -10  14    0.79    0.22
  -4  10 -14    0.47    0.18
   4 -10  15    2.16    0.34
  -4  10 -15    1.42    0.29
   4 -10  16    0.46    0.23
  -4  10 -16    0.48    0.19
   4 -10  17    1.32    0.33
  -4  10 -17    0.72    0.27
   4 -10  18    0.06    0.21
  -4  10 -18    0.21    0.17
   4 -10  19    0.16    0.25
  -4  10 -19    0.18    0.18
   4 -10  20    1.35    0.42
  -4  10 -20    1.23    0.35
   4  -9 -19    0.57    0.24
  -4   9  19    1.74    0.49
   4  -9 -18    2.04    0.34
  -4   9  18    2.87    0.69
   4  -9 -17    0.04    0.15
  -4   9  17    0.52    0.26
   4  -9 -16    0.79    0.20
  -4   9  16    1.15    0.38
   4  -9 -15    1.13    0.20
  -4   9  15    1.03    0.38
   4  -9 -14   -0.11    0.15
  -4   9  14   -0.40    0.26
   4  -9 -13    0.04    0.12
  -4   9  13    0.42    0.24
   4  -9 -12    1.82    0.25
  -4   9  12    1.83    0.38
   4  -9 -11   16.95    1.00
  -4   9  11   18.34    1.44
   4  -9 -10   -0.00    0.11
   4  -9 -10    0.21    0.10
  -4   9  10    0.03    0.06
   4  -9  -9   14.15    0.81
   4  -9  -9   13.25    0.73
  -4   9   9    9.92    0.58
   4  -9  -8    0.57    0.15
   4  -9  -8    0.97    0.16
  -4   9   8    0.60    0.11
   4  -9  -7    1.15    0.20
   4  -9  -7    1.27    0.14
  -4   9   7    0.82    0.13
   4  -9  -6    1.61    0.18
   4  -9  -6    1.45    0.15
  -4   9   6    1.06    0.15
   4  -9  -5    6.66    0.42
   4  -9  -5    6.21    0.35
  -4   9   5    7.37    0.40
   4  -9  -4    1.29    0.19
   4  -9  -4    1.05    0.13
  -4   9   4    1.25    0.16
   4  -9  -3    0.11    0.08
   4  -9  -3   -0.03    0.05
  -4   9   3    0.03    0.06
   4  -9  -2    3.14    0.26
   4  -9  -2    2.62    0.17
  -4   9   2    2.65    0.23
   4  -9  -1    1.77    0.19
  -4   9   1    1.47    0.19
   4  -9   0    1.55    0.18
   4  -9   0    1.24    0.11
  -4   9   0    1.60    0.15
   4  -9   1    1.72    0.19
   4  -9   1    1.65    0.13
  -4   9  -1    1.76    0.18
   4  -9   2    0.96    0.14
   4  -9   2    0.73    0.09
  -4   9  -2    0.80    0.14
   4  -9   3    1.50    0.17
   4  -9   3    1.41    0.13
  -4   9  -3    1.61    0.16
   4  -9   4    0.04    0.06
   4  -9   4    0.05    0.07
  -4   9  -4    0.19    0.09
   4  -9   5    0.44    0.09
   4  -9   5    0.17    0.08
  -4   9  -5    0.06    0.10
   4  -9   6    0.07    0.07
   4  -9   6    0.09    0.07
  -4   9  -6   -0.04    0.09
   4  -9   7    0.11    0.08
   4  -9   7    0.24    0.09
  -4   9  -7    0.17    0.10
   4  -9   8    0.45    0.11
   4  -9   8    0.04    0.11
  -4   9  -8    0.55    0.12
   4  -9   9    0.63    0.16
  -4   9  -9    0.78    0.16
   4  -9  10    0.96    0.14
   4  -9  10    1.26    0.19
  -4   9 -10    0.79    0.23
   4  -9  11    0.44    0.10
   4  -9  11    0.43    0.15
  -4   9 -11    0.25    0.16
   4  -9  12    0.11    0.08
   4  -9  12    0.07    0.11
  -4   9 -12   -0.17    0.13
   4  -9  13    0.51    0.12
   4  -9  13    0.66    0.20
  -4   9 -13    0.22    0.19
   4  -9  14    0.06    0.09
   4  -9  14    0.22    0.15
  -4   9 -14    0.03    0.12
   4  -9  15   -0.05    0.15
   4  -9  15    0.07    0.08
  -4   9 -15    0.10    0.12
   4  -9  16    0.54    0.23
  -4   9 -16    0.57    0.19
   4  -9  17    0.24    0.16
  -4   9 -17   -0.17    0.15
   4  -9  18    0.68    0.23
  -4   9 -18    0.52    0.27
   4  -9  19    0.43    0.23
  -4   9 -19    0.05    0.18
   4  -9  20    0.59    0.34
  -4   9 -20    0.81    0.25
  -4   8  20    0.08    0.32
   4  -8 -19    1.97    0.40
  -4   8  19    2.33    0.66
   4  -8 -18    0.29    0.16
  -4   8  18    0.03    0.28
   4  -8 -17    0.37    0.16
  -4   8  17    0.19    0.27
   4  -8 -16    0.75    0.19
  -4   8  16    0.83    0.39
   4  -8 -15    0.74    0.17
  -4   8  15    0.63    0.36
   4  -8 -14    0.50    0.15
  -4   8  14    1.24    0.30
   4  -8 -13    0.84    0.20
  -4   8  13    1.47    0.35
   4  -8 -12    0.48    0.14
  -4   8  12    0.29    0.21
   4  -8 -11    5.13    0.40
  -4   8  11    4.94    0.33
  -4   8  11    5.34    0.55
   4  -8 -10    0.63    0.14
   4  -8 -10    0.63    0.14
   4  -8  -9    0.54    0.13
   4  -8  -9    0.48    0.12
  -4   8   9    0.51    0.10
   4  -8  -8    0.21    0.11
   4  -8  -8    0.17    0.07
  -4   8   8    0.13    0.07
   4  -8  -7    0.93    0.15
   4  -8  -7    0.68    0.11
  -4   8   7    0.48    0.10
   4  -8  -6    9.02    0.49
   4  -8  -6    8.20    0.40
  -4   8   6    8.76    0.43
   4  -8  -5    7.27    0.39
   4  -8  -5    6.85    0.33
  -4   8   5    6.51    0.35
   4  -8  -4    0.15    0.06
   4  -8  -4    0.22    0.10
  -4   8   4    0.19    0.08
   4  -8  -3    0.24    0.11
   4  -8  -3    0.33    0.07
  -4   8   3    0.33    0.09
   4  -8  -2    9.37    0.46
   4  -8  -2   10.04    0.38
  -4   8   2    9.41    0.51
   4  -8  -1    0.08    0.04
   4  -8  -1    0.02    0.06
  -4   8   1   -0.03    0.08
   4  -8   0    0.72    0.13
  -4   8   0    0.82    0.13
   4  -8   1    8.52    0.40
   4  -8   1    7.75    0.29
  -4   8  -1    7.43    0.43
   4  -8   2    0.03    0.07
   4  -8   2    0.03    0.05
  -4   8  -2    0.05    0.07
   4  -8   3    4.99    0.27
   4  -8   3    4.86    0.23
  -4   8  -3    4.98    0.31
   4  -8   4    1.96    0.17
   4  -8   4    1.76    0.13
  -4   8  -4    1.64    0.21
   4  -8   5    8.90    0.40
   4  -8   5    9.53    0.46
  -4   8  -5    9.39    0.52
   4  -8   6    0.29    0.09
   4  -8   6    0.18    0.07
  -4   8  -6   -0.12    0.10
   4  -8   7    1.38    0.15
   4  -8   7    1.06    0.13
  -4   8  -7    1.19    0.20
   4  -8   8    0.14    0.08
   4  -8   8    0.16    0.09
  -4   8  -8    0.05    0.10
   4  -8   9    0.07    0.08
   4  -8   9    0.11    0.09
  -4   8  -9    0.18    0.11
   4  -8  10    0.32    0.12
   4  -8  10    0.13    0.10
  -4   8 -10    0.44    0.14
   4  -8  11    3.52    0.28
   4  -8  11    4.32    0.36
  -4   8 -11    3.68    0.34
   4  -8  12    0.65    0.13
   4  -8  12    0.47    0.17
  -4   8 -12    0.59    0.17
   4  -8  13    0.88    0.15
   4  -8  13    1.13    0.23
  -4   8 -13    1.30    0.23
   4  -8  14    1.36    0.19
   4  -8  14    1.47    0.22
  -4   8 -14    1.16    0.23
   4  -8  15    0.59    0.16
   4  -8  15    0.93    0.20
  -4   8 -15    0.86    0.22
   4  -8  16    0.14    0.10
   4  -8  16   -0.06    0.16
  -4   8 -16    0.13    0.15
   4  -8  17    1.51    0.30
  -4   8 -17    0.68    0.24
   4  -8  18    0.65    0.21
  -4   8 -18    0.42    0.24
   4  -8  19    0.10    0.25
  -4   8 -19    0.57    0.23
   4  -8  20    1.00    0.36
  -4   8 -20    1.03    0.31
   4  -8  21    0.47    0.27
  -4   8 -21    0.24    0.26
   4  -7 -20   -0.01    0.17
  -4   7  20   -0.16    0.28
   4  -7 -19    1.12    0.24
  -4   7  19    0.80    0.49
   4  -7 -18    1.77    0.30
  -4   7  18    2.20    0.46
   4  -7 -17    0.09    0.15
  -4   7  17   -0.00    0.20
   4  -7 -16    2.45    0.34
  -4   7  16    2.48    0.56
   4  -7 -15   -0.10    0.14
  -4   7  15    0.60    0.19
   4  -7 -14    1.23    0.22
  -4   7  14    1.69    0.39
   4  -7 -13    0.83    0.17
  -4   7  13    1.06    0.26
   4  -7 -12    9.25    0.57
  -4   7  12    9.99    0.90
  -4   7  12    7.98    0.43
   4  -7 -11    3.23    0.23
  -4   7  11    2.43    0.20
   4  -7 -10    0.71    0.16
   4  -7 -10    0.70    0.13
  -4   7  10    0.46    0.09
   4  -7  -9    1.86    0.18
   4  -7  -9    2.02    0.20
  -4   7   9    1.62    0.15
   4  -7  -8    0.14    0.08
   4  -7  -8    0.17    0.09
  -4   7   8    0.16    0.07
   4  -7  -7    0.13    0.07
   4  -7  -7    0.07    0.07
  -4   7   7    0.01    0.07
   4  -7  -6    0.06    0.05
   4  -7  -6   -0.05    0.08
  -4   7   6   -0.01    0.06
   4  -7  -5    1.60    0.13
   4  -7  -5    1.79    0.16
  -4   7   5    1.49    0.15
   4  -7  -4    1.79    0.14
   4  -7  -4    1.61    0.11
  -4   7   4    1.38    0.14
   4  -7  -3   -0.03    0.06
   4  -7  -3   -0.02    0.04
  -4   7   3    0.01    0.05
   4  -7  -2    0.40    0.05
   4  -7  -2    0.34    0.10
  -4   7   2    0.39    0.09
   4  -7  -1   11.84    0.36
   4  -7  -1   14.44    0.62
  -4   7   1   11.88    0.53
   4  -7   0    2.91    0.18
   4  -7   0    2.46    0.12
  -4   7   0    2.91    0.21
   4  -7   1   -0.01    0.06
   4  -7   1   -0.03    0.04
  -4   7  -1    0.33    0.06
   4  -7   2   10.84    0.36
   4  -7   2   10.48    0.44
  -4   7  -2   11.65    0.54
   4  -7   3    1.62    0.13
   4  -7   3    1.61    0.10
  -4   7  -3    1.83    0.18
   4  -7   4    1.77    0.14
   4  -7   4    1.47    0.12
  -4   7  -4    1.80    0.15
   4  -7   5    0.16    0.07
   4  -7   5    0.18    0.06
  -4   7  -5    0.14    0.08
   4  -7   6    5.87    0.32
   4  -7   6    6.00    0.28
  -4   7  -6    4.96    0.39
   4  -7   7    1.57    0.13
   4  -7   7    1.94    0.15
  -4   7  -7    1.85    0.18
   4  -7   8    0.60    0.11
   4  -7   8    0.46    0.11
  -4   7  -8    0.62    0.12
   4  -7   9    0.25    0.09
   4  -7   9    0.19    0.10
  -4   7  -9    0.41    0.12
   4  -7  10    0.09    0.08
   4  -7  10    0.06    0.09
  -4   7 -10    0.07    0.09
   4  -7  11    4.10    0.30
   4  -7  11    4.56    0.36
  -4   7 -11    4.16    0.38
   4  -7  12   -0.02    0.09
   4  -7  12    0.10    0.11
  -4   7 -12    0.07    0.09
   4  -7  13    1.62    0.21
   4  -7  13    2.09    0.26
  -4   7 -13    1.24    0.25
   4  -7  14   -0.07    0.09
   4  -7  14    0.05    0.10
  -4   7 -14   -0.15    0.12
   4  -7  15    0.99    0.22
   4  -7  15    0.39    0.15
  -4   7 -15    0.68    0.15
   4  -7  16    0.19    0.12
   4  -7  16    0.34    0.18
  -4   7 -16    0.13    0.15
   4  -7  17   -0.01    0.09
   4  -7  17   -0.03    0.15
  -4   7 -17    0.04    0.11
   4  -7  18    0.19    0.13
   4  -7  18    0.20    0.17
  -4   7 -18    0.03    0.18
   4  -7  19    2.06    0.34
  -4   7 -19    1.11    0.28
   4  -7  20   -0.03    0.16
  -4   7 -20   -0.08    0.16
   4  -7  21    0.37    0.27
  -4   7 -21    0.30    0.20
   4  -7  22    0.35    0.22
  -4   7 -22   -0.19    0.19
   4  -6 -21    1.06    0.36
  -4   6  21    1.63    0.53
   4  -6 -20    0.35    0.17
  -4   6  20    0.12    0.33
   4  -6 -19    6.54    0.68
  -4   6  19    6.91    0.85
   4  -6 -18    3.69    0.44
  -4   6  18    4.06    0.71
   4  -6 -17    1.81    0.28
  -4   6  17    2.71    0.44
   4  -6 -16    0.07    0.12
  -4   6  16   -0.04    0.21
   4  -6 -15    0.30    0.16
  -4   6  15    0.42    0.22
   4  -6 -14    8.61    0.64
  -4   6  14   10.04    0.97
   4  -6 -13   22.43    1.17
  -4   6  13   20.20    0.94
  -4   6  13   24.55    1.62
   4  -6 -12    4.72    0.32
  -4   6  12    3.98    0.26
  -4   6  12    4.34    0.46
   4  -6 -11   17.46    0.88
   4  -6 -11   17.83    0.90
  -4   6  11   17.30    0.76
   4  -6 -10    0.18    0.11
   4  -6 -10    0.47    0.11
  -4   6  10    0.47    0.08
   4  -6  -9    0.94    0.16
   4  -6  -9    0.88    0.11
  -4   6   9    0.96    0.10
   4  -6  -8    0.16    0.11
   4  -6  -8    0.39    0.09
  -4   6   8    0.36    0.08
   4  -6  -7    3.39    0.20
   4  -6  -7    3.67    0.23
  -4   6   7    3.26    0.20
   4  -6  -6   13.24    0.51
   4  -6  -6   13.76    0.64
  -4   6   6   13.18    0.56
   4  -6  -5   36.42    1.47
   4  -6  -5   33.11    1.13
  -4   6   5   34.67    1.31
   4  -6  -4    3.95    0.23
   4  -6  -4    4.03    0.17
  -4   6   4    4.24    0.22
   4  -6  -3   11.86    0.36
   4  -6  -3   13.22    0.52
  -4   6   3   12.67    0.56
   4  -6  -2    4.51    0.26
   4  -6  -2    3.86    0.14
  -4   6   2    4.45    0.24
   4  -6  -1    7.74    0.33
   4  -6  -1    7.45    0.22
  -4   6   1    8.11    0.38
   4  -6   0    0.33    0.07
   4  -6   0    0.15    0.03
  -4   6   0    0.28    0.06
   4  -6   1    1.52    0.07
   4  -6   1    1.38    0.11
  -4   6  -1    1.48    0.13
   4  -6   2   -0.16    0.07
   4  -6   2    0.01    0.03
  -4   6  -2   -0.06    0.06
   4  -6   3    0.07    0.07
   4  -6   3    0.11    0.04
  -4   6  -3    0.05    0.06
   4  -6   4    8.56    0.31
   4  -6   4    9.44    0.39
  -4   6  -4    9.69    0.48
   4  -6   5    1.36    0.11
   4  -6   5    1.43    0.13
  -4   6  -5    1.76    0.17
   4  -6   6    0.20    0.07
   4  -6   6    0.12    0.06
  -4   6  -6    0.06    0.09
   4  -6   7    3.68    0.21
   4  -6   7    3.61    0.21
  -4   6  -7    3.79    0.28
   4  -6   8    0.76    0.12
   4  -6   8    0.85    0.11
  -4   6  -8    0.60    0.15
   4  -6   9   -0.08    0.08
   4  -6   9   -0.11    0.07
  -4   6  -9    0.07    0.09
   4  -6  10    1.88    0.20
   4  -6  10    1.67    0.15
  -4   6 -10    1.86    0.22
   4  -6  11    0.00    0.07
  -4   6 -11   -0.02    0.08
   4  -6  12   11.25    0.65
   4  -6  12   11.91    0.77
  -4   6 -12   10.80    0.71
   4  -6  13    0.29    0.13
   4  -6  13    0.10    0.16
  -4   6 -13    0.65    0.12
   4  -6  14    0.56    0.15
   4  -6  14    0.63    0.17
  -4   6 -14    0.68    0.15
   4  -6  15    4.62    0.49
   4  -6  15    3.85    0.35
  -4   6 -15    4.07    0.40
   4  -6  16    4.45    0.49
   4  -6  16    3.50    0.34
  -4   6 -16    3.61    0.41
   4  -6  17    2.07    0.32
   4  -6  17    1.59    0.24
  -4   6 -17    1.43    0.26
   4  -6  18    2.47    0.32
   4  -6  18    3.80    0.42
  -4   6 -18    2.72    0.41
   4  -6  19    0.89    0.23
   4  -6  19    1.94    0.37
  -4   6 -19    1.03    0.29
   4  -6  20    0.30    0.23
  -4   6 -20    0.02    0.17
   4  -6  21   -0.02    0.19
  -4   6 -21   -0.19    0.15
   4  -6  22    1.10    0.37
  -4   6 -22    0.59    0.29
   4  -5 -21   -0.00    0.13
  -4   5  21   -0.07    0.24
   4  -5 -20    0.00    0.16
  -4   5  20   -0.09    0.20
   4  -5 -19   -0.18    0.15
  -4   5  19   -0.11    0.26
   4  -5 -18    3.66    0.44
  -4   5  18    3.81    0.59
   4  -5 -17   -0.14    0.12
   4  -5 -16   17.20    1.13
  -4   5  16   17.39    1.46
   4  -5 -15    2.41    0.31
  -4   5  15    2.81    0.45
   4  -5 -14   -0.02    0.09
  -4   5  14    0.50    0.18
   4  -5 -13   13.96    0.83
  -4   5  13   14.19    1.12
  -4   5  13   13.32    0.65
   4  -5 -12    4.83    0.37
  -4   5  12    4.70    0.29
  -4   5  12    5.58    0.51
   4  -5 -11   10.48    0.54
   4  -5 -11   11.27    0.64
  -4   5  11   10.77    0.50
   4  -5 -10    1.28    0.14
   4  -5 -10    1.28    0.14
  -4   5  10    1.47    0.13
   4  -5  -9   -0.03    0.08
   4  -5  -9    0.03    0.06
  -4   5   9    0.09    0.06
   4  -5  -8    4.45    0.24
   4  -5  -8    4.47    0.26
  -4   5   8    4.15    0.23
   4  -5  -7    0.15    0.06
   4  -5  -7    0.19    0.08
  -4   5   7    0.02    0.06
   4  -5  -6    5.93    0.28
   4  -5  -6    5.31    0.23
  -4   5   6    5.90    0.28
   4  -5  -5  143.72    5.43
   4  -5  -5  139.46    4.41
  -4   5   5  136.53    5.21
   4  -5  -4    5.31    0.20
   4  -5  -4    5.49    0.27
  -4   5   4    5.58    0.26
   4  -5  -3   11.15    0.44
   4  -5  -3    9.96    0.29
  -4   5   3   10.39    0.44
   4  -5  -2    2.62    0.09
   4  -5  -2    2.83    0.16
  -4   5   2    2.75    0.15
   4  -5  -1    0.16    0.02
   4  -5  -1    0.26    0.06
  -4   5   1    0.25    0.08
   4  -5   0   15.68    0.58
  -4   5   0   16.73    0.68
   4  -5   1    2.10    0.15
  -4   5  -1    2.34    0.15
   4  -5   2   11.11    0.41
  -4   5  -2   10.61    0.44
   4  -5   3    1.50    0.11
  -4   5  -3    1.16    0.15
   4  -5   4    8.53    0.37
   4  -5   4    8.53    0.28
  -4   5  -4    9.25    0.40
   4  -5   5    5.75    0.27
   4  -5   5    4.77    0.20
  -4   5  -5    5.70    0.28
   4  -5   6    0.25    0.08
   4  -5   6    0.15    0.06
  -4   5  -6    0.23    0.08
   4  -5   7    0.73    0.10
   4  -5   7    0.83    0.11
  -4   5  -7    0.60    0.11
   4  -5   8    6.56    0.34
   4  -5   8    6.19    0.35
  -4   5  -8    5.99    0.35
   4  -5   9    0.12    0.08
   4  -5   9    0.15    0.09
  -4   5  -9    0.18    0.08
   4  -5  10    0.34    0.10
   4  -5  10    0.40    0.10
  -4   5 -10    0.39    0.09
   4  -5  11    4.33    0.27
  -4   5 -11    4.55    0.32
  -4   5 -11    5.06    0.35
   4  -5  12    4.27    0.31
  -4   5 -12    3.88    0.34
  -4   5 -12    4.63    0.33
   4  -5  13    3.56    0.30
  -4   5 -13    4.30    0.34
  -4   5 -13    4.61    0.37
   4  -5  14    2.78    0.29
  -4   5 -14    3.27    0.27
  -4   5 -14    3.33    0.32
   4  -5  15    2.41    0.25
  -4   5 -15    2.27    0.28
  -4   5 -15    2.27    0.25
   4  -5  16    1.32    0.21
  -4   5 -16    1.04    0.19
  -4   5 -16    1.41    0.23
   4  -5  17    0.19    0.14
  -4   5 -17    0.28    0.16
  -4   5 -17    0.17    0.15
   4  -5  18    0.17    0.13
  -4   5 -18    0.14    0.16
  -4   5 -18    0.18    0.15
   4  -5  19    0.48    0.20
  -4   5 -19    0.84    0.19
  -4   5 -19    0.55    0.20
   4  -5  20   -0.01    0.12
  -4   5 -20    0.04    0.15
  -4   5 -20   -0.07    0.13
  -4   5 -21    0.95    0.22
  -4   5 -21    0.48    0.24
   4  -5  22    0.16    0.22
   4  -4 -22    0.18    0.24
  -4   4  22    0.43    0.25
   4  -4 -21    0.12    0.19
  -4   4  21    0.06    0.25
   4  -4 -20   -0.07    0.12
  -4   4  20    0.16    0.17
   4  -4 -19    0.00    0.20
  -4   4  19    0.72    0.27
   4  -4 -18    8.61    0.78
  -4   4  18    9.31    0.93
   4  -4 -17    5.84    0.48
  -4   4  17    6.24    0.76
   4  -4 -16    1.33    0.24
   4  -4 -16    1.02    0.15
  -4   4  16    1.77    0.35
   4  -4 -15    8.65    0.48
   4  -4 -15    9.80    0.67
  -4   4  15   10.48    0.83
   4  -4 -14   16.67    0.95
   4  -4 -14   17.45    0.80
  -4   4  14   18.38    1.29
   4  -4 -13    1.56    0.22
   4  -4 -13    1.49    0.16
  -4   4  13    1.81    0.26
   4  -4 -12    3.75    0.27
   4  -4 -12    3.20    0.22
  -4   4  12    3.60    0.37
   4  -4 -11    1.33    0.17
   4  -4 -11    1.18    0.14
   4  -4 -10    6.08    0.35
   4  -4 -10    6.07    0.34
  -4   4  10    5.19    0.26
   4  -4  -9    0.73    0.10
   4  -4  -9    0.52    0.09
  -4   4   9    0.47    0.09
   4  -4  -8    3.61    0.21
   4  -4  -8    3.96    0.22
  -4   4   8    3.54    0.20
   4  -4  -7   17.84    0.64
   4  -4  -7   16.86    0.67
  -4   4   7   17.15    0.67
   4  -4  -6   22.74    0.84
   4  -4  -6   22.40    0.72
  -4   4   6   22.05    0.83
   4  -4  -5   12.25    0.48
   4  -4  -5   11.43    0.37
  -4   4   5   11.50    0.46
   4  -4  -4    0.03    0.06
   4  -4  -4    0.10    0.03
  -4   4   4    0.03    0.04
   4  -4  -3    2.17    0.08
   4  -4  -3    1.98    0.13
  -4   4   3    1.96    0.14
   4  -4  -2    0.36    0.03
   4  -4  -2    0.41    0.08
  -4   4   2    0.36    0.07
   4  -4  -1    2.50    0.13
  -4   4   1    2.46    0.14
   4  -4   0   18.18    0.63
  -4   4   0   14.57    0.55
   4  -4   1    1.33    0.10
  -4   4  -1    1.62    0.13
   4  -4   2    1.06    0.09
  -4   4  -2    1.06    0.10
   4  -4   3    3.71    0.19
  -4   4  -3    3.64    0.21
   4  -4   4    0.08    0.06
   4  -4   4    0.09    0.03
  -4   4  -4   -0.08    0.06
   4  -4   5    0.02    0.05
   4  -4   5    0.10    0.04
   4  -4   6    2.87    0.17
  -4   4  -6    2.57    0.18
  -4   4  -6    3.02    0.13
   4  -4   7   10.36    0.48
  -4   4  -7   10.16    0.37
  -4   4  -7    9.67    0.47
   4  -4   8    0.40    0.11
  -4   4  -8    0.62    0.09
  -4   4  -8    0.58    0.09
   4  -4   9   12.66    0.56
  -4   4  -9   12.29    0.55
  -4   4  -9   10.22    0.44
   4  -4  10   -0.08    0.08
  -4   4 -10   -0.02    0.06
  -4   4 -10   -0.08    0.07
   4  -4  11    1.17    0.15
  -4   4 -11    1.08    0.15
  -4   4 -11    1.14    0.16
   4  -4  12   -0.00    0.06
  -4   4 -12   -0.07    0.08
  -4   4 -12   -0.01    0.06
   4  -4  13    0.94    0.15
  -4   4 -13    1.24    0.18
  -4   4 -13    1.44    0.17
   4  -4  14   -0.01    0.07
  -4   4 -14    0.08    0.09
  -4   4 -14   -0.04    0.09
   4  -4  15    0.04    0.12
  -4   4 -15    0.12    0.11
  -4   4 -15    0.37    0.10
   4  -4  16    0.06    0.09
  -4   4 -16    0.17    0.12
  -4   4 -16    0.35    0.13
   4  -4  17    0.24    0.14
  -4   4 -17    0.32    0.12
  -4   4 -17    0.25    0.14
   4  -4  18    0.30    0.14
  -4   4 -18    0.13    0.15
  -4   4 -18    0.44    0.17
   4  -4  19   -0.06    0.11
  -4   4 -19   -0.03    0.12
  -4   4 -19   -0.05    0.15
   4  -4  20    1.21    0.23
  -4   4 -20    0.79    0.22
  -4   4 -20    0.70    0.23
   4  -4  21    0.02    0.11
  -4   4 -21   -0.02    0.11
  -4   4 -22    0.02    0.13
   4  -3 -22    0.07    0.17
  -4   3  22   -0.05    0.21
   4  -3 -21    1.17    0.29
  -4   3  21    1.37    0.43
   4  -3 -20    0.79    0.21
  -4   3  20    0.37    0.32
   4  -3 -19    2.62    0.39
  -4   3  19    3.46    0.47
   4  -3 -18    1.51    0.28
   4  -3 -18    1.16    0.20
  -4   3  18    1.45    0.36
   4  -3 -17    1.46    0.17
   4  -3 -17    1.24    0.27
  -4   3  17    2.01    0.36
   4  -3 -16    3.36    0.27
   4  -3 -16    3.72    0.38
  -4   3  16    4.02    0.49
   4  -3 -15    6.59    0.53
   4  -3 -15    6.20    0.38
  -4   3  15    6.75    0.58
   4  -3 -14    5.89    0.35
   4  -3 -14    5.23    0.40
  -4   3  14    6.38    0.57
   4  -3 -13    4.32    0.32
   4  -3 -13    5.18    0.30
  -4   3  13    5.10    0.49
   4  -3 -12    5.46    0.31
   4  -3 -12    5.49    0.33
  -4   3  12    5.65    0.45
   4  -3 -11    2.80    0.20
   4  -3 -11    3.09    0.20
   4  -3 -11    2.83    0.22
   4  -3 -10    5.19    0.27
   4  -3 -10    4.97    0.26
   4  -3 -10    4.97    0.29
   4  -3  -9    2.28    0.15
   4  -3  -9    2.09    0.16
   4  -3  -9    2.08    0.14
   4  -3  -8    1.21    0.11
   4  -3  -8    0.93    0.10
   4  -3  -8    0.94    0.10
   4  -3  -7    9.81    0.40
   4  -3  -7    9.23    0.37
   4  -3  -7    9.81    0.41
   4  -3  -6    2.22    0.12
   4  -3  -6    1.98    0.13
   4  -3  -5   15.30    0.57
   4  -3  -5   16.38    0.48
  -4   3   5   15.48    0.59
   4  -3  -4    0.13    0.04
   4  -3  -4    0.26    0.06
  -4   3   4    0.21    0.05
   4  -3  -3    0.99    0.05
   4  -3  -3    0.80    0.09
  -4   3   3    0.85    0.08
   4  -3  -2    0.28    0.06
   4  -3  -2    0.47    0.03
  -4   3   2    0.44    0.06
   4  -3  -1    3.16    0.15
  -4   3   1    2.39    0.14
   4  -3   0    0.30    0.07
  -4   3   0    0.27    0.06
   4  -3   1    0.02    0.04
  -4   3  -1    0.02    0.04
   4  -3   2    8.57    0.31
  -4   3  -2    8.80    0.33
   4  -3   3    7.00    0.28
  -4   3  -3    7.44    0.34
   4  -3   4    1.60    0.12
  -4   3  -4    1.61    0.13
   4  -3   5    3.15    0.17
  -4   3  -5    2.86    0.12
  -4   3  -5    3.46    0.18
   4  -3   6    8.66    0.38
  -4   3  -6    9.28    0.39
  -4   3  -6    7.46    0.28
   4  -3   7    1.60    0.13
  -4   3  -7    1.51    0.11
  -4   3  -7    1.72    0.15
   4  -3   8    3.10    0.20
  -4   3  -8    3.65    0.19
  -4   3  -8    3.56    0.20
   4  -3   9    0.22    0.07
  -4   3  -9    0.12    0.08
  -4   3  -9    0.15    0.07
   4  -3  10    0.87    0.11
  -4   3 -10    1.04    0.13
  -4   3 -10    0.97    0.13
   4  -3  11    2.28    0.22
  -4   3 -11    2.29    0.19
  -4   3 -11    2.11    0.20
   4  -3  12    1.86    0.22
  -4   3 -12    2.10    0.19
  -4   3 -12    2.05    0.20
   4  -3  13    1.00    0.18
  -4   3 -13    0.88    0.14
  -4   3 -13    0.95    0.15
   4  -3  14    0.13    0.09
  -4   3 -14    0.11    0.11
  -4   3 -14    0.10    0.09
   4  -3  15    0.03    0.11
  -4   3 -15   -0.16    0.09
  -4   3 -15   -0.01    0.11
   4  -3  16    0.52    0.16
  -4   3 -16    0.58    0.14
  -4   3 -16    0.52    0.15
   4  -3  17    0.38    0.15
  -4   3 -17    0.23    0.12
  -4   3 -17    0.09    0.12
   4  -3  18   -0.01    0.12
  -4   3 -18    0.18    0.09
  -4   3 -18   -0.10    0.10
   4  -3  19    0.83    0.23
  -4   3 -19    0.96    0.19
  -4   3 -19    1.10    0.20
   4  -3  20    0.06    0.14
  -4   3 -20    0.05    0.13
  -4   3 -20    0.09    0.12
   4  -3  21    0.21    0.14
  -4   3 -21   -0.09    0.13
   4  -3  22   -0.04    0.16
  -4   3 -22   -0.10    0.15
  -4   3 -23    1.96    0.36
   4  -2 -22    0.16    0.17
   4  -2 -21   -0.04    0.16
  -4   2  21    0.44    0.20
   4  -2 -20    0.28    0.15
  -4   2  20   -0.04    0.22
   4  -2 -19   -0.00    0.09
   4  -2 -19    0.11    0.12
  -4   2  19    0.07    0.17
   4  -2 -18   10.66    0.77
   4  -2 -18    9.40    0.59
  -4   2  18   11.04    1.00
   4  -2 -17    0.12    0.09
   4  -2 -17    0.08    0.11
  -4   2  17   -0.11    0.17
   4  -2 -16   -0.02    0.07
   4  -2 -16    0.08    0.10
  -4   2  16    0.22    0.13
   4  -2 -15    0.88    0.14
   4  -2 -15    1.16    0.20
  -4   2  15    1.23    0.25
   4  -2 -14    2.57    0.20
   4  -2 -14    2.90    0.28
  -4   2  14    2.38    0.34
   4  -2 -13   16.73    0.86
   4  -2 -13   16.29    0.74
  -4   2  13   16.82    1.04
   4  -2 -12    0.35    0.10
   4  -2 -12    0.20    0.09
  -4   2  12    0.60    0.14
   4  -2 -11   20.31    0.93
   4  -2 -11   19.17    0.79
   4  -2 -10    1.85    0.18
   4  -2 -10    2.02    0.16
   4  -2 -10    1.92    0.13
   4  -2  -9    3.52    0.20
   4  -2  -9    3.45    0.20
   4  -2  -9    3.44    0.19
   4  -2  -8   22.45    0.81
   4  -2  -8   22.24    0.80
   4  -2  -8   23.25    0.84
   4  -2  -7   43.35    1.46
   4  -2  -7   42.35    1.46
   4  -2  -7   42.48    1.42
   4  -2  -6    0.63    0.07
   4  -2  -6    0.65    0.09
   4  -2  -6    0.72    0.06
   4  -2  -5   36.16    1.21
   4  -2  -5   38.64    1.08
   4  -2  -5   40.07    1.28
   4  -2  -4    0.27    0.04
   4  -2  -4    0.35    0.06
   4  -2  -4    0.29    0.07
   4  -2  -3    1.20    0.08
   4  -2  -3    1.15    0.05
   4  -2  -2   18.22    0.58
  -4   2   2   14.66    0.52
   4  -2  -1    4.72    0.18
  -4   2   1    4.66    0.19
   4  -2   0    3.06    0.13
  -4   2   0    3.08    0.17
   4  -2   1    0.04    0.04
  -4   2  -1   -0.07    0.05
   4  -2   2    1.48    0.11
  -4   2  -2    1.45    0.11
   4  -2   3   16.61    0.59
  -4   2  -3   15.57    0.54
   4  -2   4    0.15    0.07
  -4   2  -4    0.12    0.05
  -4   2  -4    0.09    0.03
   4  -2   5    4.98    0.25
  -4   2  -5    4.65    0.16
  -4   2  -5    4.90    0.22
   4  -2   6    0.22    0.07
  -4   2  -6    0.35    0.05
  -4   2  -6    0.20    0.07
   4  -2   7    0.37    0.08
  -4   2  -7    0.22    0.06
  -4   2  -7   -0.01    0.06
   4  -2   8   32.31    1.32
  -4   2  -8   30.13    1.09
  -4   2  -8   31.11    1.13
   4  -2   9    1.58    0.17
  -4   2  -9    1.42    0.12
  -4   2  -9    1.39    0.11
   4  -2  10    7.19    0.40
  -4   2 -10    7.24    0.33
   4  -2  11    2.36    0.20
  -4   2 -11    2.52    0.19
  -4   2 -11    1.95    0.16
   4  -2  12    0.43    0.12
  -4   2 -12    0.64    0.10
  -4   2 -12    0.49    0.12
   4  -2  13    0.05    0.10
  -4   2 -13    0.02    0.09
  -4   2 -13    0.08    0.07
   4  -2  14   -0.02    0.12
  -4   2 -14    0.08    0.10
  -4   2 -14    0.21    0.08
   4  -2  15    0.87    0.17
  -4   2 -15    0.66    0.13
  -4   2 -15    0.38    0.11
   4  -2  16    0.05    0.14
  -4   2 -16    0.23    0.10
  -4   2 -16    0.23    0.11
   4  -2  17    1.27    0.22
  -4   2 -17    0.58    0.15
  -4   2 -17    0.79    0.17
   4  -2  18   -0.27    0.14
  -4   2 -18    0.16    0.15
  -4   2 -18   -0.09    0.11
   4  -2  19    0.45    0.21
  -4   2 -19    0.55    0.21
   4  -2  20    0.06    0.13
  -4   2 -20    0.10    0.13
   4  -2  21   -0.13    0.19
  -4   2 -21    0.33    0.15
   4  -2  22   -0.13    0.18
  -4   2 -22   -0.02    0.18
   4  -2  23    0.06    0.18
  -4   2 -23    0.17    0.19
   4  -1 -23    0.16    0.18
   4  -1 -22   -0.11    0.16
   4  -1 -21    0.07    0.13
   4  -1 -20    0.10    0.10
   4  -1 -20    0.05    0.13
  -4   1  20   -0.05    0.14
   4  -1 -19    0.10    0.10
   4  -1 -19    0.03    0.15
  -4   1  19    0.04    0.17
   4  -1 -18   -0.24    0.13
   4  -1 -18    0.02    0.09
  -4   1  18    0.04    0.15
   4  -1 -17    0.09    0.09
   4  -1 -17    0.02    0.11
  -4   1  17    0.13    0.14
   4  -1 -16    0.07    0.10
   4  -1 -16    0.14    0.11
  -4   1  16    0.28    0.15
   4  -1 -15    1.44    0.20
   4  -1 -15    1.04    0.16
  -4   1  15    0.98    0.23
   4  -1 -14    4.50    0.33
   4  -1 -14    4.32    0.30
  -4   1  14    5.75    0.45
   4  -1 -13    0.21    0.09
   4  -1 -13    0.09    0.08
  -4   1  13    0.23    0.12
   4  -1 -12    3.72    0.27
   4  -1 -12    3.04    0.23
  -4   1  12    3.12    0.29
   4  -1 -11    0.43    0.11
   4  -1 -11    0.47    0.08
  -4   1  11    0.30    0.09
   4  -1 -10    3.27    0.23
   4  -1 -10    3.22    0.21
   4  -1 -10    3.25    0.15
   4  -1  -9    3.66    0.22
   4  -1  -9    3.70    0.18
   4  -1  -9    3.66    0.20
   4  -1  -8   29.09    0.95
   4  -1  -8   29.50    1.04
   4  -1  -8   28.64    1.05
   4  -1  -7   23.48    0.79
   4  -1  -7   22.99    0.79
   4  -1  -7   23.50    0.76
   4  -1  -6   27.89    0.85
   4  -1  -6   27.53    0.90
   4  -1  -6   26.81    0.81
   4  -1  -5    8.31    0.28
   4  -1  -5    8.15    0.32
   4  -1  -5    8.18    0.27
   4  -1  -4    1.18    0.08
   4  -1  -4    1.29    0.11
  -4   1   4    1.32    0.07
   4  -1  -3    0.54    0.08
   4  -1  -3    0.68    0.06
  -4   1   3    0.65    0.05
   4  -1  -2   19.21    0.52
   4  -1  -2   18.62    0.58
  -4   1   2   17.14    0.38
   4  -1  -1   10.12    0.34
   4  -1  -1    9.59    0.31
   4  -1   0    0.22    0.05
  -4   1   0    0.37    0.06
   4  -1   1    3.50    0.16
  -4   1  -1    3.16    0.13
  -4   1  -1    2.87    0.07
   4  -1   2    0.26    0.05
  -4   1  -2    0.31    0.03
  -4   1  -2    0.24    0.06
   4  -1   3    7.96    0.31
  -4   1  -3    7.80    0.20
  -4   1  -3    8.95    0.31
   4  -1   4   17.38    0.63
  -4   1  -4   15.66    0.42
  -4   1  -4   16.14    0.52
   4  -1   5    2.60    0.16
  -4   1  -5    3.05    0.16
  -4   1  -5    2.71    0.12
   4  -1   6    3.91    0.21
  -4   1  -6    3.73    0.17
  -4   1  -6    3.78    0.17
   4  -1   7    0.42    0.09
  -4   1  -7    0.07    0.05
  -4   1  -7    0.04    0.05
   4  -1   8    1.27    0.16
  -4   1  -8    0.91    0.10
  -4   1  -8    1.10    0.10
   4  -1   9    0.08    0.08
  -4   1  -9    0.16    0.06
  -4   1  -9   -0.02    0.06
  -4   1 -10    7.37    0.35
  -4   1 -10    6.88    0.36
   4  -1  11    2.04    0.21
  -4   1 -11    1.64    0.16
   4  -1  12   -0.14    0.10
  -4   1 -12   -0.07    0.09
  -4   1 -12    0.15    0.06
   4  -1  13    0.20    0.12
  -4   1 -13    0.24    0.10
  -4   1 -13    0.08    0.08
   4  -1  14    0.71    0.17
  -4   1 -14    0.56    0.13
  -4   1 -14    0.55    0.10
   4  -1  15    1.49    0.23
  -4   1 -15    1.71    0.22
  -4   1 -15    0.95    0.15
   4  -1  16    0.30    0.14
  -4   1 -16    0.07    0.08
  -4   1 -16    0.12    0.10
   4  -1  17    1.27    0.21
  -4   1 -17    1.61    0.24
  -4   1 -17    0.89    0.14
   4  -1  18    0.23    0.14
  -4   1 -18   -0.03    0.11
   4  -1  19    3.70    0.52
  -4   1 -19    4.78    0.50
   4  -1  20    0.04    0.12
  -4   1 -20   -0.05    0.11
   4  -1  21    1.02    0.30
  -4   1 -21    1.28    0.30
   4  -1  22   -0.06    0.19
  -4   1 -22    0.21    0.16
   4  -1  23   -0.14    0.17
  -4   1 -23    0.10    0.13
   4   0 -23    0.11    0.17
   4   0 -22    1.12    0.29
   4   0 -21    1.13    0.23
   4   0 -21    0.85    0.22
   4   0 -20    0.20    0.13
   4   0 -20    0.12    0.19
   4   0 -19    0.15    0.15
   4   0 -19    0.38    0.14
  -4   0  19    0.34    0.17
   4   0 -18    2.17    0.26
   4   0 -18    2.37    0.34
  -4   0  18    2.00    0.34
   4   0 -17    0.48    0.14
   4   0 -17    0.55    0.15
  -4   0  17    0.40    0.19
   4   0 -16    0.97    0.16
   4   0 -16    1.15    0.22
  -4   0  16    1.02    0.21
   4   0 -15    0.58    0.15
   4   0 -15    1.00    0.15
  -4   0  15    0.94    0.19
   4   0 -14    1.41    0.17
   4   0 -14    1.32    0.18
  -4   0  14    1.60    0.21
   4   0 -13    0.71    0.13
   4   0 -13    0.50    0.12
  -4   0  13    0.71    0.15
   4   0 -12    3.36    0.25
   4   0 -12    3.46    0.24
  -4   0  12    3.41    0.27
   4   0 -11    3.93    0.25
   4   0 -11    3.54    0.25
  -4   0  11    3.70    0.26
   4   0 -10    0.01    0.06
   4   0 -10   -0.03    0.04
   4   0  -9    0.10    0.05
   4   0  -9    0.06    0.04
   4   0  -9   -0.01    0.07
   4   0  -8    2.92    0.17
   4   0  -8    2.86    0.13
   4   0  -8    3.05    0.17
   4   0  -7   22.63    0.82
   4   0  -7   22.79    0.67
   4   0  -6    0.26    0.08
   4   0  -6    0.43    0.05
  -4   0   6    0.53    0.07
   4   0  -5    3.20    0.13
   4   0  -5    3.31    0.18
  -4   0   5    3.05    0.15
   4   0  -4    0.02    0.04
   4   0  -4    0.09    0.04
  -4   0   4    0.02    0.03
   4   0  -3   18.31    0.49
   4   0  -3   17.02    0.55
  -4   0   3   17.11    0.48
   4   0  -2    6.74    0.21
   4   0  -2    6.95    0.27
  -4   0   2    6.88    0.20
   4   0  -1   12.11    0.34
   4   0  -1   11.31    0.35
  -4   0   1   11.30    0.27
   4   0   0   14.75    0.43
   4   0   0   16.18    0.48
  -4   0   0   13.72    0.32
   4   0   1   29.91    0.87
  -4   0  -1   28.46    0.85
  -4   0  -1   27.59    0.60
   4   0   2    7.97    0.30
  -4   0  -2    7.72    0.28
  -4   0  -2    7.93    0.21
   4   0   3   27.50    0.95
  -4   0  -3   28.41    0.74
  -4   0  -3   29.22    0.87
   4   0   4    4.08    0.21
  -4   0  -4    4.14    0.17
  -4   0  -4    4.12    0.16
   4   0   5    8.75    0.38
  -4   0  -5    7.94    0.29
  -4   0  -5    8.30    0.28
   4   0   6    8.10    0.40
  -4   0  -6    8.21    0.28
  -4   0  -6    7.88    0.31
   4   0   7    6.01    0.33
  -4   0  -7    5.68    0.22
  -4   0  -7    5.58    0.24
   4   0   8   13.38    0.71
  -4   0  -8   13.52    0.55
  -4   0  -8   12.62    0.45
   4   0   9  260.94   12.10
  -4   0  -9  250.34    8.63
  -4   0  -9  255.98   10.26
   4   0  10   -0.03    0.12
  -4   0 -10    0.08    0.07
  -4   0 -10    0.13    0.06
   4   0  11   53.24    2.69
  -4   0 -11   56.55    2.02
  -4   0 -11   59.51    2.56
   4   0  12    9.84    0.60
  -4   0 -12   10.12    0.53
  -4   0 -12    9.40    0.42
   4   0  13    2.22    0.23
  -4   0 -13    1.77    0.14
  -4   0 -13    2.30    0.21
   4   0  14    0.55    0.16
  -4   0 -14    0.50    0.09
  -4   0 -14    0.94    0.13
   4   0  15    2.11    0.30
  -4   0 -15    1.83    0.26
   4   0  16    1.89    0.28
  -4   0 -16    2.49    0.30
   4   0  17    2.16    0.35
  -4   0 -17    2.30    0.33
   4   0  18    0.68    0.19
  -4   0 -18    0.75    0.19
   4   0  19    0.19    0.18
  -4   0 -19    0.10    0.16
   4   0  20    0.02    0.14
  -4   0 -20   -0.01    0.11
   4   0  21    1.12    0.34
  -4   0 -21    1.45    0.28
   4   0  22    0.16    0.21
  -4   0 -22    0.14    0.20
  -4  -1  23    0.11    0.23
  -4  -1  22    0.45    0.33
   4   1 -21    0.72    0.20
  -4  -1  21    0.50    0.29
   4   1 -20    0.13    0.11
  -4  -1  20   -0.06    0.12
   4   1 -19    0.67    0.17
   4   1 -18    0.37    0.13
   4   1 -18    0.17    0.14
  -4  -1  18    0.23    0.13
   4   1 -17    2.42    0.28
   4   1 -17    2.69    0.30
   4   1 -16   -0.04    0.12
   4   1 -16   -0.09    0.09
  -4  -1  16    0.02    0.10
   4   1 -15   -0.06    0.10
   4   1 -15    0.01    0.12
  -4  -1  15    0.20    0.09
   4   1 -14    2.49    0.22
   4   1 -14    2.56    0.25
  -4  -1  14    2.59    0.25
   4   1 -13    5.32    0.37
   4   1 -13    5.60    0.38
   4   1 -12    2.69    0.21
  -4  -1  12    3.09    0.22
   4   1 -11    1.56    0.16
  -4  -1  11    1.23    0.18
  -4  -1  11    1.58    0.14
   4   1 -10    7.08    0.39
  -4  -1  10    7.83    0.32
  -4  -1  10    7.79    0.50
   4   1  -9    1.85    0.15
   4   1  -9    1.85    0.09
  -4  -1   9    2.14    0.20
   4   1  -8    5.10    0.28
   4   1  -8    4.90    0.17
  -4  -1   8    4.98    0.32
   4   1  -7    1.50    0.13
   4   1  -7    1.97    0.08
  -4  -1   7    1.72    0.14
   4   1  -6   10.24    0.43
   4   1  -6   10.98    0.31
  -4  -1   6   10.03    0.42
   4   1  -5    0.12    0.06
   4   1  -5    0.18    0.04
  -4  -1   5    0.26    0.06
   4   1  -4   49.53    1.19
   4   1  -4   52.11    1.67
  -4  -1   4   50.90    1.59
   4   1  -3    1.33    0.07
   4   1  -3    1.27    0.10
  -4  -1   3    1.45    0.10
   4   1  -2   33.90    0.85
   4   1  -2   36.38    1.12
  -4  -1   2   34.61    0.97
   4   1  -1   97.10    2.97
   4   1  -1  100.10    2.70
  -4  -1   1   95.72    2.58
   4   1   0    0.39    0.06
   4   1   0    0.20    0.04
  -4  -1   0    0.21    0.04
   4   1   1   29.25    0.92
   4   1   1   28.11    0.79
  -4  -1  -1   26.06    0.69
   4   1   2    0.86    0.07
   4   1   2    1.00    0.08
  -4  -1  -2    0.87    0.07
   4   1   3    3.88    0.19
  -4  -1  -3    3.71    0.15
  -4  -1  -3    3.63    0.15
   4   1   4    1.12    0.11
  -4  -1  -4    1.25    0.09
  -4  -1  -4    1.18    0.08
   4   1   5    4.72    0.25
  -4  -1  -5    4.66    0.17
  -4  -1  -5    4.16    0.19
   4   1   6    3.24    0.26
  -4  -1  -6    2.94    0.13
  -4  -1  -6    3.52    0.18
   4   1   7    6.05    0.34
  -4  -1  -7    5.80    0.27
   4   1   8   20.77    0.98
  -4  -1  -8   19.84    0.86
   4   1   9   49.08    2.36
  -4  -1  -9   45.94    1.86
  -4  -1  -9   44.73    1.35
   4   1  10    0.01    0.09
  -4  -1 -10    0.09    0.07
  -4  -1 -10    0.04    0.04
   4   1  11    0.54    0.14
  -4  -1 -11    0.44    0.11
  -4  -1 -11    0.45    0.07
   4   1  12    0.28    0.12
  -4  -1 -12    0.23    0.05
  -4  -1 -12    0.19    0.11
   4   1  13    1.60    0.23
  -4  -1 -13    2.04    0.20
   4   1  14    1.42    0.24
  -4  -1 -14    1.00    0.16
   4   1  15    0.96    0.21
  -4  -1 -15    1.05    0.22
   4   1  16    0.31    0.13
  -4  -1 -16   -0.24    0.11
   4   1  17    2.94    0.34
  -4  -1 -17    2.88    0.37
   4   1  18    0.76    0.21
  -4  -1 -18    1.06    0.21
   4   1  19    0.81    0.26
  -4  -1 -19    0.65    0.19
   4   1  20    0.43    0.20
  -4  -1 -20    0.22    0.17
   4   1  21    0.02    0.16
  -4  -1 -21   -0.03    0.15
   4   1  22    0.09    0.19
  -4  -1 -22    0.05    0.18
  -4  -2  23    0.29    0.27
   4   2 -22    0.87    0.25
  -4  -2  22    1.19    0.40
   4   2 -21    0.92    0.24
  -4  -2  21    1.41    0.34
   4   2 -20    4.30    0.44
  -4  -2  20    4.53    0.70
   4   2 -19    0.63    0.20
  -4  -2  19    0.92    0.30
   4   2 -18    6.31    0.52
  -4  -2  18    7.10    0.67
   4   2 -17    2.52    0.30
  -4  -2  17    2.41    0.36
   4   2 -16    0.27    0.13
  -4  -2  16    0.48    0.18
   4   2 -15    2.50    0.26
  -4  -2  15    2.05    0.36
   4   2 -14    0.47    0.15
  -4  -2  14    0.42    0.11
  -4  -2  14    0.42    0.17
   4   2 -13    2.92    0.25
  -4  -2  13    3.44    0.37
  -4  -2  13    2.80    0.21
   4   2 -12    0.51    0.13
  -4  -2  12    0.57    0.14
  -4  -2  12    0.51    0.09
   4   2 -11    0.85    0.13
  -4  -2  11    1.05    0.19
  -4  -2  11    1.05    0.10
   4   2 -10    2.81    0.21
  -4  -2  10    2.48    0.24
  -4  -2  10    2.92    0.16
   4   2  -9    1.82    0.17
  -4  -2   9    2.59    0.19
   4   2  -8   14.62    0.60
   4   2  -8   13.12    0.32
  -4  -2   8   14.07    0.68
   4   2  -7    9.98    0.42
   4   2  -7    9.55    0.23
  -4  -2   7   10.20    0.48
   4   2  -6    0.16    0.07
   4   2  -6    0.08    0.03
  -4  -2   6    0.21    0.07
   4   2  -5    4.85    0.23
   4   2  -5    4.46    0.12
  -4  -2   5    4.24    0.23
   4   2  -4   59.49    1.99
   4   2  -4   58.71    1.34
  -4  -2   4   57.70    1.95
   4   2  -3    0.20    0.08
  -4  -2   3    0.31    0.07
   4   2  -2   26.74    0.87
   4   2  -2   27.53    0.70
  -4  -2   2   28.12    0.86
   4   2  -1    0.06    0.05
   4   2  -1    0.06    0.04
  -4  -2   1   -0.00    0.03
   4   2   0    1.92    0.11
   4   2   0    1.80    0.12
  -4  -2   0    1.97    0.10
   4   2   1    3.33    0.15
   4   2   1    3.40    0.17
  -4  -2  -1    3.28    0.15
   4   2   2    5.49    0.20
   4   2   2    5.25    0.23
  -4  -2  -2    5.38    0.21
   4   2   3    7.39    0.22
   4   2   3    8.13    0.33
  -4  -2  -3    6.68    0.25
   4   2   4   53.67    2.05
  -4  -2  -4   50.87    1.44
  -4  -2  -4   50.49    1.67
   4   2   5    3.65    0.28
  -4  -2  -5    3.95    0.21
  -4  -2  -5    3.43    0.14
   4   2   6   23.28    1.05
  -4  -2  -6   22.72    0.62
  -4  -2  -6   24.02    0.89
   4   2   7    2.76    0.22
  -4  -2  -7    2.82    0.18
   4   2   8   15.76    0.85
  -4  -2  -8   16.38    0.77
   4   2   9   20.80    1.04
  -4  -2  -9   23.14    0.99
  -4  -2  -9   18.13    0.52
   4   2  10    1.71    0.20
  -4  -2 -10    1.57    0.08
  -4  -2 -10    2.19    0.18
   4   2  11    7.49    0.50
  -4  -2 -11    7.71    0.44
   4   2  12    1.85    0.30
  -4  -2 -12    2.58    0.23
   4   2  13    0.64    0.17
  -4  -2 -13    0.57    0.17
   4   2  14    0.27    0.15
  -4  -2 -14    0.09    0.10
   4   2  15    0.15    0.13
  -4  -2 -15    0.17    0.14
   4   2  16    0.54    0.23
  -4  -2 -16    0.66    0.20
   4   2  17    0.98    0.27
  -4  -2 -17    1.04    0.21
   4   2  18    0.24    0.17
  -4  -2 -18    0.24    0.15
   4   2  19    1.34    0.27
  -4  -2 -19    0.98    0.26
   4   2  20    0.34    0.23
  -4  -2 -20    0.80    0.24
   4   2  21   -0.04    0.15
  -4  -2 -21    0.09    0.16
   4   2  22   -0.03    0.20
  -4  -2 -22    0.37    0.22
   4   3 -23    0.09    0.14
   4   3 -22   -0.16    0.15
  -4  -3  22    0.15    0.20
   4   3 -21    2.51    0.34
  -4  -3  21    3.45    0.63
   4   3 -20    0.97    0.27
  -4  -3  20    1.33    0.34
   4   3 -19    0.62    0.21
  -4  -3  19    0.89    0.25
   4   3 -18    1.18    0.20
  -4  -3  18    1.00    0.28
   4   3 -17    1.81    0.23
  -4  -3  17    1.84    0.32
   4   3 -16    1.25    0.23
  -4  -3  16    1.33    0.31
   4   3 -15   -0.10    0.10
  -4  -3  15    0.47    0.14
   4   3 -14    1.49    0.19
  -4  -3  14    1.32    0.29
   4   3 -13    4.93    0.37
  -4  -3  13    4.75    0.48
   4   3 -12    2.34    0.25
  -4  -3  12    2.66    0.30
   4   3 -11    2.25    0.18
  -4  -3  11    2.00    0.23
   4   3 -10    3.03    0.21
  -4  -3  10    3.31    0.25
   4   3  -9    0.19    0.08
  -4  -3   9    0.16    0.04
  -4  -3   9    0.23    0.09
   4   3  -8    0.08    0.06
  -4  -3   8    0.11    0.08
   4   3  -7    0.79    0.03
   4   3  -7    0.79    0.10
  -4  -3   7    0.97    0.12
   4   3  -6    1.48    0.12
  -4  -3   6    1.59    0.13
   4   3  -5    1.14    0.12
  -4  -3   5    1.20    0.13
   4   3  -4    0.03    0.02
   4   3  -4   -0.07    0.05
  -4  -3   4   -0.04    0.05
   4   3  -3   28.09    0.99
   4   3  -3   24.75    0.61
  -4  -3   3   27.33    0.94
   4   3  -2    3.61    0.20
   4   3  -2    3.88    0.15
  -4  -3   2    3.41    0.19
   4   3  -1    8.31    0.34
   4   3  -1    8.79    0.30
  -4  -3   1    8.39    0.34
   4   3   0   18.41    0.63
   4   3   0   21.40    0.68
  -4  -3   0   20.72    0.69
   4   3   1    1.20    0.10
   4   3   1    1.25    0.11
  -4  -3  -1    1.18    0.10
   4   3   2    0.15    0.07
   4   3   2    0.15    0.05
  -4  -3  -2    0.08    0.05
   4   3   3   50.91    1.45
   4   3   3   46.86    1.85
  -4  -3  -3   47.87    1.64
   4   3   4   -0.03    0.03
   4   3   4    0.03    0.06
  -4  -3  -4   -0.08    0.05
   4   3   5   53.94    2.17
  -4  -3  -5   48.98    1.37
  -4  -3  -5   55.13    1.96
   4   3   6    3.38    0.23
  -4  -3  -6    2.90    0.11
  -4  -3  -6    3.45    0.22
   4   3   7    0.36    0.10
  -4  -3  -7    0.36    0.04
  -4  -3  -7    0.64    0.11
   4   3   8    1.85    0.20
  -4  -3  -8    2.12    0.18
   4   3   9    1.07    0.17
  -4  -3  -9    0.85    0.13
   4   3  10    9.12    0.61
  -4  -3 -10   10.76    0.62
   4   3  11    4.44    0.36
  -4  -3 -11    5.16    0.38
   4   3  12   10.93    0.81
  -4  -3 -12   11.34    0.67
   4   3  13    3.02    0.34
  -4  -3 -13    3.75    0.37
   4   3  14    0.22    0.17
  -4  -3 -14    0.34    0.15
   4   3  15    0.12    0.18
  -4  -3 -15    0.35    0.13
   4   3  16    2.18    0.35
  -4  -3 -16    3.39    0.40
   4   3  17    2.06    0.32
  -4  -3 -17    1.99    0.35
   4   3  18    1.41    0.33
  -4  -3 -18    2.12    0.29
   4   3  19    1.09    0.33
  -4  -3 -19    0.99    0.25
   4   3  20    0.27    0.19
  -4  -3 -20    0.12    0.18
   4   3  21   -0.11    0.18
  -4  -3 -21    0.01    0.15
   4   3  22    0.02    0.17
  -4  -3 -22    0.03    0.16
   4   4 -22    1.13    0.32
  -4  -4  22    1.52    0.39
   4   4 -21    0.02    0.17
  -4  -4  21    0.22    0.20
   4   4 -20    4.07    0.55
  -4  -4  20    5.22    0.60
   4   4 -19   -0.11    0.13
  -4  -4  19    0.10    0.14
   4   4 -18    0.87    0.23
  -4  -4  18    1.08    0.26
   4   4 -17    0.17    0.12
  -4  -4  17    0.17    0.20
   4   4 -16    1.85    0.23
  -4  -4  16    2.09    0.32
  -4  -4  15    1.14    0.27
   4   4 -14    4.14    0.33
  -4  -4  14    4.15    0.39
   4   4 -13    7.27    0.53
  -4  -4  13    7.55    0.64
   4   4 -12    3.18    0.29
  -4  -4  12    3.06    0.34
   4   4 -11    0.12    0.08
  -4  -4  11   -0.03    0.08
   4   4 -10    1.51    0.16
  -4  -4  10    1.24    0.18
   4   4  -9    1.92    0.19
  -4  -4   9    1.77    0.23
   4   4  -8    0.20    0.09
  -4  -4   8    0.16    0.11
   4   4  -7    0.14    0.08
  -4  -4   7    0.09    0.07
   4   4  -6    0.41    0.09
  -4  -4   6    0.51    0.11
   4   4  -5   13.17    0.54
  -4  -4   5   11.39    0.49
   4   4  -4    8.23    0.37
   4   4  -4    7.85    0.19
  -4  -4   4    7.93    0.34
   4   4  -3   -0.03    0.03
   4   4  -3    0.04    0.05
  -4  -4   3   -0.04    0.05
   4   4  -2    5.43    0.27
   4   4  -2    6.39    0.25
  -4  -4   2    5.26    0.25
   4   4  -1    0.36    0.07
   4   4  -1    0.41    0.08
  -4  -4   1    0.37    0.07
   4   4   0    0.54    0.07
   4   4   0    0.67    0.10
  -4  -4   0    0.61    0.09
   4   4   1    1.84    0.13
   4   4   1    2.13    0.16
  -4  -4  -1    1.85    0.15
   4   4   2    0.40    0.06
   4   4   2    0.36    0.10
  -4  -4  -2    0.50    0.07
   4   4   3    4.69    0.19
   4   4   3    4.35    0.28
  -4  -4  -3    4.54    0.25
   4   4   4    1.40    0.10
   4   4   4    1.53    0.14
  -4  -4  -4    1.59    0.14
   4   4   5    3.67    0.24
   4   4   6    2.10    0.22
  -4  -4  -6    1.86    0.15
   4   4   7    0.03    0.08
  -4  -4  -7    0.05    0.02
  -4  -4  -7    0.11    0.07
   4   4   8    3.81    0.30
  -4  -4  -8    4.21    0.28
   4   4   9   10.94    0.70
  -4  -4  -9   13.38    0.68
   4   4  10    1.46    0.27
  -4  -4 -10    1.93    0.19
   4   4  11   10.59    0.73
  -4  -4 -11   11.51    0.69
   4   4  12    0.23    0.15
  -4  -4 -12    0.52    0.16
   4   4  13    1.45    0.28
  -4  -4 -13    2.36    0.29
   4   4  14    1.84    0.39
  -4  -4 -14    3.23    0.32
   4   4  15    2.77    0.41
  -4  -4 -15    3.86    0.36
   4   4  16    5.21    0.57
  -4  -4 -16    5.78    0.59
   4   4  17    3.35    0.46
  -4  -4 -17    3.28    0.45
   4   4  18    3.73    0.53
  -4  -4 -18    4.67    0.49
   4   4  19    0.61    0.27
  -4  -4 -19    0.91    0.22
   4   4  20   -0.05    0.22
  -4  -4 -20    0.60    0.24
   4   4  21    0.16    0.23
  -4  -4 -21    0.16    0.23
   4   5 -22    0.14    0.22
  -4  -5  22    0.46    0.29
   4   5 -21    1.46    0.44
  -4  -5  21    3.67    0.56
   4   5 -20    0.66    0.24
  -4  -5  20    0.28    0.32
   4   5 -19    0.17    0.16
  -4  -5  19    0.29    0.19
   4   5 -18   -0.12    0.11
  -4  -5  18    0.03    0.15
   4   5 -17   -0.01    0.13
  -4  -5  17    0.12    0.17
   4   5 -16    1.11    0.23
  -4  -5  16    0.98    0.24
   4   5 -15    9.12    0.67
  -4  -5  15    9.19    0.74
   4   5 -14   12.81    0.78
  -4  -5  14   12.89    0.90
   4   5 -13   11.20    0.70
  -4  -5  13   11.75    0.77
   4   5 -12   17.27    1.07
  -4  -5  12   20.01    1.26
   4   5 -11    1.33    0.16
  -4  -5  11    0.95    0.20
   4   5 -10    0.03    0.07
  -4  -5  10   -0.08    0.08
   4   5  -9    0.17    0.08
  -4  -5   9    0.13    0.10
   4   5  -8    2.37    0.20
  -4  -5   8    2.70    0.25
   4   5  -7   -0.06    0.06
  -4  -5   7   -0.02    0.07
   4   5  -6    0.59    0.10
  -4  -5   6    1.00    0.13
   4   5  -5   13.55    0.62
  -4  -5   5   12.54    0.59
   4   5  -4   16.05    0.41
   4   5  -4   17.40    0.72
  -4  -5   4   17.86    0.77
   4   5  -3   31.42    0.91
   4   5  -3   32.40    1.26
  -4  -5   3   33.24    1.33
   4   5  -2    6.73    0.33
   4   5  -2    6.61    0.28
  -4  -5   2    6.61    0.32
   4   5  -1    1.95    0.13
   4   5  -1    1.84    0.15
  -4  -5   1    1.90    0.14
   4   5   0    2.36    0.16
   4   5   0    2.49    0.18
  -4  -5   0    2.69    0.17
   4   5   1    3.45    0.20
   4   5   1    3.19    0.20
  -4  -5  -1    3.20    0.20
   4   5   2    0.06    0.05
   4   5   2    0.15    0.06
  -4  -5  -2   -0.01    0.08
   4   5   3    5.67    0.26
   4   5   3    6.67    0.37
  -4  -5  -3    6.30    0.36
   4   5   4    4.07    0.19
   4   5   4    4.61    0.31
  -4  -5  -4    4.81    0.25
   4   5   5    5.64    0.34
  -4  -5  -5    5.88    0.31
   4   5   6    2.85    0.28
  -4  -5  -6    3.08    0.24
   4   5   7    9.91    0.60
  -4  -5  -7    9.62    0.52
   4   5   8    0.79    0.20
  -4  -5  -8    1.27    0.18
   4   5   9    1.83    0.24
  -4  -5  -9    2.19    0.22
   4   5  10    1.33    0.23
  -4  -5 -10    1.70    0.21
   4   5  11    2.23    0.29
  -4  -5 -11    2.88    0.32
   4   5  12    0.33    0.18
  -4  -5 -12    0.58    0.19
   4   5  13    0.45    0.19
  -4  -5 -13    0.84    0.20
   4   5  14    0.37    0.20
  -4  -5 -14    0.15    0.18
   4   5  15    0.24    0.20
  -4  -5 -15    0.13    0.14
   4   5  16    1.42    0.32
  -4  -5 -16    0.93    0.30
   4   5  17    1.45    0.35
  -4  -5 -17    0.94    0.26
   4   5  18   -0.08    0.22
  -4  -5 -18   -0.08    0.18
   4   5  19   -0.05    0.24
  -4  -5 -19    0.32    0.18
   4   5  20    0.74    0.26
  -4  -5 -20   -0.19    0.18
   4   5  21    1.49    0.48
  -4  -5 -21    0.97    0.34
   4   6 -21    0.06    0.18
  -4  -6  21    0.05    0.18
   4   6 -20    0.19    0.20
  -4  -6  20    0.15    0.20
   4   6 -19    0.77    0.22
  -4  -6  19    1.12    0.32
   4   6 -18    0.24    0.14
  -4  -6  18    0.08    0.19
   4   6 -17    0.69    0.19
  -4  -6  17    0.45    0.28
   4   6 -16    1.54    0.24
  -4  -6  16    1.79    0.30
   4   6 -15    6.79    0.54
   4   6 -14    2.17    0.28
  -4  -6  14    3.53    0.36
   4   6 -13   17.09    1.06
  -4  -6  13   20.89    1.39
   4   6 -12   10.16    0.72
  -4  -6  12    9.76    0.71
   4   6 -11    2.05    0.21
  -4  -6  11    1.62    0.24
   4   6 -10    1.67    0.24
  -4  -6  10    2.14    0.24
   4   6  -9   -0.03    0.08
  -4  -6   9   -0.20    0.12
   4   6  -8    0.37    0.09
  -4  -6   8    0.36    0.15
   4   6  -7    0.44    0.10
  -4  -6   7    0.57    0.14
   4   6  -6    0.17    0.08
  -4  -6   6    0.35    0.09
   4   6  -5    0.64    0.04
   4   6  -5    0.78    0.11
  -4  -6   5    0.71    0.11
   4   6  -4    7.72    0.26
   4   6  -4    8.28    0.41
  -4  -6   4    9.03    0.47
   4   6  -3    9.48    0.35
   4   6  -3   10.06    0.48
  -4  -6   3    8.94    0.45
   4   6  -2    2.87    0.16
   4   6  -2    3.03    0.18
  -4  -6   2    3.14    0.20
   4   6  -1    0.02    0.06
   4   6  -1    0.14    0.05
  -4  -6   1   -0.11    0.06
   4   6   0    0.82    0.10
   4   6   0    0.79    0.11
  -4  -6   0    0.97    0.12
   4   6   1    1.10    0.12
   4   6   1    0.73    0.11
  -4  -6  -1    1.45    0.16
   4   6   2   29.64    1.16
   4   6   2   29.33    1.28
  -4  -6  -2   34.47    1.45
   4   6   3   38.41    1.37
   4   6   3   35.58    1.70
  -4  -6  -3   38.87    1.64
   4   6   4    1.74    0.13
   4   6   4    2.02    0.23
  -4  -6  -4    2.02    0.17
   4   6   5    0.19    0.05
   4   6   5    0.25    0.10
  -4  -6  -5    0.52    0.11
   4   6   6    8.01    0.59
  -4  -6  -6    8.12    0.46
   4   6   7    1.14    0.22
  -4  -6  -7    1.07    0.15
   4   6   8    5.19    0.43
  -4  -6  -8    5.85    0.40
   4   6   9    7.53    0.58
  -4  -6  -9    7.18    0.49
   4   6  10    6.43    0.62
  -4  -6 -10    6.98    0.55
   4   6  11    3.31    0.40
  -4  -6 -11    4.12    0.37
   4   6  12    2.46    0.32
  -4  -6 -12    2.00    0.27
   4   6  13    0.41    0.18
  -4  -6 -13   -0.03    0.13
   4   6  14    0.03    0.18
  -4  -6 -14    0.12    0.13
   4   6  15    3.24    0.44
  -4  -6 -15    3.49    0.43
   4   6  16    0.44    0.20
  -4  -6 -16    0.02    0.21
   4   6  17    0.59    0.28
  -4  -6 -17    0.91    0.25
   4   6  18    0.31    0.20
  -4  -6 -18   -0.03    0.22
   4   6  19    0.94    0.35
  -4  -6 -19    1.06    0.28
   4   6  20   -0.08    0.24
  -4  -6 -20   -0.00    0.17
   4   7 -21    1.71    0.43
  -4  -7  21    2.03    0.51
   4   7 -20    0.91    0.28
  -4  -7  20    1.66    0.42
   4   7 -19    2.10    0.43
  -4  -7  19    2.65    0.46
   4   7 -18    3.94    0.58
  -4  -7  18    5.35    0.71
   4   7 -17   -0.11    0.14
  -4  -7  17    0.15    0.17
   4   7 -16   -0.12    0.14
  -4  -7  16    0.21    0.15
   4   7 -15    1.08    0.27
  -4  -7  15    1.38    0.26
   4   7 -14    0.25    0.16
  -4  -7  14    0.16    0.18
   4   7 -13    0.18    0.12
  -4  -7  13    0.24    0.14
   4   7 -12    1.61    0.23
  -4  -7  12    1.98    0.31
   4   7 -11    0.62    0.16
  -4  -7  11    0.12    0.20
   4   7 -10    0.30    0.12
  -4  -7  10   -0.05    0.16
   4   7  -9    5.99    0.47
  -4  -7   9    5.86    0.45
   4   7  -8   19.71    1.11
  -4  -7   8   19.14    1.10
   4   7  -7    4.48    0.37
  -4  -7   7    4.78    0.34
   4   7  -6    5.44    0.39
  -4  -7   6    5.25    0.34
   4   7  -5   -0.02    0.09
  -4  -7   5    0.10    0.08
   4   7  -4    0.16    0.08
   4   7  -4    0.38    0.05
  -4  -7   4    0.02    0.09
   4   7  -3    0.01    0.06
   4   7  -3    0.02    0.05
  -4  -7   3    0.09    0.07
   4   7  -2    0.77    0.09
   4   7  -2    0.74    0.10
  -4  -7   2    1.01    0.14
   4   7  -1    1.00    0.13
   4   7  -1    0.80    0.10
  -4  -7   1    0.82    0.12
   4   7   0    0.03    0.05
   4   7   0    0.03    0.06
  -4  -7   0    0.05    0.08
   4   7   1    0.06    0.07
   4   7   1    0.12    0.06
  -4  -7  -1    0.02    0.09
   4   7   2    3.76    0.31
   4   7   2    3.68    0.23
  -4  -7  -2    4.83    0.28
   4   7   3    0.45    0.10
   4   7   3    0.60    0.12
  -4  -7  -3    0.58    0.12
   4   7   4   -0.04    0.06
   4   7   4    0.07    0.09
  -4  -7  -4    0.09    0.08
   4   7   5    1.64    0.18
  -4  -7  -5    1.29    0.16
   4   7   6    0.56    0.13
  -4  -7  -6    0.16    0.11
   4   7   7    5.91    0.57
  -4  -7  -7    6.61    0.43
   4   7   8    0.06    0.12
  -4  -7  -8   -0.04    0.08
   4   7   9    5.71    0.55
  -4  -7  -9    6.65    0.53
   4   7  10    1.35    0.32
  -4  -7 -10    1.34    0.22
   4   7  11    7.90    0.79
  -4  -7 -11    9.51    0.66
   4   7  12    0.97    0.27
  -4  -7 -12    0.95    0.26
   4   7  13    0.46    0.20
  -4  -7 -13    0.03    0.17
   4   7  14    1.56    0.36
  -4  -7 -14    1.08    0.27
   4   7  15    1.40    0.31
  -4  -7 -15    0.82    0.28
   4   7  16    6.47    0.82
  -4  -7 -16    7.16    0.79
   4   7  17    1.69    0.37
  -4  -7 -17    0.93    0.31
   4   7  18    0.36    0.31
  -4  -7 -18    0.70    0.28
   4   7  19    0.02    0.21
  -4  -7 -19    0.14    0.18
   4   8 -20    1.34    0.32
  -4  -8  20    1.72    0.44
   4   8 -19    0.61    0.30
  -4  -8  19    0.99    0.29
   4   8 -18    0.28    0.23
  -4  -8  18    0.40    0.26
   4   8 -17    0.66    0.26
  -4  -8  17    0.86    0.26
   4   8 -16    1.51    0.33
   4   8 -15   -0.07    0.17
  -4  -8  15    0.41    0.17
   4   8 -14    9.77    0.89
  -4  -8  14   11.41    1.00
   4   8 -13    0.94    0.20
  -4  -8  13    0.80    0.25
   4   8 -12    0.15    0.13
  -4  -8  12    0.25    0.19
   4   8 -11    7.14    0.60
  -4  -8  11    6.87    0.63
   4   8 -10   11.69    0.81
  -4  -8  10   12.83    0.91
   4   8  -9    3.25    0.36
  -4  -8   9    3.38    0.31
   4   8  -8    0.72    0.17
  -4  -8   8    0.49    0.19
   4   8  -7   13.11    0.75
  -4  -8   7   13.24    0.83
   4   8  -6    0.04    0.10
  -4  -8   6   -0.05    0.07
   4   8  -5    0.52    0.13
  -4  -8   5    0.41    0.11
   4   8  -4    0.88    0.09
   4   8  -4    0.98    0.14
  -4  -8   4    1.20    0.15
   4   8  -3    1.27    0.17
   4   8  -3    1.09    0.11
  -4  -8   3    1.47    0.16
   4   8  -2    1.21    0.16
   4   8  -2    1.30    0.12
  -4  -8   2    1.32    0.16
   4   8  -1    2.10    0.18
   4   8  -1    2.06    0.20
  -4  -8   1    2.63    0.22
   4   8   0    8.88    0.47
   4   8   0    7.84    0.47
  -4  -8   0    8.83    0.50
   4   8   1    0.43    0.10
   4   8   1    0.50    0.12
  -4  -8  -1    0.61    0.14
   4   8   2    4.41    0.30
   4   8   2    5.15    0.39
  -4  -8  -2    6.56    0.37
   4   8   3    0.85    0.11
   4   8   3    0.72    0.16
  -4  -8  -3    0.64    0.14
   4   8   4    0.31    0.08
   4   8   4    0.62    0.14
  -4  -8  -4    0.10    0.14
   4   8   5    1.51    0.14
   4   8   5    2.31    0.23
  -4  -8  -5    2.10    0.23
   4   8   6    0.01    0.10
  -4  -8  -6    0.03    0.11
   4   8   7    0.70    0.21
  -4  -8  -7    0.51    0.15
   4   8   8    0.00    0.17
  -4  -8  -8    0.18    0.12
   4   8   9    1.60    0.27
  -4  -8  -9    1.21    0.22
   4   8  10    0.79    0.29
  -4  -8 -10    0.97    0.23
   4   8  11    0.71    0.28
  -4  -8 -11    0.70    0.19
   4   8  12    0.48    0.20
  -4  -8 -12    0.17    0.17
   4   8  13    0.69    0.25
  -4  -8 -13    0.41    0.18
   4   8  14    0.07    0.19
  -4  -8 -14   -0.05    0.16
   4   8  15    1.40    0.49
  -4  -8 -15    2.36    0.44
   4   8  16    0.62    0.31
  -4  -8 -16    0.23    0.21
   4   8  17    1.52    0.53
  -4  -8 -17    2.07    0.47
   4   8  18    0.04    0.29
  -4  -8 -18   -0.16    0.19
   4   9 -19    0.01    0.20
  -4  -9  19    0.24    0.24
   4   9 -18    0.07    0.23
  -4  -9  18    0.57    0.25
   4   9 -17    0.10    0.15
  -4  -9  17   -0.10    0.15
   4   9 -16    0.06    0.19
  -4  -9  16    0.25    0.19
   4   9 -15    0.89    0.28
  -4  -9  15    1.32    0.29
   4   9 -14   -0.02    0.12
  -4  -9  14   -0.02    0.18
   4   9 -13    0.06    0.12
  -4  -9  13    0.09    0.13
   4   9 -12    0.74    0.24
  -4  -9  12    0.84    0.26
   4   9 -11   -0.05    0.11
  -4  -9  11    0.10    0.13
   4   9 -10    2.69    0.37
  -4  -9  10    3.11    0.39
   4   9  -9    4.93    0.43
  -4  -9   9    5.64    0.47
   4   9  -8    1.82    0.25
  -4  -9   8    1.99    0.31
   4   9  -7    2.06    0.29
  -4  -9   7    2.54    0.26
   4   9  -6    2.96    0.31
  -4  -9   6    2.68    0.26
   4   9  -5    0.79    0.14
  -4  -9   5    0.91    0.18
   4   9  -4    0.95    0.17
   4   9  -4    0.42    0.10
  -4  -9   4    1.00    0.15
   4   9  -3    0.49    0.09
   4   9  -3    0.98    0.13
  -4  -9   3    0.86    0.17
   4   9  -2    3.43    0.30
   4   9  -2    3.20    0.22
  -4  -9   2    3.86    0.28
   4   9  -1    0.09    0.07
   4   9  -1    0.03    0.09
  -4  -9   1    0.11    0.09
   4   9   0    0.20    0.10
   4   9   0    0.36    0.10
  -4  -9   0    0.15    0.11
   4   9   1    0.60    0.15
   4   9   1    0.88    0.14
  -4  -9  -1    0.95    0.19
   4   9   2    0.15    0.08
   4   9   2   -0.04    0.10
  -4  -9  -2    0.14    0.12
   4   9   3    1.07    0.17
   4   9   3    0.89    0.13
  -4  -9  -3    1.30    0.21
   4   9   4    1.03    0.14
   4   9   4    1.29    0.23
  -4  -9  -4    1.59    0.22
   4   9   5    0.59    0.10
   4   9   5    0.77    0.20
  -4  -9  -5    0.95    0.19
   4   9   6    0.42    0.16
  -4  -9  -6    0.04    0.13
   4   9   7    2.14    0.30
  -4  -9  -7    2.18    0.32
   4   9   8   -0.17    0.15
  -4  -9  -8   -0.08    0.12
   4   9   9    1.16    0.34
  -4  -9  -9    1.24    0.27
   4   9  10    0.07    0.19
  -4  -9 -10    0.40    0.19
   4   9  11    5.20    0.62
  -4  -9 -11    5.11    0.60
   4   9  12    1.39    0.43
  -4  -9 -12    1.29    0.27
   4   9  13    0.24    0.28
  -4  -9 -13    0.22    0.21
   4   9  14    0.53    0.29
  -4  -9 -14    1.02    0.31
   4   9  15    1.10    0.32
  -4  -9 -15    0.38    0.26
   4   9  16   -0.31    0.21
  -4  -9 -16    0.09    0.17
   4   9  17    0.14    0.26
  -4  -9 -17    0.27    0.25
   4  10 -18    0.33    0.23
  -4 -10  18    0.71    0.34
   4  10 -17    0.01    0.15
  -4 -10  17    0.09    0.21
   4  10 -16    0.22    0.19
  -4 -10  16    0.48    0.26
   4  10 -15    1.14    0.28
  -4 -10  15    1.98    0.37
   4  10 -14    0.15    0.22
  -4 -10  14    0.54    0.20
   4  10 -13    0.19    0.19
  -4 -10  13    0.20    0.20
   4  10 -12   -0.07    0.12
  -4 -10  12    0.13    0.13
   4  10 -11   -0.16    0.15
  -4 -10  11   -0.03    0.13
   4  10 -10    0.78    0.21
  -4 -10  10    1.29    0.23
   4  10  -9   -0.15    0.13
  -4 -10   9    0.24    0.14
   4  10  -8    3.82    0.42
  -4 -10   8    3.76    0.36
   4  10  -7    2.46    0.32
  -4 -10   7    2.40    0.35
   4  10  -6    0.31    0.17
  -4 -10   6    0.74    0.18
   4  10  -5    1.07    0.21
  -4 -10   5    1.06    0.21
   4  10  -4    0.82    0.16
  -4 -10   4    0.92    0.20
   4  10  -3    0.37    0.09
   4  10  -3    0.08    0.12
  -4 -10   3    0.04    0.11
   4  10  -2    1.05    0.14
   4  10  -2    1.22    0.20
  -4 -10   2    1.41    0.23
   4  10  -1    3.43    0.31
   4  10  -1    4.19    0.35
  -4 -10   1    4.18    0.35
   4  10   0    1.29    0.16
   4  10   0    0.35    0.15
  -4 -10   0    0.59    0.19
   4  10   1    0.17    0.12
   4  10   1    0.21    0.11
  -4 -10  -1    0.23    0.12
   4  10   2    0.72    0.14
   4  10   2    0.98    0.16
  -4 -10  -2    1.16    0.22
   4  10   3    0.01    0.07
   4  10   3   -0.01    0.10
  -4 -10  -3   -0.02    0.11
   4  10   4    0.47    0.19
  -4 -10  -4    0.56    0.16
   4  10   5    1.78    0.32
  -4 -10  -5    1.91    0.29
   4  10   6    0.75    0.24
  -4 -10  -6    0.59    0.18
   4  10   7    1.97    0.37
  -4 -10  -7    1.64    0.32
   4  10   8    0.07    0.15
  -4 -10  -8    0.12    0.16
   4  10   9    1.50    0.42
  -4 -10  -9    1.81    0.29
   4  10  10    0.94    0.30
  -4 -10 -10    0.96    0.23
   4  10  11    1.32    0.46
  -4 -10 -11    1.59    0.29
   4  10  12    0.60    0.31
  -4 -10 -12    0.28    0.20
   4  10  13    0.48    0.26
  -4 -10 -13    0.39    0.21
   4  10  14    1.54    0.44
  -4 -10 -14    1.10    0.38
   4  10  15    0.26    0.21
  -4 -10 -15   -0.07    0.17
   4  10  16    1.55    0.49
  -4 -10 -16    1.79    0.39
   4  11 -17    1.18    0.32
  -4 -11  17    1.37    0.35
   4  11 -16    0.38    0.22
  -4 -11  16    0.38    0.24
   4  11 -15    0.89    0.27
  -4 -11  15    1.17    0.35
   4  11 -14    0.10    0.18
  -4 -11  14    0.43    0.24
   4  11 -13    0.06    0.19
  -4 -11  13    0.13    0.17
   4  11 -12    0.85    0.25
  -4 -11  12    1.50    0.28
   4  11 -11    0.52    0.26
  -4 -11  11    1.11    0.28
   4  11 -10    3.28    0.40
  -4 -11  10    3.78    0.48
   4  11  -9    1.14    0.30
  -4 -11   9    1.60    0.25
   4  11  -8    0.29    0.20
  -4 -11   8    0.50    0.17
   4  11  -7    0.03    0.16
  -4 -11   7    0.29    0.13
   4  11  -6    3.62    0.42
  -4 -11   6    3.77    0.43
   4  11  -5    0.02    0.14
  -4 -11   5    0.21    0.12
   4  11  -4    0.97    0.20
  -4 -11   4    1.16    0.20
   4  11  -3    6.31    0.54
  -4 -11   3    6.36    0.49
   4  11  -2    1.19    0.20
   4  11  -2    1.94    0.26
  -4 -11   2    2.22    0.29
   4  11  -1    0.72    0.19
   4  11  -1    0.75    0.16
  -4 -11   1    1.32    0.24
   4  11   0    0.10    0.09
   4  11   0   -0.02    0.09
  -4 -11   0   -0.06    0.10
   4  11   1    0.20    0.12
   4  11   1    0.15    0.14
  -4 -11  -1    0.67    0.16
   4  11   2    0.03    0.08
   4  11   2    0.01    0.09
  -4 -11  -2   -0.02    0.10
   4  11   3    0.49    0.13
   4  11   3    0.70    0.20
  -4 -11  -3    0.69    0.17
   4  11   4    2.11    0.34
  -4 -11  -4    2.16    0.33
   4  11   5    0.13    0.14
  -4 -11  -5   -0.03    0.10
   4  11   6    0.65    0.26
  -4 -11  -6    0.72    0.19
   4  11   7    2.50    0.48
  -4 -11  -7    2.68    0.40
   4  11   8    3.77    0.52
  -4 -11  -8    3.86    0.52
   4  11   9    0.84    0.33
  -4 -11  -9    0.75    0.25
   4  11  10   -0.20    0.17
  -4 -11 -10    0.11    0.18
   4  11  11    2.87    0.59
  -4 -11 -11    2.17    0.47
   4  11  12    1.36    0.40
  -4 -11 -12    0.43    0.31
   4  11  13    4.20    0.76
  -4 -11 -13    5.01    0.65
   4  11  14    0.20    0.24
  -4 -11 -14   -0.19    0.18
   4  11  15    0.47    0.29
  -4 -11 -15    0.19    0.29
   4  12 -16   -0.01    0.17
  -4 -12  16   -0.20    0.24
   4  12 -15   -0.06    0.15
  -4 -12  15   -0.22    0.19
   4  12 -14   -0.02    0.18
  -4 -12  14   -0.09    0.15
   4  12 -13    0.99    0.36
  -4 -12  13    1.63    0.38
   4  12 -12    0.27    0.24
  -4 -12  12    1.09    0.25
   4  12 -11   12.49    1.23
  -4 -12  11   15.89    1.18
   4  12 -10    2.74    0.40
  -4 -12  10    3.51    0.44
   4  12  -9    0.17    0.15
  -4 -12   9    0.16    0.15
   4  12  -8    2.26    0.42
  -4 -12   8    3.51    0.43
   4  12  -7    0.71    0.24
  -4 -12   7    0.82    0.25
   4  12  -6    0.40    0.21
  -4 -12   6    0.45    0.20
   4  12  -5    3.61    0.39
  -4 -12   5    3.61    0.36
   4  12  -4    1.55    0.29
  -4 -12   4    1.26    0.27
   4  12  -3    0.45    0.17
  -4 -12   3    0.91    0.22
   4  12  -2    1.26    0.24
   4  12  -2    0.78    0.19
  -4 -12   2    1.64    0.27
   4  12  -1    1.04    0.21
   4  12  -1    1.45    0.26
  -4 -12   1    2.48    0.31
   4  12   0    2.92    0.36
  -4 -12   0    4.68    0.42
   4  12   1    1.45    0.28
   4  12   1    2.02    0.25
  -4 -12  -1    2.12    0.28
   4  12   2    2.22    0.32
   4  12   2    1.23    0.25
  -4 -12  -2    2.74    0.30
   4  12   3    0.38    0.14
   4  12   3    0.51    0.17
  -4 -12  -3    0.68    0.22
   4  12   4    1.13    0.31
  -4 -12  -4    1.39    0.29
   4  12   5    1.22    0.33
  -4 -12  -5    1.17    0.29
   4  12   6    1.82    0.40
  -4 -12  -6    1.67    0.31
   4  12   7    0.74    0.29
  -4 -12  -7    1.36    0.31
   4  12   8    0.72    0.35
  -4 -12  -8    1.13    0.25
   4  12   9    0.90    0.29
  -4 -12  -9    0.88    0.31
   4  12  10   -0.03    0.21
  -4 -12 -10    0.08    0.19
   4  12  11    1.39    0.40
  -4 -12 -11    1.24    0.37
   4  12  12   -0.30    0.24
  -4 -12 -12    0.14    0.15
   4  12  13   -0.17    0.33
  -4 -12 -13    0.35    0.21
   4  13 -14    0.36    0.25
  -4 -13  14    0.17    0.27
   4  13 -13    2.77    0.47
  -4 -13  13    3.23    0.48
   4  13 -12    1.42    0.40
  -4 -13  12    1.88    0.42
   4  13 -11    1.34    0.33
  -4 -13  11    1.94    0.42
   4  13 -10    0.35    0.25
   4  13  -9    1.78    0.43
  -4 -13   9    2.52    0.35
   4  13  -8    0.78    0.24
   4  13  -7    0.07    0.14
   4  13  -6    0.81    0.28
  -4 -13   6    1.27    0.22
   4  13  -5    0.47    0.20
  -4 -13   5    0.33    0.22
   4  13  -4    2.98    0.41
  -4 -13   4    4.13    0.42
   4  13  -3    0.97    0.30
  -4 -13   3    1.62    0.25
   4  13  -2   -0.01    0.14
  -4 -13   2   -0.11    0.15
   4  13  -1    0.39    0.19
   4  13  -1    0.27    0.16
  -4 -13   1    0.86    0.22
   4  13   0    0.14    0.13
   4  13   0   -0.05    0.13
  -4 -13   0    0.19    0.17
   4  13   1    5.18    0.50
   4  13   1    4.38    0.54
  -4 -13  -1    6.87    0.65
   4  13   2   -0.01    0.14
   4  13   2   -0.03    0.11
  -4 -13  -2   -0.06    0.16
   4  13   3    3.07    0.47
  -4 -13  -3    4.17    0.50
   4  13   4    0.43    0.22
  -4 -13  -4    0.25    0.21
   4  13   5    0.87    0.31
  -4 -13  -5    0.92    0.28
   4  13   6    0.39    0.28
  -4 -13  -6    0.57    0.26
   4  13   7    0.41    0.29
  -4 -13  -7    0.41    0.19
   4  13   8    0.71    0.27
  -4 -13  -8    0.52    0.22
   4  13   9    0.27    0.24
  -4 -13  -9   -0.05    0.16
   4  13  10    1.91    0.46
  -4 -13 -10    1.69    0.46
   4  13  11   -0.42    0.31
  -4 -13 -11   -0.09    0.26
   4  14 -12   -0.04    0.17
  -4 -14  12    0.16    0.18
   4  14 -11   -0.12    0.22
  -4 -14  11    0.42    0.22
   4  14 -10    0.12    0.17
  -4 -14  10    0.10    0.18
   4  14  -9    0.68    0.24
  -4 -14   9    0.74    0.23
   4  14  -8    0.24    0.21
  -4 -14   8    0.58    0.25
   4  14  -7    0.08    0.15
   4  14  -6    0.06    0.14
   4  14  -5   -0.17    0.18
  -4 -14   5    0.30    0.15
   4  14  -4   -0.12    0.16
  -4 -14   4    0.18    0.16
   4  14  -3   -0.24    0.16
  -4 -14   3    0.27    0.13
   4  14  -2    0.56    0.20
  -4 -14   2    0.96    0.21
   4  14  -1    0.85    0.24
  -4 -14   1    0.65    0.28
   4  14   0    1.42    0.34
  -4 -14   0    2.99    0.40
   4  14   1   -0.01    0.16
  -4 -14  -1    0.20    0.15
   4  14   2    0.66    0.21
  -4 -14  -2    0.73    0.23
   4  14   3    0.20    0.19
  -4 -14  -3    0.03    0.18
   4  14   4    0.43    0.25
  -4 -14  -4    0.45    0.24
   4  14   5    0.97    0.35
  -4 -14  -5    1.02    0.33
   4  14   6    0.19    0.29
  -4 -14  -6    0.51    0.23
   4  14   7   -0.16    0.20
  -4 -14  -7    0.08    0.14
   4  14   8    0.86    0.44
  -4 -14  -8    1.22    0.37
   4  14   9    0.22    0.27
  -4 -14  -9    0.45    0.26
   4  15  -9   -0.07    0.20
  -4 -15   9    0.10    0.15
   4  15  -8    0.42    0.29
  -4 -15   8    0.84    0.25
   4  15  -7    0.21    0.26
  -4 -15   7    0.33    0.20
   4  15  -6    0.15    0.18
  -4 -15   6    0.29    0.22
   4  15  -5    0.15    0.18
   4  15  -4    0.58    0.30
  -4 -15   4    0.83    0.23
   4  15  -3    0.17    0.24
  -4 -15   3    0.87    0.26
   4  15  -2    1.08    0.31
  -4 -15   2    1.17    0.28
   4  15  -1   -0.25    0.18
  -4 -15   1   -0.10    0.20
  -4 -15   0    1.14    0.28
  -4 -15  -1    0.16    0.21
  -4 -15  -2    0.38    0.25
  -4 -15  -3   -0.04    0.15
   4  15   4   -0.09    0.25
  -4 -15  -4    0.38    0.19
   4  15   5    0.64    0.36
  -4 -15  -5    1.05    0.35
  -5  17   0    0.15    0.16
   5 -17   1    0.29    0.18
  -5  17  -1   -0.03    0.21
   5 -17   2    0.07    0.15
  -5  17  -2    0.19    0.20
  -5  17  -3   -0.12    0.22
  -5  16   6    1.42    0.57
  -5  16   5    0.32    0.21
   5 -16  -4    0.21    0.17
   5 -16  -3    0.21    0.17
  -5  16   3    0.06    0.17
   5 -16  -2    0.20    0.14
  -5  16   2    0.09    0.18
   5 -16  -1    0.38    0.19
  -5  16   1    0.17    0.20
   5 -16   0    1.40    0.28
  -5  16   0    0.87    0.31
   5 -16   1    0.90    0.20
  -5  16  -1    0.87    0.24
   5 -16   2    0.27    0.17
  -5  16  -2    0.07    0.21
   5 -16   3    3.12    0.37
  -5  16  -3    1.97    0.46
   5 -16   4    0.87    0.23
  -5  16  -4    0.89    0.31
  -5  16  -5    0.14    0.17
  -5  16  -6    0.12    0.17
  -5  16  -7    0.34    0.21
  -5  16  -8    0.13    0.18
  -5  16  -9    0.28    0.21
  -5  15   9    0.23    0.29
  -5  15   8    0.39    0.35
  -5  15   7   -0.09    0.23
   5 -15  -6    0.52    0.23
   5 -15  -5    0.17    0.14
   5 -15  -5    0.12    0.14
   5 -15  -4    1.78    0.30
   5 -15  -4    1.20    0.24
  -5  15   4    0.84    0.27
   5 -15  -3   -0.10    0.12
   5 -15  -3    0.14    0.16
  -5  15   3    0.25    0.15
   5 -15  -2    0.10    0.12
   5 -15  -2    0.00    0.12
  -5  15   2    0.07    0.15
   5 -15  -1    0.61    0.17
   5 -15  -1    0.66    0.21
  -5  15   1    0.38    0.21
   5 -15   0    0.41    0.15
   5 -15   0    0.36    0.15
  -5  15   0    0.28    0.22
   5 -15   1    0.99    0.23
   5 -15   1    0.87    0.19
  -5  15  -1    0.85    0.23
   5 -15   2    1.34    0.21
   5 -15   2    1.09    0.22
  -5  15  -2    1.71    0.32
   5 -15   3    0.07    0.13
   5 -15   3    0.02    0.12
  -5  15  -3    0.16    0.17
   5 -15   4    3.06    0.32
   5 -15   4    2.78    0.32
  -5  15  -4    1.99    0.44
   5 -15   5    0.05    0.12
   5 -15   5    0.05    0.11
  -5  15  -5    0.12    0.18
   5 -15   6    0.39    0.15
  -5  15  -6    0.49    0.25
   5 -15   7    0.60    0.17
  -5  15  -7    0.50    0.25
  -5  15  -8   -0.13    0.19
  -5  15  -9    0.08    0.17
  -5  15 -10    1.48    0.33
  -5  15 -11   -0.03    0.18
  -5  15 -12    0.24    0.19
   5 -14 -11    0.31    0.21
  -5  14  11    1.26    0.34
   5 -14 -10    0.14    0.13
  -5  14  10   -0.36    0.20
   5 -14  -9    0.47    0.19
  -5  14   9    0.46    0.30
   5 -14  -8    0.78    0.23
  -5  14   8    1.37    0.35
   5 -14  -7   -0.01    0.12
   5 -14  -6    0.03    0.17
   5 -14  -6    0.10    0.13
  -5  14   6    0.24    0.14
   5 -14  -5    1.58    0.28
   5 -14  -5    0.72    0.20
  -5  14   5    0.93    0.23
   5 -14  -4    0.07    0.11
   5 -14  -4   -0.05    0.15
  -5  14   4    0.05    0.13
   5 -14  -3    0.11    0.13
   5 -14  -3    0.14    0.11
  -5  14   3    0.01    0.11
   5 -14  -2    0.19    0.12
   5 -14  -2    0.02    0.11
  -5  14   2   -0.11    0.14
   5 -14  -1    0.00    0.13
   5 -14  -1    0.15    0.10
  -5  14   1   -0.00    0.11
   5 -14   0    0.27    0.14
   5 -14   0    0.01    0.11
  -5  14   0    0.12    0.16
   5 -14   1    5.38    0.41
   5 -14   1    4.89    0.41
  -5  14  -1    5.07    0.56
   5 -14   2    0.06    0.12
   5 -14   2    0.08    0.10
  -5  14  -2    0.06    0.15
   5 -14   3    0.81    0.17
   5 -14   3    0.45    0.14
  -5  14  -3    0.13    0.23
   5 -14   4    0.38    0.11
   5 -14   4   -0.01    0.12
  -5  14  -4    0.33    0.19
   5 -14   5    0.17    0.10
   5 -14   5   -0.03    0.10
  -5  14  -5   -0.10    0.14
   5 -14   6    0.20    0.11
   5 -14   6    0.02    0.10
  -5  14  -6   -0.09    0.13
   5 -14   7    0.77    0.18
  -5  14  -7    0.78    0.22
   5 -14   8    0.37    0.13
   5 -14   8    0.26    0.14
  -5  14  -8    0.26    0.23
   5 -14   9    0.50    0.17
  -5  14  -9    0.47    0.25
  -5  14 -10    0.00    0.12
   5 -14  11    0.14    0.14
  -5  14 -11    0.08    0.19
   5 -14  12    0.05    0.14
  -5  14 -12   -0.15    0.15
  -5  14 -13    0.59    0.28
  -5  14 -14    0.04    0.16
   5 -13 -13   -0.02    0.14
  -5  13  13    0.02    0.23
   5 -13 -12    0.08    0.17
  -5  13  12    0.53    0.28
   5 -13 -11    1.49    0.26
  -5  13  11    3.50    0.49
   5 -13 -10   -0.03    0.11
  -5  13  10    0.06    0.18
   5 -13  -9    0.71    0.19
  -5  13   9    0.29    0.29
   5 -13  -8    0.85    0.20
   5 -13  -8    0.59    0.18
   5 -13  -7    0.31    0.13
   5 -13  -7    0.04    0.13
  -5  13   7    0.09    0.12
   5 -13  -6    0.16    0.12
   5 -13  -6    0.28    0.15
  -5  13   6    0.15    0.14
   5 -13  -5    1.83    0.24
   5 -13  -5    1.33    0.20
  -5  13   5    0.97    0.23
   5 -13  -4    2.52    0.28
   5 -13  -4    1.99    0.24
  -5  13   4    1.39    0.29
   5 -13  -3    0.02    0.11
   5 -13  -3    0.13    0.10
  -5  13   3    0.04    0.12
   5 -13  -2    3.81    0.34
   5 -13  -2    3.20    0.30
  -5  13   2    3.35    0.38
   5 -13  -1    0.27    0.13
   5 -13  -1    0.14    0.10
  -5  13   1    0.24    0.15
   5 -13   0    0.45    0.12
   5 -13   0    0.00    0.10
  -5  13   0   -0.05    0.12
   5 -13   1    3.79    0.33
   5 -13   1    2.69    0.30
  -5  13  -1    2.06    0.34
   5 -13   2    0.28    0.13
   5 -13   2    0.03    0.10
  -5  13  -2    0.32    0.16
   5 -13   3   -0.06    0.11
   5 -13   3   -0.07    0.09
  -5  13  -3    0.06    0.14
   5 -13   4    0.76    0.16
   5 -13   4    0.51    0.14
  -5  13  -4    1.02    0.22
   5 -13   5    0.25    0.13
  -5  13  -5    0.49    0.16
   5 -13   6    0.70    0.16
  -5  13  -6    0.53    0.19
   5 -13   7    1.54    0.23
   5 -13   7    1.36    0.20
  -5  13  -7    1.57    0.32
   5 -13   8    0.40    0.16
   5 -13   8    0.60    0.16
  -5  13  -8    0.60    0.19
   5 -13   9    3.50    0.35
  -5  13  -9    2.73    0.48
   5 -13  10    0.20    0.12
   5 -13  10    0.46    0.15
  -5  13 -10    0.02    0.17
   5 -13  11    0.26    0.16
  -5  13 -11    0.28    0.21
   5 -13  12    0.09    0.13
  -5  13 -12   -0.00    0.14
   5 -13  13   -0.04    0.13
  -5  13 -13    0.03    0.14
   5 -13  14    0.35    0.21
  -5  13 -14    0.31    0.25
   5 -13  15    0.21    0.19
  -5  13 -15    0.10    0.17
   5 -13  16   -0.09    0.16
  -5  13 -16   -0.17    0.17
   5 -12 -15    0.39    0.21
  -5  12  15    0.31    0.40
   5 -12 -14    0.26    0.18
  -5  12  14    0.38    0.36
   5 -12 -13   -0.12    0.14
  -5  12  13    0.01    0.30
   5 -12 -12   -0.14    0.16
  -5  12  12   -0.35    0.30
   5 -12 -11    2.25    0.30
  -5  12  11    3.57    0.60
   5 -12 -10   -0.08    0.11
  -5  12  10    0.08    0.19
   5 -12  -9   13.34    0.95
   5 -12  -9   15.09    0.98
   5 -12  -8    0.05    0.12
   5 -12  -8    0.11    0.11
  -5  12   8    0.10    0.10
   5 -12  -7    1.06    0.23
   5 -12  -7    0.60    0.15
  -5  12   7    0.56    0.17
   5 -12  -6    1.87    0.29
   5 -12  -6    1.96    0.22
  -5  12   6    1.34    0.24
   5 -12  -5    0.73    0.15
   5 -12  -5    0.85    0.22
  -5  12   5    0.75    0.15
   5 -12  -4    0.83    0.16
   5 -12  -4    1.16    0.23
  -5  12   4    1.19    0.21
   5 -12  -3    8.16    0.54
   5 -12  -3    7.27    0.46
  -5  12   3    6.77    0.56
   5 -12  -2    0.17    0.12
   5 -12  -2    0.16    0.10
  -5  12   2    0.54    0.14
   5 -12  -1    1.54    0.19
   5 -12  -1    1.08    0.16
  -5  12   1    1.04    0.23
   5 -12   0    1.38    0.20
   5 -12   0    0.97    0.14
  -5  12   0    1.14    0.23
   5 -12   1    2.19    0.24
   5 -12   1    1.58    0.17
  -5  12  -1    1.32    0.28
   5 -12   2    1.25    0.18
   5 -12   2    0.88    0.15
  -5  12  -2    0.98    0.20
   5 -12   3    0.12    0.08
   5 -12   3    0.04    0.07
  -5  12  -3    0.03    0.11
   5 -12   4    1.09    0.18
   5 -12   4    1.47    0.15
  -5  12  -4    1.01    0.27
   5 -12   5    2.33    0.23
   5 -12   5    2.50    0.23
  -5  12  -5    2.58    0.31
   5 -12   6    1.55    0.18
   5 -12   6    1.39    0.18
  -5  12  -6    1.35    0.30
   5 -12   7    6.93    0.47
   5 -12   7    5.83    0.41
  -5  12  -7    5.21    0.55
   5 -12   8   -0.19    0.10
   5 -12   8   -0.04    0.10
  -5  12  -8    0.10    0.16
   5 -12   9    0.51    0.14
   5 -12   9    0.67    0.16
  -5  12  -9    0.27    0.19
   5 -12  10   -0.06    0.09
   5 -12  10   -0.05    0.11
  -5  12 -10   -0.04    0.13
   5 -12  11    0.85    0.20
   5 -12  11    0.84    0.17
  -5  12 -11    0.86    0.29
   5 -12  12   -0.02    0.13
  -5  12 -12    0.15    0.17
   5 -12  13    0.17    0.14
  -5  12 -13   -0.08    0.14
   5 -12  14    1.11    0.27
  -5  12 -14    0.92    0.27
   5 -12  15    0.46    0.22
  -5  12 -15    0.27    0.18
   5 -12  16    0.15    0.20
  -5  12 -16    0.15    0.20
   5 -12  17    1.49    0.32
  -5  12 -17    1.08    0.40
   5 -11 -16   -0.11    0.18
  -5  11  16   -0.13    0.34
   5 -11 -15    0.22    0.19
  -5  11  15    0.93    0.37
   5 -11 -14    0.02    0.12
  -5  11  14    0.36    0.24
   5 -11 -13    0.14    0.13
  -5  11  13   -0.10    0.21
   5 -11 -12    0.13    0.13
  -5  11  12    0.08    0.20
   5 -11 -11    1.14    0.22
  -5  11  11    1.11    0.36
   5 -11 -10    0.18    0.12
   5 -11 -10   -0.10    0.10
   5 -11  -9    0.15    0.12
   5 -11  -9    0.24    0.12
  -5  11   9    0.07    0.10
   5 -11  -8    0.08    0.11
   5 -11  -8   -0.04    0.09
  -5  11   8   -0.07    0.09
   5 -11  -7    0.03    0.18
   5 -11  -7    0.27    0.12
  -5  11   7    0.48    0.12
   5 -11  -6    0.02    0.11
   5 -11  -6    0.11    0.08
  -5  11   6    0.02    0.08
   5 -11  -5    0.62    0.12
   5 -11  -5    0.57    0.14
  -5  11   5    0.26    0.14
   5 -11  -4    2.36    0.31
   5 -11  -4    3.29    0.21
  -5  11   4    1.31    0.26
   5 -11  -3    5.11    0.35
   5 -11  -3    4.30    0.28
  -5  11   3    3.80    0.40
   5 -11  -2    4.00    0.32
   5 -11  -2    3.38    0.24
  -5  11   2    2.97    0.29
   5 -11  -1    4.08    0.36
   5 -11  -1    3.47    0.23
  -5  11   1    3.31    0.36
   5 -11   0    3.76    0.25
   5 -11   0    4.24    0.31
  -5  11   0    3.60    0.39
   5 -11   1    0.33    0.14
   5 -11   1    0.10    0.10
  -5  11  -1    0.47    0.12
   5 -11   2    5.77    0.39
   5 -11   2    6.89    0.36
  -5  11  -2    6.29    0.52
   5 -11   3    3.63    0.32
   5 -11   3    3.37    0.25
  -5  11  -3    3.24    0.33
   5 -11   4    5.59    0.41
   5 -11   4    4.55    0.31
  -5  11  -4    4.85    0.49
   5 -11   5   10.06    0.57
   5 -11   5   10.18    0.51
  -5  11  -5    9.45    0.74
   5 -11   6    7.93    0.52
   5 -11   6    7.90    0.44
  -5  11  -6    8.06    0.65
   5 -11   7    0.51    0.14
   5 -11   7    0.59    0.13
  -5  11  -7    0.15    0.21
   5 -11   8    6.71    0.45
   5 -11   8    7.21    0.46
  -5  11  -8    5.48    0.61
   5 -11   9    4.62    0.36
   5 -11   9    4.64    0.37
  -5  11  -9    3.95    0.45
   5 -11  10    0.18    0.10
   5 -11  10   -0.06    0.12
  -5  11 -10    0.18    0.13
   5 -11  11    1.08    0.18
   5 -11  11    1.31    0.22
  -5  11 -11    1.28    0.24
   5 -11  12   -0.13    0.10
   5 -11  12    0.07    0.09
  -5  11 -12    0.09    0.13
   5 -11  13    0.30    0.14
   5 -11  13    0.44    0.18
  -5  11 -13   -0.01    0.20
   5 -11  14    1.74    0.32
  -5  11 -14    1.50    0.36
   5 -11  15    4.14    0.50
  -5  11 -15    2.51    0.48
   5 -11  16    0.40    0.21
  -5  11 -16    0.17    0.22
   5 -11  17   -0.15    0.20
  -5  11 -17    0.39    0.19
   5 -11  18   -0.03    0.20
  -5  11 -18   -0.13    0.20
   5 -10 -17    1.87    0.36
  -5  10  17    2.11    0.56
   5 -10 -16    1.62    0.27
  -5  10  16    1.78    0.57
   5 -10 -15    0.91    0.24
  -5  10  15    1.06    0.47
   5 -10 -14   -0.17    0.13
  -5  10  14    0.25    0.24
   5 -10 -13    1.07    0.20
  -5  10  13    0.49    0.33
   5 -10 -12    0.11    0.11
  -5  10  12    0.26    0.21
   5 -10 -11   12.11    0.82
   5 -10 -11   11.37    0.73
   5 -10 -10    4.66    0.42
   5 -10 -10    4.20    0.34
  -5  10  10    2.73    0.28
   5 -10  -9    0.71    0.14
   5 -10  -9    0.95    0.21
  -5  10   9    0.42    0.13
   5 -10  -8    0.26    0.10
   5 -10  -8    0.31    0.12
  -5  10   8   -0.02    0.10
   5 -10  -7    0.54    0.17
   5 -10  -7    0.31    0.11
  -5  10   7    0.39    0.12
   5 -10  -6    4.77    0.34
   5 -10  -6    3.87    0.27
  -5  10   6    3.74    0.33
   5 -10  -5    1.07    0.19
   5 -10  -5    0.73    0.12
  -5  10   5    0.64    0.14
   5 -10  -4    0.64    0.13
  -5  10   4    0.56    0.14
   5 -10  -3    0.21    0.10
   5 -10  -3    0.08    0.06
  -5  10   3   -0.01    0.08
   5 -10  -2    1.70    0.21
   5 -10  -2    1.10    0.14
  -5  10   2    1.32    0.20
   5 -10  -1    1.12    0.11
   5 -10  -1    1.01    0.15
  -5  10   1    0.99    0.19
   5 -10   0    3.13    0.25
   5 -10   0    3.13    0.18
  -5  10   0    3.00    0.31
   5 -10   1   -0.17    0.10
   5 -10   1    0.09    0.06
  -5  10  -1    0.02    0.08
   5 -10   2    0.12    0.11
   5 -10   2    0.20    0.07
  -5  10  -2    0.30    0.13
   5 -10   3    0.53    0.11
   5 -10   3    0.68    0.09
  -5  10  -3    0.57    0.18
   5 -10   4    0.96    0.15
   5 -10   4    0.55    0.10
  -5  10  -4    0.83    0.18
   5 -10   5   -0.14    0.09
   5 -10   5    0.02    0.07
  -5  10  -5   -0.18    0.10
   5 -10   6    1.93    0.18
   5 -10   6    1.73    0.22
  -5  10  -6    1.53    0.26
   5 -10   7   22.27    1.14
  -5  10  -7   24.44    1.46
   5 -10   8    3.29    0.29
   5 -10   8    3.23    0.28
  -5  10  -8    3.64    0.36
   5 -10   9   -0.22    0.11
   5 -10   9   -0.07    0.10
  -5  10  -9   -0.13    0.12
   5 -10  10    2.58    0.25
  -5  10 -10    1.19    0.28
   5 -10  11    0.21    0.11
   5 -10  11    0.30    0.13
  -5  10 -11    0.10    0.14
   5 -10  12    0.72    0.15
   5 -10  12    0.84    0.20
  -5  10 -12    0.26    0.19
   5 -10  13    0.99    0.17
   5 -10  13    1.52    0.25
  -5  10 -13    0.82    0.23
   5 -10  14    2.03    0.31
   5 -10  14    1.73    0.24
  -5  10 -14    1.93    0.34
   5 -10  15    0.92    0.24
  -5  10 -15    0.40    0.24
   5 -10  16   -0.09    0.15
  -5  10 -16    0.08    0.13
   5 -10  17    0.22    0.26
  -5  10 -17    0.77    0.24
  -5  10 -18    0.31    0.19
   5 -10  19    0.34    0.24
  -5  10 -19    0.10    0.19
   5  -9 -18    0.16    0.17
  -5   9  18   -0.01    0.32
   5  -9 -17    1.09    0.26
  -5   9  17    0.47    0.49
   5  -9 -16   -0.02    0.13
  -5   9  16    0.16    0.20
   5  -9 -15    1.96    0.32
  -5   9  15    2.58    0.58
   5  -9 -14    0.60    0.18
  -5   9  14    0.89    0.36
   5  -9 -13    6.87    0.57
  -5   9  13    7.70    0.81
   5  -9 -12    0.56    0.15
  -5   9  12    0.58    0.25
   5  -9 -11    6.86    0.45
   5  -9 -11    5.55    0.36
  -5   9  11    3.92    0.34
   5  -9 -10    0.23    0.11
   5  -9 -10    0.12    0.10
  -5   9  10    0.02    0.09
   5  -9  -9   12.35    0.80
   5  -9  -9   11.41    0.63
  -5   9   9   10.08    0.63
   5  -9  -8    1.17    0.18
   5  -9  -8    1.05    0.15
  -5   9   8    0.76    0.16
   5  -9  -7    2.06    0.26
   5  -9  -7    1.79    0.17
  -5   9   7    1.89    0.20
   5  -9  -6    5.75    0.32
   5  -9  -6    6.03    0.45
  -5   9   6    5.34    0.35
   5  -9  -5    3.57    0.27
  -5   9   5    2.64    0.25
   5  -9  -4    5.44    0.35
   5  -9  -4    4.92    0.26
  -5   9   4    5.23    0.32
   5  -9  -3   11.96    0.48
   5  -9  -3   12.98    0.66
  -5   9   3   12.75    0.70
   5  -9  -2    2.78    0.16
   5  -9  -2    2.91    0.23
  -5   9   2    3.27    0.26
   5  -9  -1    3.34    0.23
   5  -9  -1    2.72    0.15
  -5   9   1    2.72    0.23
   5  -9   0    1.93    0.12
   5  -9   0    1.90    0.19
  -5   9   0    1.71    0.20
   5  -9   1    2.40    0.20
   5  -9   1    2.66    0.15
  -5   9  -1    2.58    0.23
   5  -9   2    8.04    0.44
   5  -9   2    8.23    0.34
  -5   9  -2    8.01    0.50
   5  -9   3    0.38    0.10
   5  -9   3    0.46    0.07
  -5   9  -3    0.29    0.12
   5  -9   4    3.26    0.23
   5  -9   4    3.10    0.18
  -5   9  -4    3.83    0.28
   5  -9   5    0.67    0.13
   5  -9   5    0.49    0.09
  -5   9  -5    0.63    0.14
   5  -9   6    0.16    0.11
   5  -9   6    0.10    0.07
  -5   9  -6    0.03    0.10
   5  -9   7   11.96    0.68
   5  -9   7    9.23    0.52
  -5   9  -7   10.94    0.76
   5  -9   8    0.19    0.09
   5  -9   8    0.05    0.09
  -5   9  -8    0.08    0.14
   5  -9   9   -0.14    0.08
   5  -9   9   -0.03    0.08
  -5   9  -9    0.19    0.10
   5  -9  10   -0.02    0.08
   5  -9  10    0.01    0.07
  -5   9 -10   -0.03    0.09
   5  -9  11    0.73    0.15
   5  -9  11    0.52    0.16
  -5   9 -11    0.52    0.20
   5  -9  12   -0.08    0.10
   5  -9  12   -0.20    0.12
  -5   9 -12    0.22    0.13
   5  -9  13    0.07    0.12
   5  -9  13    0.17    0.14
  -5   9 -13    0.17    0.12
   5  -9  14   -0.09    0.10
   5  -9  14   -0.03    0.13
  -5   9 -14    0.04    0.11
   5  -9  15    0.11    0.12
  -5   9 -15   -0.04    0.15
   5  -9  16    0.03    0.10
   5  -9  16   -0.03    0.14
  -5   9 -16    0.03    0.13
   5  -9  17    0.43    0.20
  -5   9 -17    0.67    0.19
   5  -9  18    0.06    0.19
  -5   9 -18    0.15    0.18
   5  -9  19    0.18    0.17
  -5   9 -19   -0.00    0.19
   5  -9  20   -0.24    0.21
  -5   9 -20    0.03    0.16
   5  -8 -19   -0.11    0.16
  -5   8  19   -0.00    0.30
   5  -8 -18    0.17    0.23
  -5   8  18    1.36    0.33
   5  -8 -17    0.30    0.18
  -5   8  17    0.34    0.27
   5  -8 -16    0.09    0.11
  -5   8  16   -0.14    0.22
   5  -8 -15    1.16    0.20
   5  -8 -14    4.50    0.44
  -5   8  14    5.40    0.70
   5  -8 -13   -0.06    0.12
  -5   8  13    0.46    0.18
   5  -8 -12    0.21    0.12
   5  -8 -12    0.18    0.12
  -5   8  12    0.27    0.09
   5  -8 -11    1.28    0.23
   5  -8 -11    1.24    0.18
  -5   8  11    1.07    0.15
   5  -8 -10    1.52    0.18
   5  -8 -10    1.67    0.20
  -5   8  10    1.32    0.17
   5  -8  -9    0.07    0.07
   5  -8  -9    0.29    0.10
  -5   8   9    0.17    0.09
   5  -8  -8    0.22    0.09
   5  -8  -8   -0.01    0.08
  -5   8   8    0.12    0.08
   5  -8  -7   -0.00    0.06
   5  -8  -7   -0.03    0.07
  -5   8   7   -0.03    0.07
   5  -8  -6    1.77    0.15
   5  -8  -6    2.02    0.19
  -5   8   6    2.18    0.20
   5  -8  -5    0.98    0.13
   5  -8  -5    0.74    0.09
  -5   8   5    0.89    0.13
   5  -8  -4    2.61    0.15
   5  -8  -4    3.00    0.23
  -5   8   4    2.74    0.20
   5  -8  -3   26.94    1.17
   5  -8  -3   23.50    0.79
  -5   8   3   24.95    1.12
   5  -8  -2    3.70    0.28
   5  -8  -2    3.31    0.15
  -5   8   2    3.18    0.22
   5  -8  -1    0.39    0.10
   5  -8  -1    0.30    0.05
  -5   8   1    0.40    0.09
   5  -8   0    5.92    0.31
   5  -8   0    4.72    0.19
  -5   8   0    5.01    0.32
   5  -8   1    5.66    0.33
   5  -8   1    5.02    0.20
  -5   8  -1    4.72    0.37
   5  -8   2    4.63    0.28
  -5   8  -2    4.73    0.32
   5  -8   3    1.07    0.09
   5  -8   3    0.79    0.12
  -5   8  -3    0.53    0.13
   5  -8   4    0.21    0.05
   5  -8   4   -0.03    0.10
  -5   8  -4    0.12    0.11
   5  -8   5   -0.12    0.08
   5  -8   5    0.05    0.05
  -5   8  -5    0.13    0.08
   5  -8   6    0.69    0.13
   5  -8   6    0.57    0.09
  -5   8  -6    0.65    0.13
   5  -8   7    6.69    0.39
   5  -8   7    6.45    0.36
  -5   8  -7    5.92    0.43
   5  -8   8    1.63    0.19
   5  -8   8    1.88    0.17
  -5   8  -8    1.58    0.22
   5  -8   9    0.46    0.13
   5  -8   9    0.49    0.12
  -5   8  -9    0.68    0.18
   5  -8  10    2.11    0.21
   5  -8  10    1.95    0.22
  -5   8 -10    1.56    0.22
   5  -8  11    0.02    0.09
   5  -8  11    0.12    0.10
  -5   8 -11   -0.03    0.12
   5  -8  12    0.14    0.10
   5  -8  12    0.04    0.11
  -5   8 -12   -0.07    0.10
   5  -8  13    0.13    0.10
   5  -8  13    0.10    0.13
  -5   8 -13    0.06    0.14
   5  -8  14    1.48    0.22
   5  -8  14    1.72    0.28
  -5   8 -14    1.58    0.24
   5  -8  15    0.55    0.16
   5  -8  15    0.61    0.20
  -5   8 -15    0.42    0.20
   5  -8  16    0.56    0.16
   5  -8  16    0.13    0.21
  -5   8 -16    0.53    0.17
   5  -8  17    0.11    0.11
   5  -8  17    0.12    0.15
  -5   8 -17   -0.34    0.13
   5  -8  18    0.85    0.29
  -5   8 -18    0.85    0.22
   5  -8  19   -0.14    0.15
  -5   8 -19    0.00    0.18
   5  -8  20   -0.10    0.16
  -5   8 -20    0.03    0.13
   5  -8  21    0.06    0.17
  -5   8 -21    0.08    0.19
   5  -7 -20   -0.15    0.15
  -5   7  20   -0.13    0.25
   5  -7 -19    0.28    0.19
  -5   7  19    0.36    0.34
   5  -7 -18    0.76    0.24
  -5   7  18    0.98    0.33
   5  -7 -17    0.84    0.18
  -5   7  17    0.94    0.40
   5  -7 -16    6.37    0.58
  -5   7  16    7.88    0.83
   5  -7 -15    1.38    0.25
  -5   7  15    1.63    0.42
   5  -7 -14    0.01    0.09
  -5   7  14    0.03    0.14
   5  -7 -13   -0.06    0.09
  -5   7  13   -0.01    0.07
  -5   7  13    0.04    0.16
   5  -7 -12    0.24    0.12
   5  -7 -12    0.10    0.10
  -5   7  12   -0.01    0.08
   5  -7 -11    5.20    0.40
   5  -7 -11    4.84    0.36
  -5   7  11    4.85    0.32
   5  -7 -10    0.90    0.18
   5  -7 -10    0.86    0.14
  -5   7  10    0.56    0.12
   5  -7  -9    1.91    0.22
   5  -7  -9    1.57    0.16
  -5   7   9    1.40    0.17
   5  -7  -8    1.47    0.19
   5  -7  -8    1.37    0.14
  -5   7   8    1.28    0.15
   5  -7  -7    0.13    0.07
   5  -7  -7   -0.04    0.05
  -5   7   7   -0.09    0.06
   5  -7  -6    0.45    0.08
   5  -7  -6    0.56    0.11
  -5   7   6    0.38    0.10
   5  -7  -5    7.49    0.44
   5  -7  -5    6.85    0.29
  -5   7   5    7.32    0.40
   5  -7  -4    0.02    0.08
   5  -7  -4    0.20    0.05
  -5   7   4    0.18    0.09
   5  -7  -3    9.47    0.50
   5  -7  -3    8.10    0.29
  -5   7   3    9.48    0.49
   5  -7  -2    2.20    0.20
  -5   7   2    1.86    0.16
   5  -7  -1    0.24    0.04
   5  -7  -1    0.12    0.07
  -5   7   1    0.28    0.10
   5  -7   0    0.72    0.10
  -5   7   0    0.74    0.10
   5  -7   1    0.80    0.11
   5  -7   1    0.62    0.05
  -5   7  -1    0.63    0.12
   5  -7   2    0.17    0.08
  -5   7  -2    0.02    0.08
   5  -7   3    0.99    0.12
   5  -7   3    0.64    0.06
  -5   7  -3    0.55    0.11
   5  -7   4    1.23    0.14
   5  -7   4    1.12    0.09
  -5   7  -4    1.09    0.15
   5  -7   5    0.82    0.08
   5  -7   5    1.09    0.11
  -5   7  -5    0.94    0.16
   5  -7   6    6.18    0.36
   5  -7   6    5.21    0.26
  -5   7  -6    5.54    0.36
   5  -7   7    1.99    0.20
   5  -7   7    1.41    0.14
  -5   7  -7    2.19    0.20
   5  -7   8    0.86    0.16
   5  -7   8    1.14    0.13
  -5   7  -8    1.31    0.16
   5  -7   9    0.63    0.11
   5  -7   9    0.81    0.12
  -5   7  -9    0.62    0.18
   5  -7  10    0.39    0.12
   5  -7  10    0.51    0.12
  -5   7 -10    0.42    0.15
   5  -7  11    0.28    0.09
   5  -7  11   -0.16    0.09
  -5   7 -11    0.01    0.09
   5  -7  12    1.99    0.23
   5  -7  12    1.88    0.25
  -5   7 -12    1.49    0.27
   5  -7  13    4.15    0.35
   5  -7  13    3.64    0.31
  -5   7 -13    3.51    0.38
   5  -7  14    0.90    0.19
   5  -7  14    1.12    0.20
  -5   7 -14    1.11    0.18
   5  -7  15    0.17    0.12
   5  -7  15    0.40    0.17
  -5   7 -15    0.01    0.16
   5  -7  16    0.87    0.20
   5  -7  16    1.19    0.27
  -5   7 -16    1.02    0.25
   5  -7  17    0.08    0.14
   5  -7  17    0.47    0.20
  -5   7 -17    0.18    0.13
   5  -7  18    0.30    0.19
   5  -7  18   -0.05    0.14
  -5   7 -18    0.21    0.16
   5  -7  19    0.06    0.21
  -5   7 -19    0.57    0.21
   5  -7  20    0.32    0.24
  -5   7 -20    0.12    0.20
   5  -7  21   -0.06    0.23
  -5   7 -21   -0.12    0.19
  -5   6  21   -0.09    0.28
   5  -6 -20   -0.00    0.16
  -5   6  20   -0.11    0.25
   5  -6 -19    0.46    0.22
  -5   6  19    0.35    0.29
   5  -6 -18    0.70    0.24
  -5   6  18    1.30    0.38
   5  -6 -17    1.56    0.30
  -5   6  17    1.40    0.45
   5  -6 -16    6.51    0.58
  -5   6  16    8.29    0.82
   5  -6 -15    4.84    0.43
  -5   6  15    5.33    0.70
   5  -6 -14    0.06    0.11
  -5   6  14    0.29    0.16
  -5   6  14   -0.07    0.08
   5  -6 -13    5.03    0.42
  -5   6  13    5.48    0.54
   5  -6 -12    0.66    0.18
   5  -6 -12    0.87    0.14
  -5   6  12    0.95    0.14
   5  -6 -11    3.19    0.31
   5  -6 -11    3.33    0.27
  -5   6  11    3.40    0.25
   5  -6 -10    5.26    0.39
   5  -6 -10    4.87    0.32
  -5   6  10    5.09    0.32
   5  -6  -9    0.05    0.09
   5  -6  -9    0.14    0.07
  -5   6   9    0.09    0.08
   5  -6  -8    3.66    0.24
   5  -6  -8    3.60    0.22
  -5   6   8    3.90    0.25
   5  -6  -7    9.78    0.42
   5  -6  -7   10.24    0.50
  -5   6   7   10.28    0.52
   5  -6  -6   20.22    0.92
   5  -6  -6   18.42    0.66
  -5   6   6   20.71    0.89
   5  -6  -5    1.24    0.14
   5  -6  -5    1.19    0.09
  -5   6   5    1.25    0.14
   5  -6  -4   16.49    0.72
  -5   6   4   15.23    0.70
   5  -6  -3    5.40    0.30
   5  -6  -3    5.00    0.18
  -5   6   3    5.04    0.27
   5  -6  -2    1.42    0.14
   5  -6  -2    1.27    0.06
  -5   6   2    1.29    0.14
   5  -6  -1    0.90    0.13
  -5   6   1    1.04    0.14
   5  -6   0    1.22    0.13
   5  -6   0    1.29    0.05
  -5   6   0    1.43    0.15
   5  -6   1    1.40    0.14
   5  -6   1    1.12    0.05
  -5   6  -1    1.21    0.15
   5  -6   2    2.19    0.15
  -5   6  -2    1.46    0.18
   5  -6   3    1.47    0.11
   5  -6   3    0.95    0.06
  -5   6  -3    1.01    0.14
   5  -6   4    3.86    0.21
   5  -6   4    3.27    0.14
  -5   6  -4    3.61    0.24
   5  -6   5    0.37    0.06
   5  -6   5    0.57    0.11
  -5   6  -5    0.41    0.10
   5  -6   6    0.19    0.07
   5  -6   6    0.24    0.06
  -5   6  -6    0.16    0.09
   5  -6   7    0.51    0.11
   5  -6   7    0.43    0.09
  -5   6  -7    0.25    0.10
   5  -6   8    0.53    0.11
   5  -6   8    0.11    0.08
  -5   6  -8    0.36    0.09
   5  -6   9    2.80    0.22
   5  -6   9    3.06    0.24
  -5   6  -9    3.20    0.27
   5  -6  10    3.02    0.24
   5  -6  10    2.95    0.26
  -5   6 -10    3.34    0.30
   5  -6  11    6.54    0.46
   5  -6  11    6.97    0.49
  -5   6 -11    7.12    0.54
   5  -6  12    0.51    0.12
   5  -6  12    0.73    0.17
  -5   6 -12    0.58    0.17
   5  -6  13    0.37    0.14
   5  -6  13    0.20    0.17
  -5   6 -13    0.33    0.14
   5  -6  14    4.21    0.46
   5  -6  14    4.68    0.40
  -5   6 -14    4.29    0.41
   5  -6  15    0.46    0.18
   5  -6  15    0.11    0.14
  -5   6 -15    0.28    0.15
   5  -6  16   -0.12    0.12
   5  -6  16    0.16    0.11
  -5   6 -16   -0.10    0.12
   5  -6  17    0.12    0.15
   5  -6  17    0.24    0.13
  -5   6 -17    0.06    0.12
   5  -6  18    0.13    0.17
   5  -6  18    0.22    0.15
  -5   6 -18    0.22    0.13
   5  -6  19   -0.18    0.20
   5  -6  19    0.08    0.14
  -5   6 -19    0.18    0.15
   5  -6  20    0.14    0.23
   5  -6  20    0.24    0.15
  -5   6 -20    0.04    0.18
   5  -6  21    0.00    0.18
  -5   6 -21    0.07    0.16
   5  -6  22   -0.19    0.27
   5  -5 -21    0.75    0.23
  -5   5  21    0.46    0.38
   5  -5 -20    0.88    0.25
  -5   5  20    0.21    0.29
   5  -5 -19    0.41    0.23
  -5   5  19    0.91    0.35
   5  -5 -18    2.89    0.35
  -5   5  18    2.92    0.58
   5  -5 -17    0.05    0.13
  -5   5  17   -0.02    0.16
   5  -5 -16    0.32    0.16
  -5   5  16    0.17    0.24
   5  -5 -15    0.17    0.11
  -5   5  15   -0.06    0.19
  -5   5  15    0.11    0.10
   5  -5 -14   10.38    0.70
  -5   5  14   11.60    0.95
  -5   5  14   10.12    0.62
   5  -5 -13   -0.08    0.10
  -5   5  13    0.08    0.08
  -5   5  13    0.17    0.13
   5  -5 -12    0.67    0.12
   5  -5 -12    0.67    0.12
  -5   5  12    0.57    0.15
   5  -5 -11    2.01    0.19
   5  -5 -11    1.43    0.19
  -5   5  11    1.81    0.18
   5  -5 -10    0.94    0.13
   5  -5 -10    0.72    0.15
  -5   5  10    0.62    0.12
   5  -5  -9    3.30    0.22
   5  -5  -9    3.30    0.24
  -5   5   9    3.46    0.24
   5  -5  -8    9.61    0.46
   5  -5  -8    9.19    0.42
  -5   5   8    9.85    0.50
   5  -5  -7    3.71    0.23
   5  -5  -7    3.82    0.20
  -5   5   7    3.70    0.25
   5  -5  -6    7.03    0.27
   5  -5  -6    7.05    0.34
  -5   5   6    6.85    0.35
   5  -5  -5   11.74    0.51
   5  -5  -5   11.26    0.39
  -5   5   5   12.27    0.51
   5  -5  -4    0.00    0.08
   5  -5  -4    0.09    0.03
  -5   5   4    0.05    0.07
   5  -5  -3   11.54    0.30
   5  -5  -3   12.29    0.50
  -5   5   3   12.66    0.55
   5  -5  -2    5.59    0.14
   5  -5  -2    5.70    0.28
  -5   5   2    5.76    0.31
   5  -5  -1    4.88    0.11
   5  -5  -1    5.72    0.29
  -5   5   1    5.35    0.27
   5  -5   0    5.41    0.30
  -5   5   0    5.12    0.28
   5  -5   1   60.06    2.27
  -5   5  -1   66.83    2.65
   5  -5   2   96.82    3.77
  -5   5  -2   94.83    3.82
   5  -5   3    6.41    0.32
  -5   5  -3    6.64    0.35
   5  -5   4    1.51    0.14
  -5   5  -4    1.93    0.16
   5  -5   5    9.67    0.44
  -5   5  -5   10.88    0.50
   5  -5   6    9.57    0.47
   5  -5   6    8.20    0.32
  -5   5  -6    9.61    0.50
   5  -5   7   20.31    0.83
   5  -5   7   25.36    1.06
  -5   5  -7   22.07    1.07
   5  -5   8    4.04    0.29
   5  -5   8    4.22    0.26
  -5   5  -8    4.23    0.28
   5  -5   9    1.69    0.16
   5  -5   9    1.03    0.14
  -5   5  -9    1.88    0.16
   5  -5  10    3.32    0.25
  -5   5 -10    2.91    0.29
  -5   5 -10    3.44    0.23
   5  -5  11    5.62    0.38
  -5   5 -11    6.83    0.44
  -5   5 -11    6.31    0.37
   5  -5  12    1.38    0.18
  -5   5 -12    1.01    0.19
  -5   5 -12    0.70    0.13
   5  -5  13    0.04    0.10
  -5   5 -13    0.30    0.11
  -5   5 -13   -0.05    0.10
   5  -5  14    0.77    0.18
  -5   5 -14    0.84    0.18
  -5   5 -14    0.93    0.15
   5  -5  15    0.54    0.16
  -5   5 -15    0.44    0.16
  -5   5 -15    0.56    0.14
   5  -5  16    0.74    0.18
  -5   5 -16    0.68    0.19
  -5   5 -16    0.73    0.19
   5  -5  17    0.64    0.18
  -5   5 -17    0.66    0.20
  -5   5 -17    0.73    0.16
   5  -5  18    0.22    0.16
  -5   5 -18    0.31    0.17
  -5   5 -18    0.37    0.18
   5  -5  19    0.21    0.12
  -5   5 -19    0.04    0.13
  -5   5 -19    0.06    0.15
   5  -5  20    0.08    0.12
  -5   5 -20   -0.12    0.14
  -5   5 -20    0.01    0.12
   5  -5  21    0.02    0.15
  -5   5 -21    0.01    0.15
  -5   5 -21    0.14    0.14
  -5   5 -22   -0.03    0.14
  -5   4  22    1.64    0.54
   5  -4 -21    0.76    0.27
  -5   4  21    0.53    0.37
   5  -4 -20    0.25    0.20
  -5   4  20    0.17    0.21
   5  -4 -19    1.07    0.26
  -5   4  19    0.74    0.37
   5  -4 -18    0.82    0.19
  -5   4  18    0.60    0.32
   5  -4 -17    8.69    0.60
   5  -4 -17    9.62    0.69
  -5   4  17   11.40    1.03
   5  -4 -16    6.20    0.50
   5  -4 -16    6.69    0.44
  -5   4  16    7.04    0.67
   5  -4 -15   15.03    0.98
   5  -4 -15   15.73    0.83
  -5   4  15   16.27    1.21
   5  -4 -14    0.18    0.12
   5  -4 -14    0.15    0.10
  -5   4  14    0.12    0.17
   5  -4 -13    0.72    0.13
   5  -4 -13    0.70    0.16
  -5   4  13    0.80    0.18
   5  -4 -12    0.05    0.07
   5  -4 -12    0.06    0.08
   5  -4 -12    0.11    0.09
   5  -4 -11   11.03    0.57
   5  -4 -11    9.81    0.54
   5  -4 -10    0.24    0.09
   5  -4 -10    0.19    0.08
  -5   4  10    0.04    0.07
   5  -4  -9    0.02    0.07
   5  -4  -9   -0.06    0.06
  -5   4   9    0.01    0.06
   5  -4  -8   21.09    0.80
   5  -4  -8   20.60    0.89
  -5   4   8   21.00    0.91
   5  -4  -7    3.18    0.17
   5  -4  -7    2.88    0.18
  -5   4   7    2.90    0.20
   5  -4  -6    0.75    0.11
   5  -4  -6    0.80    0.08
  -5   4   6    0.85    0.10
   5  -4  -5   12.99    0.54
   5  -4  -5   13.03    0.41
  -5   4   5   13.06    0.58
   5  -4  -4    0.82    0.10
   5  -4  -4    0.91    0.07
  -5   4   4    0.95    0.12
   5  -4  -3    2.15    0.08
   5  -4  -3    2.05    0.15
  -5   4   3    2.37    0.17
   5  -4  -2    2.23    0.16
  -5   4   2    1.90    0.14
   5  -4  -1    7.17    0.32
  -5   4   1    6.33    0.29
   5  -4   0    5.63    0.25
  -5   4   0    6.00    0.31
   5  -4   1    1.96    0.14
  -5   4  -1    1.89    0.16
   5  -4   2   -0.03    0.05
  -5   4  -2   -0.13    0.07
   5  -4   3    2.52    0.17
  -5   4  -3    3.26    0.20
   5  -4   4    9.47    0.41
  -5   4  -4    9.47    0.43
   5  -4   5    7.65    0.36
  -5   4  -5    7.22    0.34
   5  -4   6   14.24    0.64
  -5   4  -6   13.26    0.59
   5  -4   7   17.24    0.80
  -5   4  -7   16.78    0.73
  -5   4  -7   16.10    0.56
   5  -4   8    8.33    0.47
  -5   4  -8    8.59    0.41
  -5   4  -8    7.85    0.33
   5  -4   9   -0.04    0.07
  -5   4  -9    0.40    0.07
  -5   4  -9   -0.05    0.07
   5  -4  10    6.46    0.40
  -5   4 -10    5.82    0.33
  -5   4 -10    6.12    0.36
   5  -4  11    0.27    0.10
  -5   4 -11    0.12    0.09
  -5   4 -11   -0.01    0.08
   5  -4  12    3.10    0.24
  -5   4 -12    3.09    0.28
  -5   4 -12    2.89    0.25
   5  -4  13    1.29    0.17
  -5   4 -13    1.53    0.20
  -5   4 -13    1.57    0.19
   5  -4  14    4.55    0.37
  -5   4 -14    3.97    0.38
  -5   4 -14    4.12    0.32
   5  -4  15    0.18    0.11
  -5   4 -15    0.01    0.11
  -5   4 -15   -0.01    0.10
   5  -4  16    1.24    0.23
  -5   4 -16    1.61    0.20
  -5   4 -16    1.57    0.23
   5  -4  17    0.21    0.13
  -5   4 -17    0.32    0.15
  -5   4 -17    0.47    0.17
   5  -4  18    0.71    0.21
  -5   4 -18    1.04    0.22
  -5   4 -18    0.71    0.22
   5  -4  19    1.58    0.25
  -5   4 -19    2.33    0.32
  -5   4 -19    1.21    0.28
   5  -4  20    0.47    0.20
  -5   4 -20    0.75    0.18
  -5   4 -20    0.22    0.18
   5  -4  21    0.29    0.16
  -5   4 -21   -0.06    0.14
  -5   4 -22    0.12    0.15
   5  -3 -22    0.27    0.21
   5  -3 -21    0.07    0.15
  -5   3  21   -0.07    0.21
   5  -3 -20    3.98    0.52
  -5   3  20    4.81    0.69
   5  -3 -19    3.66    0.45
  -5   3  19    3.18    0.58
   5  -3 -18    4.38    0.38
   5  -3 -18    4.79    0.51
  -5   3  18    5.00    0.64
   5  -3 -17    4.19    0.46
   5  -3 -17    4.19    0.35
  -5   3  17    4.98    0.55
   5  -3 -16    0.98    0.22
   5  -3 -16    0.83    0.17
  -5   3  16    1.63    0.29
   5  -3 -15    0.88    0.15
   5  -3 -15    0.78    0.18
  -5   3  15    0.69    0.24
   5  -3 -14    2.66    0.23
   5  -3 -14    3.03    0.27
  -5   3  14    3.44    0.38
   5  -3 -13    3.53    0.27
   5  -3 -13    3.69    0.26
  -5   3  13    2.88    0.33
   5  -3 -12    0.45    0.13
   5  -3 -12    0.68    0.12
   5  -3 -12    0.49    0.10
   5  -3 -11    2.01    0.19
   5  -3 -11    2.19    0.20
   5  -3 -11    2.27    0.18
   5  -3 -10    0.01    0.07
   5  -3 -10    0.09    0.07
   5  -3 -10    0.04    0.06
   5  -3  -9    3.85    0.24
   5  -3  -9    3.99    0.25
   5  -3  -9    3.72    0.24
   5  -3  -8    2.51    0.16
   5  -3  -8    2.69    0.18
   5  -3  -8    2.58    0.17
   5  -3  -7    6.39    0.32
   5  -3  -7    6.68    0.33
   5  -3  -7    6.68    0.29
   5  -3  -6    1.75    0.10
   5  -3  -6    1.46    0.11
   5  -3  -5    2.22    0.10
   5  -3  -5    1.92    0.16
  -5   3   5    2.21    0.14
   5  -3  -4    1.08    0.10
   5  -3  -4    1.11    0.06
  -5   3   4    1.33    0.11
   5  -3  -3    4.51    0.12
   5  -3  -3    4.60    0.21
  -5   3   3    5.04    0.26
   5  -3  -2    0.40    0.08
  -5   3   2    0.32    0.08
   5  -3  -1    0.03    0.04
  -5   3   1    0.02    0.05
   5  -3   0    7.82    0.34
  -5   3   0    7.41    0.32
   5  -3   1   26.23    0.92
  -5   3  -1   25.55    0.98
   5  -3   2    0.55    0.09
  -5   3  -2    0.34    0.08
   5  -3   3    4.40    0.22
  -5   3  -3    3.97    0.22
   5  -3   4    3.65    0.23
  -5   3  -4    3.65    0.21
   5  -3   5    3.23    0.22
  -5   3  -5    3.18    0.20
  -5   3  -5    2.55    0.11
   5  -3   6    0.70    0.09
  -5   3  -6    0.58    0.06
  -5   3  -6    0.56    0.09
   5  -3   7    4.84    0.27
  -5   3  -7    5.07    0.26
   5  -3   8    0.39    0.10
  -5   3  -8    0.28    0.07
  -5   3  -8    0.36    0.09
   5  -3   9    0.03    0.08
  -5   3  -9   -0.02    0.05
  -5   3  -9    0.04    0.05
   5  -3  10    5.80    0.39
  -5   3 -10    5.72    0.30
  -5   3 -10    5.17    0.33
   5  -3  11    0.20    0.10
  -5   3 -11    0.13    0.08
  -5   3 -11   -0.01    0.08
   5  -3  12    5.82    0.40
  -5   3 -12    7.62    0.44
  -5   3 -12    6.14    0.36
   5  -3  13    0.69    0.17
  -5   3 -13    0.67    0.15
  -5   3 -13    0.86    0.13
   5  -3  14    0.76    0.17
  -5   3 -14    0.71    0.15
  -5   3 -14    0.43    0.14
   5  -3  15    0.12    0.15
  -5   3 -15    0.33    0.12
  -5   3 -15    0.59    0.15
   5  -3  16    1.68    0.22
  -5   3 -16    1.29    0.21
  -5   3 -16    2.11    0.26
   5  -3  17    0.17    0.13
  -5   3 -17    0.23    0.12
  -5   3 -17    0.40    0.16
   5  -3  18    0.88    0.20
  -5   3 -18    1.19    0.24
  -5   3 -18    0.81    0.19
   5  -3  19    0.11    0.17
  -5   3 -19    0.31    0.16
  -5   3 -19    0.11    0.13
   5  -3  20    0.82    0.29
  -5   3 -20    1.66    0.29
   5  -3  21    0.12    0.14
  -5   3 -21    0.11    0.15
   5  -3  22    0.06    0.18
  -5   3 -22    0.17    0.15
   5  -2 -22    0.04    0.15
   5  -2 -21    0.21    0.17
   5  -2 -20    0.60    0.23
  -5   2  20    0.40    0.27
   5  -2 -19    0.48    0.18
   5  -2 -19    0.14    0.12
  -5   2  19    0.27    0.23
   5  -2 -18    3.13    0.30
   5  -2 -18    3.07    0.42
  -5   2  18    3.49    0.49
   5  -2 -17   -0.01    0.09
   5  -2 -17    0.15    0.11
  -5   2  17    0.19    0.16
   5  -2 -16    0.14    0.10
   5  -2 -16    0.31    0.15
  -5   2  16    0.21    0.18
   5  -2 -15    1.90    0.21
   5  -2 -15    2.10    0.28
  -5   2  15    2.55    0.32
   5  -2 -14    0.86    0.19
   5  -2 -14    0.99    0.14
  -5   2  14    1.29    0.23
   5  -2 -13    1.69    0.17
   5  -2 -13    1.63    0.18
  -5   2  13    1.34    0.24
   5  -2 -12    1.92    0.18
   5  -2 -12    2.20    0.17
   5  -2 -12    1.98    0.22
   5  -2 -11    1.70    0.16
   5  -2 -11    1.49    0.15
   5  -2 -11    1.63    0.18
   5  -2 -10    1.43    0.12
   5  -2 -10    1.15    0.11
   5  -2 -10    1.43    0.15
   5  -2  -9    1.33    0.12
   5  -2  -9    1.51    0.12
   5  -2  -9    1.53    0.11
   5  -2  -8    4.11    0.21
   5  -2  -8    3.92    0.23
   5  -2  -8    3.45    0.19
   5  -2  -7    0.02    0.06
   5  -2  -7   -0.04    0.04
   5  -2  -7    0.04    0.05
   5  -2  -6    5.04    0.20
   5  -2  -6    4.75    0.27
   5  -2  -6    4.99    0.25
   5  -2  -5    1.40    0.10
   5  -2  -5    1.52    0.11
   5  -2  -5    1.32    0.08
   5  -2  -4    7.23    0.29
   5  -2  -4    7.45    0.32
  -5   2   4    6.00    0.21
   5  -2  -3    1.99    0.13
  -5   2   3    1.89    0.09
   5  -2  -2   -0.02    0.05
  -5   2   2    0.10    0.02
  -5   2   2    0.18    0.06
   5  -2  -1   13.97    0.51
  -5   2   1   13.65    0.53
   5  -2   0   49.44    1.64
  -5   2   0   49.10    1.79
   5  -2   1    7.33    0.32
  -5   2  -1    7.18    0.31
   5  -2   2    0.74    0.09
  -5   2  -2    0.79    0.08
   5  -2   3   11.86    0.48
  -5   2  -3   11.75    0.50
   5  -2   4    1.04    0.10
  -5   2  -4    0.84    0.06
  -5   2  -4    0.85    0.09
   5  -2   5   18.31    0.73
  -5   2  -5   19.81    0.76
  -5   2  -5   16.14    0.48
   5  -2   6   14.14    0.61
  -5   2  -6   13.29    0.45
  -5   2  -6   14.16    0.54
   5  -2   7   23.58    1.00
  -5   2  -7   23.83    0.91
  -5   2  -7   23.16    0.81
   5  -2   8    0.26    0.09
  -5   2  -8    0.36    0.08
  -5   2  -8    0.39    0.08
   5  -2   9    0.35    0.10
  -5   2  -9    0.31    0.08
  -5   2  -9    0.40    0.09
   5  -2  10    0.74    0.17
  -5   2 -10    1.17    0.13
  -5   2 -10    1.20    0.13
   5  -2  11    0.16    0.11
  -5   2 -11    0.25    0.08
  -5   2 -11    0.13    0.09
   5  -2  12   -0.10    0.10
  -5   2 -12    0.06    0.08
  -5   2 -12    0.17    0.07
   5  -2  13    0.29    0.11
  -5   2 -13    0.13    0.09
  -5   2 -13    0.08    0.10
   5  -2  14    0.81    0.18
  -5   2 -14    0.57    0.13
  -5   2 -14    0.58    0.16
   5  -2  15    0.37    0.16
  -5   2 -15    0.42    0.11
  -5   2 -15    0.13    0.11
   5  -2  16    0.22    0.17
  -5   2 -16    0.26    0.12
  -5   2 -16    0.28    0.15
   5  -2  17    0.61    0.23
  -5   2 -17    0.67    0.17
  -5   2 -17    1.12    0.21
   5  -2  18    0.08    0.15
  -5   2 -18    0.10    0.09
  -5   2 -18    0.03    0.12
   5  -2  19    1.80    0.29
  -5   2 -19    1.76    0.32
   5  -2  20    0.13    0.17
  -5   2 -20    0.11    0.17
   5  -2  21    0.07    0.15
  -5   2 -21   -0.02    0.13
   5  -2  22    0.03    0.17
  -5   2 -22   -0.07    0.13
   5  -1 -22    0.79    0.25
   5  -1 -21    0.27    0.18
   5  -1 -20    0.26    0.14
   5  -1 -20    0.18    0.20
   5  -1 -19    0.29    0.16
   5  -1 -19    0.29    0.11
  -5   1  19    0.36    0.21
   5  -1 -18    0.32    0.14
   5  -1 -18    0.70    0.17
  -5   1  18    0.40    0.18
   5  -1 -17    0.81    0.16
   5  -1 -17    0.96    0.21
  -5   1  17    0.38    0.22
   5  -1 -16    2.79    0.26
   5  -1 -16    3.06    0.33
  -5   1  16    2.79    0.39
   5  -1 -15    1.91    0.22
   5  -1 -15    1.63    0.19
  -5   1  15    1.95    0.28
   5  -1 -14   -0.08    0.09
   5  -1 -14    0.04    0.06
   5  -1 -13    0.48    0.12
   5  -1 -13    0.22    0.08
  -5   1  13    0.20    0.12
   5  -1 -12    0.09    0.07
   5  -1 -12    0.02    0.06
   5  -1 -12    0.09    0.06
   5  -1 -11    0.82    0.13
   5  -1 -11    0.77    0.10
   5  -1 -11    0.89    0.14
   5  -1 -10    8.44    0.40
   5  -1 -10    8.72    0.37
   5  -1 -10    8.62    0.40
   5  -1  -9    1.71    0.13
   5  -1  -9    1.70    0.12
   5  -1  -9    1.70    0.13
   5  -1  -8    0.92    0.11
   5  -1  -8    0.93    0.10
   5  -1  -8    1.07    0.09
   5  -1  -7    0.48    0.07
   5  -1  -7    0.76    0.09
   5  -1  -6    0.03    0.07
   5  -1  -6    0.04    0.05
  -5   1   6    0.20    0.06
   5  -1  -5    2.49    0.14
   5  -1  -5    2.30    0.16
  -5   1   5    2.36    0.13
   5  -1  -4   27.92    0.88
   5  -1  -4   28.70    1.02
  -5   1   4   27.00    0.82
   5  -1  -3   10.54    0.37
   5  -1  -3   11.25    0.44
  -5   1   3    9.73    0.30
   5  -1  -2   30.87    0.97
   5  -1  -2   31.41    1.05
   5  -1  -1    4.75    0.21
   5  -1  -1    5.21    0.21
   5  -1   0   25.61    0.82
  -5   1   0   25.07    0.86
  -5   1   0   22.90    0.47
   5  -1   1    0.40    0.08
  -5   1  -1    0.30    0.06
  -5   1  -1    0.25    0.03
   5  -1   2    0.63    0.08
  -5   1  -2    0.47    0.03
  -5   1  -2    0.61    0.08
   5  -1   3    0.04    0.06
  -5   1  -3    0.04    0.05
  -5   1  -3    0.01    0.03
   5  -1   4   41.96    1.59
  -5   1  -4   45.10    1.58
   5  -1   5    8.61    0.40
  -5   1  -5    8.07    0.29
  -5   1  -5    8.57    0.33
   5  -1   6   70.58    2.86
  -5   1  -6   76.46    2.70
  -5   1  -6   66.92    2.22
   5  -1   7   47.86    1.99
  -5   1  -7   45.92    1.59
  -5   1  -7   46.38    1.64
   5  -1   8   15.71    0.79
  -5   1  -8   15.94    0.63
  -5   1  -8   15.47    0.63
   5  -1   9   22.89    1.13
  -5   1  -9   20.60    0.84
  -5   1  -9   21.41    0.90
   5  -1  10    8.43    0.54
  -5   1 -10    9.62    0.43
  -5   1 -10    9.90    0.49
   5  -1  11   17.19    1.02
  -5   1 -11   16.21    0.73
  -5   1 -11   18.34    0.87
   5  -1  12    8.23    0.61
  -5   1 -12    8.19    0.45
  -5   1 -12    8.27    0.50
   5  -1  13    9.56    0.71
  -5   1 -13    8.51    0.47
  -5   1 -13    9.42    0.56
   5  -1  14    0.00    0.13
  -5   1 -14    0.19    0.10
  -5   1 -14    0.34    0.09
   5  -1  15    0.64    0.18
  -5   1 -15    0.96    0.15
  -5   1 -15    0.57    0.12
   5  -1  16    0.53    0.15
  -5   1 -16    0.14    0.10
  -5   1 -16    0.37    0.15
   5  -1  17    1.75    0.28
  -5   1 -17    1.50    0.21
  -5   1 -17    0.81    0.16
   5  -1  18    1.20    0.26
  -5   1 -18    0.72    0.22
   5  -1  19    0.21    0.17
  -5   1 -19   -0.21    0.12
   5  -1  20    0.19    0.16
  -5   1 -20    0.15    0.17
   5  -1  21    0.38    0.28
  -5   1 -21    0.82    0.22
   5  -1  22    0.22    0.18
  -5   1 -22   -0.09    0.17
  -5   0  22    2.96    0.54
   5   0 -21    0.21    0.15
  -5   0  21    0.17    0.21
   5   0 -20    2.49    0.27
  -5   0  20    0.73    0.27
   5   0 -19    9.86    0.71
   5   0 -19   10.94    0.82
   5   0 -18   -0.14    0.11
   5   0 -18    0.12    0.11
  -5   0  18    0.08    0.13
   5   0 -17    0.86    0.18
   5   0 -17    0.67    0.23
  -5   0  17    1.07    0.22
   5   0 -16    0.88    0.21
   5   0 -16    0.60    0.16
  -5   0  16    0.88    0.21
   5   0 -15    2.15    0.25
   5   0 -15    2.44    0.29
  -5   0  15    2.36    0.30
   5   0 -14    3.43    0.34
   5   0 -14    3.25    0.31
  -5   0  14    3.60    0.33
   5   0 -13   -0.12    0.10
   5   0 -13   -0.01    0.09
  -5   0  13   -0.06    0.09
   5   0 -12    0.28    0.11
   5   0 -12    0.19    0.09
  -5   0  12    0.23    0.08
   5   0 -11   -0.06    0.07
   5   0 -11    0.01    0.05
  -5   0  11   -0.02    0.05
   5   0 -10    3.66    0.24
   5   0 -10    3.98    0.18
  -5   0  10    3.57    0.27
   5   0  -9    0.58    0.12
   5   0  -9    0.62    0.07
  -5   0   9    0.54    0.13
   5   0  -8    0.16    0.05
   5   0  -8    0.16    0.08
  -5   0   8   -0.01    0.08
   5   0  -7    0.11    0.05
   5   0  -7   -0.07    0.04
  -5   0   7    0.01    0.06
   5   0  -6    0.40    0.09
   5   0  -6    0.36    0.06
  -5   0   6    0.44    0.06
   5   0  -5    7.02    0.25
   5   0  -5    6.77    0.29
  -5   0   5    6.70    0.28
   5   0  -4    2.79    0.13
   5   0  -4    2.75    0.18
  -5   0   4    2.78    0.15
   5   0  -3   67.73    1.96
   5   0  -3   61.91    2.12
  -5   0   3   64.22    1.88
   5   0  -2    8.33    0.29
   5   0  -2    9.82    0.37
  -5   0   2    8.32    0.25
   5   0  -1   48.47    1.55
   5   0  -1   50.60    1.53
  -5   0   1   49.68    1.24
   5   0   0    0.47    0.07
   5   0   0    0.30    0.08
  -5   0   0    0.43    0.04
   5   0   1    2.87    0.16
  -5   0  -1    2.12    0.14
  -5   0  -1    2.50    0.09
   5   0   2    7.04    0.29
  -5   0  -2    7.04    0.30
  -5   0  -2    6.61    0.20
   5   0   3    0.04    0.06
  -5   0  -3    0.06    0.05
  -5   0  -3    0.06    0.04
   5   0   4    1.82    0.16
  -5   0  -4    2.24    0.14
  -5   0  -4    2.09    0.11
   5   0   5   22.40    0.92
  -5   0  -5   22.23    0.79
  -5   0  -5   21.15    0.71
   5   0   6    0.00    0.07
  -5   0  -6   -0.01    0.05
  -5   0  -6    0.08    0.05
   5   0   7   77.41    3.27
  -5   0  -7   69.40    2.53
  -5   0  -7   74.83    2.54
   5   0   8    0.13    0.15
  -5   0  -8    0.37    0.08
  -5   0  -8    0.72    0.10
   5   0   9   46.33    2.19
  -5   0  -9   45.82    1.83
  -5   0  -9   45.87    1.64
   5   0  10    4.44    0.38
  -5   0 -10    4.14    0.27
  -5   0 -10    3.55    0.20
   5   0  11    4.32    0.37
  -5   0 -11    3.28    0.22
  -5   0 -11    3.68    0.29
   5   0  12   22.59    1.35
  -5   0 -12   21.24    0.92
  -5   0 -12   22.24    1.09
   5   0  13    0.23    0.12
  -5   0 -13    0.13    0.06
  -5   0 -13    0.07    0.09
   5   0  14    0.15    0.12
  -5   0 -14    0.11    0.07
  -5   0 -14    0.15    0.10
   5   0  15    1.06    0.20
  -5   0 -15    1.26    0.17
  -5   0 -15    0.73    0.11
   5   0  16    1.33    0.28
  -5   0 -16    1.39    0.20
   5   0  17    3.01    0.38
  -5   0 -17    3.48    0.34
   5   0  18   10.14    0.93
  -5   0 -18   10.28    0.85
   5   0  19    0.78    0.23
  -5   0 -19    0.91    0.25
   5   0  20    0.49    0.24
  -5   0 -20    0.40    0.17
   5   0  21    0.15    0.19
  -5   0 -21   -0.00    0.18
   5   0  22   -0.07    0.19
  -5   0 -22    0.15    0.18
   5   1 -22    0.06    0.18
  -5  -1  22    0.44    0.23
   5   1 -21    0.16    0.12
  -5  -1  21   -0.43    0.20
   5   1 -20    0.24    0.13
  -5  -1  20    0.39    0.27
   5   1 -19    0.34    0.15
  -5  -1  19    0.06    0.20
   5   1 -18    1.74    0.26
  -5  -1  18    1.83    0.41
   5   1 -17    0.65    0.14
  -5  -1  17    0.84    0.27
   5   1 -16    0.38    0.13
  -5  -1  16    0.14    0.20
  -5  -1  16    0.23    0.13
   5   1 -15    1.73    0.24
  -5  -1  15    1.86    0.29
  -5  -1  15    2.18    0.24
   5   1 -14    3.52    0.29
  -5  -1  14    4.14    0.37
  -5  -1  14    3.49    0.31
   5   1 -13    0.89    0.16
  -5  -1  13    0.78    0.22
   5   1 -12    9.75    0.57
  -5  -1  12   10.51    0.72
   5   1 -11    0.58    0.11
   5   1 -11    0.20    0.05
  -5  -1  11    0.23    0.14
   5   1 -10    0.09    0.08
   5   1 -10    0.02    0.04
   5   1  -9   -0.03    0.05
   5   1  -9    0.02    0.04
  -5  -1   9   -0.02    0.06
   5   1  -8    3.20    0.19
   5   1  -8    2.99    0.13
  -5  -1   8    2.88    0.22
   5   1  -7    1.31    0.13
   5   1  -7    1.61    0.09
  -5  -1   7    1.51    0.14
   5   1  -6   10.47    0.46
   5   1  -6   10.35    0.32
  -5  -1   6    9.55    0.43
   5   1  -5    1.42    0.15
   5   1  -5    1.61    0.10
  -5  -1   5    1.28    0.13
   5   1  -4    6.16    0.22
   5   1  -4    6.70    0.29
  -5  -1   4    6.20    0.27
   5   1  -3   37.58    1.05
   5   1  -3   37.20    1.28
  -5  -1   3   36.99    1.13
   5   1  -2   52.41    1.50
   5   1  -2   52.95    1.81
  -5  -1   2   53.84    1.58
   5   1  -1    2.42    0.14
   5   1  -1    2.42    0.13
  -5  -1   1    2.04    0.11
   5   1   0   16.00    0.55
   5   1   0   16.86    0.60
  -5  -1   0   14.04    0.44
   5   1   1    0.37    0.08
   5   1   1    0.32    0.06
  -5  -1  -1    0.30    0.05
   5   1   2    1.23    0.09
   5   1   2    1.34    0.11
  -5  -1  -2    1.32    0.08
   5   1   3    0.42    0.08
  -5  -1  -3    0.26    0.06
  -5  -1  -3    0.33    0.07
   5   1   4    2.49    0.18
  -5  -1  -4    1.95    0.13
  -5  -1  -4    1.69    0.10
   5   1   5    3.43    0.25
  -5  -1  -5    3.84    0.18
  -5  -1  -5    3.71    0.19
   5   1   6    0.35    0.09
  -5  -1  -6    0.22    0.07
   5   1   7   20.55    1.04
  -5  -1  -7   20.57    0.71
  -5  -1  -7   20.63    0.84
   5   1   8    5.62    0.41
  -5  -1  -8    5.19    0.22
  -5  -1  -8    4.94    0.27
   5   1   9    2.02    0.25
  -5  -1  -9    1.87    0.12
  -5  -1  -9    2.14    0.19
   5   1  10    6.10    0.42
  -5  -1 -10    5.19    0.24
  -5  -1 -10    6.39    0.35
   5   1  11    1.37    0.27
  -5  -1 -11    1.82    0.18
   5   1  12    0.62    0.16
  -5  -1 -12    0.18    0.07
  -5  -1 -12    0.52    0.13
   5   1  13    2.68    0.35
  -5  -1 -13    2.32    0.23
   5   1  14   10.64    0.83
  -5  -1 -14   10.46    0.72
   5   1  15    0.30    0.16
  -5  -1 -15    0.40    0.13
   5   1  16    1.64    0.25
  -5  -1 -16    1.16    0.22
   5   1  17    1.43    0.34
  -5  -1 -17    1.67    0.25
   5   1  18    1.63    0.35
  -5  -1 -18    1.56    0.26
   5   1  19    0.53    0.22
  -5  -1 -19    0.81    0.23
   5   1  20   -0.05    0.16
  -5  -1 -20    0.07    0.15
   5   1  21    0.10    0.20
  -5  -1 -21    0.06    0.18
   5   1  22    0.40    0.25
  -5  -1 -22    0.30    0.20
   5   2 -22    0.12    0.16
  -5  -2  22   -0.07    0.25
   5   2 -21    0.31    0.17
  -5  -2  21   -0.03    0.21
   5   2 -20    1.78    0.30
  -5  -2  20    2.18    0.50
   5   2 -19    0.21    0.13
  -5  -2  19    0.28    0.24
   5   2 -18   -0.03    0.09
  -5  -2  18   -0.04    0.18
   5   2 -17    0.06    0.13
  -5  -2  17    0.16    0.18
   5   2 -16    0.36    0.15
  -5  -2  16    0.26    0.17
   5   2 -15    1.38    0.22
  -5  -2  15    1.04    0.24
   5   2 -14   -0.00    0.09
  -5  -2  14    0.43    0.16
  -5  -2  14    0.08    0.09
   5   2 -13    0.10    0.11
  -5  -2  13    0.24    0.15
  -5  -2  13    0.10    0.09
   5   2 -12   23.10    1.19
  -5  -2  12   23.23    0.97
  -5  -2  12   24.24    1.43
   5   2 -11    5.82    0.35
  -5  -2  11    5.54    0.27
  -5  -2  11    5.77    0.40
   5   2 -10    1.31    0.15
   5   2 -10    1.31    0.08
  -5  -2  10    1.15    0.20
   5   2  -9    0.95    0.15
   5   2  -9    0.94    0.06
  -5  -2   9    1.32    0.14
   5   2  -8    1.63    0.16
   5   2  -8    2.03    0.09
  -5  -2   8    2.15    0.19
   5   2  -7    1.25    0.14
   5   2  -7    1.26    0.07
  -5  -2   7    1.05    0.13
   5   2  -6   74.10    2.95
   5   2  -6   76.39    2.01
  -5  -2   6   76.90    3.03
   5   2  -5    1.63    0.12
   5   2  -5    1.32    0.07
  -5  -2   5    1.24    0.13
   5   2  -4    0.54    0.06
   5   2  -4    0.52    0.08
  -5  -2   4    0.82    0.09
   5   2  -3    0.83    0.07
   5   2  -3    0.67    0.10
  -5  -2   3    0.99    0.10
   5   2  -2   43.54    1.59
   5   2  -2   45.08    1.32
  -5  -2   2   42.47    1.40
   5   2  -1   15.11    0.52
   5   2  -1   15.34    0.55
  -5  -2   1   15.00    0.52
   5   2   0    6.65    0.27
   5   2   0    6.70    0.29
  -5  -2   0    6.19    0.25
   5   2   1   -0.03    0.06
   5   2   1    0.09    0.05
  -5  -2  -1   -0.03    0.04
   5   2   2    2.84    0.13
   5   2   2    3.18    0.20
  -5  -2  -2    3.08    0.16
   5   2   3    4.77    0.19
   5   2   3    6.44    0.34
  -5  -2  -3    4.44    0.20
   5   2   4    7.24    0.39
  -5  -2  -4    7.92    0.29
  -5  -2  -4    7.40    0.31
   5   2   5   21.65    0.96
  -5  -2  -5   20.33    0.78
  -5  -2  -5   21.39    0.71
   5   2   6    0.77    0.15
  -5  -2  -6    0.67    0.07
  -5  -2  -6    0.77    0.12
   5   2   7    4.92    0.33
  -5  -2  -7    5.10    0.27
  -5  -2  -7    4.77    0.19
   5   2   8    0.35    0.14
  -5  -2  -8    0.29    0.06
  -5  -2  -8    0.46    0.11
   5   2   9   14.37    0.78
  -5  -2  -9   12.38    0.45
  -5  -2  -9   15.19    0.74
   5   2  10    0.30    0.16
  -5  -2 -10    0.46    0.11
  -5  -2 -10    0.30    0.05
   5   2  11    8.25    0.55
  -5  -2 -11    6.39    0.28
  -5  -2 -11    8.32    0.46
   5   2  12    0.01    0.11
  -5  -2 -12    0.14    0.09
   5   2  13    0.01    0.15
  -5  -2 -13   -0.11    0.09
   5   2  14   -0.07    0.13
  -5  -2 -14    0.07    0.11
   5   2  15    0.53    0.17
  -5  -2 -15    0.32    0.14
   5   2  16    0.12    0.20
  -5  -2 -16    0.42    0.18
  -5  -2 -17    0.16    0.16
   5   2  18    0.27    0.23
  -5  -2 -18    0.38    0.21
   5   2  19   -0.21    0.16
  -5  -2 -19    0.17    0.14
   5   2  20    0.05    0.23
  -5  -2 -20    0.34    0.21
   5   2  21   -0.07    0.17
  -5  -2 -21    0.21    0.19
   5   2  22    0.10    0.16
  -5  -2 -22   -0.07    0.18
   5   3 -22    3.84    0.56
  -5  -3  22    5.62    0.78
   5   3 -21    4.66    0.54
  -5  -3  21    3.58    0.73
   5   3 -20    1.79    0.29
  -5  -3  20    2.07    0.38
   5   3 -19    2.52    0.32
  -5  -3  19    3.07    0.43
   5   3 -18    0.10    0.12
  -5  -3  18    0.18    0.17
   5   3 -17    0.40    0.15
  -5  -3  17    0.36    0.23
   5   3 -16    0.23    0.12
  -5  -3  16   -0.01    0.15
   5   3 -15    2.40    0.30
  -5  -3  15    2.59    0.39
   5   3 -14    0.57    0.16
  -5  -3  14    0.19    0.19
   5   3 -13    0.16    0.12
  -5  -3  13    0.55    0.16
   5   3 -12    4.79    0.39
  -5  -3  12    5.03    0.45
   5   3 -11    3.24    0.31
  -5  -3  11    3.25    0.29
   5   3 -10    4.31    0.34
  -5  -3  10    4.03    0.31
   5   3  -9    5.48    0.36
  -5  -3   9    4.91    0.39
   5   3  -8    3.30    0.23
  -5  -3   8    3.09    0.24
   5   3  -7   -0.03    0.08
  -5  -3   7    0.14    0.08
   5   3  -6    7.78    0.37
   5   3  -6    7.19    0.20
  -5  -3   6    7.78    0.41
   5   3  -5    1.69    0.14
   5   3  -5    1.74    0.08
  -5  -3   5    1.64    0.13
   5   3  -4    3.02    0.18
  -5  -3   4    3.03    0.19
   5   3  -3    3.40    0.20
   5   3  -3    3.03    0.13
  -5  -3   3    3.30    0.20
   5   3  -2    0.02    0.05
   5   3  -2   -0.04    0.04
  -5  -3   2   -0.04    0.05
   5   3  -1    0.45    0.07
   5   3  -1    0.38    0.08
  -5  -3   1    0.28    0.06
   5   3   0   10.02    0.40
   5   3   0   10.30    0.44
  -5  -3   0    9.81    0.41
   5   3   1    2.28    0.14
   5   3   1    2.43    0.18
  -5  -3  -1    1.67    0.14
   5   3   2    1.97    0.13
   5   3   2    1.57    0.17
  -5  -3  -2    1.76    0.14
   5   3   3    0.20    0.05
   5   3   3   -0.08    0.09
  -5  -3  -3    0.14    0.06
   5   3   4    4.01    0.24
  -5  -3  -4    3.56    0.22
   5   3   5    5.86    0.38
  -5  -3  -5    5.12    0.21
  -5  -3  -5    5.39    0.27
   5   3   6    0.07    0.10
  -5  -3  -6    0.07    0.06
  -5  -3  -6    0.08    0.05
   5   3   7    3.33    0.31
  -5  -3  -7    2.65    0.21
   5   3   8    1.84    0.21
  -5  -3  -8    1.65    0.09
  -5  -3  -8    1.88    0.16
   5   3   9    2.79    0.27
  -5  -3  -9    2.22    0.19
  -5  -3  -9    1.85    0.09
   5   3  10    7.63    0.56
  -5  -3 -10    8.34    0.49
   5   3  11   15.01    0.98
  -5  -3 -11   15.30    0.89
   5   3  12   12.79    1.01
  -5  -3 -12   13.60    0.82
   5   3  13    1.97    0.34
  -5  -3 -13    2.34    0.25
   5   3  14    0.54    0.20
  -5  -3 -14    0.60    0.15
   5   3  15    2.20    0.40
  -5  -3 -15    2.76    0.34
   5   3  16    3.11    0.40
  -5  -3 -16    3.10    0.35
   5   3  17    2.16    0.47
  -5  -3 -17    2.98    0.42
   5   3  18    1.65    0.40
  -5  -3 -18    1.54    0.35
   5   3  19    0.91    0.30
  -5  -3 -19    0.59    0.28
   5   3  20    0.09    0.19
  -5  -3 -20    0.22    0.21
   5   3  21    0.10    0.19
  -5  -3 -21    0.03    0.22
   5   4 -22    0.69    0.25
  -5  -4  22    1.59    0.33
   5   4 -21    2.10    0.38
  -5  -4  21    1.22    0.50
   5   4 -20    3.72    0.50
  -5  -4  20    4.65    0.68
   5   4 -19    4.40    0.54
  -5  -4  19    4.41    0.55
   5   4 -18    0.06    0.13
  -5  -4  18    0.25    0.16
   5   4 -17    1.83    0.27
  -5  -4  17    2.14    0.38
   5   4 -16    1.79    0.30
  -5  -4  16    1.94    0.30
   5   4 -15    0.52    0.18
  -5  -4  15    0.50    0.18
   5   4 -14    6.04    0.51
  -5  -4  14    5.27    0.57
   5   4 -13    0.54    0.14
  -5  -4  13    0.61    0.17
   5   4 -12    0.10    0.10
  -5  -4  12    0.27    0.15
   5   4 -11    1.79    0.26
   5   4 -10    9.49    0.56
  -5  -4  10    9.93    0.62
   5   4  -9   -0.03    0.07
  -5  -4   9    0.06    0.09
   5   4  -8    9.95    0.57
  -5  -4   8    9.60    0.56
   5   4  -7    8.21    0.44
  -5  -4   7    8.47    0.49
   5   4  -6    0.19    0.10
   5   4  -6    0.28    0.04
  -5  -4   6    0.30    0.09
   5   4  -5    0.43    0.08
   5   4  -5    0.16    0.03
  -5  -4   5    0.05    0.07
   5   4  -4   -0.03    0.07
  -5  -4   4    0.10    0.06
   5   4  -3    1.02    0.10
   5   4  -3    0.71    0.07
  -5  -4   3    0.85    0.10
   5   4  -2    0.12    0.05
   5   4  -2    0.17    0.06
  -5  -4   2    0.08    0.06
   5   4  -1    1.14    0.12
   5   4  -1    0.94    0.10
  -5  -4   1    0.91    0.10
   5   4   0    0.14    0.07
  -5  -4   0    0.16    0.06
   5   4   1    0.44    0.09
   5   4   1    0.44    0.10
  -5  -4  -1    0.35    0.09
   5   4   2    1.76    0.13
   5   4   2    2.26    0.18
  -5  -4  -2    1.63    0.16
   5   4   3    4.46    0.21
   5   4   3    4.54    0.27
  -5  -4  -3    4.36    0.26
   5   4   4    8.23    0.32
   5   4   4    9.22    0.51
  -5  -4  -4    8.37    0.39
   5   4   5    0.36    0.05
   5   4   5    0.53    0.11
  -5  -4  -5    0.61    0.11
   5   4   6    1.08    0.14
  -5  -4  -6    1.16    0.13
   5   4   7    2.25    0.21
  -5  -4  -7    2.17    0.11
  -5  -4  -7    2.27    0.22
   5   4   8    0.44    0.11
  -5  -4  -8    0.16    0.04
  -5  -4  -8    0.19    0.09
   5   4   9    5.47    0.45
  -5  -4  -9    6.04    0.39
   5   4  10   -0.09    0.13
  -5  -4 -10    0.14    0.11
   5   4  11    7.90    0.62
  -5  -4 -11    8.93    0.57
   5   4  12    1.08    0.23
  -5  -4 -12    1.38    0.21
   5   4  13    0.41    0.21
  -5  -4 -13    0.52    0.16
   5   4  14    0.40    0.15
  -5  -4 -14    0.08    0.14
   5   4  15    1.34    0.36
  -5  -4 -15    1.77    0.30
   5   4  16    3.59    0.48
  -5  -4 -16    3.27    0.41
   5   4  17    0.87    0.35
  -5  -4 -17    1.08    0.29
   5   4  18    1.33    0.39
  -5  -4 -18    1.28    0.28
   5   4  19    0.01    0.23
  -5  -4 -19    0.11    0.16
   5   4  20   -0.08    0.23
  -5  -4 -20   -0.10    0.20
   5   4  21    0.32    0.30
  -5  -4 -21    0.30    0.26
   5   5 -21    0.15    0.19
  -5  -5  21    0.06    0.20
   5   5 -20    0.91    0.24
  -5  -5  20    0.59    0.30
   5   5 -19    0.05    0.12
  -5  -5  19    0.00    0.20
   5   5 -18    0.24    0.18
  -5  -5  18    0.20    0.20
   5   5 -17    1.16    0.24
  -5  -5  17    0.88    0.32
   5   5 -16    2.39    0.32
  -5  -5  16    2.94    0.38
   5   5 -15    0.01    0.12
  -5  -5  15    0.27    0.15
   5   5 -14    7.52    0.63
  -5  -5  14    8.48    0.68
   5   5 -13    0.14    0.11
  -5  -5  13    0.18    0.14
   5   5 -12    3.24    0.35
  -5  -5  12    3.24    0.33
   5   5 -11    1.75    0.22
  -5  -5  11    2.10    0.28
   5   5 -10    8.81    0.53
  -5  -5  10    8.86    0.58
   5   5  -9   23.79    1.23
  -5  -5   9   25.91    1.33
   5   5  -8   22.61    1.11
  -5  -5   8   23.39    1.20
   5   5  -7    0.20    0.10
  -5  -5   7    0.38    0.12
   5   5  -6    0.15    0.08
  -5  -5   6    0.08    0.08
   5   5  -5    0.76    0.11
  -5  -5   5    0.75    0.12
   5   5  -4    2.27    0.17
   5   5  -4    2.28    0.10
  -5  -5   4    2.21    0.20
   5   5  -3    0.32    0.10
   5   5  -3    0.26    0.06
  -5  -5   3    0.39    0.10
   5   5  -2    4.30    0.29
   5   5  -2    4.63    0.22
  -5  -5   2    4.30    0.29
   5   5  -1    0.19    0.09
   5   5  -1    0.45    0.08
  -5  -5   1    0.18    0.10
   5   5   0    2.07    0.15
   5   5   0    2.14    0.17
  -5  -5   0    2.25    0.16
   5   5   1    0.07    0.06
   5   5   1    0.10    0.07
  -5  -5  -1   -0.02    0.08
   5   5   2   53.01    1.92
   5   5   2   46.36    2.06
  -5  -5  -2   44.88    1.90
   5   5   3    0.38    0.07
   5   5   3    0.45    0.12
  -5  -5  -3    0.47    0.11
   5   5   4    0.37    0.07
  -5  -5  -4    0.23    0.10
   5   5   5    0.18    0.05
   5   5   5    0.22    0.10
  -5  -5  -5    0.28    0.11
   5   5   6    0.60    0.13
  -5  -5  -6    0.67    0.12
   5   5   7    0.65    0.13
  -5  -5  -7    0.47    0.13
  -5  -5  -7    0.41    0.05
   5   5   8    0.08    0.11
  -5  -5  -8   -0.10    0.09
   5   5   9    0.12    0.13
  -5  -5  -9    0.14    0.10
   5   5  10    3.50    0.39
  -5  -5 -10    3.59    0.33
   5   5  11    1.10    0.22
  -5  -5 -11    1.11    0.20
   5   5  12    0.14    0.14
  -5  -5 -12    0.17    0.15
   5   5  13   -0.07    0.15
  -5  -5 -13    0.13    0.13
   5   5  14    0.06    0.12
  -5  -5 -14   -0.04    0.11
   5   5  15    1.50    0.33
  -5  -5 -15    1.03    0.25
   5   5  16    0.52    0.28
  -5  -5 -16    0.51    0.24
   5   5  17    0.63    0.26
  -5  -5 -17    0.68    0.21
   5   5  18    0.67    0.25
  -5  -5 -18    0.25    0.25
   5   5  19    0.23    0.23
  -5  -5 -19    0.16    0.19
   5   5  20    0.19    0.19
  -5  -5 -20   -0.24    0.17
   5   6 -21    0.25    0.23
  -5  -6  21    0.23    0.28
   5   6 -20    0.66    0.22
  -5  -6  20    0.55    0.32
   5   6 -19    0.39    0.19
   5   6 -18    3.03    0.41
  -5  -6  18    3.12    0.56
   5   6 -17    0.26    0.15
  -5  -6  17    0.14    0.19
   5   6 -16    0.20    0.13
  -5  -6  16    0.22    0.17
   5   6 -15    0.10    0.14
  -5  -6  15    0.32    0.16
   5   6 -14    0.42    0.19
  -5  -6  14    0.77    0.20
   5   6 -13    4.34    0.40
  -5  -6  13    4.27    0.50
   5   6 -12    3.32    0.36
  -5  -6  12    3.53    0.38
   5   6 -11   14.87    0.90
  -5  -6  11   14.70    0.98
   5   6 -10   -0.02    0.10
  -5  -6  10   -0.23    0.12
   5   6  -9    1.79    0.25
  -5  -6   9    1.61    0.28
   5   6  -8    1.21    0.20
  -5  -6   8    1.44    0.22
   5   6  -7    0.96    0.14
  -5  -6   7    0.74    0.17
   5   6  -6    0.97    0.14
  -5  -6   6    0.99    0.14
   5   6  -5    1.61    0.17
  -5  -6   5    1.91    0.18
   5   6  -4    0.02    0.04
   5   6  -4    0.14    0.09
  -5  -6   4    0.31    0.08
   5   6  -3    5.05    0.28
  -5  -6   3    4.48    0.28
   5   6  -2    0.00    0.07
   5   6  -2   -0.05    0.05
  -5  -6   2    0.04    0.06
   5   6  -1    8.85    0.47
   5   6  -1    7.77    0.39
  -5  -6   1    8.49    0.47
   5   6   0    4.26    0.28
   5   6   0    3.76    0.25
  -5  -6   0    4.02    0.30
   5   6   1   32.74    1.32
   5   6   1   27.91    1.32
  -5  -6  -1   29.10    1.32
   5   6   2   -0.06    0.06
   5   6   2   -0.13    0.07
  -5  -6  -2    0.08    0.07
   5   6   3    0.90    0.11
   5   6   3    0.86    0.15
  -5  -6  -3    0.98    0.13
   5   6   4    8.68    0.38
   5   6   4    8.37    0.55
  -5  -6  -4    9.89    0.49
   5   6   5   -0.09    0.05
   5   6   5    0.09    0.10
  -5  -6  -5   -0.02    0.07
   5   6   6    0.19    0.04
   5   6   6    0.22    0.11
  -5  -6  -6    0.24    0.12
   5   6   7    1.54    0.25
  -5  -6  -7    1.92    0.23
   5   6   8    3.66    0.39
  -5  -6  -8    3.78    0.36
   5   6   9    6.10    0.65
  -5  -6  -9    7.97    0.53
   5   6  10    1.05    0.21
  -5  -6 -10    0.82    0.22
   5   6  11    0.19    0.16
  -5  -6 -11    0.66    0.15
   5   6  12    0.06    0.14
  -5  -6 -12   -0.06    0.11
   5   6  13    0.40    0.16
  -5  -6 -13    0.08    0.14
   5   6  14   -0.11    0.19
   5   6  15    1.80    0.42
  -5  -6 -15    1.68    0.31
   5   6  16    0.31    0.20
  -5  -6 -16    0.23    0.22
   5   6  17    2.33    0.44
  -5  -6 -17    2.47    0.38
   5   6  18    0.20    0.33
  -5  -6 -18    0.71    0.26
   5   6  19   -0.13    0.29
  -5  -6 -19    0.27    0.19
   5   7 -20    0.05    0.22
  -5  -7  20    0.26    0.22
   5   7 -19    0.98    0.34
  -5  -7  19    1.44    0.41
   5   7 -18    1.48    0.32
  -5  -7  18    1.13    0.31
   5   7 -17    0.17    0.16
  -5  -7  17   -0.03    0.17
   5   7 -16    8.41    0.77
  -5  -7  16    8.50    0.81
   5   7 -15    4.45    0.45
  -5  -7  15    3.97    0.48
   5   7 -14    0.19    0.13
  -5  -7  14    0.06    0.16
   5   7 -13    0.19    0.20
  -5  -7  13    0.94    0.24
   5   7 -12    5.65    0.47
  -5  -7  12    5.73    0.51
   5   7 -11   -0.06    0.12
  -5  -7  11    0.16    0.12
   5   7 -10   10.12    0.67
  -5  -7  10   10.85    0.70
   5   7  -9    1.80    0.24
  -5  -7   9    1.93    0.28
   5   7  -8   56.01    2.91
  -5  -7   8   59.36    3.16
   5   7  -7    0.52    0.13
  -5  -7   7    0.49    0.18
   5   7  -6   19.50    1.06
  -5  -7   6   18.39    1.03
   5   7  -5    3.12    0.25
  -5  -7   5    2.90    0.26
   5   7  -4    0.62    0.08
   5   7  -4    0.81    0.11
  -5  -7   4    0.79    0.13
   5   7  -3    2.03    0.21
  -5  -7   3    1.73    0.19
   5   7  -2    0.13    0.07
   5   7  -2    0.28    0.08
   5   7  -1    1.08    0.12
   5   7  -1    0.58    0.12
  -5  -7   1    0.66    0.15
   5   7   0    4.04    0.29
   5   7   0    3.42    0.27
  -5  -7   0    4.82    0.33
   5   7   1    4.63    0.30
   5   7   1    3.38    0.28
  -5  -7  -1    4.08    0.28
   5   7   2    0.10    0.08
   5   7   2    0.34    0.10
  -5  -7  -2    0.16    0.11
   5   7   3    0.02    0.06
   5   7   3    0.05    0.08
  -5  -7  -3   -0.11    0.07
   5   7   4    6.13    0.32
   5   7   4    6.46    0.46
  -5  -7  -4    6.94    0.46
   5   7   5    0.50    0.08
   5   7   5    0.53    0.13
  -5  -7  -5    0.77    0.14
   5   7   6    2.32    0.30
  -5  -7  -6    2.53    0.28
   5   7   7    1.59    0.22
  -5  -7  -7    2.02    0.25
   5   7   8    7.99    0.63
  -5  -7  -8    8.45    0.58
   5   7   9    1.55    0.29
  -5  -7  -9    1.44    0.24
   5   7  10    1.75    0.32
   5   7  11   -0.00    0.13
  -5  -7 -11   -0.18    0.13
   5   7  12    0.19    0.21
  -5  -7 -12    0.32    0.19
   5   7  13    0.08    0.14
  -5  -7 -13    0.00    0.16
   5   7  14    1.32    0.35
  -5  -7 -14    1.09    0.26
   5   7  15    0.10    0.22
  -5  -7 -15    0.43    0.20
   5   7  16    5.29    0.74
  -5  -7 -16    5.50    0.77
   5   7  17    0.12    0.20
  -5  -7 -17    0.05    0.18
   5   7  18    0.98    0.43
  -5  -7 -18    1.07    0.35
   5   7  19   -0.02    0.26
  -5  -7 -19   -0.05    0.17
   5   8 -20    1.35    0.40
  -5  -8  20    1.22    0.47
   5   8 -19    1.68    0.33
  -5  -8  19    1.32    0.38
   5   8 -18    0.69    0.21
  -5  -8  18    0.49    0.34
   5   8 -17    0.10    0.20
  -5  -8  17    0.39    0.25
   5   8 -16    0.08    0.15
  -5  -8  16   -0.05    0.18
   5   8 -15    1.10    0.28
  -5  -8  15    0.93    0.31
   5   8 -14    0.43    0.16
  -5  -8  14    0.30    0.20
   5   8 -13    1.00    0.28
  -5  -8  13    1.68    0.34
   5   8 -12    8.56    0.68
  -5  -8  12    9.05    0.71
   5   8 -11    0.20    0.17
  -5  -8  11    0.28    0.15
   5   8 -10    3.63    0.37
  -5  -8  10    3.25    0.37
   5   8  -9   38.79    2.27
  -5  -8   9   42.46    2.48
   5   8  -8   29.73    1.71
  -5  -8   8   29.70    1.71
   5   8  -7    0.60    0.15
  -5  -8   7    0.66    0.15
   5   8  -6    8.77    0.56
  -5  -8   6    9.09    0.58
   5   8  -5    0.11    0.10
  -5  -8   5   -0.11    0.09
   5   8  -4   12.91    0.78
  -5  -8   4   12.57    0.78
   5   8  -3    0.08    0.06
   5   8  -3   -0.10    0.09
  -5  -8   3   -0.01    0.09
   5   8  -2    0.44    0.09
   5   8  -2    0.39    0.12
  -5  -8   2    0.19    0.11
   5   8  -1    2.06    0.20
   5   8  -1    2.36    0.20
  -5  -8   1    2.34    0.23
   5   8   0    0.69    0.13
   5   8   0    0.54    0.11
  -5  -8   0    0.66    0.14
   5   8   1    0.69    0.15
   5   8   1    0.65    0.15
  -5  -8  -1    1.21    0.14
   5   8   2    2.29    0.21
   5   8   2    2.17    0.20
  -5  -8  -2    2.79    0.24
   5   8   3    1.40    0.16
   5   8   3    1.59    0.22
  -5  -8  -3    2.49    0.24
   5   8   4   -0.06    0.06
   5   8   4   -0.01    0.07
  -5  -8  -4    0.23    0.10
   5   8   5    0.22    0.07
   5   8   5    0.17    0.14
  -5  -8  -5    0.17    0.11
   5   8   6    1.39    0.24
  -5  -8  -6    1.01    0.19
   5   8   7    1.14    0.21
  -5  -8  -7    1.50    0.24
   5   8   8    0.59    0.16
  -5  -8  -8    0.32    0.15
   5   8   9    1.73    0.32
  -5  -8  -9    1.96    0.33
   5   8  10    1.57    0.42
  -5  -8 -10    2.73    0.30
   5   8  11    0.05    0.14
  -5  -8 -11    0.11    0.12
   5   8  12   -0.21    0.17
  -5  -8 -12    0.18    0.13
   5   8  13    0.13    0.17
  -5  -8 -13   -0.01    0.13
   5   8  14   -0.08    0.20
  -5  -8 -14   -0.02    0.15
   5   8  15    1.58    0.48
  -5  -8 -15    2.11    0.43
   5   8  16    0.19    0.18
  -5  -8 -16   -0.15    0.15
   5   8  17    0.68    0.32
  -5  -8 -17    0.75    0.32
   5   8  18    0.15    0.20
  -5  -8 -18   -0.12    0.16
   5   9 -19    0.55    0.29
  -5  -9  19    0.66    0.38
   5   9 -18    0.11    0.22
  -5  -9  18    0.18    0.21
   5   9 -17    0.09    0.20
  -5  -9  17    0.19    0.21
   5   9 -16    0.08    0.17
  -5  -9  16   -0.12    0.15
   5   9 -15    0.49    0.18
  -5  -9  15    0.34    0.19
   5   9 -14    0.06    0.13
  -5  -9  14    0.09    0.18
   5   9 -13    0.78    0.24
  -5  -9  13    0.84    0.21
   5   9 -12   -0.17    0.13
  -5  -9  12   -0.06    0.14
   5   9 -11    5.02    0.54
  -5  -9  11    6.14    0.59
   5   9 -10    1.84    0.31
  -5  -9  10    2.32    0.35
   5   9  -9    0.65    0.18
  -5  -9   9    0.89    0.18
   5   9  -8    0.23    0.13
  -5  -9   8    0.40    0.17
   5   9  -7    0.13    0.11
  -5  -9   7    0.21    0.12
   5   9  -6    0.19    0.12
  -5  -9   6   -0.02    0.11
   5   9  -5    4.44    0.37
  -5  -9   5    4.23    0.34
   5   9  -4    3.02    0.31
  -5  -9   4    2.86    0.34
   5   9  -3    9.30    0.64
  -5  -9   3    9.71    0.60
   5   9  -2    2.75    0.26
   5   9  -2    3.43    0.31
  -5  -9   2    3.16    0.30
   5   9  -1    0.16    0.11
   5   9  -1    0.34    0.12
  -5  -9   1    0.10    0.11
   5   9   0    5.52    0.40
   5   9   0    6.56    0.45
  -5  -9   0    7.27    0.54
   5   9   1    3.73    0.32
   5   9   1    3.21    0.32
  -5  -9  -1    4.41    0.35
   5   9   2    5.74    0.39
   5   9   2    4.09    0.39
  -5  -9  -2    5.29    0.41
   5   9   3   -0.03    0.08
   5   9   3    0.18    0.11
  -5  -9  -3    0.15    0.11
   5   9   4    2.98    0.24
   5   9   4    3.33    0.32
  -5  -9  -4    4.85    0.41
   5   9   5    0.76    0.22
  -5  -9  -5    1.09    0.18
   5   9   6    2.69    0.38
  -5  -9  -6    3.38    0.32
   5   9   7   -0.06    0.15
   5   9   8    0.98    0.28
  -5  -9  -8    1.50    0.28
   5   9   9   -0.04    0.20
  -5  -9  -9    0.49    0.15
  -5  -9 -10   -0.10    0.12
   5   9  11   -0.12    0.16
  -5  -9 -11    0.08    0.12
   5   9  12   -0.21    0.20
  -5  -9 -12   -0.11    0.16
   5   9  13    1.34    0.43
  -5  -9 -13    1.83    0.32
   5   9  14    0.96    0.27
  -5  -9 -14    0.24    0.29
   5   9  15    0.23    0.25
  -5  -9 -15    0.29    0.24
   5   9  16    0.03    0.37
  -5  -9 -16    0.73    0.26
   5   9  17    0.31    0.22
  -5  -9 -17   -0.21    0.19
   5  10 -18    0.03    0.23
  -5 -10  18    0.20    0.25
   5  10 -17   -0.08    0.16
  -5 -10  17    0.24    0.21
   5  10 -16    0.04    0.15
  -5 -10  16   -0.18    0.19
   5  10 -15    0.64    0.25
  -5 -10  15    0.48    0.24
   5  10 -14    1.29    0.31
  -5 -10  14    1.08    0.29
   5  10 -13    1.54    0.27
  -5 -10  13    1.50    0.36
   5  10 -12    0.09    0.17
  -5 -10  12    0.12    0.15
   5  10 -11    0.65    0.21
  -5 -10  11    1.00    0.22
   5  10 -10   -0.01    0.12
  -5 -10  10   -0.15    0.13
   5  10  -9   -0.03    0.15
  -5 -10   9    0.16    0.15
   5  10  -8    0.55    0.19
  -5 -10   8    0.64    0.21
   5  10  -7    1.38    0.26
  -5 -10   7    1.57    0.22
   5  10  -6    0.32    0.15
  -5 -10   6    0.67    0.15
   5  10  -5    0.49    0.16
  -5 -10   5    0.18    0.14
   5  10  -4    4.05    0.33
  -5 -10   4    3.13    0.32
   5  10  -3    0.94    0.18
   5  10  -3    0.46    0.14
  -5 -10   3    0.82    0.16
   5  10  -2    1.31    0.17
   5  10  -2    1.14    0.21
  -5 -10   2    1.52    0.24
   5  10  -1   -0.03    0.07
  -5 -10   1    0.10    0.12
   5  10   0    0.66    0.14
   5  10   0    0.48    0.15
  -5 -10   0    0.93    0.16
   5  10   1    0.91    0.19
   5  10   1    1.54    0.20
  -5 -10  -1    1.76    0.27
   5  10   2    0.07    0.09
   5  10   2    0.01    0.10
  -5 -10  -2    0.01    0.11
   5  10   3    3.53    0.30
   5  10   3    3.62    0.39
  -5 -10  -3    4.99    0.45
   5  10   4    0.02    0.10
   5  10   4    0.02    0.13
  -5 -10  -4    0.19    0.12
   5  10   5    0.42    0.19
  -5 -10  -5    0.53    0.18
   5  10   6    1.59    0.25
  -5 -10  -6    1.05    0.24
   5  10   7    1.35    0.26
  -5 -10  -7    2.10    0.28
   5  10   8    0.32    0.15
  -5 -10  -8   -0.03    0.14
   5  10   9    0.34    0.20
  -5 -10  -9   -0.02    0.19
   5  10  10    0.43    0.28
  -5 -10 -10    0.60    0.24
   5  10  11    0.73    0.27
  -5 -10 -11    0.88    0.29
   5  10  12    0.27    0.24
  -5 -10 -12    0.17    0.23
   5  10  13    0.03    0.17
  -5 -10 -13   -0.06    0.14
   5  10  14    0.98    0.34
  -5 -10 -14    1.00    0.30
   5  10  15    0.34    0.34
  -5 -10 -15    0.46    0.28
   5  11 -16   -0.16    0.19
  -5 -11  16    0.15    0.16
   5  11 -15    0.68    0.24
  -5 -11  15    0.94    0.30
   5  11 -14   -0.18    0.22
  -5 -11  14   -0.32    0.22
   5  11 -13    0.72    0.24
  -5 -11  13    0.82    0.27
   5  11 -12    7.12    0.77
  -5 -11  12    7.96    0.86
   5  11 -11    0.78    0.22
  -5 -11  11    0.87    0.29
   5  11 -10    1.12    0.29
  -5 -11  10    1.43    0.33
   5  11  -9    0.98    0.27
  -5 -11   9    1.18    0.31
   5  11  -8    0.18    0.19
  -5 -11   8    0.49    0.17
   5  11  -7    0.30    0.18
  -5 -11   7    0.31    0.15
   5  11  -6    3.85    0.42
  -5 -11   6    4.69    0.42
   5  11  -5    0.08    0.12
  -5 -11   5    0.18    0.16
   5  11  -4    2.38    0.31
  -5 -11   4    1.91    0.33
   5  11  -3   -0.03    0.12
  -5 -11   3    0.06    0.12
   5  11  -2    0.97    0.19
   5  11  -2    1.84    0.26
  -5 -11   2    2.38    0.27
   5  11  -1    1.44    0.22
   5  11  -1    2.26    0.29
  -5 -11   1    3.19    0.34
   5  11   0    0.47    0.15
   5  11   0    0.72    0.17
  -5 -11   0    0.59    0.21
   5  11   1    2.23    0.27
   5  11   1    2.07    0.27
  -5 -11  -1    2.82    0.31
   5  11   2    0.01    0.11
   5  11   2    0.23    0.13
  -5 -11  -2    0.19    0.13
   5  11   3    0.25    0.12
  -5 -11  -3    0.32    0.17
   5  11   4    0.22    0.17
  -5 -11  -4    0.38    0.15
   5  11   5    0.15    0.20
  -5 -11  -5    0.66    0.17
   5  11   6    0.82    0.21
  -5 -11  -6    0.54    0.21
   5  11   7    1.41    0.27
  -5 -11  -7    1.30    0.27
   5  11   8    3.76    0.48
  -5 -11  -8    3.74    0.46
   5  11   9    1.49    0.40
  -5 -11  -9    1.86    0.31
   5  11  10   -0.06    0.22
  -5 -11 -10   -0.15    0.16
   5  11  11   -0.23    0.22
   5  11  12    0.54    0.30
  -5 -11 -12    0.20    0.21
   5  11  13    0.20    0.28
  -5 -11 -13    0.58    0.27
   5  11  14    1.89    0.45
  -5 -11 -14    1.51    0.39
   5  12 -15    0.36    0.25
  -5 -12  15    1.09    0.33
   5  12 -14    0.05    0.24
  -5 -12  14    0.47    0.22
   5  12 -13    0.22    0.18
  -5 -12  13    0.04    0.22
   5  12 -12    0.25    0.25
  -5 -12  12    0.57    0.24
   5  12 -11    1.94    0.37
  -5 -12  11    2.71    0.45
   5  12 -10    1.65    0.31
  -5 -12  10    2.10    0.39
   5  12  -9    1.10    0.31
  -5 -12   9    1.05    0.30
   5  12  -8    0.10    0.16
  -5 -12   8   -0.02    0.12
   5  12  -7   -0.09    0.15
  -5 -12   7   -0.01    0.13
   5  12  -6    4.45    0.47
  -5 -12   6    4.76    0.54
   5  12  -5    7.71    0.73
  -5 -12   5    7.72    0.64
   5  12  -4    0.98    0.24
  -5 -12   4    1.53    0.24
   5  12  -3    0.81    0.25
  -5 -12   3    1.49    0.27
   5  12  -2    0.34    0.17
  -5 -12   2    0.34    0.19
   5  12  -1    0.04    0.09
   5  12  -1    0.04    0.12
  -5 -12   1   -0.05    0.14
   5  12   0    4.18    0.42
   5  12   0    4.65    0.49
  -5 -12   0    7.19    0.62
   5  12   1    1.02    0.21
   5  12   1    0.96    0.23
  -5 -12  -1    1.90    0.31
   5  12   2    2.17    0.30
   5  12   2    1.55    0.30
  -5 -12  -2    3.13    0.38
   5  12   3    1.58    0.32
  -5 -12  -3    2.53    0.38
   5  12   4    1.65    0.32
  -5 -12  -4    2.02    0.36
   5  12   5    0.01    0.19
  -5 -12  -5    0.43    0.20
   5  12   6    0.69    0.30
  -5 -12  -6    1.50    0.32
   5  12   7    0.52    0.24
  -5 -12  -7    0.18    0.24
   5  12   8    0.28    0.23
  -5 -12  -8    0.09    0.22
   5  12   9    1.08    0.36
  -5 -12  -9    0.84    0.33
   5  12  10    0.05    0.19
  -5 -12 -10    0.11    0.16
   5  12  11    0.03    0.25
  -5 -12 -11    0.16    0.17
   5  12  12   -0.40    0.29
  -5 -12 -12    0.00    0.23
   5  13 -13    0.94    0.31
  -5 -13  13    1.24    0.38
   5  13 -12    0.18    0.22
  -5 -13  12    0.05    0.18
   5  13 -11    1.18    0.30
  -5 -13  11    1.23    0.32
   5  13 -10   -0.07    0.16
  -5 -13  10    0.35    0.20
   5  13  -9    0.50    0.22
  -5 -13   9    0.68    0.27
   5  13  -8    0.25    0.18
  -5 -13   8    0.38    0.22
   5  13  -7    2.05    0.33
  -5 -13   7    1.75    0.30
   5  13  -6    0.04    0.17
  -5 -13   6   -0.27    0.14
   5  13  -5    0.89    0.25
  -5 -13   5    0.54    0.27
   5  13  -4    1.04    0.27
  -5 -13   4    0.87    0.23
   5  13  -3   -0.04    0.12
  -5 -13   3    0.17    0.15
   5  13  -2    0.37    0.16
  -5 -13   2    0.53    0.22
   5  13  -1    0.52    0.16
  -5 -13   1    0.24    0.18
   5  13   0    0.02    0.14
   5  13   0    0.07    0.12
  -5 -13   0    0.08    0.14
   5  13   1    3.66    0.49
   5  13   1    5.30    0.50
  -5 -13  -1    6.68    0.60
   5  13   2    1.28    0.28
  -5 -13  -2    1.61    0.31
   5  13   3    0.15    0.21
  -5 -13  -3    1.01    0.25
   5  13   4    0.32    0.17
  -5 -13  -4    0.37    0.23
   5  13   5    0.59    0.29
  -5 -13  -5    1.19    0.30
   5  13   6    0.37    0.25
  -5 -13  -6    0.51    0.22
   5  13   7    2.36    0.48
  -5 -13  -7    2.50    0.39
   5  13   8    1.55    0.50
  -5 -13  -8    2.80    0.42
   5  13   9   -0.01    0.19
  -5 -13  -9   -0.15    0.21
  -5 -13 -10   -0.03    0.21
   5  14 -10    0.22    0.25
  -5 -14  10    0.27    0.24
   5  14  -9    0.65    0.30
   5  14  -8   -0.02    0.18
   5  14  -7    0.52    0.26
   5  14  -6    0.08    0.16
   5  14  -5    0.78    0.29
   5  14  -4   -0.09    0.14
  -5 -14   4    0.10    0.14
   5  14  -3   -0.15    0.19
  -5 -14   3   -0.26    0.16
   5  14  -2    0.30    0.22
  -5 -14   2    0.52    0.23
   5  14  -1    0.18    0.18
  -5 -14   1    0.20    0.17
   5  14   0    1.15    0.29
  -5 -14   0    1.80    0.36
  -5 -14  -1    0.72    0.29
  -5 -14  -2    0.20    0.18
   5  14   3    0.20    0.18
  -5 -14  -3    0.10    0.17
   5  14   4    0.16    0.15
  -5 -14  -4   -0.17    0.17
   5  14   5    0.33    0.23
  -5 -14  -5    0.12    0.25
   5  14   6    0.56    0.38
  -5 -14  -6    1.87    0.33
   5  14   7    0.33    0.30
  -5 -14  -7    0.59    0.23
   5  15  -6    1.49    0.42
  -5 -15   6    1.88    0.34
   5  15  -5    0.04    0.15
   5  15  -4    0.12    0.19
   5  15  -3   -0.18    0.19
  -5 -15   3   -0.02    0.16
   5  15  -2    0.08    0.21
  -5 -15   2    0.34    0.22
  -5 -15   1    0.16    0.17
  -5 -15   0    1.55    0.40
  -5 -15  -1    0.89    0.28
  -5 -15  -2    0.81    0.31
  -5 -15  -3   -0.26    0.19
   6 -16  -5    1.16    0.32
   6 -16  -4    0.93    0.25
   6 -16  -3    2.55    0.38
  -6  16   3    1.20    0.37
   6 -16  -2    0.85    0.25
  -6  16   2    0.18    0.24
   6 -16  -1    0.16    0.16
  -6  16   1   -0.02    0.17
   6 -16   0    1.81    0.30
  -6  16   0    0.53    0.32
   6 -16   1   -0.27    0.17
  -6  16  -1   -0.10    0.21
   6 -16   2    0.54    0.16
  -6  16  -2    0.12    0.20
   6 -16   3    1.71    0.27
  -6  16  -3    0.88    0.28
   6 -16   4    0.09    0.14
  -6  16  -4    0.12    0.20
   6 -16   5    0.01    0.13
  -6  16  -5    1.10    0.24
  -6  16  -6    5.39    0.83
  -6  16  -7    0.39    0.22
  -6  16  -8    0.96    0.29
   6 -15  -8    3.81    0.47
   6 -15  -7    0.48    0.25
   6 -15  -6    0.45    0.23
   6 -15  -5    0.26    0.17
  -6  15   5    0.15    0.14
   6 -15  -4    0.45    0.19
  -6  15   4    0.24    0.20
   6 -15  -3    1.01    0.26
  -6  15   3    0.48    0.24
   6 -15  -2    0.86    0.25
  -6  15   2    0.82    0.22
   6 -15  -1   -0.09    0.12
  -6  15   1    0.05    0.16
   6 -15   0    0.56    0.21
  -6  15   0    0.63    0.23
   6 -15   1    0.08    0.10
  -6  15  -1   -0.05    0.13
   6 -15   2    0.62    0.19
  -6  15  -2    0.43    0.19
   6 -15   3    0.91    0.21
  -6  15  -3    0.73    0.23
   6 -15   4    0.43    0.15
  -6  15  -4   -0.15    0.16
   6 -15   5    0.16    0.12
  -6  15  -5   -0.08    0.15
   6 -15   6    1.65    0.24
  -6  15  -6    0.92    0.30
   6 -15   7   -0.06    0.12
  -6  15  -7    0.01    0.14
  -6  15  -8    0.19    0.22
  -6  15  -9    0.30    0.24
  -6  15 -10    0.30    0.20
  -6  15 -11    0.09    0.20
  -6  14  11    0.66    0.36
  -6  14  10    0.86    0.39
   6 -14  -9    1.51    0.36
   6 -14  -8    0.66    0.21
   6 -14  -7    0.40    0.19
   6 -14  -6   -0.01    0.13
  -6  14   6    0.11    0.13
   6 -14  -5   -0.15    0.16
  -6  14   5   -0.02    0.14
   6 -14  -4    0.56    0.19
  -6  14   4    0.06    0.13
   6 -14  -3    0.07    0.16
  -6  14   3    0.13    0.15
   6 -14  -2   -0.22    0.15
  -6  14   2    0.06    0.16
   6 -14  -1    1.10    0.19
  -6  14   1    0.62    0.20
   6 -14   0    0.05    0.10
  -6  14   0   -0.08    0.13
   6 -14   1    0.21    0.14
  -6  14  -1   -0.05    0.18
   6 -14   2    0.02    0.12
  -6  14  -2    0.07    0.15
   6 -14   3    0.27    0.16
  -6  14  -3    0.32    0.21
   6 -14   4    0.05    0.11
  -6  14  -4   -0.04    0.12
   6 -14   5    0.83    0.17
  -6  14  -5    0.13    0.20
   6 -14   6    0.01    0.12
  -6  14  -6    0.34    0.18
   6 -14   7    0.66    0.17
  -6  14  -7    0.43    0.27
   6 -14   8    1.47    0.23
  -6  14  -8    1.05    0.29
   6 -14   9    0.12    0.12
  -6  14  -9    0.00    0.19
  -6  14 -10    0.00    0.13
  -6  14 -11    0.88    0.29
  -6  14 -12   -0.09    0.15
  -6  14 -13    0.38    0.29
  -6  14 -14    0.01    0.14
  -6  13  13    0.09    0.26
  -6  13  12    0.05    0.23
  -6  13  11    4.37    0.67
   6 -13 -10    1.48    0.28
   6 -13 -10    2.47    0.37
   6 -13  -9    0.57    0.19
   6 -13  -9    0.15    0.15
   6 -13  -8    1.56    0.29
   6 -13  -8    3.39    0.40
   6 -13  -7    0.83    0.19
   6 -13  -7    1.42    0.26
  -6  13   7    0.71    0.21
   6 -13  -6    0.61    0.16
   6 -13  -6    0.82    0.23
  -6  13   6    0.47    0.19
   6 -13  -5    5.36    0.49
  -6  13   5    3.49    0.41
   6 -13  -4    7.34    0.53
   6 -13  -4    4.19    0.36
  -6  13   4    3.82    0.51
   6 -13  -3   -0.02    0.14
   6 -13  -3   -0.09    0.08
  -6  13   3    0.08    0.11
   6 -13  -2    1.15    0.22
   6 -13  -2    0.82    0.15
  -6  13   2    1.08    0.20
   6 -13  -1    0.06    0.16
   6 -13  -1    0.60    0.12
  -6  13   1    0.31    0.15
   6 -13   0    0.04    0.12
   6 -13   0    0.11    0.08
  -6  13   0   -0.09    0.11
   6 -13   1    0.64    0.18
   6 -13   1    0.32    0.11
  -6  13  -1    0.63    0.16
   6 -13   2    1.06    0.19
   6 -13   2    0.40    0.13
  -6  13  -2    0.68    0.21
   6 -13   3   -0.06    0.11
  -6  13  -3   -0.04    0.15
   6 -13   4    0.35    0.15
  -6  13  -4    0.36    0.16
   6 -13   5    2.61    0.30
   6 -13   5    1.83    0.19
  -6  13  -5    1.51    0.30
   6 -13   6    0.38    0.14
   6 -13   6    0.67    0.12
  -6  13  -6    0.31    0.22
   6 -13   7    3.72    0.36
   6 -13   7    2.77    0.27
  -6  13  -7    2.76    0.41
   6 -13   8   -0.19    0.11
   6 -13   8    0.05    0.09
  -6  13  -8    0.07    0.16
   6 -13   9    0.11    0.11
   6 -13   9    0.07    0.10
  -6  13  -9    0.03    0.14
   6 -13  10    0.70    0.19
  -6  13 -10    1.33    0.30
   6 -13  11    0.80    0.18
  -6  13 -11    0.49    0.28
  -6  13 -12    0.06    0.15
  -6  13 -13   -0.03    0.18
  -6  13 -14    0.40    0.25
  -6  13 -15    0.08    0.16
   6 -12 -14    0.32    0.19
  -6  12  14    0.67    0.33
   6 -12 -13   -0.12    0.14
  -6  12  13   -0.14    0.30
   6 -12 -12    0.33    0.16
  -6  12  12    0.80    0.35
   6 -12 -11    0.35    0.18
   6 -12 -11    0.56    0.16
   6 -12 -10    0.03    0.12
   6 -12 -10    0.27    0.14
   6 -12  -9    2.77    0.30
   6 -12  -9    1.90    0.26
  -6  12   9    1.14    0.28
   6 -12  -8    0.85    0.17
   6 -12  -8    0.95    0.24
  -6  12   8    0.45    0.17
   6 -12  -7    0.45    0.17
   6 -12  -7    0.10    0.10
  -6  12   7    0.08    0.13
   6 -12  -6    2.75    0.29
   6 -12  -6    2.40    0.23
  -6  12   6    1.72    0.30
   6 -12  -5    6.06    0.46
  -6  12   5    4.59    0.45
   6 -12  -4    4.37    0.36
   6 -12  -4    2.77    0.26
  -6  12   4    3.49    0.31
   6 -12  -3    0.60    0.12
   6 -12  -3    1.05    0.21
  -6  12   3    0.73    0.16
   6 -12  -2    0.59    0.18
   6 -12  -2    0.40    0.10
  -6  12   2    0.46    0.15
   6 -12  -1    2.23    0.24
   6 -12  -1    1.61    0.19
  -6  12   1    1.79    0.26
   6 -12   0    0.01    0.08
   6 -12   0   -0.04    0.07
  -6  12   0    0.19    0.12
   6 -12   1    3.05    0.30
   6 -12   1    2.33    0.19
  -6  12  -1    2.40    0.33
   6 -12   2    2.61    0.28
   6 -12   2    1.98    0.21
  -6  12  -2    2.39    0.28
   6 -12   3    0.73    0.17
   6 -12   3    0.39    0.11
  -6  12  -3    0.68    0.17
   6 -12   4    1.36    0.21
   6 -12   4    0.61    0.14
  -6  12  -4    1.27    0.25
   6 -12   5    0.24    0.14
   6 -12   5    0.36    0.10
  -6  12  -5    0.36    0.16
   6 -12   6    1.18    0.18
   6 -12   6    0.52    0.13
  -6  12  -6    0.71    0.22
   6 -12   7    6.61    0.48
   6 -12   7    5.19    0.39
  -6  12  -7    5.64    0.64
   6 -12   8    0.64    0.18
  -6  12  -8    0.86    0.23
   6 -12   9    5.64    0.46
   6 -12   9    5.41    0.43
  -6  12  -9    5.23    0.55
   6 -12  10   -0.01    0.13
   6 -12  10    0.24    0.11
  -6  12 -10   -0.05    0.19
   6 -12  11    0.00    0.10
   6 -12  11   -0.06    0.10
  -6  12 -11    0.06    0.16
   6 -12  12    1.93    0.27
   6 -12  12    2.31    0.29
  -6  12 -12    2.23    0.36
   6 -12  13    0.10    0.13
  -6  12 -13   -0.05    0.14
   6 -12  14   -0.10    0.12
  -6  12 -14   -0.16    0.16
   6 -12  15    1.01    0.27
  -6  12 -15    0.96    0.27
  -6  12 -16    0.06    0.19
  -6  12 -17    0.60    0.29
   6 -11 -16    0.01    0.16
  -6  11  16   -0.35    0.26
   6 -11 -15    0.15    0.16
  -6  11  15    0.18    0.33
   6 -11 -14    0.25    0.16
  -6  11  14    0.18    0.32
   6 -11 -13    0.70    0.19
  -6  11  13    0.62    0.38
   6 -11 -12    1.07    0.20
  -6  11  12    0.53    0.23
   6 -11 -11    0.33    0.18
   6 -11 -11    0.13    0.13
   6 -11 -10   -0.10    0.13
   6 -11 -10    0.46    0.11
  -6  11  10    0.07    0.11
   6 -11  -9   -0.06    0.10
   6 -11  -9   -0.02    0.08
  -6  11   9    0.10    0.09
   6 -11  -8    0.13    0.13
   6 -11  -8   -0.07    0.08
  -6  11   8   -0.05    0.09
   6 -11  -7    0.45    0.12
   6 -11  -7    0.62    0.16
  -6  11   7    0.44    0.14
   6 -11  -6    0.26    0.13
   6 -11  -6    0.20    0.09
  -6  11   6    0.25    0.13
   6 -11  -5    0.79    0.19
   6 -11  -5    0.49    0.11
  -6  11   5    0.45    0.16
   6 -11  -4    2.05    0.22
   6 -11  -4    1.49    0.15
  -6  11   4    1.60    0.23
   6 -11  -3    0.01    0.12
   6 -11  -3   -0.02    0.06
  -6  11   3   -0.23    0.11
   6 -11  -2    0.73    0.15
   6 -11  -2    0.39    0.09
  -6  11   2    0.80    0.16
   6 -11  -1    2.38    0.26
   6 -11  -1    1.88    0.15
  -6  11   1    1.76    0.23
   6 -11   0    1.66    0.24
  -6  11   0    1.66    0.26
   6 -11   1    0.05    0.09
   6 -11   1   -0.01    0.05
  -6  11  -1   -0.21    0.11
   6 -11   2    2.57    0.27
   6 -11   2    1.91    0.16
  -6  11  -2    2.70    0.32
   6 -11   3    4.30    0.34
   6 -11   3    3.69    0.24
  -6  11  -3    4.48    0.42
   6 -11   4   19.93    1.03
  -6  11  -4   17.72    1.29
   6 -11   5    4.44    0.38
   6 -11   5    3.72    0.25
  -6  11  -5    4.16    0.39
   6 -11   6    6.57    0.49
   6 -11   6    5.96    0.35
  -6  11  -6    6.36    0.56
   6 -11   7    4.81    0.41
   6 -11   7    4.83    0.32
  -6  11  -7    4.53    0.49
   6 -11   8    3.01    0.32
   6 -11   8    2.76    0.26
  -6  11  -8    3.39    0.44
   6 -11   9    7.58    0.52
   6 -11   9    6.32    0.46
  -6  11  -9    5.74    0.67
   6 -11  10    6.60    0.54
   6 -11  10    5.37    0.44
  -6  11 -10    5.06    0.64
   6 -11  11   -0.02    0.15
   6 -11  11    0.38    0.13
  -6  11 -11    0.37    0.19
   6 -11  12    3.94    0.42
   6 -11  12    3.46    0.35
  -6  11 -12    3.00    0.51
   6 -11  13    0.28    0.16
   6 -11  13    0.22    0.14
  -6  11 -13    0.25    0.22
   6 -11  14    1.86    0.27
   6 -11  14    2.50    0.34
  -6  11 -14    1.13    0.42
   6 -11  15    0.17    0.17
  -6  11 -15    0.08    0.19
   6 -11  16    1.73    0.34
  -6  11 -16    1.22    0.36
   6 -11  17   -0.07    0.17
  -6  11 -17    0.21    0.19
  -6  11 -18    0.34    0.25
   6 -10 -17    0.43    0.21
  -6  10  17    0.29    0.32
   6 -10 -16    0.83    0.25
  -6  10  16    1.49    0.40
   6 -10 -15    0.20    0.13
  -6  10  15    0.09    0.30
   6 -10 -14    0.70    0.18
  -6  10  14    1.43    0.41
   6 -10 -13    1.83    0.27
  -6  10  13    2.15    0.42
   6 -10 -12    4.74    0.47
   6 -10 -12    3.57    0.32
   6 -10 -11    0.72    0.18
   6 -10 -11    0.88    0.16
  -6  10  11    0.49    0.15
   6 -10 -10    3.19    0.33
   6 -10 -10    1.70    0.23
  -6  10  10    1.59    0.23
   6 -10  -9   -0.07    0.11
   6 -10  -9   -0.01    0.08
  -6  10   9   -0.06    0.09
   6 -10  -8   -0.12    0.12
   6 -10  -8    0.10    0.08
  -6  10   8    0.00    0.08
   6 -10  -7    1.43    0.19
   6 -10  -7    1.10    0.14
  -6  10   7    0.63    0.17
   6 -10  -6    1.07    0.14
   6 -10  -6    1.34    0.23
  -6  10   6    1.26    0.18
   6 -10  -5    1.28    0.19
   6 -10  -5    0.73    0.11
  -6  10   5    0.85    0.17
   6 -10  -4   19.68    1.00
   6 -10  -4   15.46    0.68
  -6  10   4   17.60    0.97
   6 -10  -3    3.56    0.35
  -6  10   3    3.25    0.33
   6 -10  -2    0.77    0.14
   6 -10  -2    0.64    0.08
  -6  10   2    0.54    0.14
   6 -10  -1    0.22    0.09
   6 -10  -1    0.07    0.05
  -6  10   1    0.13    0.11
   6 -10   0    0.96    0.17
  -6  10   0    0.46    0.15
   6 -10   1    0.24    0.08
   6 -10   1    0.03    0.05
  -6  10  -1    0.03    0.10
   6 -10   2   13.20    0.73
   6 -10   2   13.98    0.57
  -6  10  -2   16.13    0.94
   6 -10   3    0.39    0.14
   6 -10   3    0.20    0.07
  -6  10  -3    0.78    0.17
   6 -10   4   26.75    1.29
   6 -10   4   23.73    0.93
  -6  10  -4   25.04    1.50
   6 -10   5    1.26    0.16
   6 -10   5    0.33    0.09
  -6  10  -5    0.65    0.15
   6 -10   6    2.00    0.21
   6 -10   6    2.12    0.17
  -6  10  -6    2.21    0.28
   6 -10   7    0.00    0.11
   6 -10   7   -0.00    0.07
  -6  10  -7    0.11    0.10
   6 -10   8    0.21    0.13
  -6  10  -8    0.04    0.13
   6 -10   9    4.67    0.44
   6 -10   9    3.48    0.30
  -6  10  -9    3.86    0.43
   6 -10  10    0.32    0.14
   6 -10  10    0.55    0.14
  -6  10 -10    0.22    0.20
   6 -10  11    0.01    0.10
   6 -10  11    0.00    0.10
  -6  10 -11   -0.12    0.13
   6 -10  12    1.37    0.24
   6 -10  12    1.48    0.23
  -6  10 -12    1.66    0.31
   6 -10  13   -0.08    0.12
   6 -10  13   -0.24    0.13
  -6  10 -13    0.04    0.14
   6 -10  14    0.62    0.18
   6 -10  14    0.69    0.20
  -6  10 -14    0.66    0.21
   6 -10  15    0.89    0.22
   6 -10  15    0.81    0.25
  -6  10 -15    0.88    0.23
   6 -10  16    0.23    0.15
  -6  10 -16   -0.03    0.19
   6 -10  17   -0.14    0.13
  -6  10 -17    0.21    0.15
   6 -10  18    0.29    0.21
  -6  10 -18    0.07    0.17
   6 -10  19    0.41    0.25
  -6  10 -19    0.17    0.20
   6  -9 -18    0.26    0.19
  -6   9  18    0.26    0.29
   6  -9 -17    0.50    0.20
  -6   9  17    0.57    0.40
  -6   9  16   -0.16    0.24
   6  -9 -15    2.35    0.28
  -6   9  15    2.30    0.48
   6  -9 -14    1.62    0.24
  -6   9  14    1.03    0.42
   6  -9 -13    0.27    0.13
  -6   9  13    0.13    0.15
   6  -9 -12    0.24    0.11
   6  -9 -12   -0.10    0.10
  -6   9  12    0.08    0.10
   6  -9 -11    1.88    0.26
   6  -9 -11    1.16    0.18
  -6   9  11    0.86    0.19
   6  -9 -10    0.83    0.16
   6  -9 -10    1.36    0.20
  -6   9  10    1.30    0.19
   6  -9  -9    0.50    0.11
   6  -9  -9    0.31    0.14
  -6   9   9    0.48    0.14
   6  -9  -8    5.10    0.42
   6  -9  -8    3.90    0.27
  -6   9   8    4.07    0.36
   6  -9  -7   14.55    0.76
   6  -9  -7   11.15    0.57
  -6   9   7   12.74    0.74
   6  -9  -6    1.20    0.16
   6  -9  -6    0.79    0.11
  -6   9   6    0.94    0.17
   6  -9  -5   11.13    0.65
  -6   9   5   11.56    0.66
   6  -9  -4   10.26    0.56
   6  -9  -4    8.67    0.37
  -6   9   4   10.49    0.61
   6  -9  -3    0.03    0.07
   6  -9  -3    0.04    0.04
  -6   9   3   -0.02    0.07
   6  -9  -2    2.06    0.24
  -6   9   2    1.81    0.19
   6  -9  -1    3.34    0.29
   6  -9  -1    2.30    0.13
  -6   9   1    2.82    0.27
   6  -9   0    0.84    0.14
   6  -9   0    0.48    0.07
  -6   9   0    0.65    0.16
   6  -9   1    5.90    0.43
  -6   9  -1    6.04    0.46
   6  -9   2    0.55    0.13
   6  -9   2    0.34    0.06
  -6   9  -2    0.66    0.15
   6  -9   3    1.35    0.19
  -6   9  -3    1.34    0.22
   6  -9   4    4.67    0.31
   6  -9   4    4.09    0.21
  -6   9  -4    4.57    0.35
   6  -9   5    3.64    0.32
   6  -9   5    2.29    0.17
  -6   9  -5    2.85    0.29
   6  -9   6    7.72    0.51
   6  -9   6    6.07    0.30
  -6   9  -6    5.80    0.46
   6  -9   7    2.23    0.26
   6  -9   7    2.43    0.18
  -6   9  -7    2.14    0.31
   6  -9   8    0.58    0.13
   6  -9   8    0.59    0.11
  -6   9  -8    0.63    0.20
   6  -9   9    0.54    0.14
   6  -9   9    0.19    0.13
  -6   9  -9    0.35    0.15
   6  -9  10    1.36    0.21
   6  -9  10    1.15    0.17
  -6   9 -10    1.11    0.23
   6  -9  11    0.19    0.14
   6  -9  11    0.31    0.13
  -6   9 -11    0.60    0.18
   6  -9  12    3.64    0.36
   6  -9  12    3.78    0.34
  -6   9 -12    1.98    0.36
   6  -9  13    1.12    0.21
   6  -9  13    1.06    0.22
  -6   9 -13    0.70    0.22
   6  -9  14    1.62    0.23
   6  -9  14    0.79    0.21
  -6   9 -14    1.00    0.27
   6  -9  15    0.12    0.14
  -6   9 -15   -0.01    0.12
   6  -9  16    0.29    0.15
   6  -9  16    0.30    0.19
  -6   9 -16    0.04    0.19
   6  -9  17    0.18    0.14
   6  -9  17    0.07    0.17
  -6   9 -17    0.09    0.17
   6  -9  18    0.04    0.14
  -6   9 -18    0.01    0.16
   6  -9  19    0.27    0.21
  -6   9 -19    0.09    0.21
   6  -8 -19    0.04    0.11
  -6   8  19   -0.25    0.22
   6  -8 -18    0.23    0.17
  -6   8  18   -0.06    0.29
   6  -8 -17    0.14    0.14
  -6   8  17    0.01    0.22
   6  -8 -16    0.23    0.15
  -6   8  16   -0.02    0.27
   6  -8 -15    0.25    0.16
  -6   8  15    0.65    0.25
   6  -8 -14    4.28    0.42
  -6   8  14    5.45    0.69
   6  -8 -13    4.48    0.40
   6  -8 -13    5.27    0.48
   6  -8 -12    2.11    0.23
   6  -8 -12    1.29    0.22
  -6   8  12    1.64    0.21
   6  -8 -11    2.36    0.25
   6  -8 -11    1.87    0.21
  -6   8  11    1.91    0.23
   6  -8 -10    0.13    0.14
   6  -8 -10    0.11    0.09
  -6   8  10    0.24    0.10
   6  -8  -9   -0.03    0.07
   6  -8  -9    0.08    0.10
  -6   8   9    0.05    0.08
   6  -8  -8    0.42    0.13
   6  -8  -8    0.23    0.08
  -6   8   8    0.26    0.11
   6  -8  -7    0.03    0.06
   6  -8  -7    0.06    0.12
  -6   8   7    0.19    0.07
   6  -8  -6    1.17    0.19
   6  -8  -6    1.02    0.10
  -6   8   6    1.11    0.17
   6  -8  -5    0.05    0.05
   6  -8  -5    0.17    0.09
  -6   8   5    0.28    0.08
   6  -8  -4    0.15    0.08
   6  -8  -4    0.05    0.05
  -6   8   4    0.12    0.08
   6  -8  -3    2.05    0.19
   6  -8  -3    1.46    0.09
  -6   8   3    1.90    0.19
   6  -8  -2    0.07    0.09
   6  -8  -2    0.04    0.04
  -6   8   2    0.04    0.09
   6  -8  -1    0.45    0.12
   6  -8  -1    0.37    0.05
  -6   8   1    0.25    0.13
   6  -8   0    3.45    0.25
  -6   8   0    3.16    0.25
   6  -8   1    0.62    0.10
   6  -8   1    0.22    0.04
  -6   8  -1    0.33    0.10
   6  -8   2   13.75    0.64
   6  -8   2   11.78    0.37
  -6   8  -2   14.35    0.78
   6  -8   3    7.20    0.42
   6  -8   3    4.97    0.19
  -6   8  -3    5.43    0.38
   6  -8   4    0.71    0.16
   6  -8   4    0.50    0.07
  -6   8  -4    0.69    0.13
   6  -8   5    3.48    0.28
   6  -8   5    2.76    0.16
  -6   8  -5    3.05    0.31
   6  -8   6    7.03    0.40
   6  -8   6    6.18    0.29
  -6   8  -6    6.37    0.46
   6  -8   7    7.00    0.46
   6  -8   7    5.98    0.33
  -6   8  -7    6.25    0.53
   6  -8   8   11.00    0.60
   6  -8   8    9.60    0.50
  -6   8  -8    9.18    0.62
   6  -8   9    0.20    0.13
   6  -8   9    0.41    0.10
  -6   8  -9    0.01    0.15
   6  -8  10   10.49    0.65
  -6   8 -10    8.13    0.64
   6  -8  11    1.04    0.21
   6  -8  11    1.22    0.19
  -6   8 -11    1.17    0.25
   6  -8  12    0.34    0.15
   6  -8  12    0.46    0.14
  -6   8 -12    0.35    0.15
   6  -8  13    2.28    0.30
   6  -8  13    2.62    0.30
  -6   8 -13    2.37    0.30
   6  -8  14    0.88    0.17
   6  -8  14    0.88    0.23
  -6   8 -14    0.84    0.24
   6  -8  15    3.34    0.36
   6  -8  15    3.27    0.39
  -6   8 -15    2.61    0.35
   6  -8  16    0.66    0.19
   6  -8  16    0.27    0.22
  -6   8 -16    0.82    0.23
   6  -8  17   -0.00    0.14
   6  -8  17   -0.03    0.16
  -6   8 -17    0.13    0.12
   6  -8  18    0.68    0.21
   6  -8  18    0.13    0.17
  -6   8 -18    0.02    0.20
   6  -8  19   -0.19    0.19
  -6   8 -19   -0.05    0.19
   6  -8  20    0.21    0.31
  -6   8 -20    0.76    0.23
   6  -7 -19    0.16    0.15
  -6   7  19    0.21    0.25
   6  -7 -18    1.85    0.32
  -6   7  18    1.59    0.52
   6  -7 -17    1.11    0.25
  -6   7  17    1.31    0.42
   6  -7 -16    0.11    0.15
  -6   7  16    0.21    0.21
   6  -7 -15    0.87    0.20
  -6   7  15    0.59    0.32
   6  -7 -14    0.34    0.13
  -6   7  14    0.53    0.13
  -6   7  14    0.65    0.21
   6  -7 -13    0.40    0.16
   6  -7 -13    0.38    0.14
  -6   7  13    0.48    0.13
   6  -7 -12    0.08    0.09
   6  -7 -12    0.13    0.09
  -6   7  12   -0.06    0.09
   6  -7 -11    0.68    0.14
   6  -7 -11    0.69    0.14
  -6   7  11    0.50    0.14
   6  -7 -10    4.01    0.31
   6  -7 -10    3.53    0.28
  -6   7  10    3.98    0.32
   6  -7  -9    0.07    0.09
   6  -7  -9    0.02    0.07
  -6   7   9    0.10    0.09
   6  -7  -8    0.44    0.15
   6  -7  -8    0.52    0.11
  -6   7   8    0.67    0.13
   6  -7  -7   11.64    0.60
   6  -7  -7    9.59    0.44
  -6   7   7   11.92    0.63
   6  -7  -6    1.60    0.17
   6  -7  -6    1.24    0.11
  -6   7   6    1.42    0.15
   6  -7  -5    0.76    0.15
   6  -7  -5    0.78    0.09
  -6   7   5    0.90    0.14
   6  -7  -4    1.32    0.09
   6  -7  -4    1.90    0.16
  -6   7   4    1.23    0.17
   6  -7  -3    0.14    0.04
   6  -7  -3    0.18    0.10
  -6   7   3    0.18    0.10
   6  -7  -2    0.51    0.11
   6  -7  -2    0.51    0.05
  -6   7   2    0.89    0.11
   6  -7  -1    7.76    0.43
  -6   7   1    6.79    0.46
   6  -7   0    0.27    0.08
  -6   7   0    0.09    0.08
   6  -7   1    2.48    0.20
  -6   7  -1    2.90    0.25
   6  -7   2    1.14    0.18
  -6   7  -2    1.03    0.13
   6  -7   3    2.08    0.17
   6  -7   3    1.19    0.06
  -6   7  -3    1.27    0.18
   6  -7   4    2.02    0.17
  -6   7  -4    1.87    0.23
   6  -7   5    0.35    0.08
   6  -7   5    0.10    0.04
  -6   7  -5   -0.03    0.09
   6  -7   6    0.46    0.11
   6  -7   6    0.51    0.07
  -6   7  -6    0.20    0.11
   6  -7   7    4.15    0.31
   6  -7   7    3.08    0.19
  -6   7  -7    3.73    0.33
   6  -7   8    2.26    0.25
   6  -7   8    1.88    0.17
  -6   7  -8    2.37    0.27
   6  -7   9    0.08    0.09
   6  -7   9    0.01    0.07
  -6   7  -9    0.01    0.08
   6  -7  10    1.65    0.22
   6  -7  10    1.47    0.18
  -6   7 -10    1.39    0.21
   6  -7  11    0.56    0.16
   6  -7  11    0.68    0.14
  -6   7 -11    0.26    0.15
   6  -7  12    3.83    0.36
   6  -7  12    3.69    0.34
  -6   7 -12    3.59    0.41
   6  -7  13    0.70    0.20
   6  -7  13    1.25    0.21
  -6   7 -13    0.65    0.21
   6  -7  14    2.66    0.29
   6  -7  14    3.40    0.39
  -6   7 -14    2.64    0.35
   6  -7  15    0.15    0.12
   6  -7  15    0.12    0.16
  -6   7 -15    0.21    0.12
   6  -7  16    0.72    0.17
   6  -7  16    0.62    0.20
  -6   7 -16    0.80    0.21
   6  -7  17    0.87    0.22
   6  -7  17    1.22    0.29
  -6   7 -17    0.99    0.26
   6  -7  18    2.45    0.31
   6  -7  18    3.43    0.48
  -6   7 -18    2.40    0.39
   6  -7  19    1.45    0.31
   6  -7  19    2.11    0.41
  -6   7 -19    1.25    0.33
   6  -7  20    1.02    0.36
  -6   7 -20    0.79    0.25
   6  -7  21    0.51    0.24
  -6   7 -21    0.10    0.22
   6  -6 -20    0.08    0.15
  -6   6  20   -0.20    0.22
   6  -6 -19    0.06    0.16
   6  -6 -18    4.51    0.49
  -6   6  18    3.54    0.73
   6  -6 -17    0.63    0.19
  -6   6  17    1.42    0.36
   6  -6 -16    2.70    0.35
  -6   6  16    3.33    0.47
   6  -6 -15    0.91    0.20
  -6   6  15    0.99    0.26
  -6   6  15    0.95    0.19
   6  -6 -14    0.01    0.11
  -6   6  14    0.22    0.11
  -6   6  14   -0.02    0.10
   6  -6 -13    0.24    0.12
   6  -6 -13    0.49    0.11
  -6   6  13    0.25    0.13
   6  -6 -12    2.14    0.21
   6  -6 -12    1.21    0.21
   6  -6 -11    0.79    0.17
   6  -6 -11    0.56    0.13
  -6   6  11    0.46    0.13
   6  -6 -10    1.57    0.17
   6  -6 -10    1.73    0.22
  -6   6  10    1.31    0.19
   6  -6  -9   22.92    1.13
   6  -6  -9   23.89    1.03
  -6   6   9   24.35    1.17
   6  -6  -8    0.81    0.16
   6  -6  -8    1.16    0.12
  -6   6   8    0.90    0.16
   6  -6  -7    4.49    0.28
   6  -6  -7    3.94    0.21
  -6   6   7    4.26    0.26
   6  -6  -6    0.55    0.12
   6  -6  -6    0.34    0.07
  -6   6   6    0.51    0.10
   6  -6  -5    0.77    0.14
   6  -6  -5    0.57    0.07
  -6   6   5    0.47    0.10
   6  -6  -4    2.00    0.18
   6  -6  -4    1.77    0.09
  -6   6   4    2.46    0.17
   6  -6  -3    0.40    0.10
  -6   6   3    0.90    0.13
   6  -6  -2    0.11    0.07
   6  -6  -2    0.07    0.02
  -6   6   2    0.10    0.07
   6  -6  -1   42.17    1.72
  -6   6   1   41.40    1.84
   6  -6   0    1.70    0.16
  -6   6   0    1.80    0.21
   6  -6   1   13.85    0.67
  -6   6  -1   12.96    0.71
   6  -6   2    0.61    0.11
  -6   6  -2    0.60    0.11
   6  -6   3    0.11    0.08
  -6   6  -3   -0.01    0.07
   6  -6   4    3.34    0.25
  -6   6  -4    3.62    0.28
   6  -6   5    0.03    0.07
   6  -6   5    0.02    0.04
  -6   6  -5    0.15    0.09
   6  -6   6   14.05    0.65
   6  -6   6   11.15    0.44
  -6   6  -6   14.77    0.77
   6  -6   7    1.73    0.17
   6  -6   7    1.69    0.13
  -6   6  -7    1.72    0.22
   6  -6   8    8.75    0.51
   6  -6   8    6.08    0.36
  -6   6  -8    7.59    0.46
   6  -6   9    0.13    0.09
   6  -6   9    0.06    0.08
  -6   6  -9    0.08    0.09
   6  -6  10    0.66    0.14
   6  -6  10    0.84    0.14
  -6   6 -10    0.70    0.15
   6  -6  11    2.92    0.30
   6  -6  11    3.02    0.29
  -6   6 -11    2.60    0.29
   6  -6  12    3.04    0.31
   6  -6  12    3.23    0.32
  -6   6 -12    2.97    0.31
   6  -6  13    0.30    0.14
   6  -6  13    0.20    0.14
  -6   6 -13    0.07    0.14
   6  -6  14    0.34    0.14
   6  -6  14    0.07    0.16
  -6   6 -14    0.17    0.14
   6  -6  15    0.62    0.19
   6  -6  15    0.40    0.16
  -6   6 -15    0.13    0.16
   6  -6  16    0.26    0.21
   6  -6  16    0.47    0.16
  -6   6 -16    0.34    0.17
   6  -6  17   -0.16    0.15
  -6   6 -17    0.10    0.12
   6  -6  18    2.08    0.38
   6  -6  18    1.53    0.29
  -6   6 -18    1.11    0.29
   6  -6  19    0.89    0.30
   6  -6  19    0.69    0.22
  -6   6 -19    0.60    0.24
   6  -6  20    0.01    0.19
   6  -6  20    0.24    0.16
  -6   6 -20    0.08    0.17
   6  -6  21    0.46    0.28
  -6   6 -21    0.16    0.21
   6  -5 -21    0.02    0.19
  -6   5  21    0.31    0.24
   6  -5 -20    0.42    0.19
  -6   5  20   -0.24    0.29
   6  -5 -19    0.05    0.14
  -6   5  19    0.54    0.26
   6  -5 -18    0.20    0.13
  -6   5  18    0.10    0.25
   6  -5 -17    0.28    0.13
  -6   5  17    0.02    0.19
   6  -5 -16   -0.08    0.10
  -6   5  16    0.21    0.16
  -6   5  16    0.13    0.10
   6  -5 -15    1.11    0.21
  -6   5  15    0.87    0.24
  -6   5  15    1.09    0.19
   6  -5 -14   -0.04    0.10
  -6   5  14   -0.08    0.08
  -6   5  14    0.11    0.08
   6  -5 -13    0.25    0.12
   6  -5 -13    0.00    0.12
  -6   5  13    0.16    0.11
   6  -5 -12    3.49    0.30
   6  -5 -12    2.97    0.28
  -6   5  12    3.06    0.29
   6  -5 -11   22.06    1.08
   6  -5 -11   21.13    0.97
  -6   5  11   21.32    1.15
   6  -5 -10    0.67    0.15
   6  -5 -10    0.53    0.11
  -6   5  10    0.48    0.13
   6  -5  -9    1.26    0.16
   6  -5  -9    0.73    0.12
  -6   5   9    1.00    0.16
   6  -5  -8    8.04    0.38
   6  -5  -8    8.27    0.48
  -6   5   8    8.90    0.50
   6  -5  -7    4.53    0.27
   6  -5  -7    4.53    0.22
  -6   5   7    4.31    0.29
   6  -5  -6    1.80    0.15
   6  -5  -6    1.60    0.11
  -6   5   6    1.66    0.18
   6  -5  -5    0.47    0.06
   6  -5  -5    0.47    0.12
  -6   5   5    0.55    0.10
   6  -5  -4    0.05    0.05
   6  -5  -4   -0.01    0.03
  -6   5   4    0.01    0.07
   6  -5  -3    0.12    0.05
   6  -5  -3   -0.02    0.02
  -6   5   3   -0.09    0.06
   6  -5  -2    2.11    0.21
  -6   5   2    2.85    0.21
   6  -5  -1   27.98    1.18
  -6   5   1   24.52    1.16
   6  -5   0   39.67    1.56
  -6   5   0   40.00    1.72
   6  -5   1    0.12    0.07
  -6   5  -1    0.12    0.07
   6  -5   2    6.00    0.35
  -6   5  -2    6.05    0.35
   6  -5   3    2.20    0.19
  -6   5  -3    2.18    0.21
   6  -5   4    4.18    0.26
  -6   5  -4    4.04    0.27
   6  -5   5    8.92    0.45
   6  -5   5    6.63    0.24
  -6   5  -5    7.79    0.44
   6  -5   6    8.90    0.53
  -6   5  -6    9.19    0.50
   6  -5   7    8.87    0.52
  -6   5  -7    8.95    0.53
   6  -5   8    0.34    0.09
   6  -5   8    0.14    0.06
  -6   5  -8    0.33    0.10
   6  -5   9    0.03    0.08
  -6   5  -9    0.00    0.06
  -6   5  -9    0.02    0.09
   6  -5  10    0.69    0.14
  -6   5 -10    0.82    0.12
  -6   5 -10    0.74    0.13
   6  -5  11    3.45    0.32
  -6   5 -11    3.01    0.31
  -6   5 -11    3.00    0.24
   6  -5  12    7.71    0.55
  -6   5 -12    9.22    0.65
  -6   5 -12    9.28    0.50
   6  -5  13    5.01    0.44
  -6   5 -13    4.87    0.45
  -6   5 -13    5.39    0.39
   6  -5  14    0.65    0.19
  -6   5 -14    0.78    0.20
  -6   5 -14    1.05    0.17
   6  -5  15    0.15    0.13
  -6   5 -15    0.32    0.15
  -6   5 -15    0.58    0.14
   6  -5  16    1.61    0.27
  -6   5 -16    2.30    0.27
  -6   5 -16    1.18    0.27
   6  -5  17    0.51    0.16
  -6   5 -17    0.67    0.19
  -6   5 -17    0.82    0.16
   6  -5  18    1.54    0.27
  -6   5 -18    1.60    0.28
  -6   5 -18    0.93    0.25
   6  -5  19    0.66    0.21
  -6   5 -19    0.79    0.19
  -6   5 -19    0.39    0.21
   6  -5  20    0.71    0.21
  -6   5 -20    0.24    0.23
   6  -5  21   -0.08    0.15
  -6   5 -21   -0.01    0.16
   6  -4 -21    0.68    0.23
  -6   4  21    0.96    0.31
   6  -4 -20    2.15    0.36
  -6   4  20    4.05    0.61
   6  -4 -19    2.00    0.32
  -6   4  19    3.13    0.53
   6  -4 -18    4.75    0.48
  -6   4  18    6.16    0.73
   6  -4 -17    0.30    0.14
   6  -4 -17    0.33    0.14
  -6   4  17    0.19    0.24
   6  -4 -16    0.51    0.14
   6  -4 -16    0.57    0.17
  -6   4  16    0.10    0.23
   6  -4 -15    4.51    0.42
   6  -4 -15    4.45    0.37
  -6   4  15    5.34    0.55
   6  -4 -14    0.69    0.17
   6  -4 -14    1.37    0.19
  -6   4  14    0.55    0.14
   6  -4 -13    3.71    0.28
   6  -4 -13    3.36    0.29
   6  -4 -13    3.62    0.31
   6  -4 -12    0.64    0.15
   6  -4 -12    0.76    0.15
   6  -4 -11   13.99    0.70
   6  -4 -11   14.05    0.68
   6  -4 -10    0.39    0.11
   6  -4 -10    0.46    0.10
  -6   4  10    0.67    0.13
   6  -4  -9   21.00    0.93
   6  -4  -9   22.48    0.94
  -6   4   9   21.57    1.07
   6  -4  -8    0.39    0.09
   6  -4  -8    0.50    0.09
  -6   4   8    0.44    0.12
   6  -4  -7    1.18    0.14
   6  -4  -7    1.16    0.11
  -6   4   7    0.82    0.14
   6  -4  -6    1.42    0.12
   6  -4  -6    0.95    0.09
  -6   4   6    1.01    0.15
   6  -4  -5    4.78    0.28
   6  -4  -5    4.73    0.18
  -6   4   5    5.03    0.28
   6  -4  -4    0.47    0.10
   6  -4  -4    0.43    0.04
  -6   4   4    0.45    0.11
   6  -4  -3    3.28    0.20
  -6   4   3    3.57    0.23
   6  -4  -2   38.30    1.49
  -6   4   2   31.77    1.39
   6  -4  -1   13.41    0.55
  -6   4   1   14.48    0.63
   6  -4   0   11.52    0.53
  -6   4   0   11.10    0.55
   6  -4   1    5.59    0.29
  -6   4  -1    5.13    0.30
   6  -4   2    5.98    0.34
  -6   4  -2    5.42    0.30
   6  -4   3    0.14    0.07
   6  -4   3    0.01    0.01
  -6   4  -3   -0.08    0.08
   6  -4   4    5.42    0.30
  -6   4  -4    5.92    0.36
   6  -4   5    1.23    0.16
  -6   4  -5    1.26    0.16
   6  -4   6    0.57    0.10
  -6   4  -6    0.43    0.11
  -6   4  -6    0.37    0.05
   6  -4   7    1.11    0.15
  -6   4  -7    0.77    0.12
  -6   4  -7    0.61    0.08
   6  -4   8   12.98    0.64
  -6   4  -8   13.57    0.63
  -6   4  -8   10.25    0.43
   6  -4   9    0.01    0.07
  -6   4  -9    0.14    0.07
  -6   4  -9   -0.01    0.05
   6  -4  10    0.23    0.10
  -6   4 -10    0.39    0.09
  -6   4 -10    0.50    0.10
   6  -4  11    8.56    0.56
  -6   4 -11    8.41    0.45
  -6   4 -11    8.12    0.52
   6  -4  12    9.79    0.62
  -6   4 -12   11.88    0.72
  -6   4 -12   10.92    0.59
   6  -4  13    4.61    0.38
  -6   4 -13    5.39    0.44
  -6   4 -13    4.97    0.37
   6  -4  14    8.21    0.66
  -6   4 -14    7.87    0.55
  -6   4 -14    8.56    0.56
   6  -4  15    0.78    0.18
  -6   4 -15    0.60    0.17
  -6   4 -15    0.67    0.17
   6  -4  16    0.69    0.20
  -6   4 -16    0.49    0.19
  -6   4 -16    1.29    0.20
   6  -4  17    1.45    0.22
  -6   4 -17    1.08    0.23
  -6   4 -17    1.53    0.26
   6  -4  18    1.44    0.25
  -6   4 -18    2.31    0.30
  -6   4 -18    1.28    0.27
   6  -4  19    3.92    0.42
  -6   4 -19    3.23    0.47
  -6   4 -19    5.04    0.50
   6  -4  20    0.89    0.22
  -6   4 -20    1.15    0.24
   6  -4  21    0.19    0.17
  -6   4 -21    0.07    0.14
   6  -4  22   -0.17    0.16
  -6   4 -22    0.06    0.13
   6  -3 -21    0.99    0.29
   6  -3 -20    3.53    0.43
  -6   3  20    3.76    0.65
   6  -3 -19    1.95    0.28
   6  -3 -19    2.15    0.29
  -6   3  19    2.62    0.48
   6  -3 -18    0.48    0.16
   6  -3 -18    0.69    0.20
  -6   3  18    0.49    0.28
   6  -3 -17    4.71    0.45
   6  -3 -17    4.01    0.37
  -6   3  17    4.44    0.57
   6  -3 -16    0.04    0.09
   6  -3 -16   -0.03    0.09
  -6   3  16    0.05    0.12
   6  -3 -15    0.12    0.12
   6  -3 -15    0.37    0.13
  -6   3  15    0.01    0.16
   6  -3 -14    8.25    0.51
   6  -3 -14    8.68    0.52
  -6   3  14    5.73    0.56
   6  -3 -13   45.52    2.13
   6  -3 -13   42.92    2.03
   6  -3 -13   47.12    2.32
   6  -3 -12    0.25    0.11
   6  -3 -12    0.23    0.12
   6  -3 -12    0.24    0.11
   6  -3 -11    0.95    0.14
   6  -3 -11    0.92    0.15
   6  -3 -11    0.64    0.15
   6  -3 -10    1.88    0.19
   6  -3 -10    2.45    0.18
   6  -3 -10    2.49    0.20
   6  -3  -9    0.41    0.09
   6  -3  -9    0.42    0.12
   6  -3  -9    0.39    0.09
   6  -3  -8    1.01    0.15
   6  -3  -8    1.21    0.14
   6  -3  -8    1.10    0.12
   6  -3  -7    0.68    0.11
   6  -3  -7    0.85    0.11
   6  -3  -7    0.41    0.08
   6  -3  -6    0.29    0.06
   6  -3  -6    0.33    0.09
  -6   3   6    0.32    0.08
   6  -3  -5    0.01    0.05
  -6   3   5    0.05    0.07
   6  -3  -4    3.57    0.19
  -6   3   4    3.56    0.16
  -6   3   4    3.54    0.22
   6  -3  -3    1.06    0.14
  -6   3   3    0.85    0.05
  -6   3   3    1.06    0.11
   6  -3  -2    5.18    0.24
  -6   3   2    5.18    0.29
   6  -3  -1    2.77    0.17
  -6   3   1    3.15    0.22
   6  -3   0    2.74    0.20
  -6   3   0    2.51    0.19
   6  -3   1    0.29    0.06
  -6   3  -1    0.05    0.07
   6  -3   2    1.71    0.15
  -6   3  -2    1.13    0.13
   6  -3   3   10.38    0.47
  -6   3  -3    9.86    0.46
   6  -3   4    9.71    0.49
  -6   3  -4   10.17    0.49
   6  -3   5    2.30    0.18
  -6   3  -5    2.35    0.18
   6  -3   6   -0.02    0.07
  -6   3  -6    0.09    0.04
  -6   3  -6    0.11    0.08
   6  -3   7    1.36    0.13
  -6   3  -7    1.44    0.14
  -6   3  -7    0.94    0.09
   6  -3   8    0.01    0.07
  -6   3  -8    0.16    0.07
  -6   3  -8   -0.06    0.05
   6  -3   9    0.44    0.09
  -6   3  -9    0.24    0.10
  -6   3  -9    0.25    0.07
   6  -3  10    1.28    0.19
  -6   3 -10    1.01    0.13
  -6   3 -10    0.99    0.13
   6  -3  11    3.54    0.29
  -6   3 -11    3.27    0.25
  -6   3 -11    3.42    0.27
   6  -3  12    2.18    0.23
  -6   3 -12    2.00    0.22
  -6   3 -12    1.97    0.21
   6  -3  13    0.44    0.13
  -6   3 -13    0.18    0.13
  -6   3 -13    0.62    0.13
   6  -3  14    1.62    0.25
  -6   3 -14    1.44    0.21
  -6   3 -14    1.69    0.23
   6  -3  15    0.25    0.11
  -6   3 -15    0.14    0.11
  -6   3 -15    0.13    0.12
   6  -3  16    0.49    0.17
  -6   3 -16    0.55    0.15
  -6   3 -16    0.39    0.17
   6  -3  17    0.68    0.19
  -6   3 -17    0.70    0.18
  -6   3 -17    0.20    0.15
   6  -3  18    1.35    0.29
  -6   3 -18    1.67    0.28
   6  -3  19    0.83    0.27
  -6   3 -19    1.23    0.26
   6  -3  20    1.60    0.29
  -6   3 -20    2.26    0.35
   6  -3  21    0.09    0.15
  -6   3 -21   -0.02    0.13
   6  -3  22    0.16    0.17
  -6   3 -22    0.26    0.18
   6  -2 -22   -0.05    0.19
   6  -2 -21    0.26    0.21
   6  -2 -20    0.03    0.12
   6  -2 -20   -0.02    0.10
  -6   2  20   -0.04    0.17
   6  -2 -19    0.39    0.15
   6  -2 -19    0.37    0.18
  -6   2  19    0.79    0.24
   6  -2 -18    0.64    0.18
   6  -2 -18    1.03    0.25
  -6   2  18    1.03    0.27
   6  -2 -17    0.84    0.18
   6  -2 -17    1.29    0.19
  -6   2  17    1.15    0.28
   6  -2 -16    1.01    0.13
   6  -2 -16    0.28    0.20
  -6   2  16    0.34    0.23
   6  -2 -15    5.55    0.44
   6  -2 -15    4.70    0.37
  -6   2  15    5.02    0.49
   6  -2 -14    0.67    0.14
   6  -2 -14    0.44    0.13
  -6   2  14    0.56    0.16
   6  -2 -13    0.12    0.09
   6  -2 -13    0.05    0.09
   6  -2 -13    0.08    0.07
   6  -2 -12    6.24    0.39
   6  -2 -12    6.35    0.36
   6  -2 -12    6.77    0.43
   6  -2 -11    1.98    0.19
   6  -2 -11    1.41    0.18
   6  -2 -11    1.74    0.16
   6  -2 -10    0.46    0.11
   6  -2 -10    0.51    0.11
   6  -2 -10    0.55    0.10
   6  -2  -9    0.27    0.09
   6  -2  -9    0.35    0.10
   6  -2  -9    0.33    0.09
   6  -2  -8    2.17    0.16
   6  -2  -8    2.38    0.18
   6  -2  -8    2.07    0.16
   6  -2  -7    5.67    0.30
   6  -2  -7    5.48    0.34
   6  -2  -6    1.37    0.12
   6  -2  -6    1.53    0.14
   6  -2  -5    0.35    0.07
   6  -2  -5    0.34    0.08
  -6   2   5    0.11    0.06
   6  -2  -4    0.04    0.05
   6  -2  -4   -0.06    0.05
  -6   2   4    0.06    0.03
   6  -2  -3   22.78    0.81
  -6   2   3   22.94    0.92
  -6   2   3   20.13    0.54
   6  -2  -2    2.46    0.16
  -6   2   2    2.31    0.17
   6  -2  -1    7.10    0.29
  -6   2   1    6.86    0.38
   6  -2   0    2.35    0.17
  -6   2   0    2.52    0.17
   6  -2   1    9.57    0.44
  -6   2  -1   10.45    0.48
   6  -2   2    0.38    0.08
  -6   2  -2    0.46    0.08
   6  -2   3    2.58    0.20
  -6   2  -3    2.27    0.19
   6  -2   4    3.16    0.20
  -6   2  -4    3.08    0.19
   6  -2   5    0.10    0.08
  -6   2  -5   -0.02    0.05
  -6   2  -5    0.03    0.04
   6  -2   6    3.66    0.25
  -6   2  -6    3.72    0.22
  -6   2  -6    3.14    0.17
   6  -2   7   -0.06    0.07
  -6   2  -7    0.03    0.05
  -6   2  -7   -0.10    0.05
   6  -2   8    0.66    0.12
  -6   2  -8    0.67    0.09
  -6   2  -8    0.52    0.09
   6  -2   9    0.71    0.14
  -6   2  -9    0.37    0.09
  -6   2  -9    0.41    0.08
   6  -2  10    2.20    0.21
  -6   2 -10    1.95    0.15
  -6   2 -10    2.32    0.19
   6  -2  11    2.02    0.20
  -6   2 -11    1.92    0.18
  -6   2 -11    1.29    0.17
   6  -2  12   22.27    1.27
  -6   2 -12   22.23    1.09
  -6   2 -12   22.64    1.12
   6  -2  13    1.57    0.23
  -6   2 -13    1.75    0.21
  -6   2 -13    1.30    0.19
   6  -2  14    4.63    0.45
  -6   2 -14    4.86    0.38
  -6   2 -14    4.07    0.33
   6  -2  15    0.09    0.16
  -6   2 -15    0.27    0.11
  -6   2 -15    0.43    0.14
   6  -2  16   -0.15    0.15
  -6   2 -16   -0.02    0.10
  -6   2 -16   -0.19    0.10
   6  -2  17    0.23    0.13
  -6   2 -17   -0.12    0.12
  -6   2 -17   -0.08    0.09
   6  -2  18   -0.04    0.14
  -6   2 -18    0.05    0.11
   6  -2  19    0.04    0.16
  -6   2 -19    0.09    0.15
   6  -2  20    0.27    0.20
  -6   2 -20    0.53    0.22
   6  -2  21    0.33    0.15
  -6   2 -21   -0.20    0.12
   6  -2  22   -0.01    0.17
  -6   2 -22    0.05    0.16
  -6   1  22    0.08    0.25
  -6   1  21    5.52    0.73
   6  -1 -20    0.68    0.17
  -6   1  20    0.27    0.19
   6  -1 -19    0.58    0.18
  -6   1  19    0.53    0.25
   6  -1 -18    2.09    0.32
   6  -1 -18    2.59    0.29
  -6   1  18    2.75    0.41
   6  -1 -17    0.84    0.16
   6  -1 -17    1.05    0.24
  -6   1  17    1.21    0.25
   6  -1 -16    1.37    0.20
   6  -1 -16    1.48    0.26
  -6   1  16    1.17    0.27
   6  -1 -15    4.16    0.40
   6  -1 -15    4.08    0.34
  -6   1  15    3.81    0.43
   6  -1 -14    0.83    0.12
   6  -1 -14    0.68    0.18
  -6   1  14    0.81    0.17
   6  -1 -13    0.35    0.12
   6  -1 -13    0.39    0.09
   6  -1 -13    0.06    0.08
   6  -1 -12    1.98    0.20
   6  -1 -12    1.62    0.15
   6  -1 -11   -0.06    0.08
   6  -1 -11    0.13    0.06
  -6   1  11    0.04    0.06
   6  -1 -10   -0.08    0.07
   6  -1 -10    0.03    0.05
  -6   1  10   -0.00    0.07
   6  -1  -9   -0.06    0.06
   6  -1  -9    0.09    0.05
  -6   1   9    0.07    0.08
   6  -1  -8    0.42    0.10
   6  -1  -8    0.30    0.07
  -6   1   8    0.28    0.10
   6  -1  -7    1.86    0.12
   6  -1  -7    1.51    0.14
  -6   1   7    2.21    0.17
   6  -1  -6    0.46    0.08
   6  -1  -6    0.48    0.10
  -6   1   6    0.37    0.08
   6  -1  -5    4.47    0.20
   6  -1  -5    4.21    0.25
  -6   1   5    4.44    0.20
   6  -1  -4   47.02    1.63
   6  -1  -4   42.42    1.65
  -6   1   4   39.61    1.26
   6  -1  -3   -0.02    0.06
   6  -1  -3    0.03    0.07
  -6   1   3   -0.08    0.04
   6  -1  -2   31.58    1.17
   6  -1  -2   31.62    1.08
   6  -1  -1    0.34    0.06
  -6   1   1    0.26    0.08
   6  -1   0    0.96    0.10
  -6   1   0    1.12    0.12
  -6   1   0    0.86    0.05
   6  -1   1    1.16    0.10
  -6   1  -1    1.00    0.12
  -6   1  -1    0.84    0.05
   6  -1   2    2.07    0.15
  -6   1  -2    1.79    0.08
  -6   1  -2    1.92    0.16
   6  -1   3    0.24    0.07
  -6   1  -3    0.18    0.04
  -6   1  -3    0.15    0.08
   6  -1   4    4.55    0.29
  -6   1  -4    4.29    0.25
  -6   1  -4    3.82    0.16
   6  -1   5    2.54    0.21
  -6   1  -5    2.00    0.11
  -6   1  -5    2.20    0.15
   6  -1   6    5.34    0.31
  -6   1  -6    6.22    0.31
  -6   1  -6    5.60    0.24
   6  -1   7   -0.02    0.09
  -6   1  -7    0.14    0.06
  -6   1  -7   -0.03    0.05
  -6   1  -8    0.21    0.07
  -6   1  -8    0.17    0.07
   6  -1   9    0.27    0.10
  -6   1  -9    0.22    0.08
  -6   1  -9    0.31    0.07
   6  -1  10    0.14    0.10
  -6   1 -10    0.13    0.08
  -6   1 -10    0.11    0.07
   6  -1  11    1.51    0.20
  -6   1 -11    1.43    0.17
  -6   1 -11    1.28    0.15
   6  -1  12    0.48    0.18
  -6   1 -12    0.35    0.10
  -6   1 -12    0.46    0.11
   6  -1  13    3.44    0.33
  -6   1 -13    3.54    0.33
  -6   1 -13    2.63    0.25
   6  -1  14   -0.23    0.13
  -6   1 -14    0.06    0.07
  -6   1 -14    0.11    0.11
   6  -1  15    0.37    0.16
  -6   1 -15    0.10    0.09
  -6   1 -15   -0.02    0.12
   6  -1  16    0.71    0.22
  -6   1 -16    0.52    0.17
  -6   1 -16    0.26    0.11
   6  -1  17    2.33    0.35
  -6   1 -17    1.39    0.24
   6  -1  18    0.61    0.26
  -6   1 -18    0.70    0.21
   6  -1  19    4.99    0.55
  -6   1 -19    4.59    0.46
   6  -1  20    1.26    0.38
  -6   1 -20    1.56    0.32
   6  -1  21   -0.20    0.21
  -6   1 -21   -0.08    0.19
   6  -1  22    0.31    0.20
  -6   1 -22    0.31    0.19
  -6   0  22    0.27    0.26
   6   0 -21    5.69    0.59
  -6   0  21    7.15    0.93
   6   0 -20    6.37    0.63
  -6   0  20    7.72    0.84
   6   0 -19    5.90    0.54
  -6   0  19    6.71    0.74
   6   0 -18    1.16    0.18
  -6   0  18    1.10    0.35
   6   0 -17    0.15    0.13
  -6   0  17    0.20    0.19
  -6   0  17    0.13    0.15
   6   0 -16    2.13    0.23
  -6   0  16    2.81    0.41
  -6   0  16    2.12    0.30
   6   0 -15    2.09    0.27
  -6   0  15    2.65    0.36
  -6   0  15    2.17    0.29
   6   0 -14    1.34    0.23
  -6   0  14    1.50    0.25
  -6   0  14    2.45    0.24
   6   0 -13    5.43    0.36
  -6   0  13    5.44    0.52
   6   0 -12    0.62    0.12
   6   0 -12    0.56    0.09
  -6   0  12    0.62    0.19
   6   0 -11    0.34    0.11
   6   0 -11    0.28    0.07
  -6   0  11    0.21    0.13
   6   0 -10    1.12    0.13
   6   0 -10    0.96    0.10
  -6   0  10    0.84    0.14
   6   0  -9    7.57    0.44
   6   0  -9    7.58    0.32
  -6   0   9    8.22    0.48
   6   0  -8    0.16    0.09
   6   0  -8    0.16    0.06
  -6   0   8    0.02    0.08
   6   0  -7    6.75    0.34
   6   0  -7    6.78    0.27
  -6   0   7    7.28    0.37
   6   0  -6   10.20    0.38
   6   0  -6    9.25    0.47
  -6   0   6    9.68    0.43
   6   0  -5    0.37    0.08
   6   0  -5    0.45    0.08
  -6   0   5    0.38    0.07
   6   0  -4    0.12    0.06
   6   0  -4    0.17    0.08
  -6   0   4    0.23    0.05
   6   0  -3    0.81    0.09
   6   0  -3    0.90    0.09
  -6   0   3    0.82    0.07
   6   0  -2   14.90    0.55
   6   0  -2   16.66    0.65
  -6   0   2   15.34    0.46
   6   0  -1    0.13    0.06
   6   0  -1    0.12    0.07
  -6   0   1    0.02    0.03
   6   0   0    0.77    0.10
   6   0   0    0.56    0.10
  -6   0   0    0.70    0.06
   6   0   1    9.86    0.41
  -6   0  -1    9.42    0.40
  -6   0  -1    8.85    0.27
   6   0   2    3.45    0.21
  -6   0  -2    3.28    0.20
  -6   0  -2    2.69    0.12
   6   0   3    2.40    0.16
  -6   0  -3    2.02    0.14
  -6   0  -3    1.97    0.11
   6   0   4   -0.11    0.08
  -6   0  -4   -0.13    0.06
  -6   0  -4   -0.02    0.04
   6   0   5    0.67    0.13
  -6   0  -5    0.62    0.09
  -6   0  -5    0.49    0.07
   6   0   6    3.05    0.24
  -6   0  -6    3.16    0.18
  -6   0  -6    3.15    0.19
   6   0   7    7.88    0.51
  -6   0  -7    8.68    0.39
  -6   0  -7    8.20    0.37
   6   0   8    0.40    0.12
  -6   0  -8    0.43    0.08
  -6   0  -8    0.43    0.09
   6   0   9    1.70    0.23
  -6   0  -9    1.13    0.12
  -6   0  -9    1.34    0.12
   6   0  10    2.78    0.32
  -6   0 -10    2.95    0.20
  -6   0 -10    2.60    0.18
   6   0  11    0.71    0.16
  -6   0 -11    0.40    0.09
  -6   0 -11    0.83    0.14
   6   0  12    1.25    0.23
  -6   0 -12    1.36    0.15
  -6   0 -12    1.66    0.20
   6   0  13   34.66    2.13
  -6   0 -13   33.18    1.56
  -6   0 -13   35.28    1.90
   6   0  14   29.10    1.91
  -6   0 -14   29.09    1.69
   6   0  15    3.45    0.41
  -6   0 -15    3.48    0.37
   6   0  16   13.61    1.01
  -6   0 -16   13.08    0.95
   6   0  17    0.84    0.22
  -6   0 -17    0.73    0.22
   6   0  18    0.03    0.18
  -6   0 -18    0.12    0.15
   6   0  19    1.52    0.32
  -6   0 -19    1.73    0.33
   6   0  20    2.06    0.46
  -6   0 -20    2.20    0.33
   6   0  21   -0.12    0.19
  -6   0 -21   -0.02    0.17
  -6   0 -22    1.45    0.37
   6   1 -22   -0.07    0.12
  -6  -1  22    0.04    0.19
   6   1 -21    1.66    0.32
  -6  -1  21    2.17    0.44
   6   1 -20    2.63    0.39
  -6  -1  20    2.94    0.56
   6   1 -19    0.80    0.18
  -6  -1  19    1.02    0.35
   6   1 -18    1.75    0.26
  -6  -1  18    2.54    0.44
   6   1 -17    0.01    0.13
  -6  -1  17    0.32    0.19
   6   1 -16    0.31    0.15
  -6  -1  16    0.35    0.21
   6   1 -15    0.49    0.17
  -6  -1  15    0.37    0.17
  -6  -1  15    0.41    0.14
   6   1 -14    6.70    0.47
  -6  -1  14    7.15    0.63
  -6  -1  14    6.67    0.45
   6   1 -13    0.66    0.19
  -6  -1  13    0.91    0.15
  -6  -1  13    1.36    0.20
   6   1 -12   -0.06    0.10
   6   1 -12   -0.04    0.04
  -6  -1  12    0.09    0.12
   6   1 -11    0.09    0.09
   6   1 -11    0.15    0.05
  -6  -1  11    0.01    0.11
   6   1 -10   11.85    0.61
   6   1 -10   11.03    0.40
  -6  -1  10   12.00    0.68
   6   1  -9    2.36    0.25
   6   1  -9    2.53    0.14
  -6  -1   9    2.43    0.24
   6   1  -8   23.29    1.06
  -6  -1   8   22.63    1.05
   6   1  -7    7.68    0.45
   6   1  -7    7.40    0.27
  -6  -1   7    7.54    0.41
   6   1  -6   13.37    0.60
  -6  -1   6   12.97    0.58
   6   1  -5    5.20    0.21
   6   1  -5    5.42    0.31
  -6  -1   5    5.61    0.24
   6   1  -4   14.28    0.46
   6   1  -4   12.53    0.56
  -6  -1   4   12.04    0.44
   6   1  -3   13.62    0.47
   6   1  -3   13.40    0.55
  -6  -1   3   13.85    0.48
   6   1  -2    0.43    0.07
   6   1  -2    0.37    0.09
  -6  -1   2    0.37    0.06
   6   1  -1    1.04    0.10
   6   1  -1    1.09    0.10
  -6  -1   1    0.91    0.08
   6   1   0    1.24    0.13
   6   1   0    1.36    0.12
  -6  -1   0    1.19    0.09
   6   1   1   15.92    0.58
   6   1   1   16.74    0.67
  -6  -1  -1   14.83    0.51
   6   1   2    0.22    0.09
  -6  -1  -2    0.16    0.04
  -6  -1  -2    0.41    0.05
   6   1   3    1.84    0.16
  -6  -1  -3    1.86    0.14
  -6  -1  -3    1.73    0.10
   6   1   4   25.66    1.10
  -6  -1  -4   25.40    0.96
  -6  -1  -4   23.62    0.84
   6   1   5   21.92    1.05
  -6  -1  -5   20.05    0.76
  -6  -1  -5   22.23    0.83
   6   1   6    2.65    0.21
  -6  -1  -6    2.44    0.17
  -6  -1  -6    2.57    0.18
   6   1   7    1.53    0.22
  -6  -1  -7    1.62    0.13
  -6  -1  -7    1.81    0.14
   6   1   8   -0.10    0.08
  -6  -1  -8    0.08    0.05
  -6  -1  -8   -0.00    0.07
   6   1   9    0.31    0.13
  -6  -1  -9    0.43    0.08
  -6  -1  -9    0.29    0.10
   6   1  10    6.23    0.51
  -6  -1 -10    5.25    0.27
  -6  -1 -10    6.55    0.40
   6   1  11    4.02    0.36
  -6  -1 -11    4.20    0.32
  -6  -1 -11    3.79    0.24
   6   1  12    4.21    0.39
  -6  -1 -12    2.59    0.18
  -6  -1 -12    3.70    0.28
   6   1  13    6.84    0.64
  -6  -1 -13    6.70    0.54
   6   1  14    3.41    0.45
  -6  -1 -14    3.02    0.35
   6   1  15    1.21    0.30
  -6  -1 -15    1.56    0.25
   6   1  16   -0.11    0.12
  -6  -1 -16    0.10    0.12
   6   1  17   -0.04    0.14
  -6  -1 -17    0.19    0.12
   6   1  18    1.81    0.40
  -6  -1 -18    2.35    0.31
   6   1  19   -0.13    0.16
  -6  -1 -19    0.47    0.19
   6   1  20    0.03    0.15
  -6  -1 -20    0.01    0.16
   6   1  21    0.03    0.17
  -6  -1 -21   -0.05    0.17
   6   2 -22    0.74    0.24
  -6  -2  22    0.25    0.29
   6   2 -21    1.31    0.30
  -6  -2  21    1.38    0.38
   6   2 -20   -0.07    0.15
  -6  -2  20   -0.06    0.18
   6   2 -19    0.72    0.24
  -6  -2  19    1.04    0.28
   6   2 -18    0.16    0.15
  -6  -2  18    0.22    0.18
   6   2 -17    0.64    0.20
  -6  -2  17    0.59    0.22
   6   2 -16    5.22    0.45
  -6  -2  16    5.79    0.61
   6   2 -15    9.55    0.68
  -6  -2  15    9.19    0.73
   6   2 -14    3.54    0.33
  -6  -2  14    4.04    0.38
   6   2 -13    0.22    0.10
  -6  -2  13    0.11    0.12
   6   2 -12    1.77    0.24
  -6  -2  12    1.64    0.13
  -6  -2  12    1.95    0.23
   6   2 -11    4.22    0.31
   6   2 -11    4.05    0.17
  -6  -2  11    4.18    0.37
   6   2 -10    0.97    0.14
   6   2 -10    0.71    0.07
  -6  -2  10    0.94    0.16
   6   2  -9    7.52    0.50
   6   2  -9    8.10    0.27
  -6  -2   9    9.22    0.49
   6   2  -8    4.37    0.29
   6   2  -8    4.73    0.19
  -6  -2   8    4.45    0.32
   6   2  -7   10.17    0.51
   6   2  -7   10.52    0.35
  -6  -2   7   10.88    0.54
   6   2  -6    2.17    0.16
   6   2  -6    2.26    0.14
  -6  -2   6    2.10    0.19
   6   2  -5   12.76    0.43
   6   2  -5   12.74    0.61
  -6  -2   5   11.68    0.48
   6   2  -4   10.88    0.36
   6   2  -4   11.93    0.52
  -6  -2   4   10.61    0.46
   6   2  -3    0.04    0.04
   6   2  -3    0.13    0.06
  -6  -2   3    0.10    0.05
   6   2  -2    5.31    0.24
   6   2  -2    5.49    0.27
  -6  -2   2    5.10    0.22
   6   2  -1    0.33    0.06
   6   2  -1    0.09    0.06
  -6  -2   1    0.10    0.06
   6   2   0   15.95    0.64
   6   2   0   16.94    0.69
  -6  -2   0   15.08    0.57
   6   2   1    0.45    0.08
   6   2   1    0.45    0.10
  -6  -2  -1    0.28    0.07
   6   2   2    5.49    0.31
   6   2   2    5.09    0.25
  -6  -2  -2    4.65    0.21
   6   2   3    9.74    0.38
   6   2   3   10.87    0.53
  -6  -2  -3    8.64    0.35
   6   2   4   11.08    0.57
  -6  -2  -4   11.44    0.48
  -6  -2  -4   10.82    0.47
   6   2   5    1.13    0.17
  -6  -2  -5    1.04    0.11
  -6  -2  -5    1.14    0.11
   6   2   6    0.96    0.15
  -6  -2  -6    1.13    0.10
  -6  -2  -6    1.04    0.13
   6   2   7    0.20    0.13
  -6  -2  -7    0.47    0.07
  -6  -2  -7    0.36    0.09
   6   2   8    0.35    0.15
  -6  -2  -8    0.33    0.06
  -6  -2  -8    0.19    0.09
   6   2   9    0.79    0.19
  -6  -2  -9    0.59    0.08
  -6  -2  -9    0.50    0.12
   6   2  10    0.67    0.16
  -6  -2 -10    0.65    0.15
  -6  -2 -10    0.54    0.08
   6   2  11    3.40    0.36
  -6  -2 -11    3.44    0.30
  -6  -2 -11    2.36    0.16
   6   2  12    0.94    0.19
  -6  -2 -12    0.25    0.13
   6   2  13    6.49    0.65
  -6  -2 -13    6.43    0.53
   6   2  14   -0.06    0.15
  -6  -2 -14    0.14    0.12
   6   2  15    0.34    0.16
  -6  -2 -15    0.29    0.17
   6   2  16    0.43    0.20
  -6  -2 -16    0.65    0.17
   6   2  17    1.84    0.42
  -6  -2 -17    2.52    0.37
   6   2  18    0.99    0.29
  -6  -2 -18    1.54    0.32
   6   2  19    0.40    0.28
  -6  -2 -19    0.68    0.26
   6   2  20    0.98    0.33
  -6  -2 -20    0.93    0.31
   6   2  21   -0.04    0.22
  -6  -2 -21   -0.13    0.20
   6   3 -21    0.67    0.26
  -6  -3  21    1.17    0.33
   6   3 -20    0.33    0.21
  -6  -3  20    0.39    0.23
   6   3 -19    0.23    0.17
  -6  -3  19    0.13    0.23
   6   3 -18    5.87    0.57
  -6  -3  18    4.84    0.69
   6   3 -17    0.81    0.22
  -6  -3  17    0.88    0.25
   6   3 -16    2.98    0.34
  -6  -3  16    3.51    0.50
   6   3 -15    4.85    0.47
  -6  -3  15    4.28    0.45
   6   3 -14    0.20    0.12
  -6  -3  14    0.25    0.14
   6   3 -13   -0.19    0.13
  -6  -3  13   -0.04    0.11
   6   3 -12    3.95    0.36
  -6  -3  12    4.27    0.43
   6   3 -11    5.75    0.39
  -6  -3  11    5.92    0.48
   6   3 -10    0.11    0.12
  -6  -3  10    0.31    0.14
   6   3  -9   13.34    0.77
  -6  -3   9   15.52    0.81
   6   3  -8    0.06    0.07
  -6  -3   8   -0.07    0.07
   6   3  -7    1.37    0.16
   6   3  -7    1.53    0.08
  -6  -3   7    1.76    0.19
   6   3  -6    0.32    0.09
   6   3  -6    0.42    0.06
  -6  -3   6    0.32    0.08
   6   3  -5    0.50    0.06
   6   3  -5    0.89    0.10
  -6  -3   5    0.70    0.11
   6   3  -4    0.32    0.05
   6   3  -4    0.29    0.10
  -6  -3   4    0.37    0.09
   6   3  -3    0.21    0.05
   6   3  -3    0.11    0.09
  -6  -3   3    0.20    0.08
   6   3  -2    0.98    0.14
   6   3  -2    1.02    0.10
  -6  -3   2    0.94    0.12
   6   3  -1    0.66    0.09
   6   3  -1    0.42    0.08
  -6  -3   1    0.28    0.07
   6   3   0    3.36    0.21
   6   3   0    3.08    0.20
  -6  -3   0    2.81    0.19
   6   3   1    0.55    0.10
   6   3   1    0.90    0.10
  -6  -3  -1    0.78    0.10
   6   3   2    0.79    0.09
   6   3   2    0.93    0.14
  -6  -3  -2    0.58    0.08
   6   3   3   11.59    0.48
   6   3   3   12.12    0.64
  -6  -3  -3   12.37    0.52
   6   3   4    3.52    0.18
   6   3   4    4.09    0.29
  -6  -3  -4    3.32    0.19
   6   3   5    4.17    0.31
  -6  -3  -5    3.74    0.20
  -6  -3  -5    3.58    0.26
   6   3   6    2.66    0.25
  -6  -3  -6    2.96    0.22
   6   3   7    3.78    0.30
  -6  -3  -7    3.72    0.19
  -6  -3  -7    4.09    0.25
   6   3   8    0.94    0.16
  -6  -3  -8    0.74    0.13
  -6  -3  -8    0.63    0.07
   6   3   9    1.62    0.24
  -6  -3  -9    1.08    0.09
  -6  -3  -9    1.53    0.17
   6   3  10    2.76    0.30
  -6  -3 -10    2.47    0.30
   6   3  11    1.96    0.27
  -6  -3 -11    1.99    0.23
   6   3  12    0.51    0.19
  -6  -3 -12    0.99    0.17
   6   3  13   -0.20    0.11
  -6  -3 -13    0.10    0.09
   6   3  14   -0.22    0.14
  -6  -3 -14   -0.05    0.12
   6   3  15    0.32    0.20
  -6  -3 -15    0.11    0.17
   6   3  16    0.46    0.19
  -6  -3 -16    0.28    0.16
   6   3  17    3.68    0.59
  -6  -3 -17    4.40    0.55
   6   3  18    1.03    0.30
  -6  -3 -18    1.50    0.34
   6   3  19    1.08    0.35
  -6  -3 -19    0.83    0.28
   6   3  20    0.14    0.28
  -6  -3 -20    0.48    0.21
   6   3  21    0.02    0.18
  -6  -3 -21    0.10    0.16
   6   4 -21    0.87    0.24
  -6  -4  21    1.20    0.39
   6   4 -20    2.54    0.45
  -6  -4  20    3.22    0.57
   6   4 -19    0.97    0.29
  -6  -4  19    1.19    0.31
   6   4 -18    1.36    0.25
  -6  -4  18    1.31    0.29
   6   4 -17    0.34    0.15
  -6  -4  17    0.11    0.23
   6   4 -16    0.77    0.25
  -6  -4  16    1.34    0.30
   6   4 -15    4.38    0.48
  -6  -4  15    5.02    0.50
   6   4 -14    0.85    0.18
  -6  -4  14    0.99    0.22
   6   4 -13    0.24    0.12
  -6  -4  13    0.11    0.16
   6   4 -12    0.58    0.19
  -6  -4  12    0.55    0.16
   6   4 -11    0.07    0.11
  -6  -4  11   -0.01    0.10
   6   4 -10   37.27    2.01
  -6  -4  10   40.00    2.05
   6   4  -9    1.07    0.19
  -6  -4   9    0.64    0.19
   6   4  -8    0.03    0.07
  -6  -4   8   -0.04    0.09
   6   4  -7    0.26    0.11
   6   4  -7    0.21    0.04
  -6  -4   7    0.35    0.11
   6   4  -6    0.35    0.08
   6   4  -6    0.10    0.04
  -6  -4   6    0.24    0.09
   6   4  -5    0.50    0.05
   6   4  -5    0.54    0.12
  -6  -4   5    0.79    0.12
   6   4  -4    2.20    0.12
   6   4  -4    2.76    0.22
  -6  -4   4    2.51    0.20
   6   4  -3    9.23    0.49
   6   4  -3    8.77    0.33
  -6  -4   3    8.88    0.45
   6   4  -2    0.33    0.11
   6   4  -2    0.35    0.08
  -6  -4   2    0.65    0.10
   6   4  -1    6.28    0.32
   6   4  -1    6.67    0.31
  -6  -4   1    5.05    0.28
   6   4   0   -0.12    0.07
  -6  -4   0    0.11    0.06
   6   4   1    8.17    0.39
   6   4   1    8.20    0.43
  -6  -4  -1    8.02    0.42
   6   4   2    4.27    0.24
  -6  -4  -2    4.17    0.24
   6   4   3   11.89    0.49
   6   4   3   10.95    0.61
  -6  -4  -3   10.69    0.51
   6   4   4    1.23    0.10
   6   4   4    1.26    0.17
  -6  -4  -4    0.98    0.11
   6   4   5    0.79    0.15
  -6  -4  -5    1.21    0.13
   6   4   6    0.99    0.16
  -6  -4  -6    0.90    0.15
  -6  -4  -6    0.97    0.10
   6   4   7    0.98    0.16
  -6  -4  -7    0.85    0.13
  -6  -4  -7    0.84    0.09
   6   4   8    0.35    0.15
  -6  -4  -8    0.17    0.10
  -6  -4  -8    0.26    0.06
   6   4   9    0.14    0.12
  -6  -4  -9    0.19    0.10
   6   4  10    1.51    0.29
  -6  -4 -10    1.28    0.24
   6   4  11    0.03    0.14
  -6  -4 -11    0.02    0.09
   6   4  12    0.74    0.19
  -6  -4 -12    0.17    0.14
   6   4  13    0.12    0.19
  -6  -4 -13    0.20    0.13
   6   4  14    0.77    0.23
  -6  -4 -14    0.78    0.19
   6   4  15   -0.17    0.17
  -6  -4 -15    0.14    0.14
   6   4  16    0.77    0.23
  -6  -4 -16    0.59    0.21
   6   4  17    0.39    0.29
  -6  -4 -17    0.86    0.27
   6   4  18    2.86    0.49
  -6  -4 -18    3.18    0.44
   6   4  19   -0.10    0.18
  -6  -4 -19   -0.12    0.22
   6   4  20    0.13    0.31
  -6  -4 -20    0.64    0.28
   6   5 -21    0.15    0.19
  -6  -5  21    0.01    0.20
   6   5 -20    1.62    0.36
  -6  -5  20    1.56    0.38
   6   5 -19    0.99    0.29
  -6  -5  19    0.87    0.38
   6   5 -18    1.12    0.29
  -6  -5  18    1.20    0.31
   6   5 -17    2.65    0.36
  -6  -5  17    3.36    0.49
   6   5 -16    0.26    0.15
  -6  -5  16    0.27    0.18
   6   5 -15    0.13    0.14
  -6  -5  15   -0.04    0.13
   6   5 -14    0.40    0.16
  -6  -5  14    0.33    0.17
   6   5 -13   -0.02    0.15
  -6  -5  13    0.26    0.15
   6   5 -12    0.28    0.12
  -6  -5  12    0.09    0.14
   6   5 -11   10.40    0.68
  -6  -5  11   11.02    0.72
   6   5 -10   36.41    2.02
  -6  -5  10   39.41    2.26
   6   5  -9    0.45    0.13
  -6  -5   9    0.70    0.15
   6   5  -8    5.08    0.37
  -6  -5   8    4.78    0.39
   6   5  -7   23.10    1.21
  -6  -5   7   21.24    1.07
   6   5  -6    0.99    0.17
   6   5  -6    0.70    0.06
  -6  -5   6    0.96    0.16
   6   5  -5    0.82    0.18
  -6  -5   5    1.50    0.14
   6   5  -4   19.97    0.99
   6   5  -4   19.81    0.68
  -6  -5   4   20.90    0.97
   6   5  -3    2.86    0.21
   6   5  -3    2.62    0.15
  -6  -5   3    2.78    0.20
   6   5  -2   18.56    0.88
   6   5  -2   18.90    0.76
  -6  -5   2   17.41    0.78
   6   5  -1    2.24    0.18
   6   5  -1    2.49    0.17
  -6  -5   1    2.38    0.21
   6   5   0    0.64    0.12
   6   5   0    0.52    0.12
  -6  -5   0    0.70    0.13
   6   5   1    4.71    0.27
   6   5   1    4.14    0.26
  -6  -5  -1    4.45    0.27
   6   5   2   -0.12    0.06
   6   5   2   -0.03    0.08
  -6  -5  -2    0.12    0.06
   6   5   3   12.46    0.53
   6   5   3   10.92    0.62
  -6  -5  -3   11.98    0.58
   6   5   4    6.36    0.45
  -6  -5  -4    5.95    0.40
   6   5   5    1.34    0.11
   6   5   5    1.58    0.18
  -6  -5  -5    1.68    0.19
   6   5   6    0.16    0.11
  -6  -5  -6    0.23    0.06
  -6  -5  -6    0.12    0.12
   6   5   7    0.52    0.17
  -6  -5  -7    0.40    0.06
  -6  -5  -7    0.56    0.12
   6   5   8    5.47    0.50
  -6  -5  -8    6.74    0.43
   6   5   9    1.96    0.34
  -6  -5  -9    2.26    0.29
   6   5  10    0.37    0.21
  -6  -5 -10    0.43    0.14
   6   5  11    4.76    0.57
  -6  -5 -11    4.96    0.49
   6   5  12    0.01    0.16
  -6  -5 -12    0.06    0.13
   6   5  13    0.87    0.23
  -6  -5 -13    0.69    0.24
   6   5  14   -0.08    0.16
  -6  -5 -14    0.23    0.16
   6   5  15   -0.14    0.19
  -6  -5 -15    0.19    0.14
   6   5  16    1.93    0.36
  -6  -5 -16    1.28    0.35
   6   5  17    0.62    0.30
  -6  -5 -17    1.25    0.30
   6   5  18   -0.17    0.23
  -6  -5 -18   -0.02    0.19
   6   5  19    0.90    0.37
  -6  -5 -19    0.63    0.27
   6   6 -20    1.06    0.33
  -6  -6  20    1.24    0.42
   6   6 -19   -0.14    0.21
  -6  -6  19    0.81    0.26
   6   6 -18    0.03    0.16
  -6  -6  18    0.00    0.15
   6   6 -17    0.95    0.23
  -6  -6  17    0.82    0.28
   6   6 -16    0.48    0.20
  -6  -6  16    1.15    0.24
   6   6 -15    0.20    0.22
  -6  -6  15    0.86    0.20
   6   6 -14    1.08    0.21
  -6  -6  14    1.04    0.24
   6   6 -13    1.47    0.29
  -6  -6  13    1.93    0.33
   6   6 -12   -0.04    0.11
  -6  -6  12    0.14    0.12
   6   6 -11   15.85    1.04
  -6  -6  11   15.76    1.07
   6   6 -10    0.65    0.18
  -6  -6  10    0.77    0.17
   6   6  -9   16.95    1.02
  -6  -6   9   16.61    1.01
   6   6  -8   17.58    1.02
  -6  -6   8   18.56    1.12
   6   6  -7    0.24    0.14
  -6  -6   7    0.32    0.14
   6   6  -6    0.71    0.13
  -6  -6   6    0.37    0.12
   6   6  -5    5.42    0.36
  -6  -6   5    5.06    0.40
   6   6  -4    0.14    0.07
   6   6  -4   -0.04    0.04
  -6  -6   4   -0.03    0.08
   6   6  -3    3.62    0.20
   6   6  -3    3.86    0.31
  -6  -6   3    3.93    0.31
   6   6  -2    0.58    0.11
   6   6  -2    0.35    0.10
  -6  -6   2    0.77    0.11
   6   6  -1    1.28    0.14
   6   6  -1    1.11    0.14
  -6  -6   1    1.31    0.15
   6   6   0    1.06    0.14
   6   6   0    0.89    0.13
  -6  -6   0    0.69    0.16
   6   6   1    0.41    0.11
   6   6   1    0.60    0.12
  -6  -6  -1    0.62    0.14
   6   6   2    0.06    0.08
   6   6   2   -0.05    0.10
  -6  -6  -2    0.27    0.08
   6   6   3   10.96    0.66
   6   6   3   11.02    0.50
  -6  -6  -3   10.28    0.62
   6   6   4    7.58    0.37
   6   6   4    6.87    0.49
  -6  -6  -4    8.38    0.47
   6   6   5    0.59    0.09
   6   6   5    0.71    0.15
  -6  -6  -5    0.82    0.13
   6   6   6    3.01    0.31
  -6  -6  -6    3.17    0.26
   6   6   7    7.49    0.65
  -6  -6  -7    7.54    0.48
   6   6   8    2.57    0.29
  -6  -6  -8    2.14    0.26
   6   6   9    6.95    0.61
  -6  -6  -9    8.35    0.64
   6   6  10    1.53    0.32
  -6  -6 -10    1.68    0.24
   6   6  11   -0.17    0.12
  -6  -6 -11    0.28    0.14
   6   6  12    0.17    0.12
  -6  -6 -12   -0.20    0.12
   6   6  13    2.05    0.41
  -6  -6 -13    2.06    0.35
   6   6  14    0.01    0.16
  -6  -6 -14    0.15    0.17
   6   6  15   -0.01    0.20
  -6  -6 -15    0.50    0.18
   6   6  16   -0.04    0.23
  -6  -6 -16    1.05    0.26
   6   6  17    0.25    0.26
  -6  -6 -17    0.19    0.19
   6   6  18    0.07    0.20
  -6  -6 -18   -0.28    0.21
   6   6  19    0.02    0.21
  -6  -6 -19    0.10    0.17
   6   7 -20    0.37    0.22
  -6  -7  20    0.44    0.32
   6   7 -19    1.05    0.30
  -6  -7  19    1.34    0.35
   6   7 -18    0.00    0.15
  -6  -7  18    0.14    0.17
   6   7 -17    0.15    0.16
  -6  -7  17   -0.17    0.17
   6   7 -16    1.50    0.33
  -6  -7  16    1.42    0.37
   6   7 -15    0.85    0.25
  -6  -7  15    1.30    0.31
   6   7 -14   -0.08    0.18
  -6  -7  14    0.35    0.16
   6   7 -13    3.20    0.38
  -6  -7  13    4.31    0.50
   6   7 -12    0.17    0.16
  -6  -7  12    0.19    0.15
   6   7 -11    0.20    0.14
  -6  -7  11    0.04    0.13
   6   7 -10    8.00    0.60
  -6  -7  10    8.76    0.62
   6   7  -9    0.17    0.12
  -6  -7   9    0.47    0.16
   6   7  -8    0.92    0.20
  -6  -7   8    0.91    0.17
   6   7  -7    0.64    0.18
  -6  -7   7    0.88    0.16
   6   7  -6    2.20    0.25
  -6  -7   6    2.12    0.24
   6   7  -5    3.99    0.34
  -6  -7   5    3.78    0.37
   6   7  -4   22.80    1.20
  -6  -7   4   20.35    1.08
   6   7  -3    8.47    0.50
   6   7  -3    7.29    0.38
  -6  -7   3    8.00    0.47
   6   7  -2    6.75    0.43
   6   7  -2    5.23    0.37
  -6  -7   2    6.07    0.38
   6   7  -1    0.39    0.11
  -6  -7   1    0.25    0.11
   6   7   0    0.17    0.08
   6   7   0    0.01    0.08
  -6  -7   0   -0.07    0.08
   6   7   1    0.35    0.12
   6   7   1    0.64    0.10
  -6  -7  -1    0.35    0.11
   6   7   2    0.48    0.14
   6   7   2    0.36    0.11
  -6  -7  -2    0.69    0.15
   6   7   3    0.84    0.18
   6   7   3    0.71    0.13
  -6  -7  -3    0.91    0.18
   6   7   4    0.34    0.09
   6   7   4    0.50    0.13
  -6  -7  -4    0.45    0.15
   6   7   5   -0.00    0.06
   6   7   5    0.09    0.09
  -6  -7  -5    0.05    0.10
   6   7   6    0.66    0.19
  -6  -7  -6    0.58    0.17
   6   7   7    1.85    0.27
  -6  -7  -7    2.50    0.25
   6   7   8    0.09    0.15
  -6  -7  -8    0.07    0.11
   6   7   9    0.20    0.21
  -6  -7  -9    0.52    0.15
   6   7  10    0.30    0.18
  -6  -7 -10    0.03    0.16
   6   7  11    3.40    0.49
  -6  -7 -11    2.91    0.44
   6   7  12    0.02    0.15
  -6  -7 -12    0.09    0.13
   6   7  13    0.09    0.17
  -6  -7 -13    0.15    0.17
   6   7  14   -0.23    0.23
  -6  -7 -14    0.47    0.20
   6   7  15    0.15    0.20
  -6  -7 -15    0.09    0.20
   6   7  16    0.18    0.24
  -6  -7 -16    0.38    0.20
   6   7  17    0.66    0.31
  -6  -7 -17    0.36    0.29
   6   7  18    0.12    0.20
  -6  -7 -18   -0.03    0.16
   6   8 -19    0.22    0.19
  -6  -8  19   -0.06    0.27
   6   8 -18   -0.10    0.16
  -6  -8  18    0.30    0.19
   6   8 -17    0.39    0.21
  -6  -8  17    0.37    0.25
   6   8 -16   -0.07    0.18
  -6  -8  16    0.23    0.18
   6   8 -15    0.34    0.17
  -6  -8  15    0.15    0.21
   6   8 -14    1.70    0.29
  -6  -8  14    2.34    0.40
   6   8 -13    0.12    0.14
  -6  -8  13    0.16    0.15
   6   8 -12    1.80    0.32
  -6  -8  12    1.79    0.34
   6   8 -11    0.49    0.16
  -6  -8  11    0.32    0.22
   6   8 -10   18.80    1.27
  -6  -8  10   21.21    1.44
   6   8  -9    2.31    0.28
  -6  -8   9    2.55    0.31
   6   8  -8    1.01    0.19
  -6  -8   8    1.01    0.23
   6   8  -7    0.43    0.18
  -6  -8   7    0.76    0.17
   6   8  -6   16.86    0.98
  -6  -8   6   16.31    0.98
   6   8  -5   -0.13    0.12
  -6  -8   5    0.00    0.10
   6   8  -4    0.79    0.19
   6   8  -4    0.62    0.10
  -6  -8   4    0.70    0.18
   6   8  -3   13.55    0.78
   6   8  -3    8.95    0.56
  -6  -8   3   10.96    0.67
   6   8  -2   20.08    1.14
  -6  -8   2   18.92    1.14
   6   8  -1    0.25    0.12
   6   8  -1    0.07    0.09
  -6  -8   1    0.24    0.14
   6   8   0    1.14    0.17
   6   8   0    0.85    0.16
  -6  -8   0    1.13    0.17
   6   8   1    6.22    0.40
   6   8   1    5.20    0.41
  -6  -8  -1    5.92    0.42
   6   8   2    0.16    0.10
   6   8   2    0.18    0.10
  -6  -8  -2    0.17    0.11
   6   8   3   10.33    0.58
   6   8   3   10.72    0.74
  -6  -8  -3   11.09    0.70
   6   8   4    0.85    0.12
   6   8   4    0.82    0.21
  -6  -8  -4    1.15    0.20
   6   8   5    0.89    0.20
  -6  -8  -5    0.57    0.18
   6   8   6    1.10    0.21
  -6  -8  -6    1.53    0.21
   6   8   7    0.69    0.20
  -6  -8  -7    0.44    0.19
   6   8   8    0.39    0.21
  -6  -8  -8    0.53    0.15
   6   8   9    3.83    0.49
  -6  -8  -9    3.46    0.38
   6   8  10    0.04    0.17
  -6  -8 -10    0.08    0.16
   6   8  11    0.86    0.29
  -6  -8 -11    0.86    0.26
   6   8  12    0.99    0.30
  -6  -8 -12    1.37    0.30
   6   8  13    0.42    0.27
  -6  -8 -13    0.55    0.26
   6   8  14   -0.06    0.16
  -6  -8 -14    0.02    0.14
   6   8  15    1.26    0.36
  -6  -8 -15    0.37    0.25
   6   8  16    0.01    0.22
  -6  -8 -16    0.32    0.23
   6   8  17    0.17    0.30
  -6  -8 -17    0.17    0.20
   6   9 -18    0.33    0.22
  -6  -9  18    0.24    0.30
   6   9 -17    0.85    0.24
  -6  -9  17    0.45    0.34
   6   9 -16    0.26    0.20
  -6  -9  16   -0.06    0.22
   6   9 -15    0.56    0.22
  -6  -9  15    0.64    0.28
   6   9 -14    0.30    0.20
  -6  -9  14    0.20    0.17
   6   9 -13    1.05    0.26
  -6  -9  13    1.33    0.34
   6   9 -12    0.84    0.29
  -6  -9  12    1.30    0.26
   6   9 -11    2.84    0.35
  -6  -9  11    3.07    0.39
   6   9 -10    0.24    0.13
  -6  -9  10   -0.00    0.14
   6   9  -9    0.14    0.15
  -6  -9   9    0.40    0.14
   6   9  -8    0.44    0.14
  -6  -9   8    0.16    0.17
   6   9  -7    0.05    0.13
  -6  -9   7    0.12    0.12
   6   9  -6    0.49    0.14
   6   9  -5   10.30    0.76
  -6  -9   5   10.91    0.70
   6   9  -4    3.31    0.35
  -6  -9   4    2.78    0.28
   6   9  -3    0.68    0.15
   6   9  -3    0.08    0.09
  -6  -9   3    0.27    0.13
   6   9  -2    0.46    0.15
   6   9  -2    0.15    0.10
  -6  -9   2    0.50    0.15
   6   9  -1    0.10    0.11
   6   9  -1    0.12    0.10
  -6  -9   1    0.34    0.12
   6   9   0    0.11    0.08
   6   9   0   -0.08    0.10
   6   9   0   -0.01    0.09
  -6  -9   0    0.10    0.12
   6   9   1    2.81    0.28
   6   9   1    2.52    0.27
  -6  -9  -1    2.92    0.30
   6   9   2    7.48    0.49
   6   9   2    7.25    0.55
  -6  -9  -2    7.49    0.64
   6   9   3    0.70    0.15
   6   9   3    0.61    0.20
  -6  -9  -3    1.22    0.21
   6   9   4    8.56    0.55
   6   9   4    9.46    0.73
  -6  -9  -4   11.66    0.73
   6   9   5    0.19    0.17
  -6  -9  -5    0.26    0.16
   6   9   6   -0.12    0.12
  -6  -9  -6   -0.01    0.11
   6   9   7    0.04    0.12
  -6  -9  -7    0.15    0.12
   6   9   8    0.81    0.29
  -6  -9  -8    1.22    0.26
   6   9   9    1.42    0.38
  -6  -9  -9    2.08    0.35
   6   9  10    1.77    0.33
  -6  -9 -10    2.41    0.38
   6   9  11    1.54    0.32
  -6  -9 -11    1.23    0.32
   6   9  12    0.19    0.27
  -6  -9 -12    0.56    0.23
   6   9  13    0.68    0.26
  -6  -9 -13    0.25    0.28
   6   9  14    0.31    0.37
  -6  -9 -14    1.08    0.28
   6   9  15    0.33    0.22
  -6  -9 -15    0.03    0.19
   6   9  16    1.08    0.40
  -6  -9 -16    0.33    0.34
   6  10 -17    1.14    0.33
  -6 -10  17    0.55    0.35
   6  10 -16    0.26    0.18
  -6 -10  16    0.09    0.20
   6  10 -15    0.17    0.18
  -6 -10  15    0.19    0.19
   6  10 -14    0.40    0.19
  -6 -10  14    0.26    0.21
   6  10 -13    0.49    0.23
  -6 -10  13    0.27    0.21
   6  10 -12    2.09    0.33
  -6 -10  12    2.05    0.41
   6  10 -11    1.15    0.27
  -6 -10  11    0.74    0.23
   6  10 -10    0.59    0.25
  -6 -10  10    0.93    0.22
   6  10  -9    0.35    0.20
  -6 -10   9    0.54    0.23
   6  10  -8    0.89    0.26
  -6 -10   8    0.93    0.25
   6  10  -7    0.48    0.16
  -6 -10   7    0.50    0.16
   6  10  -6    1.32    0.21
  -6 -10   6    1.22    0.22
   6  10  -5   -0.10    0.10
  -6 -10   5    0.19    0.13
   6  10  -4    2.12    0.32
  -6 -10   4    2.57    0.31
   6  10  -3    0.70    0.18
  -6 -10   3    0.66    0.21
   6  10  -2    0.09    0.13
  -6 -10   2    0.17    0.15
   6  10  -1   -0.02    0.11
   6  10  -1    0.02    0.09
  -6 -10   1    0.15    0.11
   6  10   0    0.23    0.11
   6  10   0    0.21    0.12
  -6 -10   0    0.37    0.14
   6  10   1    2.38    0.26
   6  10   1    1.80    0.27
  -6 -10  -1    2.67    0.34
   6  10   2    0.27    0.15
  -6 -10  -2    0.44    0.19
   6  10   3    3.38    0.31
   6  10   3    2.96    0.38
  -6 -10  -3    4.51    0.39
   6  10   4    1.61    0.32
  -6 -10  -4    2.40    0.33
   6  10   5    0.03    0.12
  -6 -10  -5    0.11    0.14
   6  10   6    0.28    0.15
  -6 -10  -6   -0.12    0.12
   6  10   7    1.03    0.28
  -6 -10  -7    0.86    0.23
   6  10   8    0.05    0.21
  -6 -10  -8    0.34    0.16
   6  10   9    1.57    0.43
  -6 -10  -9    2.71    0.36
   6  10  10    1.12    0.37
  -6 -10 -10    1.18    0.28
   6  10  11    1.36    0.32
  -6 -10 -11    0.35    0.24
   6  10  12    0.29    0.24
  -6 -10 -12    0.48    0.22
   6  10  13    2.19    0.58
  -6 -10 -13    2.78    0.50
   6  10  14    5.30    0.86
  -6 -10 -14    7.50    0.94
   6  11 -15    0.23    0.18
  -6 -11  15    0.00    0.20
   6  11 -14    2.55    0.48
  -6 -11  14    3.67    0.56
   6  11 -13    0.84    0.26
  -6 -11  13    1.27    0.28
   6  11 -12    1.62    0.36
  -6 -11  12    1.61    0.39
   6  11 -11   -0.19    0.20
  -6 -11  11   -0.16    0.21
   6  11 -10    1.78    0.31
  -6 -11  10    2.37    0.40
   6  11  -9    0.90    0.22
  -6 -11   9    0.62    0.27
   6  11  -8    0.49    0.21
  -6 -11   8    0.33    0.22
   6  11  -7    0.46    0.21
  -6 -11   7    0.41    0.17
   6  11  -6    0.18    0.15
  -6 -11   6    0.45    0.19
   6  11  -5    1.75    0.31
  -6 -11   5    1.95    0.26
   6  11  -4    0.12    0.15
  -6 -11   4    0.23    0.14
   6  11  -3    0.58    0.17
  -6 -11   3    1.30    0.25
   6  11  -2    0.34    0.15
  -6 -11   2    0.05    0.17
   6  11  -1    0.85    0.21
   6  11  -1    0.45    0.16
  -6 -11   1    1.15    0.23
   6  11   0    0.27    0.15
   6  11   0    0.12    0.14
  -6 -11   0    0.43    0.18
   6  11   1    9.17    0.68
   6  11   1    7.56    0.72
  -6 -11  -1   12.25    0.88
   6  11   2    0.38    0.16
   6  11   2    0.30    0.17
  -6 -11  -2    0.74    0.19
   6  11   3    0.38    0.16
   6  11   3    0.51    0.19
  -6 -11  -3    0.80    0.20
   6  11   4    0.11    0.15
  -6 -11  -4    0.14    0.13
   6  11   5    1.32    0.32
  -6 -11  -5    1.82    0.27
   6  11   6   -0.03    0.18
  -6 -11  -6    0.27    0.15
   6  11   7    3.14    0.46
  -6 -11  -7    3.52    0.46
   6  11   8    1.09    0.28
  -6 -11  -8    1.00    0.25
   6  11   9   -0.01    0.16
  -6 -11  -9    0.10    0.14
   6  11  10    0.30    0.23
  -6 -11 -10    0.07    0.18
   6  11  11    0.53    0.28
  -6 -11 -11    0.23    0.21
   6  11  12    0.08    0.20
  -6 -11 -12    0.07    0.22
   6  11  13    0.39    0.43
  -6 -11 -13    1.30    0.33
   6  12 -14    0.66    0.24
  -6 -12  14    0.53    0.33
   6  12 -13    0.36    0.22
  -6 -12  13    0.62    0.23
   6  12 -12   -0.11    0.18
  -6 -12  12    0.09    0.19
   6  12 -11   -0.21    0.16
  -6 -12  11    0.24    0.17
   6  12 -10    0.08    0.18
  -6 -12  10    0.53    0.23
   6  12  -9    0.26    0.16
  -6 -12   9    0.05    0.16
   6  12  -8    0.28    0.21
   6  12  -7    1.70    0.35
   6  12  -6    0.69    0.22
  -6 -12   6    0.87    0.22
   6  12  -5    0.21    0.16
  -6 -12   5   -0.38    0.17
   6  12  -4    1.27    0.26
  -6 -12   4    1.50    0.25
   6  12  -3    0.35    0.16
  -6 -12   3    0.54    0.22
   6  12  -2   -0.22    0.15
  -6 -12   2    0.08    0.17
   6  12  -1    0.25    0.16
  -6 -12   1   -0.00    0.14
   6  12   0    2.50    0.39
   6  12   0    2.51    0.34
  -6 -12   0    4.12    0.41
   6  12   1    0.68    0.20
   6  12   1    0.47    0.20
  -6 -12  -1    1.35    0.23
   6  12   2    1.33    0.25
   6  12   2    1.64    0.30
  -6 -12  -2    2.83    0.33
   6  12   3    0.16    0.18
  -6 -12  -3    0.45    0.17
   6  12   4   -0.05    0.14
  -6 -12  -4    0.05    0.12
   6  12   5    0.24    0.21
  -6 -12  -5    0.61    0.20
   6  12   6   -0.02    0.18
  -6 -12  -6   -0.08    0.15
   6  12   7    1.83    0.44
  -6 -12  -7    2.53    0.44
   6  12   8    0.42    0.21
  -6 -12  -8    0.22    0.24
   6  12   9    0.15    0.25
  -6 -12  -9    0.85    0.24
   6  12  10   -0.16    0.25
  -6 -12 -10   -0.06    0.18
   6  12  11    0.96    0.33
  -6 -12 -11    0.04    0.29
   6  13 -12    0.21    0.24
   6  13 -11    0.15    0.26
  -6 -13  11    0.53    0.26
   6  13 -10    0.09    0.22
  -6 -13  10    0.18    0.19
   6  13  -9    0.94    0.35
  -6 -13   9    1.14    0.28
   6  13  -8    3.82    0.59
  -6 -13   8    3.97    0.47
   6  13  -7    1.47    0.35
  -6 -13   7    1.16    0.28
   6  13  -6    1.79    0.34
  -6 -13   6    2.15    0.40
   6  13  -5    0.55    0.28
  -6 -13   5    0.91    0.23
   6  13  -4   -0.18    0.15
  -6 -13   4    0.15    0.13
   6  13  -3    0.18    0.16
  -6 -13   3   -0.04    0.18
   6  13  -2    0.47    0.23
  -6 -13   2    0.72    0.25
   6  13  -1    0.27    0.18
  -6 -13   1    0.19    0.16
   6  13   0    0.83    0.24
  -6 -13   0    0.56    0.28
  -6 -13  -1    4.43    0.59
   6  13   2    0.11    0.18
  -6 -13  -2    0.80    0.21
   6  13   3    0.81    0.28
  -6 -13  -3    1.60    0.27
   6  13   4    0.96    0.34
  -6 -13  -4    1.76    0.31
   6  13   5    0.15    0.23
  -6 -13  -5    0.88    0.27
   6  13   6    1.52    0.39
  -6 -13  -6    1.64    0.40
   6  13   7   -0.19    0.23
  -6 -13  -7    0.44    0.20
   6  13   8    0.81    0.38
  -6 -13  -8    1.41    0.32
   6  13   9    0.02    0.21
   6  14  -9    1.80    0.44
   6  14  -8    0.19    0.19
  -6 -14   8    0.09    0.23
   6  14  -7    0.93    0.28
  -6 -14   7    1.30    0.28
   6  14  -6    1.05    0.35
  -6 -14   6    1.01    0.28
   6  14  -5    0.58    0.25
  -6 -14   5    1.02    0.24
   6  14  -4    0.39    0.22
  -6 -14   4    0.25    0.22
   6  14  -3    0.10    0.19
  -6 -14   3   -0.34    0.17
   6  14  -2   -0.01    0.16
  -6 -14   2    0.05    0.14
   6  14  -1    0.04    0.16
  -6 -14   1   -0.14    0.16
  -6 -14   0    0.35    0.22
  -6 -14  -1    0.28    0.20
  -6 -14  -2    0.13    0.22
  -6 -14  -3    0.30    0.24
   6  14   4   -0.03    0.18
  -6 -14  -4    0.14    0.16
   6  14   5   -0.02    0.17
  -6 -14  -5    0.05    0.18
   7 -16  -3    0.08    0.18
  -7  16   3    0.19    0.19
   7 -16  -2    3.41    0.38
  -7  16   2    1.54    0.47
   7 -16  -1    2.84    0.38
  -7  16   1    0.98    0.40
   7 -16   0    0.24    0.19
  -7  16   0    0.14    0.21
   7 -16   1    1.54    0.31
  -7  16  -1    1.37    0.31
   7 -16   2    0.44    0.19
  -7  16  -2    0.16    0.19
   7 -16   3    2.11    0.32
  -7  16  -3    1.65    0.43
   7 -16   4    2.29    0.30
  -7  16  -4    1.39    0.46
   7 -16   5    0.10    0.17
  -7  16  -5    0.36    0.23
   7 -16   6    1.19    0.28
  -7  16  -6    1.26    0.39
  -7  16  -7    0.39    0.23
   7 -15  -7    1.60    0.38
   7 -15  -6    0.02    0.13
   7 -15  -5    1.30    0.24
  -7  15   5    0.75    0.22
   7 -15  -4    1.44    0.30
  -7  15   4    0.84    0.29
   7 -15  -3    1.83    0.32
  -7  15   3    1.02    0.33
   7 -15  -2   -0.12    0.15
  -7  15   2    0.07    0.15
   7 -15  -1    1.46    0.21
  -7  15   1    0.28    0.24
   7 -15   0    0.05    0.14
  -7  15   0    0.02    0.17
   7 -15   1    0.29    0.16
  -7  15  -1   -0.02    0.21
   7 -15   2    0.17    0.13
  -7  15  -2    0.08    0.18
   7 -15   3    0.71    0.21
  -7  15  -3    0.41    0.29
   7 -15   4    0.53    0.17
  -7  15  -4    0.92    0.27
   7 -15   5    0.72    0.18
  -7  15  -5    0.06    0.21
   7 -15   6    0.01    0.13
  -7  15  -6    0.16    0.17
   7 -15   7    4.30    0.43
  -7  15  -7    2.88    0.52
   7 -15   8   -0.14    0.14
  -7  15  -8   -0.12    0.22
  -7  15  -9    0.28    0.20
  -7  15 -10    0.28    0.20
   7 -14 -10    0.75    0.24
   7 -14  -9    0.27    0.18
   7 -14  -8   -0.01    0.12
   7 -14  -7    1.09    0.25
   7 -14  -6   -0.01    0.16
  -7  14   6   -0.04    0.14
   7 -14  -5    0.55    0.25
  -7  14   5    0.51    0.21
   7 -14  -4    2.83    0.37
  -7  14   4    1.17    0.33
   7 -14  -3    0.80    0.23
  -7  14   3    0.49    0.21
   7 -14  -2    0.25    0.17
  -7  14   2    0.17    0.17
   7 -14  -1    0.36    0.18
  -7  14   1    0.32    0.20
   7 -14   0   -0.07    0.11
  -7  14   0   -0.06    0.16
   7 -14   1    0.02    0.12
  -7  14  -1   -0.17    0.13
   7 -14   2    0.11    0.15
  -7  14  -2    0.15    0.18
   7 -14   3   -0.03    0.13
  -7  14  -3    0.31    0.18
   7 -14   4    0.46    0.19
  -7  14  -4    0.74    0.25
   7 -14   5    0.60    0.15
  -7  14  -5    0.38    0.21
   7 -14   6    0.87    0.23
  -7  14  -6    0.78    0.25
  -7  14  -7    0.66    0.29
   7 -14   8    0.05    0.14
  -7  14  -8    0.15    0.16
   7 -14   9   -0.14    0.14
  -7  14  -9    0.01    0.20
   7 -14  10    1.68    0.25
  -7  14 -10    0.88    0.30
  -7  14 -11    0.32    0.27
  -7  14 -12    0.00    0.15
  -7  14 -13    0.03    0.17
  -7  13  12    1.12    0.41
   7 -13 -11   -0.03    0.13
   7 -13 -10    0.07    0.15
   7 -13  -9    0.50    0.20
   7 -13  -8    0.87    0.20
  -7  13   8    0.28    0.20
   7 -13  -7   -0.07    0.13
  -7  13   7   -0.06    0.11
   7 -13  -6    0.72    0.18
  -7  13   6    0.27    0.18
   7 -13  -5    0.84    0.25
  -7  13   5    0.65    0.17
   7 -13  -4    0.49    0.20
  -7  13   4    0.43    0.19
   7 -13  -3    2.10    0.30
  -7  13   3    1.20    0.30
   7 -13  -2    2.10    0.32
  -7  13   2    1.35    0.31
   7 -13  -1    0.34    0.16
  -7  13   1    0.02    0.17
   7 -13   0    0.75    0.21
  -7  13   0    0.83    0.24
   7 -13   1    2.40    0.28
  -7  13  -1    1.10    0.31
   7 -13   2    1.51    0.25
  -7  13  -2    0.92    0.24
   7 -13   3    2.11    0.29
  -7  13  -3    1.22    0.28
   7 -13   4    1.35    0.26
  -7  13  -4    1.45    0.32
   7 -13   5    0.52    0.17
  -7  13  -5    0.79    0.22
   7 -13   6    3.89    0.36
  -7  13  -6    3.71    0.57
   7 -13   7   -0.08    0.12
  -7  13  -7    0.14    0.14
   7 -13   8    3.81    0.36
  -7  13  -8    3.35    0.53
   7 -13   9    1.16    0.23
  -7  13  -9    0.81    0.26
   7 -13  10    0.21    0.16
  -7  13 -10    0.38    0.24
   7 -13  11    0.29    0.16
  -7  13 -11    0.27    0.24
  -7  13 -12    0.08    0.16
  -7  13 -13   -0.08    0.16
  -7  13 -14    0.35    0.27
  -7  13 -15    0.26    0.24
  -7  12  14    0.02    0.22
  -7  12  13    0.09    0.22
   7 -12 -12    0.03    0.16
   7 -12 -11    1.02    0.27
   7 -12 -10    0.31    0.17
   7 -12  -9    0.72    0.17
  -7  12   9    0.06    0.16
   7 -12  -8    0.15    0.13
  -7  12   8   -0.00    0.12
   7 -12  -7    0.27    0.18
  -7  12   7    0.19    0.14
   7 -12  -6    0.17    0.15
  -7  12   6    0.06    0.13
   7 -12  -5    3.39    0.34
  -7  12   5    3.05    0.38
   7 -12  -4    2.77    0.30
  -7  12   4    2.10    0.33
   7 -12  -3    1.84    0.25
  -7  12   3    0.92    0.20
   7 -12  -2    1.73    0.28
  -7  12   2    1.47    0.28
   7 -12  -1    0.33    0.13
  -7  12   1    0.40    0.18
   7 -12   0    1.57    0.22
  -7  12   0    1.53    0.29
   7 -12   1    7.72    0.60
  -7  12  -1    5.52    0.56
   7 -12   2    2.04    0.29
  -7  12  -2    1.52    0.33
   7 -12   3    2.31    0.30
  -7  12  -3    1.65    0.31
   7 -12   4    1.01    0.21
  -7  12  -4    0.73    0.25
   7 -12   5    0.64    0.18
  -7  12  -5    0.44    0.19
   7 -12   6    2.12    0.28
  -7  12  -6    1.54    0.35
   7 -12   7    5.19    0.44
  -7  12  -7    4.09    0.52
   7 -12   8    3.21    0.32
  -7  12  -8    3.50    0.45
   7 -12   9    2.25    0.29
  -7  12  -9    1.23    0.39
   7 -12  10    0.26    0.17
  -7  12 -10    0.46    0.24
   7 -12  11    2.76    0.33
  -7  12 -11    2.09    0.48
   7 -12  12    1.52    0.28
  -7  12 -12    0.88    0.30
   7 -12  13    0.13    0.15
  -7  12 -13    0.01    0.16
  -7  12 -14    0.41    0.23
  -7  12 -15    0.97    0.28
  -7  12 -16    0.15    0.18
  -7  11  15    0.11    0.24
  -7  11  14   -0.07    0.22
   7 -11 -13    0.27    0.15
   7 -11 -12    0.36    0.15
   7 -11 -12    0.14    0.13
   7 -11 -11    0.07    0.16
   7 -11 -11    0.10    0.10
   7 -11 -10    0.26    0.18
   7 -11 -10    0.45    0.11
  -7  11  10   -0.08    0.13
   7 -11  -9    0.73    0.18
   7 -11  -9    0.44    0.12
  -7  11   9    0.28    0.15
   7 -11  -8    0.85    0.21
   7 -11  -8    0.50    0.12
  -7  11   8    0.64    0.16
   7 -11  -7    2.26    0.24
   7 -11  -7    1.44    0.17
  -7  11   7    1.36    0.25
   7 -11  -6    1.68    0.21
  -7  11   6    0.85    0.23
   7 -11  -5    0.19    0.14
  -7  11   5    0.08    0.13
   7 -11  -4    0.03    0.09
  -7  11   4   -0.03    0.10
   7 -11  -3    0.07    0.12
  -7  11   3    0.01    0.11
   7 -11  -2    0.55    0.15
  -7  11   2    0.65    0.15
   7 -11  -1    0.40    0.13
  -7  11   1    0.05    0.12
   7 -11   0    0.11    0.10
  -7  11   0   -0.13    0.13
   7 -11   1    0.78    0.17
  -7  11  -1    0.76    0.18
   7 -11   2    0.31    0.16
  -7  11  -2    0.53    0.18
   7 -11   3    5.02    0.44
  -7  11  -3    5.07    0.52
   7 -11   4    1.31    0.20
  -7  11  -4    0.90    0.24
   7 -11   5    5.73    0.42
  -7  11  -5    5.45    0.53
   7 -11   6    2.88    0.35
  -7  11  -6    3.16    0.42
   7 -11   7    5.22    0.42
  -7  11  -7    3.48    0.53
   7 -11   8    9.68    0.68
  -7  11  -8    7.67    0.85
   7 -11   9    6.83    0.56
  -7  11  -9    5.11    0.67
   7 -11  10    1.69    0.30
  -7  11 -10    0.99    0.29
   7 -11  11    3.25    0.43
  -7  11 -11    2.56    0.43
   7 -11  12    0.02    0.11
  -7  11 -12   -0.09    0.16
   7 -11  13    0.89    0.20
  -7  11 -13    0.35    0.26
   7 -11  14    0.04    0.13
  -7  11 -14    0.10    0.19
  -7  11 -15    2.97    0.53
  -7  11 -16    0.24    0.24
  -7  11 -17    0.36    0.21
   7 -10 -16    0.13    0.16
  -7  10  16    0.21    0.31
   7 -10 -15    0.34    0.17
  -7  10  15    0.13    0.27
   7 -10 -14    1.42    0.21
  -7  10  14    1.33    0.39
   7 -10 -13    0.19    0.14
   7 -10 -13    0.07    0.12
   7 -10 -12    0.34    0.14
   7 -10 -12    0.53    0.19
   7 -10 -11    1.16    0.21
   7 -10 -11    1.21    0.17
  -7  10  11    0.91    0.20
   7 -10 -10    1.65    0.29
   7 -10 -10    1.40    0.18
  -7  10  10    1.48    0.23
   7 -10  -9    0.68    0.15
   7 -10  -9    0.28    0.11
  -7  10   9    0.38    0.15
   7 -10  -8    4.53    0.43
   7 -10  -8    3.90    0.28
  -7  10   8    3.70    0.39
   7 -10  -7    1.62    0.21
  -7  10   7    1.08    0.19
   7 -10  -6    1.85    0.21
   7 -10  -6    1.14    0.15
  -7  10   6    1.86    0.20
   7 -10  -5    0.26    0.15
  -7  10   5    0.12    0.12
   7 -10  -4    0.52    0.13
  -7  10   4    0.36    0.15
   7 -10  -3    0.18    0.13
  -7  10   3   -0.01    0.11
   7 -10  -2    0.74    0.20
  -7  10   2    0.71    0.18
   7 -10  -1    0.45    0.12
  -7  10   1    0.17    0.12
   7 -10   0    0.21    0.13
  -7  10   0    0.15    0.15
   7 -10   1    0.53    0.14
  -7  10  -1    0.63    0.16
   7 -10   2    0.18    0.13
  -7  10  -2    0.24    0.12
   7 -10   3    0.31    0.13
  -7  10  -3    0.50    0.14
   7 -10   4    3.07    0.31
  -7  10  -4    2.86    0.38
   7 -10   5    0.28    0.12
  -7  10  -5    0.26    0.17
   7 -10   6    1.72    0.29
  -7  10  -6    1.33    0.31
   7 -10   7    0.03    0.11
  -7  10  -7   -0.03    0.13
   7 -10   8    2.34    0.31
   7 -10   8    1.61    0.16
  -7  10  -8    1.50    0.27
   7 -10   9    0.20    0.13
   7 -10   9    0.12    0.09
  -7  10  -9    0.16    0.13
   7 -10  10    0.08    0.09
  -7  10 -10   -0.00    0.13
   7 -10  11    2.85    0.32
   7 -10  11    2.70    0.27
  -7  10 -11    2.10    0.37
   7 -10  12    1.95    0.31
  -7  10 -12    1.86    0.38
   7 -10  13    1.35    0.24
   7 -10  13    0.86    0.20
  -7  10 -13    0.65    0.29
   7 -10  14    1.36    0.26
   7 -10  14    1.14    0.23
  -7  10 -14    0.94    0.26
   7 -10  15    0.25    0.16
   7 -10  15    0.10    0.16
  -7  10 -15    0.26    0.17
   7 -10  16    0.09    0.17
   7 -10  16    0.29    0.17
  -7  10 -16    0.11    0.20
  -7  10 -17    1.17    0.34
  -7  10 -18    0.12    0.17
   7  -9 -17    0.13    0.13
   7  -9 -16    0.68    0.20
  -7   9  16    0.86    0.39
   7  -9 -15    0.04    0.10
  -7   9  15    0.12    0.20
   7  -9 -14   -0.14    0.13
   7  -9 -13    1.35    0.27
   7  -9 -13    1.19    0.21
   7  -9 -12    0.70    0.17
   7  -9 -12    0.38    0.14
  -7   9  12    0.53    0.15
   7  -9 -11    0.04    0.10
   7  -9 -11    0.61    0.15
  -7   9  11   -0.02    0.12
   7  -9 -10    0.20    0.10
   7  -9 -10    0.33    0.14
  -7   9  10    0.34    0.13
   7  -9  -9    3.66    0.30
   7  -9  -9    2.82    0.26
  -7   9   9    3.28    0.35
   7  -9  -8   -0.13    0.12
   7  -9  -8    0.11    0.08
  -7   9   8    0.09    0.11
   7  -9  -7    0.25    0.14
  -7   9   7    0.04    0.13
   7  -9  -6    4.51    0.38
   7  -9  -6    3.42    0.22
  -7   9   6    5.24    0.40
   7  -9  -5    1.60    0.19
   7  -9  -5    0.99    0.10
  -7   9   5    1.18    0.22
   7  -9  -4    0.12    0.05
   7  -9  -4    0.42    0.10
  -7   9   4    0.20    0.13
   7  -9  -3    0.95    0.16
  -7   9   3    0.75    0.19
   7  -9  -2    0.14    0.10
  -7   9   2    0.03    0.11
   7  -9  -1    3.42    0.31
  -7   9   1    2.84    0.27
   7  -9   0    0.57    0.15
  -7   9   0    0.45    0.13
   7  -9   1   10.45    0.64
  -7   9  -1    9.19    0.63
   7  -9   2    6.84    0.45
  -7   9  -2    6.42    0.48
   7  -9   3    0.60    0.15
  -7   9  -3    0.45    0.15
   7  -9   4    3.82    0.36
  -7   9  -4    2.58    0.31
   7  -9   5    0.78    0.16
  -7   9  -5    0.21    0.19
   7  -9   6    7.24    0.51
  -7   9  -6    5.93    0.57
   7  -9   7    1.83    0.25
   7  -9   7    1.75    0.15
  -7   9  -7    1.87    0.25
   7  -9   8    5.60    0.45
   7  -9   8    4.74    0.31
  -7   9  -8    4.89    0.44
   7  -9   9   -0.09    0.13
   7  -9   9    0.11    0.07
  -7   9  -9    0.17    0.15
   7  -9  10    0.81    0.21
   7  -9  10    0.90    0.15
  -7   9 -10    0.83    0.20
   7  -9  11    5.79    0.49
   7  -9  11    4.36    0.37
  -7   9 -11    4.52    0.46
   7  -9  12    5.36    0.51
   7  -9  12    4.88    0.41
  -7   9 -12    4.44    0.59
   7  -9  13   -0.04    0.12
   7  -9  13    0.10    0.10
  -7   9 -13   -0.07    0.11
   7  -9  14    1.77    0.32
   7  -9  14    2.43    0.32
  -7   9 -14    1.86    0.37
   7  -9  15   -0.09    0.14
   7  -9  15   -0.09    0.14
  -7   9 -15   -0.04    0.13
   7  -9  16    0.42    0.19
   7  -9  16    0.32    0.20
  -7   9 -16    0.49    0.23
   7  -9  17   -0.13    0.15
   7  -9  17    0.02    0.16
  -7   9 -17   -0.00    0.13
   7  -9  18    0.33    0.17
  -7   9 -18    0.15    0.22
  -7   9 -19   -0.15    0.17
   7  -8 -18    3.42    0.47
  -7   8  18    4.76    0.72
   7  -8 -17    0.20    0.17
  -7   8  17    0.13    0.29
   7  -8 -16    0.23    0.16
  -7   8  16    0.38    0.23
   7  -8 -15   -0.04    0.12
  -7   8  15    0.19    0.17
   7  -8 -14    0.46    0.20
   7  -8 -14    0.62    0.16
   7  -8 -13    0.38    0.19
   7  -8 -13    0.45    0.15
  -7   8  13    0.60    0.16
   7  -8 -12    0.50    0.16
   7  -8 -12    0.51    0.14
  -7   8  12    0.37    0.15
   7  -8 -11    0.70    0.16
   7  -8 -11    0.48    0.13
  -7   8  11    0.31    0.15
   7  -8 -10    0.09    0.08
   7  -8 -10   -0.02    0.10
  -7   8  10   -0.06    0.08
   7  -8  -9   21.78    1.16
   7  -8  -9   19.78    0.97
  -7   8   9   22.73    1.21
   7  -8  -8    6.21    0.43
   7  -8  -8    6.00    0.35
  -7   8   8    6.73    0.47
   7  -8  -7    3.06    0.29
  -7   8   7    3.24    0.31
   7  -8  -6    1.15    0.12
   7  -8  -6    1.36    0.19
  -7   8   6    1.71    0.20
   7  -8  -5    0.55    0.12
   7  -8  -5    0.51    0.08
  -7   8   5    0.50    0.12
   7  -8  -4    0.31    0.09
   7  -8  -4    0.02    0.04
  -7   8   4    0.09    0.11
   7  -8  -3    0.18    0.11
  -7   8   3    0.28    0.13
   7  -8  -2    1.52    0.21
  -7   8   2    1.69    0.23
   7  -8  -1   -0.13    0.11
  -7   8   1   -0.05    0.10
   7  -8   0    0.13    0.12
  -7   8   0    0.30    0.13
   7  -8   1    7.27    0.44
  -7   8  -1    5.93    0.46
   7  -8   2    0.37    0.12
  -7   8  -2    0.16    0.11
   7  -8   3   -0.02    0.11
  -7   8  -3   -0.01    0.09
   7  -8   4    0.07    0.10
  -7   8  -4   -0.21    0.11
   7  -8   5    1.40    0.17
  -7   8  -5    1.01    0.19
   7  -8   6    1.37    0.21
   7  -8   6    1.03    0.09
  -7   8  -6    1.28    0.24
   7  -8   7    5.29    0.37
   7  -8   7    4.15    0.24
  -7   8  -7    4.95    0.37
   7  -8   8    2.15    0.28
   7  -8   8    1.79    0.17
  -7   8  -8    1.63    0.28
   7  -8   9    0.77    0.18
   7  -8   9    0.43    0.12
  -7   8  -9    0.55    0.17
   7  -8  10    1.14    0.22
   7  -8  10    1.11    0.16
  -7   8 -10    1.00    0.25
   7  -8  11    1.73    0.24
   7  -8  11    2.00    0.23
  -7   8 -11    1.98    0.28
   7  -8  12    4.63    0.45
   7  -8  12    4.12    0.37
  -7   8 -12    4.13    0.44
   7  -8  13    4.15    0.39
   7  -8  13    4.57    0.40
  -7   8 -13    4.83    0.52
   7  -8  14    4.48    0.45
   7  -8  14    3.99    0.41
  -7   8 -14    2.88    0.43
   7  -8  15    1.63    0.28
   7  -8  15    1.04    0.25
  -7   8 -15    1.23    0.29
   7  -8  16    0.36    0.15
   7  -8  16    0.31    0.18
  -7   8 -16   -0.01    0.19
   7  -8  17    0.06    0.13
   7  -8  17    0.03    0.14
  -7   8 -17   -0.04    0.11
   7  -8  18    0.46    0.24
   7  -8  18    0.21    0.27
  -7   8 -18    1.68    0.27
   7  -8  19    0.20    0.23
  -7   8 -19    0.28    0.22
   7  -7 -19    1.06    0.30
  -7   7  19    2.09    0.53
   7  -7 -18    0.88    0.22
  -7   7  18    1.21    0.42
   7  -7 -17    3.31    0.45
  -7   7  17    4.73    0.60
   7  -7 -16    1.97    0.30
  -7   7  16    1.89    0.48
   7  -7 -15    0.52    0.17
  -7   7  15    0.59    0.17
  -7   7  15    0.54    0.25
   7  -7 -14    1.52    0.24
   7  -7 -14    1.15    0.21
  -7   7  14    0.98    0.21
   7  -7 -13    1.22    0.26
   7  -7 -13    1.33    0.17
  -7   7  13    1.38    0.22
   7  -7 -12    0.22    0.15
   7  -7 -12    0.27    0.11
  -7   7  12    0.17    0.13
   7  -7 -11    1.34    0.25
   7  -7 -11    1.55    0.19
  -7   7  11    1.54    0.22
   7  -7 -10    1.55    0.18
   7  -7 -10    1.76    0.23
  -7   7  10    1.71    0.22
   7  -7  -9    1.42    0.22
   7  -7  -9    1.49    0.16
  -7   7   9    1.21    0.21
   7  -7  -8    5.73    0.33
   7  -7  -8    6.55    0.43
  -7   7   8    6.62    0.47
   7  -7  -7    2.21    0.21
   7  -7  -7    1.68    0.14
  -7   7   7    2.32    0.21
   7  -7  -6    0.50    0.13
   7  -7  -6    0.29    0.07
  -7   7   6    0.50    0.14
   7  -7  -5    8.21    0.48
   7  -7  -5    7.25    0.29
  -7   7   5    8.33    0.52
   7  -7  -4    0.15    0.08
   7  -7  -4    0.01    0.04
  -7   7   4    0.02    0.08
   7  -7  -3    0.03    0.10
  -7   7   3    0.15    0.08
   7  -7  -2    1.58    0.18
  -7   7   2    2.07    0.19
   7  -7  -1    2.91    0.26
  -7   7   1    2.41    0.28
   7  -7   0    3.48    0.25
  -7   7   0    2.92    0.31
   7  -7   1    9.17    0.54
  -7   7  -1    7.64    0.49
   7  -7   2    1.78    0.23
  -7   7  -2    1.71    0.23
   7  -7   3    0.50    0.13
  -7   7  -3    0.24    0.11
   7  -7   4    2.02    0.24
  -7   7  -4    2.02    0.20
   7  -7   5    1.32    0.20
  -7   7  -5    0.87    0.20
   7  -7   6    0.00    0.09
   7  -7   6    0.07    0.05
  -7   7  -6    0.04    0.09
   7  -7   7    0.36    0.14
   7  -7   7    0.27    0.07
  -7   7  -7    0.30    0.12
   7  -7   8    0.77    0.13
   7  -7   8    0.46    0.09
  -7   7  -8    0.68    0.16
   7  -7   9    0.47    0.13
   7  -7   9    0.51    0.11
  -7   7  -9    0.46    0.17
   7  -7  10    0.61    0.14
   7  -7  10    0.46    0.11
  -7   7 -10    0.59    0.18
   7  -7  11    0.30    0.15
   7  -7  11    0.12    0.11
  -7   7 -11    0.32    0.12
   7  -7  12    1.35    0.22
   7  -7  12    1.40    0.20
  -7   7 -12    1.22    0.23
   7  -7  13    0.76    0.18
   7  -7  13    0.23    0.17
  -7   7 -13    0.54    0.17
   7  -7  14    5.73    0.54
   7  -7  14    6.22    0.55
  -7   7 -14    5.33    0.59
   7  -7  15    0.28    0.14
  -7   7 -15   -0.12    0.15
   7  -7  16    0.04    0.14
   7  -7  16    0.05    0.15
  -7   7 -16    0.08    0.15
   7  -7  17    0.33    0.15
   7  -7  17    0.28    0.22
  -7   7 -17    0.26    0.19
   7  -7  18    0.17    0.16
   7  -7  18    0.03    0.18
  -7   7 -18    0.08    0.17
   7  -7  19    1.79    0.37
   7  -7  19    2.99    0.46
  -7   7 -19    2.10    0.38
   7  -7  20    0.46    0.31
  -7   7 -20    0.56    0.20
  -7   6  20   -0.07    0.22
   7  -6 -19    1.08    0.28
  -7   6  19    0.78    0.43
   7  -6 -18    0.87    0.24
  -7   6  18    0.77    0.39
   7  -6 -17    1.34    0.26
  -7   6  17    1.29    0.35
   7  -6 -16    0.24    0.16
  -7   6  16    0.35    0.21
  -7   6  16    0.49    0.16
   7  -6 -15   -0.06    0.11
  -7   6  15   -0.08    0.10
  -7   6  15    0.07    0.11
   7  -6 -14    0.72    0.17
   7  -6 -14    0.72    0.15
  -7   6  14    0.48    0.18
   7  -6 -13    0.55    0.17
   7  -6 -13    0.79    0.16
  -7   6  13    0.69    0.18
   7  -6 -12   17.37    1.01
   7  -6 -12   15.66    0.91
  -7   6  12   17.16    1.06
   7  -6 -11   40.17    1.97
   7  -6 -11   41.68    2.19
  -7   6  11   42.68    2.34
   7  -6 -10    0.57    0.13
   7  -6 -10    0.59    0.13
  -7   6  10    0.92    0.17
   7  -6  -9   -0.12    0.09
  -7   6   9    0.06    0.08
   7  -6  -8    1.24    0.18
   7  -6  -8    1.13    0.13
  -7   6   8    1.55    0.19
   7  -6  -7    3.39    0.30
   7  -6  -7    3.31    0.18
  -7   6   7    3.59    0.32
   7  -6  -6    1.32    0.17
   7  -6  -6    1.05    0.09
  -7   6   6    1.35    0.19
   7  -6  -5    4.92    0.31
   7  -6  -5    4.35    0.20
  -7   6   5    4.51    0.32
   7  -6  -4    0.46    0.11
   7  -6  -4    0.20    0.04
  -7   6   4    0.33    0.10
   7  -6  -3    0.11    0.09
  -7   6   3    0.35    0.09
   7  -6  -2    6.47    0.36
  -7   6   2    5.99    0.42
   7  -6  -1    0.11    0.10
  -7   6   1    0.17    0.08
   7  -6   0    0.62    0.16
  -7   6   0    0.47    0.14
   7  -6   1    4.08    0.27
  -7   6  -1    4.28    0.31
   7  -6   2    4.72    0.31
  -7   6  -2    4.64    0.34
   7  -6   3    2.06    0.21
  -7   6  -3    1.46    0.18
   7  -6   4    1.04    0.15
  -7   6  -4    1.13    0.15
   7  -6   5    2.92    0.24
  -7   6  -5    2.66    0.23
   7  -6   6    2.10    0.25
  -7   6  -6    1.99    0.22
   7  -6   7    0.05    0.08
   7  -6   7    0.04    0.05
  -7   6  -7    0.07    0.09
   7  -6   8    0.72    0.15
   7  -6   8    0.37    0.08
  -7   6  -8    0.54    0.13
   7  -6   9    1.49    0.21
  -7   6  -9    1.26    0.18
   7  -6  10    0.27    0.16
   7  -6  10    0.46    0.12
  -7   6 -10    0.70    0.14
   7  -6  11    0.90    0.17
   7  -6  11    0.98    0.17
  -7   6 -11    0.92    0.19
   7  -6  12    1.10    0.21
   7  -6  12    0.92    0.19
  -7   6 -12    0.99    0.21
   7  -6  13    0.79    0.19
   7  -6  13    0.77    0.19
  -7   6 -13    0.62    0.21
   7  -6  14    0.07    0.15
   7  -6  14    0.13    0.12
  -7   6 -14    0.19    0.15
   7  -6  15    0.27    0.15
   7  -6  15    0.11    0.13
  -7   6 -15   -0.04    0.14
   7  -6  16    0.06    0.15
   7  -6  16    0.31    0.16
  -7   6 -16    0.24    0.15
   7  -6  17    0.58    0.19
   7  -6  17    0.63    0.20
  -7   6 -17    0.34    0.15
   7  -6  18    1.83    0.28
   7  -6  18    1.33    0.28
  -7   6 -18    0.31    0.23
   7  -6  19   -0.16    0.19
   7  -6  19   -0.01    0.16
  -7   6 -19   -0.02    0.15
   7  -6  20    1.35    0.33
   7  -6  20    0.39    0.26
  -7   6 -20    0.56    0.26
   7  -5 -20    1.59    0.29
  -7   5  20    2.36    0.53
   7  -5 -19    0.24    0.21
  -7   5  19    0.63    0.30
   7  -5 -18    0.25    0.17
  -7   5  18    0.08    0.21
   7  -5 -17    0.07    0.12
  -7   5  17   -0.07    0.14
  -7   5  17   -0.03    0.11
   7  -5 -16    0.26    0.14
  -7   5  16    0.28    0.17
  -7   5  16   -0.00    0.13
   7  -5 -15    3.90    0.33
  -7   5  15    3.88    0.39
   7  -5 -14    1.21    0.22
   7  -5 -14    1.64    0.21
  -7   5  14    1.19    0.24
   7  -5 -13    2.28    0.23
   7  -5 -13    1.95    0.25
  -7   5  13    1.94    0.26
   7  -5 -12    0.60    0.12
   7  -5 -12   -0.04    0.10
  -7   5  12   -0.15    0.12
   7  -5 -11    2.58    0.24
   7  -5 -11    3.02    0.28
  -7   5  11    2.78    0.29
   7  -5 -10    0.65    0.13
   7  -5 -10    0.88    0.16
  -7   5  10    0.51    0.15
   7  -5  -9   25.61    1.25
   7  -5  -9   27.32    1.13
  -7   5   9   26.70    1.43
   7  -5  -8    0.54    0.09
   7  -5  -8    0.73    0.12
  -7   5   8    0.32    0.16
   7  -5  -7    6.91    0.42
   7  -5  -7    6.47    0.30
  -7   5   7    7.60    0.50
   7  -5  -6    0.53    0.15
  -7   5   6    0.72    0.13
   7  -5  -5    2.14    0.17
   7  -5  -5    1.79    0.11
  -7   5   5    2.34    0.19
   7  -5  -4   -0.05    0.06
   7  -5  -4   -0.01    0.03
  -7   5   4    0.23    0.07
   7  -5  -3    8.80    0.44
  -7   5   3    8.36    0.51
   7  -5  -2    2.16    0.17
  -7   5   2    2.15    0.19
   7  -5  -1    0.49    0.12
  -7   5   1    0.50    0.12
   7  -5   0    5.67    0.32
  -7   5   0    5.37    0.34
   7  -5   1   11.56    0.57
  -7   5  -1   11.15    0.59
   7  -5   2    0.09    0.12
  -7   5  -2    0.46    0.09
   7  -5   3    3.94    0.27
  -7   5  -3    3.51    0.32
   7  -5   4   10.45    0.59
  -7   5  -4   10.60    0.60
   7  -5   5    9.53    0.57
  -7   5  -5    9.39    0.55
   7  -5   6   26.20    1.28
  -7   5  -6   25.70    1.33
   7  -5   7    8.27    0.55
  -7   5  -7    8.76    0.59
   7  -5   8    0.36    0.12
  -7   5  -8    0.44    0.12
  -7   5  -8    0.47    0.08
   7  -5   9   -0.01    0.08
  -7   5  -9    0.07    0.06
  -7   5  -9   -0.05    0.10
   7  -5  10    0.65    0.14
  -7   5 -10    0.51    0.13
  -7   5 -10    0.35    0.09
   7  -5  11    2.06    0.27
  -7   5 -11    2.02    0.27
  -7   5 -11    1.88    0.19
   7  -5  12   16.14    1.00
  -7   5 -12   14.16    0.77
  -7   5 -12   15.20    0.95
   7  -5  13    0.81    0.17
  -7   5 -13    0.60    0.20
  -7   5 -13    0.80    0.16
   7  -5  14    6.34    0.57
  -7   5 -14    6.28    0.46
  -7   5 -14    5.95    0.57
   7  -5  15    0.00    0.12
  -7   5 -15   -0.02    0.09
  -7   5 -15    0.11    0.10
   7  -5  16    0.67    0.18
  -7   5 -16    0.62    0.20
  -7   5 -16    0.87    0.19
   7  -5  17    0.29    0.17
  -7   5 -17    0.32    0.16
  -7   5 -17    0.11    0.15
   7  -5  18   -0.24    0.15
  -7   5 -18    0.34    0.14
  -7   5 -18    0.03    0.14
   7  -5  19    0.36    0.19
  -7   5 -19    0.35    0.19
  -7   5 -19    0.31    0.19
   7  -5  20    1.16    0.29
  -7   5 -20    1.18    0.26
   7  -5  21    0.51    0.25
  -7   5 -21    0.87    0.27
   7  -4 -20    0.64    0.26
  -7   4  20    0.73    0.35
   7  -4 -19    6.70    0.61
  -7   4  19    7.74    0.96
   7  -4 -18    2.38    0.34
  -7   4  18    1.30    0.24
  -7   4  18    2.66    0.44
   7  -4 -17    0.01    0.12
  -7   4  17   -0.09    0.17
   7  -4 -16    0.87    0.17
  -7   4  16    0.77    0.22
   7  -4 -15    0.78    0.20
   7  -4 -14    0.08    0.09
   7  -4 -14    0.07    0.11
   7  -4 -13   30.64    1.59
   7  -4 -13   31.48    1.63
   7  -4 -12    2.29    0.20
   7  -4 -12    1.48    0.20
  -7   4  12    1.53    0.21
   7  -4 -11   23.29    1.16
   7  -4 -11   22.87    1.11
  -7   4  11   22.82    1.25
   7  -4 -10    1.99    0.22
  -7   4  10    2.30    0.23
   7  -4  -9    0.39    0.13
   7  -4  -9    0.61    0.10
  -7   4   9    0.58    0.13
   7  -4  -8    0.17    0.09
   7  -4  -8    0.03    0.06
  -7   4   8    0.17    0.10
   7  -4  -7    0.61    0.11
   7  -4  -7    0.40    0.07
  -7   4   7    0.58    0.11
   7  -4  -6    3.15    0.24
  -7   4   6    3.40    0.29
   7  -4  -5    0.26    0.08
  -7   4   5    0.49    0.12
   7  -4  -4    8.52    0.48
  -7   4   4    9.24    0.49
   7  -4  -3   14.02    0.61
  -7   4   3   14.17    0.72
   7  -4  -2   -0.04    0.09
  -7   4   2   -0.10    0.08
   7  -4  -1   -0.01    0.07
  -7   4   1    0.42    0.10
   7  -4   0   10.50    0.52
  -7   4   0   11.50    0.60
   7  -4   1    0.73    0.12
  -7   4  -1    0.72    0.12
   7  -4   2    4.33    0.27
  -7   4  -2    4.36    0.28
   7  -4   3   -0.10    0.08
  -7   4  -3    0.06    0.08
   7  -4   4    0.03    0.07
   7  -4   4   -0.03    0.02
  -7   4  -4    0.02    0.07
   7  -4   5    6.98    0.41
  -7   4  -5    6.85    0.43
   7  -4   6   -0.08    0.07
  -7   4  -6    0.01    0.03
  -7   4  -6    0.06    0.08
   7  -4   7    0.82    0.13
  -7   4  -7    0.56    0.07
  -7   4  -7    1.03    0.15
   7  -4   8    1.09    0.18
  -7   4  -8    0.64    0.08
  -7   4  -8    1.06    0.13
   7  -4   9    0.10    0.10
  -7   4  -9    0.03    0.08
  -7   4  -9    0.05    0.06
   7  -4  10    0.15    0.10
  -7   4 -10    0.17    0.09
  -7   4 -10    0.22    0.12
   7  -4  11    0.30    0.16
  -7   4 -11    0.43    0.11
  -7   4 -11    0.49    0.14
   7  -4  12    4.59    0.39
  -7   4 -12    5.82    0.37
  -7   4 -12    5.11    0.43
   7  -4  13    0.21    0.14
  -7   4 -13    0.85    0.16
  -7   4 -13    0.50    0.14
   7  -4  14    0.09    0.14
  -7   4 -14    0.24    0.13
  -7   4 -14   -0.02    0.11
   7  -4  15    1.05    0.21
  -7   4 -15    0.51    0.19
  -7   4 -15    0.87    0.18
   7  -4  16    0.10    0.14
  -7   4 -16    0.18    0.12
  -7   4 -16   -0.04    0.10
   7  -4  17    0.91    0.20
  -7   4 -17    0.90    0.22
  -7   4 -17    0.64    0.20
   7  -4  18    2.04    0.30
  -7   4 -18    1.44    0.29
  -7   4 -18    2.27    0.31
   7  -4  19    3.19    0.41
  -7   4 -19    2.73    0.40
  -7   4 -19    3.91    0.44
   7  -4  20    0.11    0.13
  -7   4 -20   -0.05    0.16
   7  -4  21   -0.17    0.19
  -7   4 -21   -0.04    0.18
   7  -3 -21    1.11    0.33
   7  -3 -20    1.76    0.34
  -7   3  20    1.73    0.43
   7  -3 -19    1.42    0.26
   7  -3 -19    1.84    0.29
  -7   3  19    2.26    0.43
   7  -3 -18    2.65    0.31
   7  -3 -18    2.64    0.37
  -7   3  18    2.38    0.46
   7  -3 -17    3.64    0.36
   7  -3 -17    3.72    0.37
   7  -3 -16    0.45    0.17
   7  -3 -16    0.42    0.14
  -7   3  16    0.41    0.21
   7  -3 -15    4.37    0.39
   7  -3 -15    4.25    0.36
  -7   3  15    2.60    0.39
   7  -3 -14    7.02    0.47
   7  -3 -14    6.85    0.50
   7  -3 -14    6.61    0.43
   7  -3 -13   14.03    0.83
   7  -3 -13   13.92    0.75
   7  -3 -13   14.04    0.85
   7  -3 -12    2.20    0.24
   7  -3 -12    2.15    0.26
   7  -3 -12    2.70    0.25
   7  -3 -11   24.43    1.18
   7  -3 -11   26.23    1.38
   7  -3 -11   26.35    1.26
   7  -3 -10    2.17    0.20
   7  -3 -10    1.95    0.24
   7  -3 -10    2.04    0.20
   7  -3  -9    4.26    0.27
   7  -3  -9    5.07    0.36
   7  -3  -9    4.33    0.27
   7  -3  -8    6.50    0.37
   7  -3  -8    6.84    0.40
   7  -3  -7   32.94    1.38
  -7   3   7   30.49    1.31
   7  -3  -6    5.80    0.33
  -7   3   6    5.38    0.39
  -7   3   6    6.15    0.30
   7  -3  -5   17.92    0.75
  -7   3   5   17.19    0.61
  -7   3   5   16.49    0.83
   7  -3  -4    0.76    0.10
  -7   3   4    1.04    0.16
  -7   3   4    0.81    0.06
   7  -3  -3   10.42    0.51
  -7   3   3   10.05    0.53
   7  -3  -2    3.79    0.20
  -7   3   2    3.40    0.26
   7  -3  -1    7.31    0.40
  -7   3   1    7.26    0.40
   7  -3   0    1.98    0.17
  -7   3   0    2.18    0.19
   7  -3   1    2.35    0.20
  -7   3  -1    1.83    0.19
   7  -3   2    0.24    0.10
  -7   3  -2    0.24    0.09
   7  -3   3    6.54    0.37
  -7   3  -3    6.62    0.40
   7  -3   4    5.10    0.35
  -7   3  -4    5.46    0.36
   7  -3   5   13.89    0.78
  -7   3  -5   15.58    0.81
   7  -3   6   -0.00    0.11
  -7   3  -6    0.02    0.09
  -7   3  -6    0.19    0.05
   7  -3   7    0.70    0.12
  -7   3  -7    0.83    0.11
  -7   3  -7    0.59    0.07
   7  -3   8    0.04    0.08
  -7   3  -8    0.12    0.07
  -7   3  -8    0.08    0.05
   7  -3   9    0.18    0.11
  -7   3  -9    0.10    0.10
  -7   3  -9    0.17    0.07
   7  -3  10    0.69    0.15
  -7   3 -10    0.73    0.11
  -7   3 -10    0.64    0.15
   7  -3  11    0.34    0.15
  -7   3 -11    0.13    0.12
  -7   3 -11    0.40    0.10
   7  -3  12    2.18    0.29
  -7   3 -12    1.92    0.21
  -7   3 -12    1.91    0.21
   7  -3  13    1.29    0.24
  -7   3 -13    1.48    0.19
  -7   3 -13    1.04    0.18
   7  -3  14    8.36    0.63
  -7   3 -14    8.33    0.61
  -7   3 -14    7.78    0.48
   7  -3  15    0.05    0.15
  -7   3 -15    0.04    0.11
  -7   3 -15    0.16    0.12
   7  -3  16    0.05    0.11
  -7   3 -16    0.01    0.09
  -7   3 -16    0.02    0.11
   7  -3  17    0.53    0.18
  -7   3 -17    0.60    0.18
  -7   3 -17    0.39    0.16
   7  -3  18    0.15    0.16
  -7   3 -18    0.40    0.17
  -7   3 -18    0.18    0.14
   7  -3  19    0.06    0.14
  -7   3 -19    0.18    0.14
   7  -3  20    1.47    0.35
  -7   3 -20    1.52    0.28
   7  -3  21    0.51    0.22
  -7   3 -21    0.06    0.20
  -7   2  21    0.97    0.33
   7  -2 -20    0.58    0.20
  -7   2  20    0.82    0.27
   7  -2 -19   -0.07    0.12
  -7   2  19   -0.11    0.11
  -7   2  19    0.16    0.17
   7  -2 -18    0.22    0.11
  -7   2  18    0.18    0.20
   7  -2 -17   -0.00    0.12
  -7   2  17    0.26    0.16
   7  -2 -16    1.85    0.26
  -7   2  16    1.93    0.31
   7  -2 -15    3.10    0.28
   7  -2 -15    3.17    0.30
  -7   2  15    3.44    0.35
   7  -2 -14    4.80    0.35
   7  -2 -14    4.91    0.30
   7  -2 -13    5.07    0.38
   7  -2 -13    4.96    0.34
   7  -2 -12    0.31    0.10
   7  -2 -12    0.17    0.09
  -7   2  12   -0.01    0.07
   7  -2 -11    0.44    0.11
   7  -2 -11    0.32    0.10
  -7   2  11    0.48    0.12
   7  -2 -10    0.90    0.14
   7  -2 -10    1.18    0.14
  -7   2  10    1.04    0.15
   7  -2  -9    1.06    0.14
   7  -2  -9    1.13    0.14
  -7   2   9    1.05    0.16
   7  -2  -8    3.96    0.26
   7  -2  -8    3.91    0.26
  -7   2   8    3.99    0.27
   7  -2  -7   12.46    0.56
   7  -2  -7   12.25    0.65
  -7   2   7   12.82    0.59
   7  -2  -6    5.15    0.29
   7  -2  -6    5.50    0.31
  -7   2   6    5.14    0.26
   7  -2  -5    0.91    0.12
   7  -2  -5    0.84    0.12
  -7   2   5    0.95    0.08
   7  -2  -4   -0.02    0.06
   7  -2  -4    0.11    0.06
   7  -2  -3    1.43    0.14
  -7   2   3    1.59    0.15
   7  -2  -2   12.86    0.53
  -7   2   2   13.11    0.65
  -7   2   2   11.66    0.29
   7  -2  -1    1.22    0.12
  -7   2   1    1.29    0.17
   7  -2   0    1.61    0.16
  -7   2   0    1.57    0.15
   7  -2   1    4.02    0.25
  -7   2  -1    5.20    0.31
   7  -2   2    4.08    0.24
  -7   2  -2    3.74    0.28
   7  -2   3    2.72    0.20
  -7   2  -3    2.80    0.23
   7  -2   4    0.10    0.07
  -7   2  -4    0.06    0.03
  -7   2  -4    0.22    0.08
   7  -2   5    0.86    0.13
  -7   2  -5    0.99    0.12
   7  -2   6    0.21    0.09
  -7   2  -6    0.33    0.10
  -7   2  -6    0.26    0.05
   7  -2   7    0.94    0.14
  -7   2  -7    0.90    0.14
  -7   2  -7    0.81    0.10
   7  -2   8    0.38    0.11
  -7   2  -8    0.39    0.09
  -7   2  -8    0.30    0.07
   7  -2   9    0.49    0.15
  -7   2  -9    0.62    0.11
  -7   2  -9    0.46    0.10
   7  -2  10    2.73    0.26
  -7   2 -10    2.77    0.24
  -7   2 -10    2.65    0.21
   7  -2  11    1.47    0.19
  -7   2 -11    1.02    0.17
  -7   2 -11    1.54    0.17
   7  -2  12    4.95    0.42
  -7   2 -12    5.30    0.38
  -7   2 -12    4.97    0.37
   7  -2  13    1.08    0.19
  -7   2 -13    0.87    0.16
  -7   2 -13    0.93    0.18
   7  -2  14    0.25    0.15
  -7   2 -14    0.09    0.11
   7  -2  15    0.15    0.13
  -7   2 -15    0.09    0.09
  -7   2 -15   -0.14    0.10
   7  -2  16   -0.09    0.10
  -7   2 -16   -0.04    0.08
  -7   2 -16    0.08    0.08
   7  -2  17    0.14    0.14
  -7   2 -17    0.12    0.11
  -7   2 -17    0.07    0.14
   7  -2  18    0.07    0.18
  -7   2 -18    0.63    0.15
   7  -2  19   -0.24    0.17
  -7   2 -19    0.08    0.15
   7  -2  20    0.15    0.22
  -7   2 -20    0.32    0.16
   7  -2  21   -0.09    0.16
  -7   2 -21   -0.11    0.19
   7  -1 -21    2.69    0.40
  -7   1  21    4.02    0.56
   7  -1 -20    0.41    0.18
  -7   1  20    0.50    0.30
   7  -1 -19    1.45    0.24
  -7   1  19    1.40    0.40
   7  -1 -18    0.29    0.16
  -7   1  18    0.48    0.22
  -7   1  18    0.76    0.22
   7  -1 -17    0.31    0.14
  -7   1  17    0.16    0.18
  -7   1  17    0.15    0.18
   7  -1 -16    0.64    0.16
  -7   1  16    0.41    0.19
  -7   1  16    0.66    0.20
   7  -1 -15    0.43    0.11
  -7   1  15    0.36    0.16
  -7   1  15    0.15    0.16
   7  -1 -14    0.81    0.14
   7  -1 -14    0.65    0.11
  -7   1  14    0.77    0.22
   7  -1 -13    0.23    0.10
   7  -1 -13    0.16    0.08
  -7   1  13    0.16    0.12
   7  -1 -12    0.55    0.14
   7  -1 -12    0.61    0.11
  -7   1  12    0.65    0.18
   7  -1 -11   -0.05    0.09
   7  -1 -11    0.02    0.06
  -7   1  11    0.06    0.08
   7  -1 -10    3.39    0.28
   7  -1 -10    3.65    0.23
  -7   1  10    3.79    0.31
   7  -1  -9    0.91    0.13
   7  -1  -9    0.99    0.12
  -7   1   9    1.14    0.16
   7  -1  -8    3.36    0.21
   7  -1  -8    3.18    0.26
  -7   1   8    3.32    0.25
   7  -1  -7    7.21    0.33
   7  -1  -7    7.07    0.41
  -7   1   7    6.94    0.37
   7  -1  -6    4.67    0.25
   7  -1  -6    4.17    0.26
  -7   1   6    4.34    0.23
   7  -1  -5    0.43    0.11
   7  -1  -5    0.63    0.09
  -7   1   5    0.33    0.07
   7  -1  -4    0.93    0.11
   7  -1  -4    0.83    0.11
  -7   1   4    0.90    0.08
   7  -1  -3    4.46    0.24
   7  -1  -3    4.41    0.28
  -7   1   3    4.04    0.15
   7  -1  -2    1.28    0.10
   7  -1  -2    0.65    0.14
  -7   1   2    0.98    0.06
   7  -1  -1    3.38    0.20
  -7   1   1    4.07    0.28
   7  -1   0    7.18    0.33
  -7   1   0    6.20    0.19
  -7   1   0    6.62    0.35
   7  -1   1    1.57    0.14
  -7   1  -1    1.10    0.13
  -7   1  -1    1.02    0.06
   7  -1   2    1.67    0.16
  -7   1  -2    1.43    0.14
  -7   1  -2    1.11    0.07
   7  -1   3   -0.04    0.10
  -7   1  -3    0.24    0.08
  -7   1  -3    0.24    0.05
   7  -1   4    3.97    0.29
  -7   1  -4    3.12    0.16
  -7   1  -4    4.35    0.26
   7  -1   5    2.73    0.25
  -7   1  -5    3.11    0.21
  -7   1  -5    2.38    0.14
   7  -1   6    4.08    0.28
  -7   1  -6    3.88    0.22
  -7   1  -6    4.43    0.28
   7  -1   7    4.60    0.33
  -7   1  -7    5.41    0.34
  -7   1  -7    4.25    0.25
   7  -1   8    0.08    0.08
  -7   1  -8    0.05    0.06
  -7   1  -8   -0.02    0.07
   7  -1   9   -0.02    0.10
  -7   1  -9    0.04    0.06
  -7   1  -9   -0.06    0.06
   7  -1  10    0.11    0.13
  -7   1 -10    0.15    0.08
  -7   1 -10    0.08    0.07
   7  -1  11    5.60    0.48
  -7   1 -11    5.14    0.37
  -7   1 -11    4.62    0.33
   7  -1  12    0.04    0.11
  -7   1 -12    0.12    0.09
  -7   1 -12   -0.04    0.08
   7  -1  13    8.41    0.68
  -7   1 -13    7.58    0.51
  -7   1 -13    9.28    0.59
   7  -1  14    0.95    0.22
  -7   1 -14    0.95    0.17
  -7   1 -14    1.27    0.21
   7  -1  15   -0.03    0.13
  -7   1 -15   -0.01    0.07
  -7   1 -15   -0.00    0.11
   7  -1  16    1.55    0.30
  -7   1 -16    1.22    0.25
   7  -1  17    2.16    0.37
  -7   1 -17    1.76    0.26
   7  -1  18    0.19    0.27
  -7   1 -18    0.88    0.21
   7  -1  19   -0.08    0.15
  -7   1 -19    0.19    0.15
   7  -1  20    0.11    0.18
  -7   1 -20    0.04    0.14
   7  -1  21    0.11    0.16
  -7   1 -21   -0.04    0.17
   7   0 -21    0.80    0.24
   7   0 -20    1.84    0.32
  -7   0  20    3.24    0.53
   7   0 -19    0.25    0.17
  -7   0  19    0.35    0.25
   7   0 -18    0.26    0.13
  -7   0  18    0.40    0.24
   7   0 -17    0.45    0.18
  -7   0  17    0.75    0.26
   7   0 -16    0.48    0.14
  -7   0  16    0.49    0.23
  -7   0  16    0.63    0.18
   7   0 -15    6.62    0.53
  -7   0  15    7.35    0.60
  -7   0  15    6.73    0.53
   7   0 -14    8.59    0.62
  -7   0  14    9.07    0.76
   7   0 -13    1.17    0.21
   7   0 -13    1.04    0.13
  -7   0  13    1.24    0.24
   7   0 -12    1.40    0.21
   7   0 -12    1.48    0.13
  -7   0  12    1.24    0.23
   7   0 -11    3.10    0.26
   7   0 -11    2.98    0.19
  -7   0  11    2.89    0.28
   7   0 -10    0.17    0.11
   7   0 -10    0.32    0.07
  -7   0  10    0.12    0.12
   7   0  -9   17.32    0.84
   7   0  -9   16.19    0.65
  -7   0   9   17.78    0.85
   7   0  -8    0.03    0.07
   7   0  -8    0.07    0.06
  -7   0   8   -0.13    0.07
   7   0  -7   10.85    0.46
   7   0  -7   10.37    0.57
  -7   0   7   10.87    0.53
   7   0  -6    0.67    0.09
   7   0  -6    0.48    0.10
  -7   0   6    0.62    0.09
   7   0  -5    0.90    0.11
   7   0  -5    0.71    0.12
  -7   0   5    0.58    0.09
   7   0  -4    2.14    0.14
   7   0  -4    1.75    0.17
  -7   0   4    1.76    0.11
   7   0  -3    8.16    0.36
   7   0  -3    7.63    0.37
  -7   0   3    7.88    0.29
   7   0  -2    0.45    0.07
   7   0  -2    0.45    0.11
  -7   0   2    0.34    0.06
   7   0  -1    4.20    0.24
   7   0  -1    4.25    0.27
  -7   0   1    3.82    0.15
   7   0   0    5.35    0.29
   7   0   0    5.61    0.27
  -7   0   0    4.99    0.20
   7   0   1   21.69    0.87
  -7   0  -1   19.71    0.63
  -7   0  -1   20.50    0.88
   7   0   2    6.95    0.39
  -7   0  -2    6.48    0.35
   7   0   3    5.61    0.33
  -7   0  -3    6.69    0.35
  -7   0  -3    5.49    0.23
   7   0   4    1.97    0.19
  -7   0  -4    2.24    0.14
  -7   0  -4    2.38    0.20
   7   0   5    4.69    0.35
  -7   0  -5    4.62    0.29
  -7   0  -5    4.72    0.23
   7   0   6    1.23    0.16
  -7   0  -6    1.25    0.12
  -7   0  -6    1.45    0.13
   7   0   7   -0.01    0.11
  -7   0  -7    0.10    0.07
  -7   0  -7    0.12    0.07
   7   0   8    8.90    0.56
  -7   0  -8    9.46    0.48
  -7   0  -8    8.01    0.39
   7   0   9   -0.05    0.10
  -7   0  -9    0.04    0.06
  -7   0  -9   -0.04    0.06
   7   0  10    0.62    0.19
  -7   0 -10    0.41    0.12
  -7   0 -10    0.60    0.12
   7   0  11    1.25    0.26
  -7   0 -11    1.05    0.14
  -7   0 -11    0.97    0.16
   7   0  12   25.37    1.59
  -7   0 -12   23.29    1.18
  -7   0 -12   22.72    1.12
   7   0  13   15.60    1.19
  -7   0 -13   12.81    0.74
  -7   0 -13   15.46    0.94
   7   0  14    0.59    0.22
  -7   0 -14    0.23    0.11
  -7   0 -14    0.55    0.16
   7   0  15    0.09    0.15
  -7   0 -15    0.21    0.14
   7   0  16    0.30    0.18
  -7   0 -16    0.48    0.18
   7   0  17    0.77    0.29
  -7   0 -17    1.08    0.24
   7   0  18    0.04    0.17
  -7   0 -18   -0.04    0.14
   7   0  19    0.52    0.24
  -7   0 -19    0.56    0.24
   7   0  20    0.34    0.25
  -7   0 -20    0.20    0.21
   7   0  21    0.32    0.18
  -7   0 -21   -0.03    0.15
   7   1 -21    0.70    0.24
  -7  -1  21    0.92    0.28
   7   1 -20    0.42    0.19
  -7  -1  20    0.17    0.23
   7   1 -19   -0.05    0.13
  -7  -1  19   -0.16    0.18
   7   1 -18    0.21    0.15
  -7  -1  18    0.57    0.20
   7   1 -17    0.76    0.23
  -7  -1  17    1.42    0.26
   7   1 -16    0.52    0.16
  -7  -1  16    1.08    0.25
   7   1 -15    0.90    0.22
  -7  -1  15    0.93    0.21
   7   1 -14    2.75    0.35
  -7  -1  14    2.27    0.29
  -7  -1  14    3.10    0.32
   7   1 -13    0.34    0.14
   7   1 -13    0.26    0.07
  -7  -1  13    0.23    0.13
   7   1 -12    0.22    0.12
   7   1 -12    0.04    0.06
  -7  -1  12    0.10    0.10
   7   1 -11    0.08    0.11
   7   1 -11    0.06    0.05
  -7  -1  11   -0.07    0.10
   7   1 -10    4.00    0.29
   7   1 -10    3.71    0.20
  -7  -1  10    4.00    0.34
   7   1  -9    4.09    0.33
   7   1  -9    3.85    0.19
  -7  -1   9    4.36    0.34
   7   1  -8   31.75    1.49
   7   1  -8   30.44    1.07
  -7  -1   8   34.79    1.54
   7   1  -7   10.73    0.42
   7   1  -7    9.86    0.57
  -7  -1   7   11.04    0.53
   7   1  -6    5.01    0.25
   7   1  -6    3.75    0.26
  -7  -1   6    4.22    0.24
   7   1  -5    0.58    0.08
   7   1  -5    0.51    0.12
  -7  -1   5    0.37    0.07
   7   1  -4    1.96    0.14
   7   1  -4    2.03    0.19
   7   1  -3   14.46    0.54
   7   1  -3   13.69    0.66
  -7  -1   3   13.14    0.52
   7   1  -2   13.60    0.56
   7   1  -2   14.67    0.63
  -7  -1   2   14.21    0.52
   7   1  -1    0.08    0.05
   7   1  -1    0.05    0.06
  -7  -1   1    0.04    0.05
   7   1   0    2.65    0.21
   7   1   0    2.84    0.20
  -7  -1   0    2.36    0.14
   7   1   1   11.77    0.51
   7   1   1   11.84    0.57
  -7  -1  -1   11.56    0.42
   7   1   2   15.24    0.70
  -7  -1  -2   13.58    0.51
  -7  -1  -2   14.40    0.67
   7   1   3   65.38    2.83
  -7  -1  -3   66.02    2.67
  -7  -1  -3   65.03    2.32
   7   1   4    0.30    0.10
  -7  -1  -4    0.32    0.07
  -7  -1  -4    0.35    0.09
   7   1   5    8.60    0.48
  -7  -1  -5    7.90    0.38
  -7  -1  -5    8.30    0.44
   7   1   6    0.42    0.12
  -7  -1  -6    0.31    0.09
  -7  -1  -6    0.39    0.09
   7   1   7    0.22    0.09
  -7  -1  -7    0.03    0.06
  -7  -1  -7    0.06    0.06
   7   1   8    0.07    0.13
  -7  -1  -8    0.03    0.06
  -7  -1  -8    0.09    0.06
   7   1   9    0.92    0.23
  -7  -1  -9    0.98    0.11
  -7  -1  -9    1.14    0.16
   7   1  10    6.04    0.54
  -7  -1 -10    5.21    0.30
  -7  -1 -10    5.15    0.34
   7   1  11    0.85    0.21
  -7  -1 -11    1.19    0.18
   7   1  12    0.56    0.19
  -7  -1 -12    0.18    0.11
  -7  -1 -12    0.21    0.08
   7   1  13    0.86    0.25
  -7  -1 -13    0.61    0.19
   7   1  14    1.55    0.27
  -7  -1 -14    1.24    0.24
   7   1  15    0.16    0.15
  -7  -1 -15    0.10    0.14
   7   1  16    0.12    0.22
  -7  -1 -16    0.36    0.14
   7   1  17    0.13    0.18
  -7  -1 -17    0.04    0.12
   7   1  18    0.15    0.14
  -7  -1 -18   -0.14    0.12
   7   1  19    3.16    0.55
  -7  -1 -19    2.94    0.41
   7   1  20    1.51    0.32
  -7  -1 -20    0.84    0.29
  -7  -1 -21    0.06    0.15
   7   2 -21    0.58    0.20
  -7  -2  21   -0.07    0.23
   7   2 -20    0.04    0.16
  -7  -2  20    0.03    0.17
   7   2 -19   -0.05    0.15
  -7  -2  19   -0.07    0.17
   7   2 -18    0.41    0.16
  -7  -2  18    0.12    0.24
   7   2 -17    4.49    0.50
  -7  -2  17    4.66    0.52
   7   2 -16    2.03    0.33
  -7  -2  16    2.66    0.41
   7   2 -15   -0.17    0.15
  -7  -2  15   -0.22    0.14
   7   2 -14    0.06    0.10
  -7  -2  14    0.06    0.12
   7   2 -13    0.04    0.09
  -7  -2  13   -0.03    0.10
   7   2 -12    1.86    0.21
   7   2 -12    1.68    0.11
  -7  -2  12    2.14    0.28
   7   2 -11    0.58    0.14
   7   2 -11    0.49    0.08
  -7  -2  11    0.99    0.18
   7   2 -10    0.71    0.17
   7   2 -10    1.13    0.09
  -7  -2  10    1.45    0.20
   7   2  -9    0.05    0.11
   7   2  -9    0.23    0.05
  -7  -2   9    0.20    0.10
   7   2  -8    4.56    0.37
   7   2  -8    4.41    0.20
  -7  -2   8    5.20    0.31
   7   2  -7    9.33    0.56
   7   2  -7    9.01    0.35
  -7  -2   7    9.75    0.53
   7   2  -6    2.76    0.16
   7   2  -6    2.33    0.24
  -7  -2   6    2.27    0.20
   7   2  -5    0.46    0.07
   7   2  -5    0.43    0.10
  -7  -2   5    0.64    0.10
   7   2  -4    4.85    0.22
   7   2  -4    4.60    0.31
  -7  -2   4    4.89    0.27
   7   2  -3    0.35    0.07
   7   2  -3    0.41    0.09
  -7  -2   3    0.39    0.08
   7   2  -2   50.41    1.80
   7   2  -2   50.64    2.07
  -7  -2   2   47.72    1.76
   7   2  -1   20.94    0.90
   7   2  -1   22.39    0.89
  -7  -2   1   20.19    0.79
   7   2   0    0.45    0.08
   7   2   0    0.34    0.10
  -7  -2   0    0.32    0.08
   7   2   1    3.92    0.25
   7   2   1    3.71    0.23
  -7  -2  -1    3.53    0.21
   7   2   2   -0.11    0.08
   7   2   2   -0.01    0.06
  -7  -2  -2   -0.04    0.06
   7   2   3   -0.03    0.09
  -7  -2  -3   -0.02    0.06
  -7  -2  -3   -0.02    0.05
   7   2   4   10.50    0.59
  -7  -2  -4    9.71    0.47
  -7  -2  -4    8.97    0.44
   7   2   5   10.54    0.65
  -7  -2  -5    9.94    0.49
  -7  -2  -5    9.67    0.47
   7   2   6    7.38    0.46
  -7  -2  -6    6.60    0.33
  -7  -2  -6    5.86    0.37
   7   2   7    0.08    0.10
  -7  -2  -7    0.13    0.07
  -7  -2  -7    0.08    0.09
   7   2   8    0.55    0.15
  -7  -2  -8    0.49    0.13
  -7  -2  -8    0.65    0.10
   7   2   9    0.11    0.12
  -7  -2  -9    0.35    0.09
  -7  -2  -9    0.16    0.07
   7   2  10    1.89    0.31
  -7  -2 -10    1.49    0.14
  -7  -2 -10    2.05    0.23
   7   2  11   10.91    0.78
  -7  -2 -11   10.61    0.67
   7   2  12    0.94    0.24
  -7  -2 -12    0.55    0.15
   7   2  13    1.04    0.29
  -7  -2 -13    1.64    0.25
   7   2  14    0.47    0.22
  -7  -2 -14    0.45    0.18
   7   2  15    0.42    0.22
  -7  -2 -15    0.30    0.14
   7   2  16   -0.19    0.16
  -7  -2 -16    0.14    0.13
   7   2  17    0.61    0.23
  -7  -2 -17    0.69    0.24
   7   2  18   -0.12    0.17
  -7  -2 -18    0.06    0.13
   7   2  19    0.88    0.30
  -7  -2 -19    1.26    0.28
   7   2  20   -0.03    0.22
  -7  -2 -20   -0.11    0.15
   7   3 -21    0.91    0.28
  -7  -3  21    0.31    0.35
   7   3 -20    1.54    0.38
  -7  -3  20    2.42    0.50
   7   3 -19    0.04    0.18
  -7  -3  19    0.20    0.21
   7   3 -18   -0.03    0.12
  -7  -3  18   -0.16    0.16
   7   3 -17    3.87    0.48
  -7  -3  17    4.45    0.56
   7   3 -16    0.29    0.20
  -7  -3  16    0.76    0.20
   7   3 -15    3.00    0.32
  -7  -3  15    3.31    0.39
   7   3 -14    0.69    0.17
  -7  -3  14    0.51    0.20
   7   3 -13    0.99    0.22
  -7  -3  13    1.02    0.21
   7   3 -12    2.46    0.31
  -7  -3  12    3.05    0.36
   7   3 -11    4.48    0.40
  -7  -3  11    4.81    0.45
   7   3 -10    1.23    0.19
  -7  -3  10    1.53    0.19
   7   3  -9    0.42    0.12
  -7  -3   9    0.50    0.16
   7   3  -8   15.99    0.85
  -7  -3   8   17.08    0.94
   7   3  -7    2.19    0.24
  -7  -3   7    2.16    0.21
   7   3  -6   -0.01    0.05
   7   3  -6   -0.07    0.09
  -7  -3   6   -0.03    0.07
   7   3  -5   -0.02    0.04
   7   3  -5    0.11    0.07
  -7  -3   5   -0.01    0.06
   7   3  -4    5.99    0.37
  -7  -3   4    5.20    0.29
   7   3  -3    7.49    0.32
   7   3  -3    8.69    0.47
  -7  -3   3    7.60    0.37
   7   3  -2   16.09    0.78
   7   3  -2   16.41    0.66
  -7  -3   2   15.90    0.70
   7   3  -1    0.45    0.11
   7   3  -1    0.61    0.10
  -7  -3   1    0.46    0.10
   7   3   0    3.85    0.28
   7   3   0    4.22    0.26
  -7  -3   0    4.14    0.25
   7   3   1    2.50    0.21
   7   3   1    2.71    0.22
  -7  -3  -1    2.82    0.19
   7   3   2    0.42    0.10
   7   3   2    0.43    0.10
  -7  -3  -2    0.39    0.09
   7   3   3    4.30    0.25
   7   3   3    4.06    0.29
  -7  -3  -3    3.85    0.23
   7   3   4    0.58    0.14
  -7  -3  -4    0.26    0.07
  -7  -3  -4    0.26    0.09
   7   3   5    4.79    0.36
  -7  -3  -5    4.57    0.26
  -7  -3  -5    4.52    0.30
   7   3   6    2.46    0.24
  -7  -3  -6    2.16    0.16
  -7  -3  -6    1.92    0.17
   7   3   7    0.17    0.10
  -7  -3  -7    0.05    0.06
  -7  -3  -7    0.07    0.09
   7   3   8   -0.02    0.12
  -7  -3  -8    0.06    0.06
  -7  -3  -8    0.37    0.11
   7   3   9    4.22    0.39
  -7  -3  -9    4.13    0.23
  -7  -3  -9    5.01    0.37
   7   3  10    0.06    0.15
  -7  -3 -10    0.17    0.09
  -7  -3 -10    0.03    0.06
   7   3  11    2.51    0.31
  -7  -3 -11    2.41    0.31
   7   3  12    0.10    0.13
  -7  -3 -12    0.06    0.13
   7   3  13    0.63    0.21
  -7  -3 -13    0.77    0.21
   7   3  14    0.26    0.18
  -7  -3 -14    0.32    0.14
   7   3  15    0.08    0.16
  -7  -3 -15    0.53    0.19
   7   3  16   -0.14    0.19
  -7  -3 -16   -0.07    0.13
   7   3  17    0.76    0.26
  -7  -3 -17    0.97    0.28
   7   3  18   -0.00    0.21
  -7  -3 -18    0.08    0.15
   7   3  19    0.23    0.22
  -7  -3 -19    0.29    0.19
   7   3  20    0.68    0.31
  -7  -3 -20    0.35    0.27
   7   4 -20    1.07    0.28
  -7  -4  20    0.94    0.39
   7   4 -19    0.42    0.18
  -7  -4  19    0.36    0.22
   7   4 -18    0.31    0.20
  -7  -4  18    0.30    0.25
   7   4 -17    1.80    0.35
  -7  -4  17    2.38    0.37
   7   4 -16    1.33    0.24
  -7  -4  16    1.84    0.35
   7   4 -15    0.02    0.13
  -7  -4  15   -0.06    0.15
   7   4 -14    4.46    0.44
  -7  -4  14    4.97    0.49
   7   4 -13    1.30    0.21
  -7  -4  13    1.14    0.23
   7   4 -12    0.65    0.17
  -7  -4  12    0.81    0.18
   7   4 -11   -0.11    0.10
  -7  -4  11    0.34    0.13
   7   4 -10    3.84    0.33
  -7  -4  10    4.30    0.36
   7   4  -9    6.09    0.44
  -7  -4   9    7.16    0.55
   7   4  -8    6.00    0.42
  -7  -4   8    5.81    0.44
   7   4  -7    2.29    0.26
   7   4  -7    2.65    0.14
  -7  -4   7    2.29    0.25
   7   4  -6   -0.07    0.10
   7   4  -6   -0.03    0.04
  -7  -4   6   -0.02    0.09
   7   4  -5    2.53    0.14
   7   4  -5    2.31    0.24
  -7  -4   5    2.99    0.25
   7   4  -4    2.63    0.16
   7   4  -4    2.60    0.23
  -7  -4   4    3.02    0.23
   7   4  -3   27.08    1.30
   7   4  -3   25.26    0.94
  -7  -4   3   25.92    1.18
   7   4  -2    6.38    0.41
   7   4  -2    5.84    0.30
  -7  -4   2    5.47    0.34
   7   4  -1    5.44    0.32
   7   4  -1    5.60    0.31
  -7  -4   1    5.03    0.32
   7   4   0    0.11    0.06
   7   4   0   -0.09    0.08
  -7  -4   0    0.09    0.06
   7   4   1    0.05    0.08
   7   4   1    0.19    0.07
  -7  -4  -1   -0.01    0.06
   7   4   2    4.69    0.29
   7   4   2    4.69    0.31
  -7  -4  -2    4.48    0.30
   7   4   3   10.54    0.49
   7   4   3   10.43    0.64
  -7  -4  -3   10.35    0.55
   7   4   4   -0.01    0.06
   7   4   4    0.01    0.07
  -7  -4  -4   -0.02    0.07
   7   4   5    5.06    0.41
  -7  -4  -5    4.82    0.32
  -7  -4  -5    5.15    0.28
   7   4   6    0.02    0.08
  -7  -4  -6    0.01    0.06
  -7  -4  -6   -0.04    0.07
   7   4   7    0.24    0.11
  -7  -4  -7    0.09    0.06
  -7  -4  -7    0.02    0.10
   7   4   8    0.68    0.16
  -7  -4  -8    0.48    0.08
  -7  -4  -8    0.49    0.15
   7   4   9    2.11    0.32
  -7  -4  -9    1.70    0.25
   7   4  10    2.34    0.30
  -7  -4 -10    2.24    0.26
   7   4  11    0.62    0.20
  -7  -4 -11    0.87    0.19
   7   4  12   -0.03    0.13
  -7  -4 -12   -0.05    0.13
   7   4  13    0.88    0.25
  -7  -4 -13    1.44    0.27
   7   4  14   -0.08    0.14
  -7  -4 -14    0.28    0.13
   7   4  15   -0.00    0.16
  -7  -4 -15    0.18    0.14
   7   4  16    0.13    0.19
  -7  -4 -16   -0.14    0.16
   7   4  17    0.77    0.32
  -7  -4 -17    1.26    0.27
   7   4  18    0.18    0.25
  -7  -4 -18    0.15    0.21
   7   4  19    0.58    0.30
  -7  -4 -19    1.04    0.32
   7   5 -20    0.14    0.18
  -7  -5  20    0.47    0.23
   7   5 -19    0.30    0.19
  -7  -5  19    0.51    0.24
   7   5 -18    1.64    0.39
  -7  -5  18    2.38    0.39
   7   5 -17    0.61    0.25
  -7  -5  17    0.56    0.30
   7   5 -16    0.37    0.16
  -7  -5  16    0.04    0.22
   7   5 -15    0.34    0.20
  -7  -5  15    0.37    0.21
   7   5 -14   -0.02    0.13
  -7  -5  14    0.57    0.18
   7   5 -13    0.91    0.22
  -7  -5  13    0.58    0.19
   7   5 -12    2.83    0.38
  -7  -5  12    4.30    0.44
   7   5 -11    0.65    0.19
  -7  -5  11    0.87    0.23
   7   5 -10    0.09    0.14
  -7  -5  10    0.11    0.12
   7   5  -9    9.67    0.61
  -7  -5   9   10.42    0.71
   7   5  -8    5.83    0.43
  -7  -5   8    5.92    0.43
   7   5  -7    0.81    0.15
  -7  -5   7    0.84    0.18
   7   5  -6    1.25    0.21
  -7  -5   6    1.23    0.20
   7   5  -5    6.18    0.25
   7   5  -5    7.34    0.48
  -7  -5   5    7.91    0.47
   7   5  -4   33.70    1.26
   7   5  -4   36.57    1.74
  -7  -5   4   37.76    1.76
   7   5  -3    1.11    0.20
   7   5  -3    1.32    0.13
  -7  -5   3    1.49    0.18
   7   5  -2    9.38    0.56
   7   5  -2    9.11    0.43
  -7  -5   2    8.37    0.46
   7   5  -1    2.59    0.25
   7   5  -1    2.61    0.20
  -7  -5   1    2.31    0.20
   7   5   0    1.60    0.18
   7   5   0    1.50    0.18
  -7  -5   0    1.72    0.20
   7   5   1    3.72    0.27
   7   5   1    4.09    0.30
  -7  -5  -1    3.41    0.25
   7   5   2   15.34    0.73
   7   5   2   13.36    0.79
  -7  -5  -2   13.86    0.71
   7   5   3   22.96    0.99
   7   5   3   21.04    1.09
  -7  -5  -3   21.30    1.08
   7   5   4    5.47    0.32
   7   5   4    5.64    0.44
  -7  -5  -4    5.30    0.34
   7   5   5    4.79    0.26
   7   5   5    6.36    0.45
  -7  -5  -5    7.06    0.44
   7   5   6    0.26    0.15
  -7  -5  -6    0.27    0.13
  -7  -5  -6    0.27    0.08
   7   5   7    4.22    0.47
  -7  -5  -7    4.26    0.24
  -7  -5  -7    4.30    0.37
   7   5   8    0.77    0.19
  -7  -5  -8    0.61    0.17
   7   5   9    3.56    0.44
  -7  -5  -9    3.27    0.30
   7   5  10    2.41    0.34
  -7  -5 -10    2.51    0.33
   7   5  11    1.65    0.33
  -7  -5 -11    2.37    0.28
   7   5  12    0.63    0.20
  -7  -5 -12    0.78    0.19
  -7  -5 -13    0.02    0.11
   7   5  14    0.35    0.18
  -7  -5 -14    0.18    0.19
   7   5  15    0.14    0.21
  -7  -5 -15   -0.30    0.18
   7   5  16    0.47    0.25
  -7  -5 -16    0.63    0.22
   7   5  17    0.86    0.36
  -7  -5 -17    1.14    0.33
   7   5  18    0.37    0.19
  -7  -5 -18   -0.05    0.17
   7   5  19   -0.14    0.27
  -7  -5 -19   -0.14    0.23
   7   6 -19    0.08    0.13
  -7  -6  19   -0.16    0.19
   7   6 -18   -0.04    0.17
  -7  -6  18    0.10    0.16
   7   6 -17    0.26    0.22
  -7  -6  17    0.32    0.20
   7   6 -16    0.13    0.13
  -7  -6  16   -0.08    0.15
   7   6 -15    0.82    0.26
  -7  -6  15    1.13    0.27
   7   6 -14    3.36    0.37
  -7  -6  14    3.33    0.44
   7   6 -13    0.69    0.21
  -7  -6  13    1.20    0.28
   7   6 -12    1.08    0.27
  -7  -6  12    1.62    0.31
   7   6 -11    1.26    0.28
  -7  -6  11    1.71    0.28
   7   6 -10    6.15    0.56
  -7  -6  10    6.77    0.56
   7   6  -9    4.59    0.41
  -7  -6   9    4.90    0.41
   7   6  -8    0.12    0.11
  -7  -6   8    0.36    0.15
   7   6  -7    0.31    0.14
  -7  -6   7    0.14    0.13
   7   6  -6   18.28    1.12
  -7  -6   6   18.93    1.04
   7   6  -5    0.40    0.07
   7   6  -5    0.56    0.16
  -7  -6   5    0.68    0.16
   7   6  -4    0.04    0.11
   7   6  -4    0.05    0.05
  -7  -6   4    0.15    0.09
   7   6  -3    1.87    0.19
   7   6  -3    1.52    0.14
  -7  -6   3    1.78    0.18
   7   6  -2    0.71    0.16
   7   6  -2    0.75    0.11
  -7  -6   2    0.66    0.12
   7   6  -1    0.47    0.12
   7   6  -1    0.33    0.11
  -7  -6   1    0.41    0.11
   7   6   0    0.23    0.11
   7   6   0    0.18    0.11
  -7  -6   0    0.14    0.12
   7   6   1    2.07    0.21
   7   6   1    2.10    0.24
  -7  -6  -1    2.35    0.25
   7   6   2    4.59    0.32
   7   6   2    4.81    0.39
  -7  -6  -2    5.22    0.33
   7   6   3    3.48    0.25
   7   6   3    3.44    0.34
  -7  -6  -3    4.07    0.32
   7   6   4   11.66    0.55
   7   6   4   11.01    0.71
  -7  -6  -4   10.56    0.67
   7   6   5    2.80    0.19
   7   6   5    3.10    0.36
  -7  -6  -5    4.09    0.32
   7   6   6    1.08    0.24
  -7  -6  -6    1.28    0.21
   7   6   7    1.78    0.32
  -7  -6  -7    2.55    0.28
  -7  -6  -7    1.93    0.16
   7   6   8    0.63    0.18
  -7  -6  -8    0.61    0.14
   7   6   9    0.46    0.25
  -7  -6  -9    0.89    0.20
   7   6  10    4.29    0.55
  -7  -6 -10    4.39    0.49
   7   6  11    0.28    0.16
  -7  -6 -11   -0.19    0.11
   7   6  12    0.34    0.22
  -7  -6 -12    0.20    0.15
   7   6  13    0.61    0.30
  -7  -6 -13    0.88    0.23
   7   6  14    1.11    0.30
  -7  -6 -14    1.23    0.27
   7   6  15    3.45    0.57
  -7  -6 -15    4.57    0.58
   7   6  16    1.46    0.47
  -7  -6 -16    1.68    0.35
   7   6  17    0.70    0.29
  -7  -6 -17    0.79    0.31
   7   6  18   -0.11    0.18
  -7  -6 -18   -0.03    0.18
   7   7 -19   -0.00    0.20
  -7  -7  19    0.12    0.20
   7   7 -18    0.20    0.19
  -7  -7  18    0.42    0.28
   7   7 -17   -0.30    0.17
  -7  -7  17   -0.06    0.26
   7   7 -16    0.48    0.21
  -7  -7  16    0.07    0.22
   7   7 -15    0.58    0.19
  -7  -7  15   -0.05    0.24
   7   7 -14   -0.11    0.16
  -7  -7  14    0.33    0.19
   7   7 -13    0.63    0.20
  -7  -7  13    0.71    0.21
   7   7 -12    0.06    0.14
  -7  -7  12    0.09    0.13
   7   7 -11    9.60    0.78
  -7  -7  11   10.37    0.74
   7   7 -10    0.27    0.13
  -7  -7  10    0.14    0.14
   7   7  -9    4.02    0.40
  -7  -7   9    4.09    0.46
   7   7  -8    0.32    0.16
  -7  -7   8    0.27    0.14
   7   7  -7    2.98    0.30
  -7  -7   7    2.84    0.34
   7   7  -6    0.60    0.19
  -7  -7   6    0.92    0.19
   7   7  -5    3.38    0.37
  -7  -7   5    3.64    0.32
   7   7  -4   34.77    1.98
  -7  -7   4   34.31    1.89
   7   7  -3    4.39    0.39
   7   7  -3    3.77    0.26
  -7  -7   3    4.41    0.33
   7   7  -2   12.69    0.78
   7   7  -2   10.47    0.61
  -7  -7   2   12.96    0.76
   7   7  -1    5.89    0.47
  -7  -7   1    6.64    0.50
   7   7   0    1.22    0.18
   7   7   0    1.01    0.17
  -7  -7   0    1.26    0.21
   7   7   1    0.29    0.11
   7   7   1    0.01    0.12
  -7  -7  -1    0.39    0.13
   7   7   2    1.86    0.22
   7   7   2    2.36    0.25
  -7  -7  -2    2.59    0.27
   7   7   3    0.60    0.12
   7   7   3    0.88    0.18
  -7  -7  -3    0.75    0.17
   7   7   4    2.49    0.21
   7   7   4    2.70    0.31
  -7  -7  -4    2.69    0.26
   7   7   5    0.46    0.10
   7   7   5    0.66    0.18
  -7  -7  -5    0.70    0.15
   7   7   6    0.24    0.14
  -7  -7  -6    0.38    0.16
   7   7   7   -0.00    0.12
  -7  -7  -7   -0.08    0.10
   7   7   8    0.07    0.14
  -7  -7  -8   -0.02    0.10
   7   7   9    7.57    0.80
  -7  -7  -9    7.46    0.60
   7   7  10    0.83    0.26
  -7  -7 -10    1.37    0.27
   7   7  11    0.81    0.23
  -7  -7 -11    0.86    0.25
   7   7  12    6.51    0.54
  -7  -7 -12    2.11    0.48
   7   7  13    1.19    0.36
  -7  -7 -13    1.10    0.33
   7   7  14    0.19    0.23
  -7  -7 -14    0.08    0.16
   7   7  15    0.92    0.31
  -7  -7 -15    0.75    0.25
   7   7  16    1.66    0.49
  -7  -7 -16    1.70    0.42
   7   7  17    0.16    0.23
  -7  -7 -17    0.15    0.18
   7   8 -18   -0.10    0.19
  -7  -8  18    0.03    0.23
   7   8 -17   -0.25    0.16
  -7  -8  17    0.18    0.24
   7   8 -16    0.16    0.19
  -7  -8  16   -0.04    0.21
   7   8 -15    1.20    0.27
  -7  -8  15    0.77    0.27
   7   8 -14    1.01    0.32
  -7  -8  14    0.96    0.27
   7   8 -13   -0.10    0.13
  -7  -8  13    0.20    0.16
   7   8 -12    1.35    0.26
  -7  -8  12    1.33    0.35
   7   8 -11    0.55    0.24
  -7  -8  11    0.60    0.20
   7   8 -10    0.93    0.27
  -7  -8  10    1.26    0.25
   7   8  -9    0.06    0.11
  -7  -8   9   -0.06    0.13
   7   8  -8   -0.03    0.11
  -7  -8   8   -0.06    0.11
   7   8  -7    0.17    0.13
  -7  -8   7   -0.23    0.12
   7   8  -6    3.41    0.34
  -7  -8   6    3.48    0.37
   7   8  -5    1.64    0.23
  -7  -8   5    1.03    0.25
   7   8  -4   46.74    2.55
  -7  -8   4   46.30    2.56
   7   8  -3    1.88    0.24
   7   8  -3    1.86    0.18
  -7  -8   3    1.95    0.24
   7   8  -2    2.17    0.27
   7   8  -2    1.58    0.21
  -7  -8   2    2.37    0.29
   7   8  -1    0.62    0.16
   7   8  -1    0.45    0.13
  -7  -8   1    0.56    0.15
   7   8   0    0.48    0.14
  -7  -8   0    0.72    0.18
   7   8   1    3.15    0.31
   7   8   1    2.28    0.29
  -7  -8  -1    3.17    0.30
   7   8   2    0.55    0.14
   7   8   2    0.21    0.16
  -7  -8  -2    0.60    0.15
   7   8   3    8.10    0.54
   7   8   3    9.75    0.70
  -7  -8  -3   10.58    0.75
   7   8   4    1.72    0.19
   7   8   4    1.68    0.28
  -7  -8  -4    1.78    0.22
   7   8   5    1.40    0.18
   7   8   5    1.93    0.31
  -7  -8  -5    2.11    0.23
   7   8   6   -0.01    0.15
  -7  -8  -6    0.14    0.11
   7   8   7    1.45    0.25
  -7  -8  -7    1.04    0.26
   7   8   8    1.19    0.30
  -7  -8  -8    1.04    0.21
   7   8   9    1.06    0.29
  -7  -8  -9    1.59    0.26
   7   8  10    0.22    0.20
  -7  -8 -10    0.43    0.20
   7   8  11    0.06    0.13
  -7  -8 -11   -0.07    0.14
   7   8  12    0.68    0.26
  -7  -8 -12    0.62    0.27
   7   8  13   -0.22    0.22
  -7  -8 -13    0.00    0.15
   7   8  14    0.28    0.17
  -7  -8 -14   -0.18    0.14
   7   8  15   -0.15    0.22
  -7  -8 -15   -0.32    0.23
   7   8  16    0.41    0.27
  -7  -8 -16    0.16    0.21
   7   9 -17    0.32    0.25
  -7  -9  17    0.96    0.27
   7   9 -16    0.31    0.20
  -7  -9  16   -0.08    0.18
   7   9 -15    1.31    0.35
  -7  -9  15    1.92    0.35
   7   9 -14    0.29    0.24
  -7  -9  14    0.56    0.26
   7   9 -13    0.75    0.21
  -7  -9  13    0.16    0.21
   7   9 -12    0.40    0.19
  -7  -9  12    0.41    0.22
   7   9 -11    0.41    0.22
  -7  -9  11    0.22    0.20
   7   9 -10    0.20    0.18
  -7  -9  10    0.18    0.18
   7   9  -9    0.76    0.22
  -7  -9   9    1.15    0.26
   7   9  -8    2.42    0.34
  -7  -9   8    2.62    0.32
   7   9  -7    0.43    0.22
  -7  -9   7    0.71    0.20
   7   9  -6    0.56    0.15
  -7  -9   6    0.30    0.15
   7   9  -5    0.79    0.23
  -7  -9   5    0.75    0.18
   7   9  -4    6.35    0.56
  -7  -9   4    5.79    0.47
   7   9  -3    0.68    0.15
  -7  -9   3    0.58    0.17
   7   9  -2    0.84    0.19
   7   9  -2    0.70    0.16
  -7  -9   2    0.74    0.17
   7   9  -1    0.13    0.09
   7   9  -1   -0.06    0.09
  -7  -9   1    0.05    0.13
   7   9   0    1.70    0.22
   7   9   0    1.45    0.23
  -7  -9   0    2.24    0.24
   7   9   1    1.74    0.24
   7   9   1    1.73    0.26
  -7  -9  -1    2.08    0.25
   7   9   2    8.65    0.59
   7   9   2    7.53    0.59
  -7  -9  -2    9.62    0.74
   7   9   3    0.58    0.14
   7   9   3    0.68    0.19
  -7  -9  -3    0.61    0.17
   7   9   4    0.64    0.14
   7   9   4    0.57    0.22
  -7  -9  -4    0.66    0.21
   7   9   5    0.75    0.22
  -7  -9  -5    0.64    0.18
   7   9   6   -0.13    0.15
  -7  -9  -6   -0.04    0.12
   7   9   7    1.08    0.24
  -7  -9  -7    0.73    0.25
   7   9   8    1.38    0.31
  -7  -9  -8    1.17    0.31
   7   9   9    2.34    0.48
  -7  -9  -9    3.27    0.43
   7   9  10   -0.01    0.18
  -7  -9 -10    0.03    0.15
   7   9  11    0.44    0.25
  -7  -9 -11    0.13    0.22
   7   9  12    2.00    0.43
  -7  -9 -12    1.33    0.38
   7   9  13    0.96    0.31
  -7  -9 -13    0.83    0.27
   7   9  14    0.17    0.24
  -7  -9 -14    0.20    0.21
   7   9  15    3.12    0.63
  -7  -9 -15    1.64    0.52
   7  10 -16    2.82    0.57
   7  10 -15    0.14    0.21
  -7 -10  15    0.31    0.21
   7  10 -14    1.39    0.44
  -7 -10  14    2.39    0.47
   7  10 -13    0.19    0.23
  -7 -10  13    0.18    0.19
   7  10 -12    0.26    0.22
  -7 -10  12    1.05    0.28
   7  10 -11    0.04    0.17
  -7 -10  11    0.65    0.23
   7  10 -10    0.42    0.19
  -7 -10  10    0.47    0.25
   7  10  -9    0.70    0.21
  -7 -10   9    0.80    0.26
   7  10  -8    1.19    0.29
  -7 -10   8    1.26    0.23
   7  10  -7    0.95    0.25
  -7 -10   7    0.83    0.20
   7  10  -6    0.27    0.17
  -7 -10   6    0.04    0.15
   7  10  -5    0.72    0.20
  -7 -10   5    0.81    0.24
   7  10  -4   -0.08    0.10
  -7 -10   4    0.07    0.10
   7  10  -3   -0.06    0.10
  -7 -10   3    0.05    0.10
   7  10  -2    0.33    0.17
  -7 -10   2    0.42    0.16
   7  10  -1    0.07    0.10
  -7 -10   1    0.01    0.12
   7  10   0    0.52    0.13
   7  10   0    0.15    0.14
  -7 -10   0    0.63    0.16
   7  10   1    1.86    0.24
   7  10   1    1.21    0.25
  -7 -10  -1    2.31    0.32
   7  10   2    0.11    0.11
  -7 -10  -2    0.04    0.15
   7  10   3    0.69    0.16
   7  10   3    0.64    0.21
  -7 -10  -3    0.80    0.20
   7  10   4    0.09    0.15
  -7 -10  -4    0.18    0.13
   7  10   5   -0.00    0.13
  -7 -10  -5   -0.00    0.10
   7  10   6    0.19    0.12
  -7 -10  -6   -0.14    0.12
   7  10   7    0.65    0.26
  -7 -10  -7    0.65    0.20
   7  10   8    0.44    0.24
  -7 -10  -8    1.31    0.28
   7  10   9   -0.17    0.14
  -7 -10  -9    0.12    0.13
   7  10  10   -0.18    0.15
  -7 -10 -10    0.13    0.14
   7  10  11    1.09    0.33
   7  10  12    0.33    0.28
  -7 -10 -12    0.47    0.23
   7  10  13    0.12    0.34
  -7 -10 -13    0.57    0.28
   7  11 -14   -0.08    0.22
  -7 -11  14    0.22    0.21
   7  11 -13    0.10    0.15
  -7 -11  13   -0.05    0.15
   7  11 -12    0.12    0.18
  -7 -11  12    0.18    0.22
   7  11 -11    1.85    0.47
  -7 -11  11    2.68    0.44
   7  11 -10    0.46    0.24
  -7 -11  10    0.19    0.23
   7  11  -9   -0.15    0.18
  -7 -11   9   -0.00    0.17
   7  11  -8    0.71    0.22
  -7 -11   8    0.57    0.27
   7  11  -7    0.51    0.25
  -7 -11   7    0.55    0.19
   7  11  -6    4.75    0.49
  -7 -11   6    4.17    0.43
   7  11  -5   -0.09    0.16
  -7 -11   5   -0.04    0.16
   7  11  -4    3.46    0.46
  -7 -11   4    3.29    0.37
   7  11  -3    0.05    0.14
  -7 -11   3    0.02    0.13
   7  11  -2    1.02    0.19
  -7 -11   2    0.78    0.21
   7  11  -1   -0.12    0.12
  -7 -11   1    0.21    0.14
   7  11   0    0.27    0.15
   7  11   0    0.30    0.13
  -7 -11   0   -0.04    0.18
   7  11   1    0.20    0.13
   7  11   1   -0.02    0.13
  -7 -11  -1    0.23    0.18
   7  11   2   -0.05    0.10
   7  11   2   -0.00    0.11
  -7 -11  -2    0.14    0.15
   7  11   3    4.38    0.56
  -7 -11  -3    6.24    0.60
   7  11   4    0.84    0.22
  -7 -11  -4    1.16    0.28
   7  11   5    0.01    0.15
  -7 -11  -5   -0.04    0.15
   7  11   6   -0.09    0.17
  -7 -11  -6    0.26    0.18
   7  11   7   -0.09    0.16
  -7 -11  -7   -0.14    0.18
   7  11   8    0.22    0.21
  -7 -11  -8    0.17    0.22
   7  11   9   -0.07    0.22
  -7 -11  -9    0.20    0.17
   7  11  10    1.35    0.38
  -7 -11 -10    0.67    0.28
   7  11  11   -0.00    0.25
  -7 -11 -11    0.24    0.18
   7  12 -12    0.08    0.21
  -7 -12  12    0.08    0.21
   7  12 -11    1.03    0.38
  -7 -12  11    1.29    0.36
   7  12 -10   -0.15    0.20
  -7 -12  10    0.15    0.15
   7  12  -9    0.20    0.23
  -7 -12   9    0.24    0.18
   7  12  -8    2.72    0.43
  -7 -12   8    3.09    0.40
   7  12  -7    0.19    0.19
  -7 -12   7    0.30    0.18
   7  12  -6   -0.08    0.19
  -7 -12   6    0.25    0.18
   7  12  -5    0.89    0.25
  -7 -12   5    0.42    0.21
   7  12  -4   -0.07    0.12
  -7 -12   4    0.15    0.15
   7  12  -3    1.02    0.27
  -7 -12   3    1.01    0.23
   7  12  -2    0.00    0.15
  -7 -12   2    0.13    0.16
   7  12  -1    1.30    0.30
  -7 -12   1    1.89    0.31
   7  12   0    0.65    0.17
  -7 -12   0    0.68    0.22
   7  12   1    0.01    0.14
   7  12   1    0.09    0.13
  -7 -12  -1    0.38    0.16
   7  12   2    0.64    0.21
  -7 -12  -2    1.01    0.26
   7  12   3    0.16    0.18
  -7 -12  -3    0.29    0.21
   7  12   4   -0.14    0.14
  -7 -12  -4    0.20    0.16
   7  12   5    0.28    0.18
  -7 -12  -5    0.31    0.23
   7  12   6    0.07    0.19
   7  12   7    0.05    0.16
  -7 -12  -7   -0.15    0.16
   7  12   8    1.42    0.39
  -7 -12  -8    1.43    0.39
   7  12   9    0.80    0.37
  -7 -12  -9    0.92    0.37
   7  13 -10    1.08    0.37
   7  13  -9    0.63    0.31
  -7 -13   9    0.41    0.29
   7  13  -8    1.83    0.37
   7  13  -7    0.99    0.36
   7  13  -6    0.20    0.25
  -7 -13   6    0.35    0.19
   7  13  -5    0.17    0.18
  -7 -13   5   -0.03    0.14
   7  13  -4    0.05    0.18
  -7 -13   4   -0.16    0.18
   7  13  -3    1.16    0.29
  -7 -13   3    0.80    0.23
   7  13  -2    0.12    0.18
  -7 -13   2    0.25    0.21
   7  13  -1    0.13    0.17
  -7 -13   1    0.20    0.17
  -7 -13   0    0.14    0.20
  -7 -13  -1   -0.22    0.18
  -7 -13  -2    0.09    0.16
   7  13   3   -0.12    0.19
  -7 -13  -3   -0.15    0.21
   7  13   4    0.03    0.16
  -7 -13  -4   -0.02    0.16
   7  13   5    0.06    0.19
  -7 -13  -5   -0.18    0.17
   7  13   6    1.55    0.40
  -7 -13  -6    1.46    0.43
   7  14  -5    0.18    0.24
   7  14  -4    0.06    0.20
   7  14  -3    0.43    0.26
  -7 -14   3    0.52    0.21
  -7 -14   0   -0.07    0.16
  -7 -14  -1   -0.07    0.20
  -7 -14  -2    0.19    0.24
   8 -16  -1    0.32    0.21
  -8  16   1    0.21    0.23
   8 -16   0    0.04    0.13
  -8  16   0    0.03    0.19
   8 -16   1    1.24    0.28
  -8  16  -1    0.91    0.30
   8 -16   2    0.65    0.19
  -8  16  -2    0.33    0.24
   8 -16   3    0.55    0.27
  -8  16  -3    1.37    0.31
   8 -16   4   -0.12    0.17
  -8  16  -4    0.35    0.18
   8 -15  -6    0.01    0.17
   8 -15  -5    1.57    0.37
  -8  15   5    1.37    0.31
   8 -15  -4    0.25    0.19
  -8  15   4    0.13    0.15
   8 -15  -3    1.11    0.25
  -8  15   3    0.78    0.29
   8 -15  -2    0.14    0.13
  -8  15   2    0.09    0.18
   8 -15  -1    0.11    0.15
  -8  15   1   -0.02    0.14
   8 -15   0    0.66    0.21
  -8  15   0    0.14    0.24
   8 -15   1    0.60    0.17
  -8  15  -1    0.15    0.23
   8 -15   2    0.43    0.21
  -8  15  -2    0.37    0.25
   8 -15   3    0.44    0.18
  -8  15  -3    0.01    0.24
   8 -15   4    0.30    0.13
  -8  15  -4   -0.14    0.18
   8 -15   5    0.26    0.14
  -8  15  -5   -0.19    0.17
   8 -15   6    0.61    0.19
  -8  15  -6    0.13    0.21
   8 -15   7    1.08    0.27
  -8  15  -7    0.72    0.34
   8 -15   8    0.56    0.24
  -8  15  -8    0.61    0.26
  -8  15  -9    0.42    0.24
   8 -14  -9    0.38    0.24
   8 -14  -8    0.01    0.16
   8 -14  -7   -0.04    0.17
  -8  14   7   -0.03    0.13
   8 -14  -6    0.28    0.14
  -8  14   6   -0.17    0.14
   8 -14  -5    0.84    0.21
  -8  14   5    0.52    0.23
   8 -14  -4    0.35    0.17
  -8  14   4    0.25    0.20
   8 -14  -3    0.00    0.13
  -8  14   3   -0.28    0.16
   8 -14  -2    0.33    0.16
  -8  14   2    0.25    0.20
   8 -14  -1    0.08    0.12
  -8  14   1   -0.03    0.13
   8 -14   0   -0.09    0.16
  -8  14   0    0.28    0.14
   8 -14   1    0.83    0.20
  -8  14  -1    0.24    0.19
   8 -14   2    0.20    0.16
  -8  14  -2    0.08    0.19
   8 -14   3    0.34    0.15
  -8  14  -3    0.31    0.23
   8 -14   4   -0.07    0.12
  -8  14  -4    0.05    0.16
   8 -14   5    0.09    0.18
  -8  14  -5    0.40    0.18
   8 -14   6   -0.06    0.11
  -8  14  -6    0.05    0.18
   8 -14   7    0.36    0.17
  -8  14  -7   -0.01    0.18
   8 -14   8    0.89    0.23
  -8  14  -8    0.64    0.26
   8 -14   9    0.13    0.15
  -8  14  -9    0.02    0.17
   8 -14  10    0.98    0.23
  -8  14 -10    0.40    0.31
  -8  14 -11   -0.13    0.19
  -8  14 -12    0.28    0.26
   8 -13 -11    0.40    0.19
   8 -13 -10    0.26    0.22
   8 -13  -9    0.18    0.20
   8 -13  -8    0.03    0.16
  -8  13   8    0.07    0.14
   8 -13  -7    0.04    0.16
  -8  13   7    0.09    0.14
   8 -13  -6    0.40    0.16
  -8  13   6    0.18    0.14
   8 -13  -5    0.74    0.19
  -8  13   5    0.50    0.21
   8 -13  -4   -0.03    0.11
  -8  13   4   -0.03    0.14
   8 -13  -3    0.21    0.14
  -8  13   3    0.13    0.16
   8 -13  -2   -0.02    0.12
  -8  13   2   -0.11    0.15
   8 -13  -1    0.06    0.10
  -8  13   1   -0.08    0.14
   8 -13   0    2.81    0.30
  -8  13   0    1.73    0.37
   8 -13   1    0.19    0.13
  -8  13  -1    0.11    0.18
   8 -13   2    0.04    0.12
  -8  13  -2   -0.18    0.13
   8 -13   3    0.25    0.16
  -8  13  -3    0.59    0.18
   8 -13   4    0.92    0.20
  -8  13  -4    0.79    0.28
   8 -13   5    0.09    0.16
  -8  13  -5    0.22    0.15
   8 -13   6    0.72    0.21
  -8  13  -6    0.32    0.27
   8 -13   7    0.25    0.17
  -8  13  -7    0.24    0.18
   8 -13   8    0.45    0.19
  -8  13  -8    0.12    0.25
   8 -13   9    1.91    0.26
  -8  13  -9    1.34    0.44
   8 -13  10    1.08    0.26
  -8  13 -10    1.04    0.29
   8 -13  11    1.56    0.31
  -8  13 -11    1.51    0.36
   8 -13  12    0.21    0.20
  -8  13 -12    0.61    0.26
  -8  13 -13    0.29    0.27
  -8  13 -14    0.32    0.23
   8 -12 -13    0.68    0.28
   8 -12 -12    0.82    0.21
   8 -12 -11    0.75    0.21
   8 -12 -10    2.59    0.43
   8 -12  -9    0.04    0.15
  -8  12   9   -0.01    0.11
   8 -12  -8    0.64    0.17
  -8  12   8    0.09    0.17
   8 -12  -7    0.07    0.12
  -8  12   7   -0.03    0.12
   8 -12  -6    1.45    0.27
  -8  12   6    1.19    0.27
   8 -12  -5    0.90    0.25
  -8  12   5    0.86    0.20
   8 -12  -4    1.24    0.20
  -8  12   4    0.73    0.20
   8 -12  -3    0.20    0.12
  -8  12   3    0.02    0.13
   8 -12  -2    0.66    0.19
  -8  12   2    0.47    0.17
   8 -12  -1    2.58    0.32
  -8  12   1    1.91    0.36
   8 -12   0    0.45    0.15
  -8  12   0   -0.19    0.16
   8 -12   1    2.16    0.26
  -8  12  -1    1.31    0.27
   8 -12   2    2.53    0.28
  -8  12  -2    1.82    0.36
   8 -12   3    1.09    0.20
  -8  12  -3    1.21    0.23
   8 -12   4    0.60    0.16
  -8  12  -4    0.51    0.23
   8 -12   5   -0.05    0.11
  -8  12  -5   -0.02    0.13
   8 -12   6    0.76    0.22
  -8  12  -6    0.70    0.25
   8 -12   7    0.70    0.22
  -8  12  -7    0.66    0.27
   8 -12   8    0.19    0.17
  -8  12  -8    0.25    0.18
   8 -12   9    0.28    0.18
  -8  12  -9    0.26    0.19
   8 -12  10    1.85    0.34
  -8  12 -10    2.17    0.38
   8 -12  11   -0.04    0.17
  -8  12 -11    0.19    0.19
   8 -12  12    2.26    0.34
  -8  12 -12    1.99    0.43
   8 -12  13    1.79    0.39
  -8  12 -13    1.69    0.46
  -8  12 -14    2.37    0.52
  -8  12 -15   -0.16    0.24
   8 -11 -14   -0.17    0.16
   8 -11 -13    0.30    0.17
   8 -11 -12    0.59    0.25
   8 -11 -11    1.06    0.21
  -8  11  11    0.23    0.19
   8 -11 -10    0.44    0.16
  -8  11  10    0.18    0.16
   8 -11  -9    0.25    0.17
  -8  11   9    0.18    0.14
   8 -11  -8    0.59    0.18
  -8  11   8    0.54    0.19
   8 -11  -7    0.85    0.21
  -8  11   7    0.59    0.20
   8 -11  -6    1.61    0.23
  -8  11   6    1.20    0.25
   8 -11  -5    0.26    0.16
  -8  11   5    0.13    0.14
   8 -11  -4    0.98    0.19
  -8  11   4    0.24    0.17
   8 -11  -3    0.44    0.14
  -8  11   3    0.30    0.16
   8 -11  -2    0.95    0.19
  -8  11   2    0.41    0.16
   8 -11  -1    0.55    0.15
  -8  11   1    0.39    0.16
   8 -11   0    1.98    0.31
  -8  11   0    1.96    0.32
   8 -11   1    3.22    0.34
  -8  11  -1    2.30    0.32
   8 -11   2    0.49    0.14
  -8  11  -2    0.21    0.16
   8 -11   3    3.58    0.36
  -8  11  -3    3.17    0.42
   8 -11   4    0.38    0.13
  -8  11  -4    0.15    0.15
   8 -11   5    0.30    0.17
  -8  11  -5    0.40    0.16
   8 -11   6    0.73    0.20
  -8  11  -6    0.67    0.24
   8 -11   7    0.95    0.23
  -8  11  -7    0.91    0.27
   8 -11   8    0.22    0.14
  -8  11  -8   -0.14    0.18
   8 -11   9    9.35    0.81
  -8  11  -9    5.89    0.77
   8 -11  10    2.29    0.37
  -8  11 -10    1.45    0.41
   8 -11  11   10.15    0.89
  -8  11 -11    9.47    1.04
   8 -11  12   -0.10    0.11
  -8  11 -12    0.23    0.16
   8 -11  13    2.49    0.41
  -8  11 -13    3.24    0.52
   8 -11  14    3.91    0.45
  -8  11 -14    2.52    0.46
   8 -11  15    3.54    0.49
  -8  11 -15    3.00    0.48
  -8  11 -16    0.97    0.29
  -8  10  16    0.10    0.24
  -8  10  15    0.54    0.31
   8 -10 -14    0.22    0.15
   8 -10 -13    0.57    0.23
   8 -10 -12    1.25    0.23
  -8  10  12    0.68    0.24
   8 -10 -11    1.92    0.32
  -8  10  11    1.75    0.30
   8 -10 -10    0.67    0.19
  -8  10  10    0.60    0.19
   8 -10  -9   -0.03    0.13
  -8  10   9   -0.02    0.12
   8 -10  -8    2.32    0.28
  -8  10   8    2.10    0.33
   8 -10  -7    0.44    0.16
  -8  10   7    0.34    0.18
   8 -10  -6    2.26    0.30
  -8  10   6    1.97    0.30
   8 -10  -5    4.55    0.38
  -8  10   5    3.41    0.41
   8 -10  -4    0.07    0.13
  -8  10   4    0.10    0.13
   8 -10  -3    4.35    0.38
  -8  10   3    3.94    0.38
   8 -10  -2    0.62    0.17
  -8  10   2    0.69    0.18
   8 -10  -1    6.84    0.50
  -8  10   1    5.40    0.47
   8 -10   0    0.75    0.16
  -8  10   0    0.60    0.21
   8 -10   1    5.80    0.47
  -8  10  -1    4.53    0.43
   8 -10   2    0.29    0.13
  -8  10  -2    0.33    0.14
   8 -10   3    0.64    0.20
  -8  10  -3    0.78    0.18
   8 -10   4    0.12    0.12
  -8  10  -4   -0.15    0.11
   8 -10   5    0.72    0.16
  -8  10  -5    0.60    0.18
   8 -10   6    2.06    0.29
  -8  10  -6    1.54    0.28
  -8  10  -7    9.40    0.78
   8 -10   8    9.87    0.68
  -8  10  -8    8.93    0.81
   8 -10   9    2.34    0.34
  -8  10  -9    2.24    0.33
   8 -10  10    1.85    0.29
  -8  10 -10    1.39    0.30
   8 -10  11   -0.04    0.15
  -8  10 -11    0.19    0.17
   8 -10  12    0.11    0.15
  -8  10 -12    0.08    0.18
   8 -10  13    2.35    0.37
  -8  10 -13    2.01    0.36
   8 -10  14    0.67    0.23
  -8  10 -14    0.55    0.22
   8 -10  15   -0.04    0.18
  -8  10 -15   -0.19    0.19
   8 -10  16    0.25    0.19
  -8  10 -16    0.17    0.18
  -8  10 -17    0.15    0.22
  -8   9  17   -0.21    0.31
  -8   9  16    0.07    0.21
   8  -9 -14    0.04    0.12
   8  -9 -13   -0.01    0.11
   8  -9 -13   -0.00    0.09
  -8   9  13    0.10    0.11
   8  -9 -12    1.24    0.25
   8  -9 -12    0.98    0.16
  -8   9  12    0.61    0.22
   8  -9 -11    0.31    0.14
   8  -9 -11    0.19    0.11
  -8   9  11    0.59    0.16
   8  -9 -10    0.18    0.09
   8  -9 -10    0.25    0.13
  -8   9  10    0.01    0.14
   8  -9  -9    0.17    0.17
   8  -9  -9    0.45    0.11
  -8   9   9    0.14    0.12
   8  -9  -8    2.18    0.30
  -8   9   8    1.96    0.29
   8  -9  -7    0.10    0.11
  -8   9   7    0.15    0.13
   8  -9  -6    4.34    0.36
  -8   9   6    4.42    0.40
   8  -9  -5    0.04    0.09
   8  -9  -4    0.06    0.11
  -8   9   4   -0.05    0.11
   8  -9  -3    2.22    0.29
  -8   9   3    1.71    0.23
   8  -9  -2    1.32    0.17
  -8   9   2    0.84    0.19
   8  -9  -1    1.76    0.20
  -8   9   1    1.29    0.26
   8  -9   0    0.73    0.16
  -8   9   0    0.67    0.18
   8  -9   1    0.64    0.17
  -8   9  -1    0.32    0.14
   8  -9   2    0.38    0.13
  -8   9  -2    0.26    0.13
   8  -9   3    0.33    0.16
  -8   9  -3    0.37    0.14
   8  -9   4    0.84    0.19
  -8   9  -4    0.56    0.17
   8  -9   5    0.17    0.12
  -8   9  -5   -0.14    0.13
   8  -9   6    1.16    0.24
  -8   9  -6    1.25    0.26
   8  -9   7    0.73    0.16
  -8   9  -7    0.54    0.19
   8  -9   8    6.83    0.58
  -8   9  -8    5.63    0.54
   8  -9   9    0.55    0.19
  -8   9  -9    0.12    0.20
   8  -9  10    0.69    0.22
  -8   9 -10    0.67    0.20
   8  -9  11    1.13    0.19
  -8   9 -11    0.72    0.23
   8  -9  12    0.36    0.19
  -8   9 -12    0.42    0.21
   8  -9  13   -0.17    0.15
  -8   9 -13   -0.05    0.15
   8  -9  14    2.19    0.36
  -8   9 -14    1.77    0.40
   8  -9  15    0.89    0.24
  -8   9 -15    0.65    0.23
   8  -9  16    0.89    0.26
  -8   9 -16    0.67    0.29
   8  -9  17    0.17    0.16
  -8   9 -17   -0.05    0.15
  -8   9 -18    0.11    0.20
   8  -8 -17   -0.10    0.10
  -8   8  17    0.39    0.19
   8  -8 -16    1.13    0.20
  -8   8  16    1.80    0.44
   8  -8 -15    0.37    0.22
   8  -8 -15    0.88    0.18
   8  -8 -14    0.80    0.19
   8  -8 -14    0.31    0.16
  -8   8  14    0.16    0.18
   8  -8 -13    0.07    0.12
   8  -8 -13    0.08    0.11
  -8   8  13    0.12    0.14
   8  -8 -12    1.88    0.27
   8  -8 -12    2.08    0.23
  -8   8  12    2.26    0.30
   8  -8 -11    0.05    0.12
  -8   8  11    0.01    0.11
   8  -8 -10    6.86    0.54
   8  -8 -10    5.79    0.39
  -8   8  10    6.64    0.56
   8  -8  -9    0.18    0.16
   8  -8  -9    0.33    0.09
  -8   8   9    0.23    0.13
   8  -8  -8    4.17    0.26
   8  -8  -8    5.17    0.43
  -8   8   8    5.04    0.48
   8  -8  -7    1.86    0.27
  -8   8   7    1.50    0.26
   8  -8  -6    1.54    0.26
  -8   8   6    1.94    0.26
   8  -8  -5    0.55    0.15
  -8   8   5    0.20    0.13
   8  -8  -4   -0.01    0.11
  -8   8   4    0.09    0.11
   8  -8  -3    0.06    0.12
  -8   8   3    0.06    0.10
   8  -8  -2    0.12    0.14
  -8   8   2    0.41    0.13
   8  -8  -1   -0.14    0.11
  -8   8   1    0.05    0.10
   8  -8   0    1.59    0.23
  -8   8   0    1.38    0.21
   8  -8   1    0.16    0.10
  -8   8  -1    0.00    0.09
   8  -8   2    0.18    0.14
  -8   8  -2    0.00    0.10
   8  -8   3    4.71    0.38
  -8   8  -3    3.29    0.37
   8  -8   4    0.02    0.11
  -8   8  -4    0.12    0.12
   8  -8   5    1.28    0.19
  -8   8  -5    1.16    0.20
   8  -8   6    0.07    0.14
  -8   8  -6    0.12    0.13
   8  -8   7    5.26    0.44
  -8   8  -7    5.55    0.47
   8  -8   8    0.28    0.13
  -8   8  -8    0.28    0.17
   8  -8   9    1.12    0.24
  -8   8  -9    0.97    0.20
   8  -8  10    0.71    0.18
  -8   8 -10    0.18    0.21
   8  -8  11    0.38    0.14
   8  -8  11    0.17    0.13
  -8   8 -11    0.45    0.15
   8  -8  12    1.88    0.30
   8  -8  12    1.62    0.21
  -8   8 -12    1.25    0.26
   8  -8  13    0.88    0.21
   8  -8  13    0.25    0.16
  -8   8 -13    0.94    0.23
   8  -8  14    1.44    0.22
   8  -8  14    1.29    0.22
  -8   8 -14    1.00    0.25
   8  -8  15    1.41    0.29
   8  -8  15    1.22    0.25
  -8   8 -15    1.06    0.31
   8  -8  16    0.82    0.23
   8  -8  16    0.54    0.20
  -8   8 -16    0.37    0.24
   8  -8  17    0.17    0.18
  -8   8 -17    0.02    0.18
   8  -8  18    0.28    0.21
  -8   8 -18    0.25    0.18
   8  -8  19    1.18    0.29
  -8   8 -19    1.52    0.34
   8  -7 -18    1.14    0.27
  -8   7  18    1.49    0.47
   8  -7 -17    2.43    0.35
  -8   7  17    2.78    0.58
   8  -7 -16    0.43    0.19
  -8   7  16    0.88    0.27
   8  -7 -15    0.23    0.13
   8  -7 -15   -0.15    0.11
  -8   7  15    0.13    0.13
   8  -7 -14    0.51    0.15
   8  -7 -14    0.81    0.17
  -8   7  14    0.79    0.20
   8  -7 -13    5.50    0.46
   8  -7 -13    4.99    0.43
  -8   7  13    6.01    0.53
   8  -7 -12    2.57    0.27
   8  -7 -12    2.81    0.25
  -8   7  12    2.40    0.29
   8  -7 -11    0.19    0.12
   8  -7 -11    0.27    0.10
  -8   7  11    0.25    0.15
   8  -7 -10    1.61    0.18
   8  -7 -10    1.47    0.25
  -8   7  10    1.46    0.24
   8  -7  -9    0.58    0.18
   8  -7  -9    0.68    0.11
  -8   7   9    0.94    0.19
   8  -7  -8    0.19    0.08
   8  -7  -8    0.78    0.14
  -8   7   8   -0.09    0.15
   8  -7  -7    9.98    0.60
   8  -7  -7    8.23    0.41
  -8   7   7   11.32    0.73
   8  -7  -6    1.90    0.23
  -8   7   6    1.77    0.22
   8  -7  -5    9.62    0.65
  -8   7   5    9.55    0.67
   8  -7  -4   -0.09    0.08
  -8   7   4    0.02    0.11
   8  -7  -3    8.27    0.51
  -8   7   3    8.43    0.54
   8  -7  -2    0.97    0.15
  -8   7   2    0.99    0.16
   8  -7  -1    0.91    0.18
  -8   7   1    1.01    0.16
   8  -7   0    1.30    0.18
  -8   7   0    1.45    0.23
   8  -7   1    0.53    0.14
  -8   7  -1    0.64    0.18
   8  -7   2    0.03    0.07
  -8   7  -2   -0.05    0.08
   8  -7   3    3.37    0.33
  -8   7  -3    3.27    0.35
   8  -7   4    1.87    0.22
  -8   7  -4    0.88    0.18
   8  -7   5    0.51    0.13
  -8   7  -5    0.27    0.16
   8  -7   6    1.62    0.25
  -8   7  -6    1.41    0.22
   8  -7   7    5.47    0.44
  -8   7  -7    5.99    0.46
   8  -7   8    0.34    0.13
  -8   7  -8    0.40    0.17
   8  -7   9    0.65    0.16
   8  -7   9    0.87    0.11
  -8   7  -9    0.36    0.21
   8  -7  10    2.04    0.27
   8  -7  10    1.40    0.16
  -8   7 -10    1.75    0.29
   8  -7  11   -0.22    0.10
   8  -7  11    0.01    0.08
  -8   7 -11    0.12    0.10
   8  -7  12   -0.02    0.13
   8  -7  12    0.08    0.09
  -8   7 -12    0.03    0.11
   8  -7  13   -0.02    0.12
   8  -7  13   -0.14    0.09
  -8   7 -13    0.16    0.10
   8  -7  14    0.23    0.15
   8  -7  14    0.04    0.13
  -8   7 -14   -0.01    0.15
   8  -7  15    0.10    0.16
  -8   7 -15    0.15    0.17
   8  -7  16    0.30    0.18
   8  -7  16    0.32    0.18
  -8   7 -16    0.13    0.18
   8  -7  17    0.06    0.11
   8  -7  17   -0.10    0.11
   8  -7  17   -0.11    0.14
  -8   7 -17    0.25    0.14
   8  -7  18    0.07    0.23
   8  -7  18    0.19    0.26
  -8   7 -18    1.57    0.25
   8  -7  19    0.46    0.21
  -8   7 -19    0.14    0.22
   8  -6 -19    0.29    0.16
  -8   6  19    0.23    0.26
   8  -6 -18   -0.18    0.13
  -8   6  18   -0.07    0.27
   8  -6 -17    0.44    0.18
  -8   6  17    0.22    0.27
   8  -6 -16   -0.16    0.12
  -8   6  16    0.13    0.16
   8  -6 -15    1.57    0.27
   8  -6 -15    1.66    0.27
  -8   6  15    1.95    0.26
   8  -6 -14    2.34    0.28
   8  -6 -14    2.39    0.28
  -8   6  14    2.63    0.34
   8  -6 -13    0.08    0.09
   8  -6 -13    0.09    0.10
  -8   6  13   -0.09    0.12
   8  -6 -12    0.17    0.13
   8  -6 -12    0.09    0.10
  -8   6  12    0.23    0.12
   8  -6 -11    0.80    0.16
   8  -6 -11    0.44    0.13
  -8   6  11    0.71    0.19
   8  -6 -10   -0.02    0.09
   8  -6 -10    0.03    0.07
  -8   6  10    0.09    0.12
   8  -6  -9   -0.06    0.13
   8  -6  -9    0.25    0.08
  -8   6   9    0.39    0.14
   8  -6  -8    5.86    0.34
   8  -6  -8    7.24    0.51
  -8   6   8    8.53    0.58
   8  -6  -7    5.53    0.37
  -8   6   7    5.91    0.45
   8  -6  -6    8.60    0.53
   8  -6  -6    7.83    0.33
  -8   6   6   10.18    0.65
   8  -6  -5   11.03    0.67
  -8   6   5   12.18    0.74
   8  -6  -4    7.44    0.42
  -8   6   4    6.44    0.46
   8  -6  -3    0.08    0.09
  -8   6   3   -0.05    0.08
   8  -6  -2    4.14    0.31
  -8   6   2    4.66    0.32
   8  -6  -1    8.29    0.58
  -8   6   1    7.36    0.51
   8  -6   0    1.18    0.18
  -8   6   0    0.93    0.20
   8  -6   1   11.37    0.60
  -8   6  -1   10.81    0.66
   8  -6   2    1.04    0.21
  -8   6  -2    1.33    0.23
   8  -6   3    1.86    0.25
  -8   6  -3    1.47    0.26
   8  -6   4    0.88    0.18
  -8   6  -4    0.50    0.15
   8  -6   5   12.60    0.73
  -8   6  -5   11.66    0.75
   8  -6   6    9.81    0.68
  -8   6  -6    9.03    0.59
   8  -6   7    0.91    0.16
  -8   6  -7    0.63    0.17
   8  -6   8    0.13    0.10
   8  -6   8    0.00    0.05
  -8   6  -8    0.14    0.10
   8  -6   9    0.07    0.10
   8  -6   9   -0.02    0.07
  -8   6  -9    0.15    0.09
   8  -6  10    0.83    0.21
   8  -6  10    0.70    0.13
  -8   6 -10    0.87    0.17
   8  -6  11    0.54    0.15
   8  -6  11    0.44    0.13
  -8   6 -11    0.58    0.15
   8  -6  12    0.08    0.12
   8  -6  12    0.00    0.10
  -8   6 -12    0.03    0.09
   8  -6  13    0.66    0.18
   8  -6  13    0.37    0.17
  -8   6 -13    0.33    0.18
   8  -6  14    0.69    0.19
   8  -6  14    0.61    0.16
  -8   6 -14    0.41    0.21
   8  -6  15    1.12    0.26
   8  -6  15    0.90    0.21
  -8   6 -15    0.96    0.25
   8  -6  16    2.43    0.30
   8  -6  16    1.85    0.29
  -8   6 -16    1.53    0.33
   8  -6  17    0.01    0.16
   8  -6  17   -0.04    0.13
  -8   6 -17    0.19    0.14
   8  -6  18    0.23    0.16
   8  -6  18    0.08    0.17
  -8   6 -18    0.17    0.14
   8  -6  19   -0.14    0.12
   8  -6  19    0.08    0.15
  -8   6 -19    0.08    0.15
   8  -6  20    0.14    0.22
   8  -6  20    0.39    0.25
   8  -5 -19    0.10    0.18
  -8   5  19    0.35    0.27
   8  -5 -18    2.24    0.33
  -8   5  18    2.11    0.52
   8  -5 -17    1.12    0.28
  -8   5  17    2.00    0.39
  -8   5  17    1.79    0.30
   8  -5 -16    0.17    0.14
  -8   5  16    0.08    0.12
  -8   5  16    0.16    0.15
   8  -5 -15    0.31    0.15
   8  -5 -15    0.08    0.13
  -8   5  15    0.75    0.17
   8  -5 -14    0.11    0.15
   8  -5 -14    0.51    0.11
  -8   5  14    0.24    0.17
   8  -5 -13    1.10    0.22
   8  -5 -13    1.24    0.18
  -8   5  13    1.71    0.25
   8  -5 -12    0.07    0.11
   8  -5 -12    0.06    0.09
   8  -5 -11    2.31    0.27
   8  -5 -11    2.23    0.20
  -8   5  11    2.31    0.30
   8  -5 -10    0.17    0.10
   8  -5 -10    0.72    0.13
  -8   5  10    0.17    0.16
   8  -5  -9    0.49    0.12
   8  -5  -9    0.44    0.10
  -8   5   9    0.39    0.17
   8  -5  -8    0.09    0.09
   8  -5  -8    0.12    0.07
  -8   5   8   -0.03    0.12
   8  -5  -7   28.25    1.09
   8  -5  -7   30.00    1.54
  -8   5   7   29.86    1.64
   8  -5  -6    0.18    0.12
  -8   5   6    0.31    0.14
   8  -5  -5    2.33    0.24
  -8   5   5    2.55    0.29
   8  -5  -4    5.70    0.35
  -8   5   4    5.95    0.48
   8  -5  -3    0.58    0.11
  -8   5   3    0.53    0.16
   8  -5  -2   12.54    0.67
  -8   5   2   10.41    0.71
   8  -5  -1    0.75    0.16
  -8   5   1    0.43    0.13
   8  -5   0    2.46    0.21
  -8   5   0    2.60    0.27
   8  -5   1   -0.09    0.09
  -8   5  -1   -0.05    0.11
   8  -5   2    0.22    0.10
  -8   5  -2    0.30    0.10
   8  -5   3    2.12    0.21
  -8   5  -3    1.69    0.21
   8  -5   4    0.42    0.11
  -8   5  -4    0.35    0.13
   8  -5   5    0.28    0.10
  -8   5  -5    0.00    0.13
   8  -5   6   23.47    1.32
  -8   5  -6   22.06    1.26
   8  -5   7    1.94    0.20
   8  -5   7    1.31    0.13
  -8   5  -7    1.42    0.23
   8  -5   8    0.00    0.09
  -8   5  -8    0.18    0.09
  -8   5  -8    0.01    0.05
   8  -5   9    0.45    0.12
  -8   5  -9    0.24    0.15
  -8   5  -9    0.30    0.08
   8  -5  10    0.51    0.18
  -8   5 -10    0.62    0.17
   8  -5  11    0.64    0.17
  -8   5 -11    0.74    0.16
  -8   5 -11    0.67    0.13
   8  -5  12   -0.08    0.11
  -8   5 -12    0.10    0.08
  -8   5 -12    0.10    0.12
   8  -5  13    1.34    0.31
  -8   5 -13    1.98    0.23
  -8   5 -13    2.16    0.28
   8  -5  14    0.66    0.18
  -8   5 -14    0.87    0.21
  -8   5 -14    0.78    0.17
   8  -5  15    0.09    0.12
  -8   5 -15    0.03    0.14
  -8   5 -15    0.09    0.11
   8  -5  16    0.26    0.17
  -8   5 -16    0.11    0.17
  -8   5 -16    0.29    0.14
   8  -5  17    0.09    0.17
  -8   5 -17   -0.03    0.15
  -8   5 -17    0.31    0.15
   8  -5  18    0.62    0.21
  -8   5 -18    0.58    0.19
  -8   5 -18    0.88    0.22
   8  -5  19    0.02    0.13
  -8   5 -19   -0.02    0.14
  -8   5 -19   -0.10    0.12
   8  -5  20    0.34    0.21
  -8   5 -20    0.88    0.23
   8  -4 -20    0.24    0.16
   8  -4 -19    1.19    0.32
  -8   4  19    2.05    0.44
   8  -4 -18    2.41    0.42
  -8   4  18    2.53    0.53
  -8   4  18    3.99    0.41
   8  -4 -17    1.18    0.23
  -8   4  17    0.68    0.19
  -8   4  17    0.93    0.30
   8  -4 -16    0.17    0.11
  -8   4  16    0.10    0.11
  -8   4  16   -0.03    0.14
   8  -4 -15    0.42    0.16
   8  -4 -15    0.64    0.18
  -8   4  15    0.73    0.16
   8  -4 -14    2.62    0.29
   8  -4 -14    2.70    0.29
  -8   4  14    2.45    0.28
   8  -4 -13    2.78    0.28
   8  -4 -13    2.83    0.27
  -8   4  13    2.63    0.28
   8  -4 -12    0.57    0.13
   8  -4 -12    0.63    0.15
  -8   4  12    0.68    0.18
   8  -4 -11    0.52    0.12
   8  -4 -11    0.47    0.13
  -8   4  11    0.92    0.15
   8  -4 -10    1.84    0.19
   8  -4 -10    1.07    0.15
  -8   4  10    1.05    0.20
   8  -4  -9    1.74    0.22
  -8   4   9    1.62    0.22
   8  -4  -8    1.98    0.19
  -8   4   8    2.69    0.21
  -8   4   8    1.80    0.23
   8  -4  -7   11.93    0.62
  -8   4   7   11.80    0.56
  -8   4   7   12.77    0.77
   8  -4  -6   10.61    0.54
  -8   4   6   10.39    0.48
  -8   4   6   10.99    0.64
   8  -4  -5    4.86    0.32
  -8   4   5    5.00    0.35
  -8   4   5    3.98    0.19
   8  -4  -4    7.36    0.43
  -8   4   4    7.64    0.50
   8  -4  -3    0.92    0.14
  -8   4   3    0.98    0.16
   8  -4  -2    1.44    0.18
  -8   4   2    1.58    0.19
   8  -4  -1   -0.02    0.08
  -8   4   1    0.27    0.09
   8  -4   0    5.97    0.37
  -8   4   0    5.68    0.42
   8  -4   1    0.81    0.17
  -8   4  -1    1.16    0.18
   8  -4   2   14.24    0.72
  -8   4  -2   12.27    0.75
   8  -4   3    0.17    0.09
  -8   4  -3    0.10    0.12
   8  -4   4   17.77    0.92
  -8   4  -4   18.24    0.93
   8  -4   5    3.00    0.27
  -8   4  -5    3.26    0.33
   8  -4   6    3.45    0.33
  -8   4  -6    3.27    0.28
   8  -4   7    0.00    0.08
  -8   4  -7    0.05    0.09
  -8   4  -7    0.03    0.04
   8  -4   8    0.29    0.11
  -8   4  -8    0.01    0.06
  -8   4  -8    0.09    0.09
   8  -4   9    0.37    0.16
  -8   4  -9    0.36    0.14
   8  -4  10    2.29    0.29
  -8   4 -10    2.16    0.27
   8  -4  11    2.14    0.29
  -8   4 -11    1.80    0.23
  -8   4 -11    1.91    0.18
   8  -4  12    0.26    0.13
  -8   4 -12    0.20    0.11
  -8   4 -12    0.06    0.13
   8  -4  13    0.28    0.18
  -8   4 -13    0.28    0.12
  -8   4 -13    0.53    0.15
   8  -4  14    1.20    0.21
  -8   4 -14    0.35    0.18
  -8   4 -14    0.56    0.16
   8  -4  15    0.07    0.12
  -8   4 -15    0.13    0.11
  -8   4 -15    0.10    0.12
   8  -4  16    0.41    0.21
  -8   4 -16    0.68    0.19
  -8   4 -16    0.57    0.17
   8  -4  17   -0.08    0.12
  -8   4 -17   -0.02    0.12
  -8   4 -17    0.04    0.12
   8  -4  18   -0.03    0.15
  -8   4 -18    0.01    0.15
  -8   4 -18    0.42    0.15
   8  -4  19    0.32    0.17
  -8   4 -19    0.18    0.15
   8  -4  20    0.11    0.15
  -8   4 -20    0.02    0.13
  -8   3  20    0.61    0.32
   8  -3 -19   -0.14    0.13
  -8   3  19   -0.03    0.16
  -8   3  19    0.23    0.19
   8  -3 -18    0.21    0.13
  -8   3  18   -0.10    0.16
  -8   3  18    0.03    0.19
   8  -3 -17    0.73    0.20
  -8   3  17    0.72    0.23
  -8   3  17    0.87    0.27
   8  -3 -16    0.10    0.11
  -8   3  16   -0.27    0.13
  -8   3  16    0.01    0.13
   8  -3 -15    0.05    0.09
   8  -3 -15    0.02    0.07
  -8   3  15    0.00    0.12
   8  -3 -14    0.36    0.14
   8  -3 -14    0.37    0.12
  -8   3  14    0.02    0.14
   8  -3 -13    1.97    0.24
   8  -3 -13    2.42    0.27
  -8   3  13    1.78    0.25
   8  -3 -12    2.03    0.23
   8  -3 -12    2.24    0.23
  -8   3  12    1.95    0.29
   8  -3 -11    1.67    0.19
   8  -3 -11    1.52    0.24
  -8   3  11    1.68    0.23
   8  -3 -10    0.10    0.07
   8  -3 -10    0.07    0.11
  -8   3  10   -0.02    0.10
   8  -3  -9   61.08    2.71
   8  -3  -9   62.07    3.06
  -8   3   9   58.18    2.86
   8  -3  -8   15.54    0.78
  -8   3   8   16.33    0.82
   8  -3  -7    1.00    0.16
  -8   3   7    1.19    0.15
  -8   3   7    1.37    0.18
   8  -3  -6   10.62    0.51
  -8   3   6    9.56    0.40
  -8   3   6    9.52    0.63
   8  -3  -5   13.28    0.65
  -8   3   5   13.53    0.72
  -8   3   5   11.89    0.44
   8  -3  -4    0.01    0.07
  -8   3   4   -0.05    0.04
  -8   3   4    0.04    0.08
   8  -3  -3    5.22    0.37
  -8   3   3    5.12    0.41
   8  -3  -2    5.86    0.33
  -8   3   2    6.11    0.40
   8  -3  -1   13.33    0.71
  -8   3   1   13.64    0.78
   8  -3   0    7.77    0.46
  -8   3   0    6.88    0.48
   8  -3   1    6.76    0.40
  -8   3  -1    6.60    0.44
   8  -3   2    0.35    0.10
  -8   3  -2    0.23    0.12
   8  -3   3    0.44    0.11
  -8   3  -3    0.47    0.11
   8  -3   4   11.54    0.63
  -8   3  -4   12.34    0.69
   8  -3   5    0.60    0.13
  -8   3  -5    0.47    0.06
  -8   3  -5    1.19    0.14
   8  -3   6    9.17    0.62
  -8   3  -6    8.98    0.55
   8  -3   7    0.08    0.09
  -8   3  -7    0.17    0.09
   8  -3   8    1.27    0.21
  -8   3  -8    1.61    0.18
  -8   3  -8    1.17    0.13
   8  -3   9    0.09    0.10
  -8   3  -9    0.02    0.05
   8  -3  10    1.60    0.18
  -8   3 -10    0.53    0.14
  -8   3 -10    0.74    0.12
   8  -3  11    0.59    0.15
  -8   3 -11    0.63    0.15
  -8   3 -11    0.54    0.11
   8  -3  12    0.71    0.17
  -8   3 -12    0.72    0.13
  -8   3 -12    0.73    0.17
   8  -3  13    0.58    0.16
  -8   3 -13    0.41    0.11
  -8   3 -13    0.52    0.14
   8  -3  14    1.78    0.32
  -8   3 -14    1.37    0.24
  -8   3 -14    2.03    0.23
   8  -3  15    4.06    0.40
  -8   3 -15    3.06    0.39
  -8   3 -15    3.79    0.38
   8  -3  16    0.71    0.22
  -8   3 -16    0.32    0.16
  -8   3 -16    0.57    0.17
   8  -3  17    0.03    0.16
  -8   3 -17    0.16    0.11
  -8   3 -17   -0.04    0.11
   8  -3  18   -0.07    0.14
  -8   3 -18   -0.08    0.14
   8  -3  19    0.06    0.19
  -8   3 -19    0.16    0.17
   8  -3  20   -0.24    0.17
  -8   3 -20    0.23    0.15
   8  -2 -20    1.39    0.27
  -8   2  20    1.06    0.42
   8  -2 -19    3.33    0.40
  -8   2  19    3.49    0.52
   8  -2 -18    0.02    0.12
  -8   2  18    0.11    0.17
  -8   2  18    0.41    0.19
   8  -2 -17    0.29    0.16
  -8   2  17    0.23    0.22
  -8   2  17    0.45    0.21
   8  -2 -16    0.27    0.13
  -8   2  16   -0.06    0.19
  -8   2  16    0.21    0.17
   8  -2 -15    0.17    0.14
   8  -2 -15    0.23    0.11
  -8   2  15    0.19    0.14
   8  -2 -14    0.69    0.18
   8  -2 -14    0.74    0.15
  -8   2  14    0.84    0.23
   8  -2 -13    1.94    0.23
   8  -2 -13    1.27    0.18
  -8   2  13    1.75    0.27
   8  -2 -12    0.22    0.11
   8  -2 -12    0.17    0.08
  -8   2  12    0.37    0.11
   8  -2 -11    0.95    0.13
   8  -2 -11    0.56    0.16
  -8   2  11    0.47    0.18
   8  -2 -10    1.21    0.16
   8  -2 -10    1.13    0.17
  -8   2  10    1.41    0.19
   8  -2  -9    8.61    0.47
   8  -2  -9    8.47    0.50
   8  -2  -8   11.11    0.57
   8  -2  -8   10.47    0.57
  -8   2   8   10.70    0.56
   8  -2  -7    0.30    0.09
   8  -2  -7    0.05    0.11
  -8   2   7    0.11    0.07
   8  -2  -6    1.69    0.15
   8  -2  -6    1.99    0.18
  -8   2   6    1.63    0.15
   8  -2  -5    0.03    0.05
   8  -2  -5    0.10    0.09
  -8   2   5    0.01    0.04
   8  -2  -4    0.05    0.07
  -8   2   4    0.05    0.04
  -8   2   4    0.12    0.08
   8  -2  -3    2.67    0.20
  -8   2   3    2.29    0.11
  -8   2   3    2.93    0.23
   8  -2  -2   11.23    0.58
  -8   2   2   11.70    0.68
  -8   2   1    6.50    0.38
  -8   2   1    5.43    0.17
   8  -2   0    4.68    0.27
  -8   2   0    4.23    0.32
   8  -2   1    7.10    0.40
  -8   2  -1    7.36    0.47
   8  -2   2    0.08    0.08
  -8   2  -2    0.05    0.08
  -8   2  -2    0.05    0.03
   8  -2   3    2.24    0.19
  -8   2  -3    2.24    0.22
  -8   2  -3    1.58    0.09
   8  -2   4   20.70    1.07
  -8   2  -4   23.20    1.13
   8  -2   5   22.32    1.15
  -8   2  -5   24.14    1.21
   8  -2   6    0.79    0.18
  -8   2  -6    0.71    0.08
  -8   2  -6    0.96    0.16
   8  -2   7   12.43    0.78
  -8   2  -7   13.13    0.77
  -8   2  -7   11.82    0.50
   8  -2   8    0.88    0.15
  -8   2  -8    0.72    0.12
  -8   2  -8    0.50    0.10
   8  -2   9    0.24    0.13
  -8   2  -9    0.33    0.08
  -8   2  -9    0.11    0.11
   8  -2  10    3.03    0.31
  -8   2 -10    3.20    0.25
  -8   2 -10    3.11    0.29
   8  -2  11    8.69    0.62
  -8   2 -11    7.69    0.50
  -8   2 -11    6.60    0.44
   8  -2  12    1.53    0.25
  -8   2 -12    1.38    0.22
  -8   2 -12    1.76    0.20
   8  -2  13    1.56    0.25
  -8   2 -13    1.62    0.21
  -8   2 -13    1.51    0.22
   8  -2  14    0.10    0.15
  -8   2 -14    0.03    0.10
  -8   2 -14    0.12    0.11
   8  -2  15    1.66    0.28
  -8   2 -15    1.46    0.23
  -8   2 -15    2.18    0.26
   8  -2  16    0.75    0.20
  -8   2 -16    0.38    0.16
  -8   2 -16    0.69    0.18
   8  -2  17    1.26    0.27
  -8   2 -17    0.58    0.18
   8  -2  18    0.16    0.17
  -8   2 -18   -0.00    0.14
   8  -2  19    0.28    0.16
  -8   2 -19   -0.03    0.13
   8  -2  20    0.91    0.26
  -8   2 -20    0.80    0.28
   8  -1 -20    0.29    0.14
  -8   1  20   -0.02    0.25
   8  -1 -19   -0.05    0.12
  -8   1  19    0.17    0.19
   8  -1 -18    1.80    0.28
  -8   1  18    1.81    0.34
   8  -1 -17    0.22    0.18
  -8   1  17    0.58    0.24
  -8   1  17    0.46    0.20
   8  -1 -16    1.02    0.18
  -8   1  16    1.13    0.24
  -8   1  16    0.93    0.28
   8  -1 -15    0.63    0.19
   8  -1 -15    0.54    0.13
  -8   1  15    1.19    0.24
   8  -1 -14    2.57    0.31
   8  -1 -14    2.92    0.24
  -8   1  14    3.19    0.38
   8  -1 -13    0.13    0.11
   8  -1 -13    0.23    0.09
  -8   1  13    0.25    0.16
   8  -1 -12    0.09    0.09
   8  -1 -12    0.08    0.08
  -8   1  12    0.09    0.13
   8  -1 -11    0.07    0.11
   8  -1 -11    0.08    0.07
  -8   1  11    0.07    0.11
   8  -1 -10    2.14    0.16
   8  -1 -10    2.15    0.22
  -8   1  10    2.56    0.25
   8  -1  -9    1.43    0.16
   8  -1  -9    1.32    0.16
  -8   1   9    1.41    0.18
   8  -1  -8   14.04    0.62
   8  -1  -8   13.18    0.70
  -8   1   8   14.38    0.71
   8  -1  -7   -0.02    0.07
   8  -1  -7    0.00    0.09
  -8   1   7    0.12    0.09
   8  -1  -6    0.10    0.07
   8  -1  -6   -0.00    0.06
  -8   1   6    0.06    0.05
   8  -1  -5    0.08    0.10
   8  -1  -5    0.19    0.10
  -8   1   5    0.15    0.06
   8  -1  -4    0.19    0.08
   8  -1  -4    0.17    0.10
  -8   1   4    0.26    0.06
   8  -1  -3    0.05    0.06
   8  -1  -3    0.10    0.09
  -8   1   2    0.04    0.04
  -8   1   2    0.11    0.07
   8  -1  -1    0.12    0.08
  -8   1   1    0.03    0.04
  -8   1   1    0.15    0.08
   8  -1   0    4.70    0.28
  -8   1   0    4.36    0.29
   8  -1   1    5.71    0.30
  -8   1  -1    4.60    0.17
  -8   1  -1    5.45    0.35
   8  -1   2    5.72    0.35
  -8   1  -2    5.91    0.35
  -8   1  -2    4.51    0.19
   8  -1   3    0.09    0.08
  -8   1  -3    0.06    0.05
  -8   1  -3    0.28    0.10
   8  -1   4    6.87    0.39
  -8   1  -4    6.72    0.42
  -8   1  -4    5.61    0.25
   8  -1   5    2.69    0.25
  -8   1  -5    2.91    0.21
  -8   1  -5    2.30    0.15
   8  -1   6    4.18    0.31
  -8   1  -6    4.51    0.31
  -8   1  -6    3.17    0.20
   8  -1   7    0.98    0.16
  -8   1  -7    0.92    0.13
  -8   1  -7    0.65    0.10
   8  -1   8    1.62    0.25
  -8   1  -8    1.37    0.15
  -8   1  -8    1.77    0.20
   8  -1   9    0.72    0.15
  -8   1  -9    0.65    0.13
  -8   1  -9    0.50    0.11
   8  -1  10    4.27    0.36
  -8   1 -10    3.59    0.28
  -8   1 -10    3.62    0.27
   8  -1  11    5.24    0.47
  -8   1 -11    5.62    0.39
  -8   1 -11    5.79    0.40
   8  -1  12    2.37    0.30
  -8   1 -12    2.07    0.24
  -8   1 -12    2.82    0.27
   8  -1  13    0.77    0.26
  -8   1 -13    1.06    0.18
  -8   1 -13    0.82    0.15
   8  -1  14   -0.12    0.13
  -8   1 -14   -0.08    0.09
  -8   1 -14    0.03    0.10
   8  -1  15    1.35    0.29
  -8   1 -15    0.62    0.17
  -8   1 -15    1.28    0.23
   8  -1  16    1.28    0.33
  -8   1 -16    0.99    0.23
   8  -1  17    0.88    0.31
  -8   1 -17    1.01    0.25
   8  -1  18    0.59    0.25
  -8   1 -18    0.27    0.16
   8  -1  19    0.97    0.36
  -8   1 -19    1.16    0.28
   8  -1  20    0.20    0.19
  -8   1 -20    0.08    0.19
   8   0 -20    0.63    0.16
  -8   0  20    0.02    0.31
   8   0 -19    0.17    0.16
  -8   0  19    0.10    0.22
   8   0 -18    3.45    0.43
  -8   0  18    4.40    0.59
   8   0 -17    0.92    0.25
  -8   0  17    1.84    0.33
   8   0 -16    0.54    0.16
  -8   0  16    0.73    0.21
   8   0 -15    1.85    0.30
  -8   0  15    2.66    0.37
   8   0 -14    0.06    0.12
   8   0 -14    0.02    0.07
  -8   0  14    0.10    0.14
   8   0 -13    0.90    0.19
   8   0 -13    0.80    0.12
  -8   0  13    0.82    0.22
   8   0 -12    2.89    0.29
   8   0 -12    3.04    0.21
  -8   0  12    3.87    0.34
   8   0 -11    0.04    0.10
   8   0 -11    0.30    0.09
  -8   0  11    0.12    0.12
   8   0 -10    0.27    0.10
   8   0 -10    0.16    0.07
  -8   0  10   -0.07    0.11
   8   0  -9   17.25    0.75
   8   0  -9   15.96    0.91
  -8   0   9   17.39    0.93
   8   0  -8    1.45    0.13
   8   0  -8    1.21    0.20
  -8   0   8    1.36    0.18
   8   0  -7    6.50    0.33
   8   0  -7    5.97    0.42
  -8   0   7    6.53    0.37
   8   0  -6    0.49    0.09
   8   0  -6    0.36    0.10
  -8   0   6    0.23    0.10
   8   0  -5    0.19    0.07
   8   0  -5   -0.01    0.09
  -8   0   5    0.13    0.07
   8   0  -4    0.85    0.12
   8   0  -4    0.74    0.15
  -8   0   4    1.03    0.09
   8   0  -3    2.29    0.18
   8   0  -3    1.91    0.21
   8   0  -2   32.48    1.33
   8   0  -2   34.69    1.50
  -8   0   2   29.37    0.99
   8   0  -1    1.97    0.18
   8   0  -1    2.14    0.18
  -8   0   1    1.73    0.11
   8   0   0   11.48    0.52
  -8   0   0    9.96    0.37
  -8   0   0   12.09    0.59
   8   0   1    2.37    0.17
  -8   0  -1    1.79    0.20
  -8   0  -1    1.70    0.12
   8   0   2   -0.09    0.09
  -8   0  -2    0.08    0.07
  -8   0  -2    0.06    0.04
   8   0   3    4.89    0.31
  -8   0  -3    4.29    0.23
  -8   0  -3    5.09    0.31
   8   0   4   12.04    0.69
  -8   0  -4   10.70    0.45
  -8   0  -4   12.17    0.64
   8   0   5    0.44    0.13
  -8   0  -5    0.63    0.13
  -8   0  -5    0.53    0.09
   8   0   6    3.05    0.27
  -8   0  -6    3.42    0.25
  -8   0  -6    2.98    0.20
   8   0   7    4.31    0.32
  -8   0  -7    4.27    0.26
  -8   0  -7    3.84    0.29
   8   0   8    0.36    0.16
  -8   0  -8    0.49    0.12
  -8   0  -8    0.24    0.10
   8   0   9    0.09    0.10
  -8   0  -9    0.02    0.08
  -8   0  -9    0.10    0.08
   8   0  10    0.75    0.17
  -8   0 -10    0.47    0.10
  -8   0 -10    0.41    0.13
   8   0  11    8.89    0.68
  -8   0 -11    7.96    0.49
  -8   0 -11    8.16    0.54
   8   0  12    0.81    0.22
  -8   0 -12    0.41    0.12
  -8   0 -12    0.47    0.15
   8   0  13   -0.16    0.12
  -8   0 -13    0.07    0.10
  -8   0 -13    0.10    0.09
   8   0  14    0.65    0.22
  -8   0 -14    0.43    0.12
  -8   0 -14    0.52    0.13
   8   0  15   -0.03    0.15
  -8   0 -15   -0.00    0.10
   8   0  16    1.52    0.36
  -8   0 -16    1.26    0.22
   8   0  17    0.91    0.28
  -8   0 -17    0.39    0.17
   8   0  18    5.14    0.63
  -8   0 -18    3.49    0.42
   8   0  19    0.78    0.24
  -8   0 -19    0.45    0.21
   8   0  20    4.45    0.68
  -8   0 -20    3.90    0.52
   8   1 -20   -0.04    0.17
  -8  -1  20   -0.20    0.23
   8   1 -19    0.18    0.18
  -8  -1  19    0.27    0.25
   8   1 -18    0.81    0.19
  -8  -1  18    0.73    0.30
   8   1 -17    0.97    0.24
  -8  -1  17    1.06    0.27
   8   1 -16    2.48    0.35
  -8  -1  16    2.51    0.41
   8   1 -15    0.63    0.17
  -8  -1  15    0.75    0.25
   8   1 -14    1.49    0.22
  -8  -1  14    1.58    0.28
   8   1 -13    0.48    0.14
   8   1 -13    0.34    0.09
  -8  -1  13    0.93    0.19
   8   1 -12    0.01    0.09
   8   1 -12    0.05    0.05
  -8  -1  12   -0.04    0.09
   8   1 -11    0.89    0.22
   8   1 -11    1.22    0.12
  -8  -1  11    1.48    0.19
   8   1 -10    4.07    0.34
   8   1 -10    4.17    0.25
  -8  -1  10    4.64    0.35
   8   1  -9    2.62    0.29
   8   1  -9    2.51    0.18
  -8  -1   9    3.09    0.27
   8   1  -8    0.93    0.10
   8   1  -8    0.84    0.15
  -8  -1   8    0.91    0.15
   8   1  -7    2.74    0.18
   8   1  -7    2.00    0.22
  -8  -1   7    3.07    0.24
   8   1  -6    2.27    0.17
   8   1  -6    1.19    0.21
  -8  -1   6    1.70    0.15
   8   1  -5    0.37    0.08
   8   1  -5    0.07    0.09
  -8  -1   5    0.32    0.08
   8   1  -4    1.78    0.15
   8   1  -4    1.76    0.17
  -8  -1   4    1.79    0.14
   8   1  -3   12.33    0.55
   8   1  -3   12.10    0.60
   8   1  -2    8.72    0.39
   8   1  -2    9.63    0.53
  -8  -1   2    8.40    0.37
   8   1  -1   25.19    1.10
  -8  -1   1   22.41    0.86
   8   1   0    0.75    0.12
   8   1   0    0.58    0.11
  -8  -1   0    0.36    0.08
   8   1   1    5.56    0.35
  -8  -1  -1    4.97    0.24
   8   1   2    6.39    0.36
  -8  -1  -2    5.57    0.27
  -8  -1  -2    6.10    0.39
   8   1   3    2.30    0.21
  -8  -1  -3    2.12    0.15
  -8  -1  -3    2.04    0.21
   8   1   4    4.68    0.31
  -8  -1  -4    5.19    0.33
  -8  -1  -4    3.90    0.24
   8   1   5   12.76    0.71
  -8  -1  -5   12.19    0.57
  -8  -1  -5   13.12    0.67
   8   1   6    0.44    0.13
  -8  -1  -6    0.39    0.11
  -8  -1  -6    0.53    0.10
   8   1   7    1.57    0.24
  -8  -1  -7    2.29    0.19
  -8  -1  -7    2.00    0.19
   8   1   8    3.18    0.40
  -8  -1  -8    3.51    0.27
  -8  -1  -8    3.74    0.25
   8   1   9    0.13    0.15
  -8  -1  -9    0.07    0.10
  -8  -1  -9    0.28    0.11
   8   1  10   12.89    0.89
  -8  -1 -10   11.10    0.71
  -8  -1 -10   10.73    0.60
   8   1  11    3.92    0.40
  -8  -1 -11    2.94    0.25
  -8  -1 -11    3.64    0.33
   8   1  12    0.11    0.18
  -8  -1 -12    0.12    0.08
  -8  -1 -12    0.18    0.13
   8   1  13    0.90    0.23
  -8  -1 -13    0.84    0.17
   8   1  14    2.62    0.42
  -8  -1 -14    2.43    0.34
   8   1  15    1.17    0.40
  -8  -1 -15    2.03    0.26
   8   1  16    1.16    0.31
  -8  -1 -16    0.57    0.24
   8   1  17    3.12    0.53
  -8  -1 -17    4.17    0.51
   8   1  18   -0.19    0.17
  -8  -1 -18    0.06    0.17
   8   1  19    0.09    0.22
  -8  -1 -19    0.07    0.18
   8   1  20    0.51    0.30
  -8  -1 -20    1.03    0.31
   8   2 -20    0.09    0.17
  -8  -2  20    0.17    0.24
   8   2 -19    3.14    0.44
  -8  -2  19    3.53    0.48
   8   2 -18    0.30    0.16
  -8  -2  18    0.16    0.20
   8   2 -17    1.25    0.30
  -8  -2  17    1.86    0.37
   8   2 -16    0.59    0.18
  -8  -2  16    0.53    0.25
   8   2 -15    0.27    0.19
  -8  -2  15    0.54    0.17
   8   2 -14    0.11    0.18
  -8  -2  14    0.76    0.21
   8   2 -13    2.16    0.29
  -8  -2  13    1.74    0.33
   8   2 -12    0.62    0.18
  -8  -2  12    0.43    0.16
   8   2 -11   17.99    1.00
   8   2 -11   14.06    0.57
  -8  -2  11   18.75    1.04
   8   2 -10    0.45    0.13
   8   2 -10    0.32    0.07
  -8  -2  10    0.42    0.15
   8   2  -9    0.94    0.16
  -8  -2   9    1.04    0.15
   8   2  -8    0.18    0.11
   8   2  -8    0.08    0.07
  -8  -2   8    0.08    0.09
   8   2  -7    0.10    0.06
   8   2  -7    0.28    0.10
  -8  -2   7   -0.09    0.09
   8   2  -6    0.68    0.10
   8   2  -6    0.81    0.15
  -8  -2   6    0.87    0.13
   8   2  -5    5.70    0.28
   8   2  -5    5.42    0.35
  -8  -2   5    5.72    0.33
   8   2  -4    3.76    0.22
   8   2  -4    3.47    0.25
  -8  -2   4    3.78    0.24
   8   2  -3    0.34    0.08
   8   2  -3    0.34    0.12
  -8  -2   3    0.32    0.09
   8   2  -2   10.76    0.50
   8   2  -2   10.93    0.56
  -8  -2   2   10.71    0.48
   8   2  -1    3.21    0.24
   8   2  -1    3.35    0.27
  -8  -2   1    2.97    0.20
   8   2   0    4.48    0.31
   8   2   0    4.10    0.25
  -8  -2   0    4.03    0.25
   8   2   1    2.79    0.23
   8   2   1    2.71    0.22
  -8  -2  -1    2.57    0.18
   8   2   2    0.97    0.15
   8   2   2    1.35    0.17
  -8  -2  -2    0.96    0.11
   8   2   3    3.82    0.31
  -8  -2  -3    3.73    0.29
  -8  -2  -3    3.30    0.22
   8   2   4   19.57    1.01
  -8  -2  -4   19.52    0.86
  -8  -2  -4   19.91    0.96
   8   2   5   20.20    1.08
  -8  -2  -5   17.24    0.81
  -8  -2  -5   18.82    0.86
   8   2   6    0.64    0.16
  -8  -2  -6    0.63    0.12
  -8  -2  -6    0.78    0.12
   8   2   7    0.50    0.16
  -8  -2  -7    0.23    0.09
  -8  -2  -7    0.24    0.09
   8   2   8    5.56    0.53
  -8  -2  -8    5.54    0.32
  -8  -2  -8    5.40    0.34
   8   2   9    2.63    0.36
  -8  -2  -9    2.02    0.19
  -8  -2  -9    2.41    0.26
   8   2  10    0.68    0.23
  -8  -2 -10    0.49    0.10
  -8  -2 -10    0.69    0.13
   8   2  11    7.07    0.62
  -8  -2 -11    6.82    0.54
   8   2  12    0.70    0.26
  -8  -2 -12    0.63    0.19
   8   2  13    0.60    0.21
  -8  -2 -13    0.65    0.19
   8   2  14    1.31    0.28
  -8  -2 -14    1.08    0.21
   8   2  15    1.64    0.34
  -8  -2 -15    1.92    0.32
   8   2  16    1.06    0.31
  -8  -2 -16    1.66    0.27
   8   2  17    6.31    0.85
  -8  -2 -17    6.07    0.64
   8   2  18    2.76    0.53
  -8  -2 -18    2.22    0.46
   8   2  19   -0.10    0.19
  -8  -2 -19   -0.10    0.20
   8   3 -20    0.03    0.17
  -8  -3  20   -0.08    0.21
   8   3 -19    0.23    0.15
  -8  -3  19    0.01    0.20
   8   3 -18    1.29    0.33
  -8  -3  18    1.79    0.40
   8   3 -17   -0.11    0.18
   8   3 -16    3.50    0.43
  -8  -3  16    4.52    0.55
   8   3 -15    0.42    0.17
  -8  -3  15    0.32    0.23
   8   3 -14    0.05    0.16
  -8  -3  14    0.23    0.14
   8   3 -13    2.98    0.40
  -8  -3  13    3.60    0.43
   8   3 -12    2.22    0.34
  -8  -3  12    2.71    0.30
   8   3 -11    1.96    0.31
  -8  -3  11    2.11    0.26
   8   3 -10    0.76    0.17
  -8  -3  10    0.66    0.19
   8   3  -9    0.48    0.13
  -8  -3   9   -0.02    0.15
   8   3  -8    3.72    0.31
   8   3  -8    3.42    0.18
  -8  -3   8    3.84    0.31
   8   3  -7    1.01    0.13
   8   3  -7    0.76    0.16
  -8  -3   7    1.29    0.17
   8   3  -6    0.92    0.09
   8   3  -6    0.91    0.13
  -8  -3   6    0.50    0.12
   8   3  -5    0.11    0.06
   8   3  -5    0.16    0.11
  -8  -3   5    0.08    0.09
   8   3  -4    4.58    0.25
   8   3  -4    5.18    0.32
  -8  -3   4    4.93    0.31
   8   3  -3    2.72    0.19
   8   3  -3    2.72    0.22
  -8  -3   3    2.75    0.22
   8   3  -2   10.52    0.50
   8   3  -2   11.19    0.59
  -8  -3   2    9.68    0.46
   8   3  -1    5.91    0.40
   8   3  -1    6.12    0.35
  -8  -3   1    5.53    0.33
   8   3   0    3.51    0.24
   8   3   0    3.51    0.26
  -8  -3   0    3.03    0.24
   8   3   1    0.03    0.09
   8   3   1    0.27    0.09
  -8  -3  -1    0.12    0.08
   8   3   2   -0.05    0.06
   8   3   2   -0.05    0.08
  -8  -3  -2    0.05    0.06
   8   3   3   -0.11    0.07
   8   3   3   -0.04    0.08
  -8  -3  -3    0.01    0.07
   8   3   4    0.81    0.16
  -8  -3  -4    0.49    0.10
  -8  -3  -4    0.65    0.12
   8   3   5   -0.05    0.11
  -8  -3  -5    0.07    0.08
  -8  -3  -5    0.04    0.07
   8   3   6    0.14    0.10
  -8  -3  -6   -0.12    0.08
  -8  -3  -6   -0.06    0.07
   8   3   7    0.49    0.18
  -8  -3  -7    0.27    0.13
  -8  -3  -7    0.37    0.10
   8   3   8    1.29    0.21
  -8  -3  -8    0.51    0.10
  -8  -3  -8    0.56    0.15
   8   3   9    1.47    0.31
  -8  -3  -9    1.50    0.19
  -8  -3  -9    1.51    0.14
   8   3  10   -0.04    0.11
  -8  -3 -10    0.03    0.06
  -8  -3 -10   -0.12    0.10
   8   3  11    0.31    0.23
  -8  -3 -11    0.61    0.15
   8   3  12    1.29    0.27
  -8  -3 -12    1.65    0.23
   8   3  13    1.86    0.32
  -8  -3 -13    1.94    0.27
   8   3  14    0.05    0.16
  -8  -3 -14    0.19    0.16
   8   3  15    1.99    0.37
  -8  -3 -15    2.69    0.41
   8   3  16    2.02    0.38
  -8  -3 -16    2.47    0.40
   8   3  17    0.77    0.26
  -8  -3 -17    0.08    0.19
   8   3  18    1.27    0.41
  -8  -3 -18    1.29    0.36
   8   3  19   -0.15    0.18
  -8  -3 -19    0.21    0.15
   8   4 -20    0.29    0.24
  -8  -4  20    0.37    0.30
   8   4 -19   -0.05    0.15
  -8  -4  19    0.03    0.17
   8   4 -18    0.14    0.18
  -8  -4  18    0.54    0.26
   8   4 -17    1.34    0.30
  -8  -4  17    2.30    0.43
   8   4 -16    0.06    0.18
  -8  -4  16    0.21    0.20
   8   4 -15    0.39    0.18
  -8  -4  15    0.16    0.22
   8   4 -14    0.68    0.19
  -8  -4  14    0.99    0.26
   8   4 -13    1.73    0.26
  -8  -4  13    1.87    0.28
   8   4 -12    1.96    0.28
  -8  -4  12    2.58    0.35
   8   4 -11    0.43    0.15
  -8  -4  11    0.40    0.19
   8   4 -10    0.17    0.10
  -8  -4  10    0.07    0.12
   8   4  -9    2.20    0.30
  -8  -4   9    2.60    0.29
   8   4  -8    0.70    0.16
  -8  -4   8    0.75    0.17
   8   4  -7    4.13    0.35
   8   4  -7    4.81    0.24
  -8  -4   7    4.81    0.37
   8   4  -6    0.20    0.07
   8   4  -6    0.23    0.11
  -8  -4   6    0.54    0.10
   8   4  -5    0.14    0.07
   8   4  -5    0.46    0.11
  -8  -4   5    0.06    0.09
   8   4  -4   12.34    0.53
   8   4  -4   13.95    0.79
  -8  -4   4   14.00    0.71
   8   4  -3    0.77    0.11
   8   4  -3    0.73    0.16
  -8  -4   3    1.12    0.15
   8   4  -2    0.28    0.10
   8   4  -2    0.14    0.08
  -8  -4   2    0.14    0.09
   8   4  -1    3.77    0.27
   8   4  -1    3.52    0.26
  -8  -4   1    3.32    0.26
   8   4   0    2.13    0.21
   8   4   0    1.62    0.19
  -8  -4   0    2.00    0.18
   8   4   1    0.08    0.10
   8   4   1    0.34    0.09
  -8  -4  -1    0.19    0.07
   8   4   2    2.96    0.21
   8   4   2    3.31    0.27
  -8  -4  -2    3.42    0.26
   8   4   3    1.60    0.14
   8   4   3    1.21    0.23
  -8  -4  -3    1.93    0.18
   8   4   4    5.67    0.34
   8   4   4    6.30    0.49
  -8  -4  -4    5.41    0.36
   8   4   5    0.21    0.15
  -8  -4  -5    0.25    0.11
  -8  -4  -5    0.10    0.09
   8   4   6    6.39    0.50
  -8  -4  -6    6.46    0.37
  -8  -4  -6    6.28    0.41
   8   4   7    1.51    0.20
  -8  -4  -7    0.73    0.14
  -8  -4  -7    0.79    0.12
   8   4   8    0.35    0.16
  -8  -4  -8    0.40    0.09
  -8  -4  -8    0.55    0.14
  -8  -4  -9   -0.08    0.12
   8   4  10    2.25    0.40
  -8  -4 -10    2.74    0.34
   8   4  11    0.18    0.15
  -8  -4 -11    0.09    0.12
   8   4  12    0.74    0.20
  -8  -4 -12    0.37    0.16
   8   4  13    0.85    0.24
   8   4  14    0.99    0.26
  -8  -4 -14    0.87    0.23
   8   4  15    0.09    0.17
  -8  -4 -15    0.20    0.18
   8   4  16   -0.06    0.20
  -8  -4 -16    0.38    0.16
   8   4  17    0.54    0.28
  -8  -4 -17    0.14    0.24
   8   4  18    0.11    0.19
  -8  -4 -18    0.29    0.18
   8   5 -19   -0.09    0.20
  -8  -5  19   -0.12    0.22
   8   5 -18    0.20    0.22
  -8  -5  18    0.27    0.21
   8   5 -17    0.86    0.23
  -8  -5  17    0.77    0.34
   8   5 -16    2.20    0.38
  -8  -5  16    1.89    0.45
   8   5 -15   -0.12    0.13
  -8  -5  15    0.01    0.18
   8   5 -14    0.03    0.13
  -8  -5  14    0.15    0.15
   8   5 -13   -0.02    0.11
  -8  -5  13    0.16    0.17
   8   5 -12    1.52    0.30
  -8  -5  12    2.26    0.36
   8   5 -11    0.15    0.11
  -8  -5  11   -0.05    0.10
   8   5 -10    0.30    0.12
  -8  -5  10    0.02    0.16
   8   5  -9   -0.01    0.13
  -8  -5   9    0.17    0.11
   8   5  -8    1.44    0.21
  -8  -5   8    1.38    0.23
   8   5  -7    2.66    0.32
  -8  -5   7    3.24    0.31
   8   5  -6    3.00    0.18
   8   5  -6    3.92    0.34
  -8  -5   6    3.36    0.28
   8   5  -5    0.99    0.10
   8   5  -5    1.34    0.22
  -8  -5   5    1.22    0.19
   8   5  -4    1.10    0.12
   8   5  -4    1.18    0.18
  -8  -5   4    1.66    0.19
   8   5  -3    0.72    0.18
   8   5  -3    0.88    0.13
  -8  -5   3    0.57    0.15
   8   5  -2   10.70    0.66
   8   5  -2   10.71    0.56
  -8  -5   2   11.28    0.63
   8   5  -1    0.27    0.14
   8   5  -1    0.55    0.11
  -8  -5   1    0.43    0.11
   8   5   0    0.90    0.17
   8   5   0    0.97    0.15
  -8  -5   0    1.08    0.18
   8   5   1    1.87    0.17
   8   5   1    1.74    0.22
  -8  -5  -1    1.55    0.18
   8   5   2    1.26    0.17
   8   5   2    1.29    0.18
  -8  -5  -2    1.67    0.20
   8   5   3    2.09    0.19
   8   5   3    2.13    0.28
  -8  -5  -3    2.12    0.21
   8   5   4    0.07    0.08
   8   5   4    0.01    0.12
  -8  -5  -4    0.08    0.08
   8   5   5    8.48    0.59
  -8  -5  -5    8.33    0.57
   8   5   6    4.33    0.49
  -8  -5  -6    5.20    0.31
  -8  -5  -6    4.54    0.34
   8   5   7   -0.20    0.13
  -8  -5  -7    0.08    0.07
  -8  -5  -7    0.07    0.08
   8   5   8    2.93    0.39
  -8  -5  -8    2.49    0.20
  -8  -5  -8    2.24    0.30
   8   5   9    3.08    0.37
  -8  -5  -9    3.44    0.33
   8   5  10    0.88    0.23
  -8  -5 -10    0.21    0.19
   8   5  11    2.47    0.42
  -8  -5 -11    2.34    0.35
   8   5  12    0.47    0.20
  -8  -5 -12    0.69    0.18
   8   5  13    1.95    0.34
  -8  -5 -13    1.45    0.37
   8   5  14    1.86    0.36
  -8  -5 -14    1.93    0.39
   8   5  15    2.28    0.48
  -8  -5 -15    2.24    0.37
   8   5  16    2.80    0.57
  -8  -5 -16    2.70    0.40
   8   5  17    1.02    0.30
  -8  -5 -17    0.44    0.31
   8   5  18    0.81    0.28
  -8  -5 -18    0.05    0.23
   8   6 -18    0.92    0.27
  -8  -6  18    1.21    0.32
   8   6 -17    4.07    0.60
  -8  -6  17    4.54    0.64
   8   6 -16    3.47    0.47
  -8  -6  16    5.08    0.58
   8   6 -15   -0.24    0.17
  -8  -6  15    0.09    0.16
   8   6 -14    0.05    0.12
  -8  -6  14   -0.16    0.17
   8   6 -13    0.55    0.19
  -8  -6  13    0.52    0.18
   8   6 -12    0.59    0.19
  -8  -6  12    0.78    0.23
   8   6 -11    4.71    0.44
  -8  -6  11    4.33    0.52
   8   6 -10    0.45    0.14
  -8  -6  10    0.17    0.14
   8   6  -9    0.59    0.14
  -8  -6   9    0.25    0.16
   8   6  -8    1.94    0.25
  -8  -6   8    2.03    0.25
   8   6  -7   15.51    1.02
  -8  -6   7   15.97    0.99
   8   6  -6    0.97    0.19
  -8  -6   6    1.21    0.17
   8   6  -5    1.15    0.19
  -8  -6   5    1.26    0.18
   8   6  -4   29.52    1.25
   8   6  -4   31.54    1.78
  -8  -6   4   33.88    1.77
   8   6  -3    0.16    0.13
   8   6  -3    0.48    0.09
  -8  -6   3    0.30    0.14
   8   6  -2   -0.21    0.10
   8   6  -2    0.08    0.07
  -8  -6   2    0.11    0.08
   8   6  -1    0.83    0.14
   8   6  -1    0.48    0.13
  -8  -6   1    0.58    0.14
   8   6   0    0.26    0.11
   8   6   0    0.15    0.12
  -8  -6   0    0.22    0.11
   8   6   1    0.22    0.12
   8   6   1    0.53    0.14
  -8  -6  -1    0.20    0.11
   8   6   2    0.60    0.15
   8   6   2    0.98    0.18
  -8  -6  -2    0.91    0.17
   8   6   3    0.09    0.09
   8   6   3    0.08    0.11
  -8  -6  -3    0.22    0.12
   8   6   4    2.82    0.23
   8   6   4    3.11    0.34
  -8  -6  -4    3.00    0.30
   8   6   5    0.17    0.08
   8   6   5    0.19    0.13
  -8  -6  -5    0.20    0.14
   8   6   6    0.34    0.16
  -8  -6  -6    0.14    0.09
  -8  -6  -6    0.23    0.12
   8   6   7   -0.07    0.14
  -8  -6  -7   -0.05    0.06
  -8  -6  -7   -0.06    0.12
   8   6   8    1.01    0.25
  -8  -6  -8    1.40    0.21
   8   6   9    1.24    0.29
  -8  -6  -9    1.32    0.27
   8   6  10    1.39    0.27
  -8  -6 -10    1.32    0.29
   8   6  11    1.59    0.36
  -8  -6 -11    1.57    0.27
   8   6  12    0.98    0.29
  -8  -6 -12    0.73    0.21
   8   6  13    5.76    0.77
  -8  -6 -13    5.27    0.57
   8   6  14    3.15    0.59
  -8  -6 -14    4.84    0.60
   8   6  15    1.69    0.42
  -8  -6 -15    2.14    0.44
   8   6  16    0.86    0.36
  -8  -6 -16    0.74    0.27
   8   6  17    1.60    0.40
  -8  -6 -17    1.41    0.41
   8   7 -18    3.46    0.59
  -8  -7  18    4.05    0.72
   8   7 -17    3.78    0.56
  -8  -7  17    5.04    0.64
   8   7 -16    8.79    0.89
  -8  -7  16    8.84    0.90
   8   7 -15    1.25    0.26
  -8  -7  15    0.62    0.32
   8   7 -14    0.04    0.18
  -8  -7  14    0.22    0.20
   8   7 -13    0.08    0.18
  -8  -7  13    0.22    0.16
   8   7 -12    0.75    0.20
  -8  -7  12    0.82    0.22
   8   7 -11    0.15    0.17
  -8  -7  11    0.61    0.18
   8   7 -10    1.94    0.36
  -8  -7  10    2.85    0.33
   8   7  -9    1.18    0.26
  -8  -7   9    1.38    0.27
   8   7  -8    0.42    0.17
  -8  -7   8    0.73    0.21
   8   7  -7    8.94    0.75
  -8  -7   7    9.74    0.71
   8   7  -6    0.40    0.16
  -8  -7   6    0.23    0.16
   8   7  -5    6.34    0.52
  -8  -7   5    5.65    0.51
   8   7  -4    0.99    0.23
   8   7  -4    1.04    0.13
  -8  -7   4    1.49    0.19
   8   7  -3    4.84    0.38
   8   7  -3    3.95    0.29
  -8  -7   3    4.35    0.36
   8   7  -2    0.70    0.17
   8   7  -2    0.42    0.12
  -8  -7   2    0.45    0.17
   8   7  -1    3.00    0.31
   8   7  -1    1.99    0.27
  -8  -7   1    2.78    0.31
   8   7   0    6.40    0.45
   8   7   0    5.66    0.47
  -8  -7   0    6.20    0.45
   8   7   1    6.15    0.45
   8   7   1    5.72    0.46
  -8  -7  -1    6.36    0.44
   8   7   2   -0.01    0.10
   8   7   2   -0.13    0.10
  -8  -7  -2   -0.14    0.12
   8   7   3    2.01    0.22
   8   7   3    1.79    0.25
  -8  -7  -3    2.06    0.27
   8   7   4    2.98    0.23
   8   7   4    2.69    0.36
  -8  -7  -4    2.73    0.28
   8   7   5    0.37    0.09
   8   7   5    0.28    0.14
  -8  -7  -5    0.41    0.17
   8   7   6    3.52    0.43
  -8  -7  -6    5.41    0.42
   8   7   7    1.08    0.23
  -8  -7  -7    1.12    0.23
   8   7   8    0.41    0.20
   8   7   9   -0.14    0.13
  -8  -7  -9    0.03    0.14
   8   7  10    0.46    0.21
  -8  -7 -10    0.18    0.19
   8   7  11    1.33    0.35
  -8  -7 -11    1.05    0.28
   8   7  12   -0.01    0.22
  -8  -7 -12    0.24    0.19
   8   7  13    0.14    0.21
  -8  -7 -13    0.05    0.19
   8   7  14    0.10    0.21
  -8  -7 -14    0.01    0.15
   8   7  15    0.96    0.34
  -8  -7 -15    1.05    0.35
   8   7  16    1.02    0.44
  -8  -7 -16    1.15    0.39
   8   8 -17    1.01    0.36
  -8  -8  17    1.35    0.41
   8   8 -16    0.33    0.21
  -8  -8  16    0.49    0.28
   8   8 -15    1.06    0.37
  -8  -8  15    1.62    0.39
   8   8 -14    0.33    0.18
  -8  -8  14   -0.16    0.16
   8   8 -13    0.02    0.13
  -8  -8  13   -0.05    0.16
   8   8 -12   -0.01    0.13
  -8  -8  12   -0.11    0.15
   8   8 -11    2.36    0.36
  -8  -8  11    2.74    0.36
   8   8 -10    1.62    0.26
  -8  -8  10    1.37    0.26
   8   8  -9    0.48    0.22
  -8  -8   9    0.60    0.18
   8   8  -8    0.87    0.19
  -8  -8   8    0.75    0.24
   8   8  -7    0.27    0.19
  -8  -8   7    0.60    0.16
   8   8  -6    0.05    0.11
   8   8  -5    0.15    0.14
  -8  -8   5    0.51    0.13
   8   8  -4    3.87    0.36
  -8  -8   4    3.87    0.35
   8   8  -3    0.58    0.18
  -8  -8   3    0.58    0.15
   8   8  -2    6.47    0.45
   8   8  -2    4.86    0.40
  -8  -8   2    6.13    0.46
   8   8  -1    0.63    0.19
   8   8  -1    0.58    0.16
  -8  -8   1    0.96    0.21
   8   8   0    2.30    0.24
   8   8   0    1.77    0.26
  -8  -8   0    2.47    0.28
   8   8   1   -0.12    0.10
   8   8   1   -0.07    0.11
  -8  -8  -1    0.08    0.13
   8   8   2    6.96    0.47
   8   8   2    5.90    0.54
  -8  -8  -2    7.19    0.52
   8   8   3    2.18    0.21
   8   8   3    1.99    0.30
  -8  -8  -3    1.81    0.31
   8   8   4    0.13    0.10
   8   8   4    0.32    0.13
  -8  -8  -4    0.25    0.14
   8   8   5   -0.06    0.14
  -8  -8  -5   -0.02    0.13
   8   8   6    0.28    0.17
  -8  -8  -6    0.15    0.13
   8   8   7    0.21    0.15
  -8  -8  -7    0.29    0.15
   8   8   8    0.88    0.29
  -8  -8  -8    1.12    0.26
   8   8   9    0.44    0.21
  -8  -8  -9    0.58    0.23
   8   8  10   -0.05    0.20
  -8  -8 -10   -0.13    0.17
   8   8  11    0.20    0.20
  -8  -8 -11    0.01    0.18
   8   8  12   -0.09    0.20
  -8  -8 -12   -0.03    0.18
   8   8  13    0.03    0.23
  -8  -8 -13    0.13    0.17
   8   8  14    1.78    0.41
  -8  -8 -14    1.54    0.35
   8   8  15    2.01    0.45
  -8  -8 -15    1.75    0.45
   8   9 -16    0.90    0.32
  -8  -9  16    1.26    0.40
   8   9 -15    0.25    0.20
  -8  -9  15    0.46    0.28
   8   9 -14    0.13    0.24
  -8  -9  14    0.33    0.21
   8   9 -13    0.15    0.13
  -8  -9  13   -0.25    0.17
   8   9 -12   -0.09    0.17
  -8  -9  12   -0.18    0.16
   8   9 -11    0.93    0.24
  -8  -9  11    0.80    0.23
   8   9 -10    0.13    0.14
  -8  -9  10    0.10    0.15
   8   9  -9    0.87    0.30
  -8  -9   9    1.46    0.25
   8   9  -8    1.58    0.34
  -8  -9   8    2.06    0.33
   8   9  -7    0.84    0.21
  -8  -9   7    1.17    0.26
   8   9  -6    0.74    0.20
  -8  -9   6    0.92    0.23
   8   9  -5    0.05    0.14
   8   9  -4    0.04    0.13
  -8  -9   4    0.08    0.11
   8   9  -3    1.54    0.24
  -8  -9   3    1.85    0.25
   8   9  -2    1.73    0.27
   8   9  -2    1.11    0.22
  -8  -9   2    2.31    0.26
   8   9  -1    2.50    0.31
   8   9  -1    1.47    0.25
  -8  -9   1    2.61    0.29
   8   9   0    1.71    0.28
   8   9   0    1.90    0.26
  -8  -9   0    1.93    0.27
   8   9   1    0.99    0.21
   8   9   1    0.65    0.21
  -8  -9  -1    1.67    0.25
   8   9   2    0.27    0.13
   8   9   2    0.21    0.12
  -8  -9  -2    0.42    0.14
   8   9   3    0.18    0.11
   8   9   3    0.11    0.15
  -8  -9  -3    0.43    0.14
   8   9   4    1.19    0.18
   8   9   4    1.17    0.28
  -8  -9  -4    1.98    0.28
   8   9   5   -0.17    0.15
  -8  -9  -5    0.35    0.15
   8   9   6    0.55    0.21
  -8  -9  -6    0.48    0.22
   8   9   7    0.09    0.15
  -8  -9  -7    0.26    0.14
   8   9   8    0.59    0.26
  -8  -9  -8    0.61    0.19
   8   9   9    0.37    0.22
  -8  -9  -9    0.79    0.20
   8   9  10    0.29    0.16
  -8  -9 -10   -0.09    0.15
   8   9  11   -0.15    0.22
  -8  -9 -11    0.34    0.20
   8   9  12    0.53    0.24
  -8  -9 -12    0.02    0.25
   8   9  13    0.60    0.27
  -8  -9 -13    0.32    0.24
   8  10 -14    0.06    0.16
  -8 -10  14    0.02    0.17
   8  10 -13    0.32    0.30
  -8 -10  13    0.98    0.29
   8  10 -12    0.50    0.28
  -8 -10  12    0.52    0.23
   8  10 -11    2.21    0.45
  -8 -10  11    2.33    0.38
   8  10 -10    0.65    0.26
  -8 -10  10    0.43    0.25
   8  10  -9    1.30    0.29
  -8 -10   9    1.02    0.29
   8  10  -8    0.26    0.17
  -8 -10   8    0.16    0.16
   8  10  -7    4.27    0.55
  -8 -10   7    4.57    0.46
   8  10  -6    0.11    0.14
  -8 -10   6    0.16    0.17
   8  10  -5    2.36    0.32
  -8 -10   5    2.35    0.33
   8  10  -4   -0.02    0.11
  -8 -10   4   -0.07    0.12
   8  10  -3    1.72    0.25
  -8 -10   3    1.63    0.33
   8  10  -2    0.51    0.21
  -8 -10   2    0.58    0.23
   8  10  -1    0.69    0.19
   8  10  -1    0.31    0.14
  -8 -10   1    0.63    0.20
   8  10   0    0.86    0.19
   8  10   0    0.35    0.17
  -8 -10   0    0.68    0.21
   8  10   1    0.15    0.13
   8  10   1    0.13    0.13
  -8 -10  -1    0.17    0.17
   8  10   2    0.23    0.13
   8  10   2    0.12    0.13
  -8 -10  -2    0.42    0.18
   8  10   3    0.17    0.12
   8  10   3    0.20    0.16
  -8 -10  -3    0.50    0.19
   8  10   4   -0.07    0.11
  -8 -10  -4   -0.02    0.12
   8  10   5    0.04    0.15
  -8 -10  -5   -0.08    0.12
   8  10   6    0.13    0.12
  -8 -10  -6   -0.12    0.13
   8  10   7    0.05    0.18
  -8 -10  -7   -0.18    0.17
   8  10   8    1.07    0.29
  -8 -10  -8    1.28    0.33
   8  10   9    0.20    0.18
  -8 -10  -9   -0.10    0.17
   8  10  10    0.15    0.25
  -8 -10 -10    0.29    0.23
   8  10  11    1.05    0.31
  -8 -10 -11    0.25    0.22
   8  10  12    0.25    0.30
  -8 -10 -12    0.39    0.22
   8  11 -13    0.96    0.31
  -8 -11  13    1.29    0.37
   8  11 -12    1.54    0.37
  -8 -11  12    1.67    0.35
   8  11 -11    0.19    0.22
  -8 -11  11    0.42    0.26
   8  11 -10    2.28    0.43
  -8 -11  10    3.28    0.51
   8  11  -9    3.27    0.48
  -8 -11   9    3.60    0.54
   8  11  -8    0.66    0.28
   8  11  -7    1.75    0.29
   8  11  -6    0.86    0.30
  -8 -11   6    1.28    0.25
   8  11  -5    1.46    0.34
  -8 -11   5    1.53    0.33
   8  11  -4    3.05    0.46
  -8 -11   4    3.13    0.41
   8  11  -3   -0.21    0.17
  -8 -11   3   -0.13    0.19
   8  11  -2    0.25    0.13
  -8 -11   2    0.01    0.15
   8  11  -1   -0.15    0.16
  -8 -11   1   -0.13    0.15
   8  11   0   -0.14    0.13
  -8 -11   0   -0.01    0.13
   8  11   1    0.45    0.14
   8  11   1    0.37    0.18
  -8 -11  -1    0.47    0.22
   8  11   2   -0.03    0.13
  -8 -11  -2   -0.11    0.17
   8  11   3    0.16    0.15
  -8 -11  -3    0.02    0.17
   8  11   4    0.25    0.18
  -8 -11  -4    0.28    0.20
   8  11   5    0.19    0.17
  -8 -11  -5    0.14    0.21
   8  11   6    0.17    0.24
  -8 -11  -6    0.86    0.23
   8  11   7   -0.01    0.15
  -8 -11  -7    0.17    0.16
   8  11   8    0.19    0.21
  -8 -11  -8    0.06    0.16
   8  11   9    0.29    0.22
  -8 -11  -9   -0.06    0.21
   8  11  10    0.12    0.27
  -8 -11 -10    1.27    0.32
   8  12 -10    2.62    0.54
  -8 -12  10    2.98    0.46
   8  12  -9    0.84    0.27
  -8 -12   9    0.55    0.25
   8  12  -8    0.27    0.23
  -8 -12   8    0.18    0.16
   8  12  -7    0.64    0.23
  -8 -12   7    0.69    0.23
   8  12  -6   -0.02    0.20
  -8 -12   6    0.33    0.18
   8  12  -5    2.72    0.46
  -8 -12   5    2.75    0.48
   8  12  -4    0.09    0.19
  -8 -12   4    0.17    0.16
   8  12  -3    1.59    0.40
  -8 -12   3    2.97    0.44
   8  12  -2    0.11    0.20
  -8 -12   2    0.45    0.19
   8  12  -1    0.21    0.17
  -8 -12   1    0.03    0.19
   8  12   0   -0.11    0.14
  -8 -12   0   -0.06    0.16
  -8 -12  -1    0.30    0.19
  -8 -12  -2    0.55    0.26
   8  12   3   -0.01    0.14
  -8 -12  -3    0.06    0.17
   8  12   4   -0.04    0.15
  -8 -12  -4    0.08    0.14
   8  12   5    0.15    0.20
  -8 -12  -5    0.21    0.18
   8  12   6    0.04    0.19
  -8 -12  -6   -0.20    0.21
   8  12   7    0.27    0.19
  -8 -12  -7    0.21    0.24
   8  13  -7    0.01    0.14
   8  13  -6    0.41    0.26
   8  13  -5    0.21    0.23
   8  13  -4    3.35    0.57
  -8 -13   4    3.70    0.47
   8  13  -3    0.14    0.16
  -8 -13   3   -0.07    0.15
   8  13  -2    1.36    0.38
  -8 -13   2    2.21    0.40
  -8 -13   1    0.20    0.18
  -8 -13   0   -0.12    0.19
  -8 -13  -1   -0.17    0.18
  -8 -13  -2    0.65    0.25
  -8 -13  -3   -0.27    0.24
  -8 -13  -4    0.11    0.17
   9 -15  -4    0.01    0.16
  -9  15   4    0.03    0.17
  -9  15   3    0.12    0.20
   9 -15  -2    0.30    0.15
  -9  15   2   -0.14    0.21
   9 -15  -1    2.00    0.31
  -9  15   1    0.99    0.36
   9 -15   0   -0.11    0.17
  -9  15   0   -0.00    0.15
   9 -15   1    1.21    0.25
  -9  15  -1    0.07    0.22
   9 -15   2    0.21    0.13
  -9  15  -2   -0.14    0.16
   9 -15   3    0.04    0.17
  -9  15  -3    0.15    0.17
   9 -15   4    0.09    0.13
  -9  15  -4    0.13    0.21
   9 -15   5   -0.12    0.17
  -9  15  -5    0.07    0.19
   9 -15   6    0.22    0.16
  -9  15  -6    0.11    0.22
   9 -15   7    0.08    0.17
  -9  15  -7    0.12    0.18
   9 -14  -8    1.31    0.36
   9 -14  -7    0.44    0.20
  -9  14   7    0.05    0.20
   9 -14  -6    0.89    0.25
  -9  14   6    0.23    0.25
   9 -14  -5    0.82    0.26
  -9  14   5    0.28    0.25
   9 -14  -4    1.47    0.28
  -9  14   4    0.52    0.24
   9 -14  -3    0.45    0.22
  -9  14   3    0.28    0.21
   9 -14  -2    1.48    0.26
  -9  14   2    1.08    0.30
   9 -14  -1   -0.07    0.13
  -9  14   1   -0.13    0.18
   9 -14   0    0.40    0.16
  -9  14   0    0.20    0.23
   9 -14   1    1.42    0.26
  -9  14  -1    1.27    0.36
   9 -14   2    0.78    0.22
  -9  14  -2   -0.01    0.26
   9 -14   3    0.64    0.22
  -9  14  -3    0.26    0.20
  -9  14  -4   -0.00    0.12
   9 -14   5    0.19    0.17
  -9  14  -5   -0.07    0.19
   9 -14   6   -0.15    0.14
  -9  14  -6    0.04    0.17
   9 -14   7    0.32    0.21
  -9  14  -7    0.46    0.27
   9 -14   8    0.13    0.18
  -9  14  -8    0.09    0.19
   9 -14   9    0.10    0.17
  -9  14  -9    0.10    0.24
   9 -14  10   -0.19    0.16
  -9  14 -10    0.11    0.16
   9 -13 -10    0.89    0.29
   9 -13  -9    0.96    0.28
   9 -13  -8    0.45    0.22
  -9  13   8    0.07    0.19
   9 -13  -7    0.72    0.21
  -9  13   7    0.42    0.23
   9 -13  -6    0.54    0.17
  -9  13   6    0.18    0.21
   9 -13  -5    1.07    0.21
  -9  13   5    0.38    0.21
   9 -13  -4    1.17    0.23
  -9  13   4    0.82    0.24
   9 -13  -3    0.41    0.17
  -9  13   3    0.16    0.19
   9 -13  -2   -0.10    0.16
  -9  13   2   -0.02    0.17
   9 -13  -1    0.53    0.18
  -9  13   1   -0.06    0.20
   9 -13   0    0.41    0.19
  -9  13   0    0.19    0.17
   9 -13   1    0.08    0.15
  -9  13  -1   -0.13    0.12
   9 -13   2    1.86    0.27
  -9  13  -2    0.92    0.34
   9 -13   3    0.16    0.12
  -9  13  -3   -0.11    0.17
   9 -13   4    0.33    0.18
  -9  13  -4    0.22    0.18
   9 -13   5    0.31    0.18
  -9  13  -5    0.14    0.21
   9 -13   6    0.07    0.13
  -9  13  -6   -0.07    0.12
   9 -13   7   -0.19    0.19
  -9  13  -7   -0.25    0.22
   9 -13   8    1.82    0.34
  -9  13  -8    1.42    0.42
   9 -13   9    0.37    0.19
  -9  13  -9    0.12    0.21
   9 -13  10    0.99    0.24
  -9  13 -10    1.28    0.40
   9 -13  11    0.04    0.17
  -9  13 -11    0.17    0.23
   9 -13  12    0.30    0.21
  -9  13 -12    0.31    0.23
   9 -12 -12   -0.11    0.15
   9 -12 -11    0.09    0.15
   9 -12 -10    0.20    0.20
   9 -12  -9    0.57    0.21
  -9  12   9    0.14    0.14
   9 -12  -8   -0.09    0.13
  -9  12   8    0.18    0.13
   9 -12  -7    0.10    0.12
  -9  12   7   -0.02    0.11
   9 -12  -6    0.35    0.20
  -9  12   6    0.70    0.20
   9 -12  -5    0.88    0.22
  -9  12   5    0.85    0.25
   9 -12  -4    1.96    0.27
  -9  12   4    0.93    0.30
   9 -12  -3    0.27    0.17
  -9  12   3    0.25    0.19
   9 -12  -2    0.17    0.16
  -9  12   2    0.07    0.17
   9 -12  -1    0.12    0.15
  -9  12   1   -0.02    0.12
   9 -12   0    0.65    0.19
  -9  12   0    0.65    0.20
   9 -12   1    0.35    0.15
  -9  12  -1   -0.01    0.17
   9 -12   2   -0.06    0.12
  -9  12  -2    0.24    0.13
   9 -12   3    0.05    0.10
  -9  12  -3   -0.14    0.15
   9 -12   4    1.42    0.23
  -9  12  -4    1.08    0.26
   9 -12   5    0.99    0.23
  -9  12  -5    0.30    0.26
   9 -12   6    0.45    0.18
  -9  12  -6    0.09    0.18
   9 -12   7    0.01    0.11
  -9  12  -7    0.02    0.13
   9 -12   8    0.41    0.19
  -9  12  -8    0.08    0.23
   9 -12   9   -0.06    0.16
  -9  12  -9   -0.13    0.18
   9 -12  10   -0.01    0.17
  -9  12 -10   -0.05    0.20
   9 -12  11    0.30    0.18
  -9  12 -11    0.11    0.18
   9 -12  12    0.95    0.31
  -9  12 -12    0.71    0.27
   9 -12  13    0.19    0.23
  -9  12 -13    0.18    0.20
   9 -12  14   -0.39    0.20
  -9  12 -14    0.04    0.20
   9 -11 -13    0.14    0.16
   9 -11 -12    3.16    0.48
   9 -11 -11    2.68    0.35
  -9  11  11    1.85    0.36
   9 -11 -10    0.24    0.17
  -9  11  10    0.00    0.15
   9 -11  -9    0.18    0.12
  -9  11   9   -0.15    0.13
   9 -11  -8    0.33    0.17
  -9  11   8    0.54    0.19
   9 -11  -7   -0.01    0.15
  -9  11   7    0.21    0.16
   9 -11  -6    4.90    0.47
  -9  11   6    4.94    0.47
   9 -11  -5    0.57    0.18
  -9  11   5   -0.03    0.14
   9 -11  -4    1.55    0.24
  -9  11   4    1.28    0.24
   9 -11  -3   -0.13    0.14
  -9  11   3   -0.02    0.11
   9 -11  -2    3.20    0.41
  -9  11   2    2.82    0.39
   9 -11  -1    0.68    0.17
  -9  11   1    0.46    0.18
   9 -11   0    0.34    0.17
  -9  11   0    0.74    0.17
   9 -11   1   -0.10    0.15
  -9  11  -1   -0.14    0.17
   9 -11   2    0.06    0.15
  -9  11  -2    0.11    0.15
   9 -11   3    0.32    0.16
  -9  11  -3    0.42    0.17
   9 -11   4   -0.04    0.12
  -9  11  -4   -0.18    0.16
   9 -11   5    0.17    0.13
  -9  11  -5    0.03    0.18
   9 -11   6   -0.17    0.15
  -9  11  -6    0.25    0.13
   9 -11   7    2.15    0.36
  -9  11  -7    1.15    0.30
   9 -11   8    1.34    0.32
  -9  11  -8    0.78    0.26
   9 -11   9    5.80    0.58
  -9  11  -9    4.93    0.56
   9 -11  10    0.44    0.21
  -9  11 -10    0.28    0.20
   9 -11  11   -0.01    0.15
  -9  11 -11    0.12    0.15
   9 -11  12    1.66    0.29
  -9  11 -12    2.23    0.37
   9 -11  13    0.93    0.26
  -9  11 -13    1.56    0.30
   9 -11  14   -0.08    0.12
  -9  11 -14    0.14    0.18
   9 -11  15    0.50    0.25
  -9  11 -15    0.18    0.26
   9 -10 -15    1.55    0.35
   9 -10 -14    1.72    0.28
   9 -10 -13   -0.13    0.19
   9 -10 -12    0.18    0.14
  -9  10  12   -0.02    0.16
   9 -10 -11    3.75    0.44
  -9  10  11    2.27    0.42
   9 -10 -10    0.76    0.22
  -9  10  10    0.35    0.18
   9 -10  -9    0.01    0.13
  -9  10   9    0.33    0.17
   9 -10  -8    0.29    0.15
  -9  10   8   -0.05    0.17
   9 -10  -7    4.02    0.40
  -9  10   7    3.98    0.50
   9 -10  -6    7.22    0.63
  -9  10   6    7.25    0.73
   9 -10  -5    9.95    0.69
  -9  10   5   10.81    0.86
   9 -10  -4    0.09    0.10
  -9  10   4   -0.19    0.13
   9 -10  -3    0.17    0.17
  -9  10   3    0.16    0.15
   9 -10  -2    0.56    0.15
  -9  10   2    0.39    0.16
   9 -10  -1    0.37    0.18
  -9  10   1    0.33    0.17
   9 -10   0    2.85    0.30
  -9  10   0    2.41    0.31
   9 -10   1    2.57    0.28
  -9  10  -1    2.01    0.29
   9 -10   2    1.42    0.25
  -9  10  -2    0.66    0.26
   9 -10   3    0.19    0.15
  -9  10  -3    0.56    0.19
   9 -10   4    0.62    0.16
  -9  10  -4    0.17    0.22
   9 -10   5    0.02    0.16
  -9  10  -5    0.35    0.15
   9 -10   6    1.83    0.28
  -9  10  -6    1.10    0.27
   9 -10   7    2.27    0.31
  -9  10  -7    2.16    0.33
   9 -10   8    0.16    0.17
  -9  10  -8    0.18    0.20
   9 -10   9    2.73    0.40
  -9  10  -9    2.06    0.45
   9 -10  10    1.44    0.24
  -9  10 -10    0.89    0.31
   9 -10  11    0.04    0.15
  -9  10 -11    0.02    0.13
   9 -10  12    1.38    0.31
  -9  10 -12    1.14    0.29
   9 -10  13    0.22    0.20
  -9  10 -13    0.15    0.22
   9 -10  14   -0.02    0.15
  -9  10 -14    0.02    0.16
   9 -10  15   -0.13    0.18
  -9  10 -15   -0.01    0.16
   9 -10  16    0.35    0.24
  -9  10 -16    0.38    0.26
  -9   9  16    0.15    0.16
   9  -9 -15    0.38    0.21
   9  -9 -14    0.00    0.14
   9  -9 -13    0.37    0.15
  -9   9  13    0.04    0.18
   9  -9 -12    0.95    0.25
  -9   9  12    0.74    0.23
   9  -9 -11   -0.03    0.13
  -9   9  11    0.00    0.10
   9  -9 -10    0.74    0.17
  -9   9  10    0.30    0.20
   9  -9  -9    0.03    0.10
  -9   9   9   -0.01    0.12
   9  -9  -8    0.47    0.19
  -9   9   8    0.59    0.17
   9  -9  -7    0.19    0.15
  -9   9   7    0.02    0.12
   9  -9  -6    1.96    0.24
  -9   9   6    1.39    0.25
   9  -9  -5    0.10    0.11
  -9   9   5    0.25    0.17
   9  -9  -4   14.76    0.93
  -9   9   4   15.18    1.11
   9  -9  -3    0.47    0.17
  -9   9   3    0.19    0.15
   9  -9  -2    3.03    0.32
  -9   9   2    3.60    0.37
   9  -9  -1    2.29    0.25
  -9   9   1    2.12    0.32
   9  -9   0    0.54    0.19
  -9   9   0    0.51    0.17
   9  -9   1    5.17    0.41
  -9   9  -1    4.68    0.45
   9  -9   2   -0.09    0.14
  -9   9  -2    0.11    0.10
   9  -9   3    2.97    0.33
  -9   9  -3    1.62    0.28
   9  -9   4    2.50    0.40
  -9   9  -4    2.75    0.32
   9  -9   5    1.84    0.30
  -9   9  -5    1.63    0.27
   9  -9   6    0.16    0.17
  -9   9  -6    0.30    0.15
   9  -9   7    0.99    0.25
  -9   9  -7    1.03    0.28
   9  -9   8    2.93    0.37
  -9   9  -8    1.28    0.36
   9  -9   9    2.22    0.33
  -9   9  -9    2.18    0.32
   9  -9  10    0.01    0.17
  -9   9 -10   -0.30    0.18
   9  -9  11    0.19    0.14
  -9   9 -11    0.11    0.18
   9  -9  12    0.04    0.18
  -9   9 -12    0.18    0.14
   9  -9  13   -0.04    0.16
  -9   9 -13   -0.07    0.17
   9  -9  14    1.36    0.26
  -9   9 -14    0.07    0.23
   9  -9  15   -0.26    0.20
  -9   9 -15   -0.35    0.22
   9  -9  16    2.82    0.45
  -9   9 -16    2.20    0.42
   9  -9  17   -0.04    0.14
  -9   9 -17    0.17    0.18
  -9   8  17    0.00    0.17
   9  -8 -16    0.13    0.15
   9  -8 -15    0.40    0.20
   9  -8 -14    3.62    0.46
  -9   8  14    3.46    0.46
   9  -8 -13    0.01    0.16
  -9   8  13    0.22    0.16
   9  -8 -12    0.75    0.16
  -9   8  12    0.19    0.16
   9  -8 -11    0.62    0.16
  -9   8  11    0.18    0.20
   9  -8 -10    0.01    0.11
  -9   8  10    0.12    0.14
   9  -8  -9    0.09    0.09
  -9   8   9   -0.13    0.10
   9  -8  -8    9.72    0.66
  -9   8   8   10.23    0.77
   9  -8  -7    0.09    0.10
  -9   8   7    0.01    0.12
   9  -8  -6    0.40    0.14
  -9   8   6    0.39    0.15
   9  -8  -5   26.37    1.47
  -9   8   5   26.80    1.69
   9  -8  -4    0.16    0.12
  -9   8   4   -0.14    0.10
   9  -8  -3    1.05    0.23
  -9   8   3    1.35    0.25
   9  -8  -2    0.00    0.13
  -9   8   2    0.09    0.11
   9  -8  -1    0.97    0.20
  -9   8   1    0.63    0.19
   9  -8   0    2.10    0.24
  -9   8   0    1.75    0.26
   9  -8   1    1.31    0.22
  -9   8  -1    1.42    0.21
   9  -8   2    0.06    0.17
  -9   8  -2    0.22    0.12
   9  -8   3    1.35    0.19
  -9   8  -3    1.01    0.21
   9  -8   4    0.13    0.15
  -9   8  -4    0.25    0.15
   9  -8   5    0.25    0.13
  -9   8  -5    0.08    0.15
   9  -8   6    2.39    0.31
  -9   8  -6    2.38    0.30
   9  -8   7    1.40    0.24
  -9   8  -7    1.46    0.29
   9  -8   8    0.71    0.18
  -9   8  -8    0.61    0.18
   9  -8   9   -0.03    0.13
  -9   8  -9   -0.31    0.16
   9  -8  10   -0.14    0.14
  -9   8 -10    0.04    0.12
   9  -8  11    0.22    0.15
  -9   8 -11    0.44    0.20
   9  -8  12    0.68    0.22
  -9   8 -12    0.39    0.19
   9  -8  13   -0.09    0.13
  -9   8 -13    0.06    0.11
   9  -8  14    0.70    0.24
  -9   8 -14    0.46    0.26
   9  -8  15    0.18    0.19
  -9   8 -15    0.17    0.18
   9  -8  16    0.05    0.14
  -9   8 -16    0.08    0.14
   9  -8  17    0.49    0.25
  -9   8 -17    0.36    0.23
   9  -8  18   -0.15    0.16
  -9   8 -18    0.44    0.19
  -9   7  17    1.53    0.48
   9  -7 -16    2.22    0.33
   9  -7 -15    0.51    0.18
   9  -7 -15    0.14    0.16
  -9   7  15    0.48    0.20
   9  -7 -14    1.72    0.27
   9  -7 -14    0.79    0.20
  -9   7  14    0.89    0.27
   9  -7 -13    2.27    0.30
   9  -7 -13    1.46    0.23
  -9   7  13    1.86    0.28
   9  -7 -12    1.95    0.29
   9  -7 -12    1.34    0.21
  -9   7  12    2.18    0.31
   9  -7 -11    2.22    0.31
  -9   7  11    2.38    0.29
   9  -7 -10    0.70    0.20
  -9   7  10    0.89    0.22
   9  -7  -9   -0.10    0.10
  -9   7   9   -0.02    0.14
   9  -7  -8    0.12    0.12
  -9   7   8    0.37    0.16
   9  -7  -7    2.07    0.23
  -9   7   7    1.95    0.32
   9  -7  -6   16.79    1.07
  -9   7   6   17.46    1.14
   9  -7  -5    0.25    0.14
  -9   7   5    0.30    0.16
   9  -7  -4    1.04    0.20
  -9   7   4    0.79    0.19
   9  -7  -3    2.46    0.25
  -9   7   3    2.87    0.30
   9  -7  -2    1.58    0.21
  -9   7   2    1.67    0.26
   9  -7  -1    3.86    0.33
  -9   7   1    3.53    0.40
   9  -7   0   19.71    1.17
  -9   7   0   16.09    1.15
   9  -7   1    0.05    0.11
  -9   7  -1    0.02    0.11
   9  -7   2    1.90    0.28
  -9   7  -2    2.14    0.28
   9  -7   3    1.20    0.23
  -9   7  -3    0.89    0.23
   9  -7   4    6.63    0.47
  -9   7  -4    6.12    0.54
   9  -7   5    0.17    0.17
  -9   7  -5    0.32    0.13
   9  -7   6    0.18    0.15
  -9   7  -6    0.17    0.13
   9  -7   7    0.14    0.13
  -9   7  -7   -0.07    0.14
   9  -7   8    2.61    0.36
  -9   7  -8    2.59    0.32
   9  -7   9    0.77    0.22
  -9   7  -9    0.61    0.18
   9  -7  10    0.42    0.15
  -9   7 -10    0.11    0.18
   9  -7  11    0.06    0.14
  -9   7 -11    0.05    0.14
   9  -7  12    0.84    0.21
  -9   7 -12    1.01    0.23
   9  -7  13    1.14    0.21
  -9   7 -13    0.35    0.20
   9  -7  14    1.03    0.22
  -9   7 -14    0.76    0.23
   9  -7  15    0.37    0.20
  -9   7 -15    0.20    0.18
   9  -7  16    0.08    0.19
  -9   7 -16    0.24    0.16
   9  -7  17    0.03    0.15
  -9   7 -17    0.20    0.18
   9  -7  18   -0.27    0.15
  -9   7 -18    0.22    0.14
  -9   6  18   -0.12    0.19
   9  -6 -17   -0.05    0.14
  -9   6  17    0.33    0.18
   9  -6 -16    2.21    0.28
   9  -6 -16    2.46    0.28
  -9   6  16    2.34    0.39
   9  -6 -15    0.31    0.15
   9  -6 -15    0.39    0.16
  -9   6  15    0.35    0.21
   9  -6 -14    0.28    0.15
   9  -6 -14    0.70    0.18
  -9   6  14    0.53    0.21
   9  -6 -13    0.38    0.15
   9  -6 -13    0.16    0.12
  -9   6  13    0.06    0.17
   9  -6 -12    1.00    0.16
   9  -6 -12    0.66    0.20
  -9   6  12    0.75    0.19
   9  -6 -11    0.75    0.14
   9  -6 -11    0.47    0.13
  -9   6  11    0.73    0.21
   9  -6 -10    0.18    0.12
   9  -6 -10   -0.00    0.09
  -9   6  10    0.01    0.14
   9  -6  -9    2.94    0.30
   9  -6  -9    2.17    0.19
  -9   6   9    2.62    0.34
   9  -6  -8    1.79    0.23
  -9   6   8    2.39    0.32
   9  -6  -7   44.32    2.42
  -9   6   7   45.88    2.75
   9  -6  -6   49.18    2.50
  -9   6   6   49.65    2.88
   9  -6  -5   -0.28    0.15
  -9   6   5   -0.21    0.17
   9  -6  -4    0.11    0.10
  -9   6   4    0.28    0.13
   9  -6  -3    0.24    0.11
  -9   6   3    0.19    0.12
   9  -6  -2    3.97    0.37
  -9   6   2    3.86    0.36
   9  -6  -1   14.77    0.89
  -9   6   1   13.42    0.86
   9  -6   0    6.56    0.48
  -9   6   0    5.41    0.44
   9  -6   1    4.14    0.33
  -9   6  -1    3.87    0.41
   9  -6   2    1.20    0.18
  -9   6  -2    0.77    0.18
   9  -6   3    0.05    0.11
  -9   6  -3    0.31    0.15
   9  -6   4    7.66    0.59
  -9   6  -4    6.88    0.52
   9  -6   5    2.76    0.29
  -9   6  -5    2.59    0.31
   9  -6   6    4.62    0.38
  -9   6  -6    3.73    0.40
   9  -6   7    2.36    0.30
  -9   6  -7    1.69    0.29
   9  -6   8    0.62    0.17
  -9   6  -8    0.75    0.21
   9  -6   9   -0.10    0.11
  -9   6  -9    0.01    0.13
   9  -6  10    1.52    0.27
  -9   6 -10    1.13    0.27
   9  -6  11    0.48    0.15
  -9   6 -11    0.27    0.19
   9  -6  12    1.69    0.28
  -9   6 -12    0.97    0.28
   9  -6  13    1.00    0.23
   9  -6  13    0.62    0.18
  -9   6 -13    0.46    0.20
   9  -6  14    0.87    0.26
   9  -6  14    0.99    0.18
  -9   6 -14    1.06    0.25
   9  -6  15    0.12    0.12
   9  -6  15   -0.02    0.12
  -9   6 -15    0.01    0.15
   9  -6  16    1.19    0.28
   9  -6  16    0.73    0.21
  -9   6 -16    0.83    0.21
   9  -6  17    0.33    0.18
  -9   6 -17    0.33    0.20
   9  -6  18    0.17    0.18
  -9   6 -18   -0.02    0.16
   9  -6  19    0.22    0.21
  -9   6 -19    0.09    0.18
  -9   5  18    0.82    0.28
  -9   5  17    1.47    0.33
   9  -5 -16    0.25    0.15
  -9   5  16    0.30    0.19
   9  -5 -15   -0.19    0.12
   9  -5 -15   -0.04    0.10
  -9   5  15    0.16    0.15
   9  -5 -14    0.01    0.09
  -9   5  14   -0.08    0.11
   9  -5 -13   -0.10    0.11
  -9   5  13    0.05    0.14
   9  -5 -12    0.21    0.14
  -9   5  12    0.23    0.17
   9  -5 -11    1.81    0.23
  -9   5  11    1.92    0.30
  -9   5  11    1.26    0.18
   9  -5 -10    0.03    0.08
  -9   5  10    0.02    0.10
  -9   5  10   -0.15    0.09
   9  -5  -9    3.60    0.34
  -9   5   9    4.48    0.36
  -9   5   9    3.15    0.33
   9  -5  -8    3.74    0.30
  -9   5   8    2.98    0.24
  -9   5   8    3.55    0.34
   9  -5  -7    0.12    0.10
  -9   5   7   -0.09    0.13
   9  -5  -6    6.96    0.50
  -9   5   6    7.83    0.62
   9  -5  -5   24.42    1.35
  -9   5   5   26.04    1.59
   9  -5  -4    0.66    0.12
  -9   5   4    0.38    0.16
   9  -5  -3    2.57    0.26
  -9   5   3    2.23    0.27
   9  -5  -2    5.00    0.40
  -9   5   2    4.55    0.39
   9  -5  -1    1.04    0.17
  -9   5   1    0.83    0.18
   9  -5   0    4.88    0.34
  -9   5   0    4.71    0.44
   9  -5   1    1.46    0.20
  -9   5  -1    1.42    0.21
   9  -5   2    1.87    0.23
  -9   5  -2    1.87    0.22
   9  -5   3    0.57    0.14
  -9   5  -3    0.33    0.17
   9  -5   4   10.42    0.64
  -9   5  -4   11.01    0.82
   9  -5   5    2.69    0.32
  -9   5  -5    2.01    0.32
   9  -5   6    3.30    0.36
  -9   5  -6    2.81    0.30
   9  -5   7    9.60    0.65
  -9   5  -7    9.42    0.68
   9  -5   8    2.08    0.25
  -9   5  -8    1.59    0.26
   9  -5   9    0.65    0.18
  -9   5  -9    0.42    0.18
   9  -5  10    0.68    0.16
  -9   5 -10    0.62    0.17
   9  -5  11    0.82    0.21
  -9   5 -11    0.63    0.12
  -9   5 -11    0.80    0.22
   9  -5  12    4.77    0.49
  -9   5 -12    4.41    0.45
  -9   5 -12    3.83    0.31
   9  -5  13    3.28    0.40
  -9   5 -13    2.56    0.27
  -9   5 -13    2.53    0.33
   9  -5  14    0.47    0.22
  -9   5 -14    0.31    0.18
  -9   5 -14    0.60    0.14
   9  -5  15    0.11    0.12
  -9   5 -15    0.03    0.13
  -9   5 -15   -0.14    0.10
   9  -5  16    0.61    0.23
  -9   5 -16    0.33    0.20
  -9   5 -16    0.66    0.17
   9  -5  17    0.55    0.19
  -9   5 -17    0.27    0.21
  -9   5 -17    0.49    0.18
   9  -5  18    0.46    0.20
  -9   5 -18    0.04    0.18
   9  -5  19    0.07    0.17
  -9   4  19    2.47    0.48
  -9   4  18    0.27    0.26
  -9   4  18    0.77    0.26
  -9   4  18    0.20    0.21
  -9   4  17    2.43    0.39
  -9   4  17    2.38    0.44
  -9   4  17    2.64    0.32
   9  -4 -16    0.90    0.19
  -9   4  16    0.84    0.28
  -9   4  16    0.98    0.24
   9  -4 -15    0.05    0.10
  -9   4  15    0.02    0.13
  -9   4  15   -0.10    0.12
   9  -4 -14    0.62    0.16
  -9   4  14    0.89    0.21
  -9   4  14    0.59    0.17
   9  -4 -13    0.23    0.11
  -9   4  13    0.22    0.16
  -9   4  13    0.35    0.17
   9  -4 -12    0.12    0.11
  -9   4  12    0.21    0.13
  -9   4  12    0.04    0.14
   9  -4 -11   -0.05    0.09
  -9   4  11    0.12    0.10
  -9   4  11   -0.05    0.12
   9  -4 -10    0.43    0.15
  -9   4  10    0.42    0.14
  -9   4  10    0.68    0.15
   9  -4  -9    2.16    0.24
  -9   4   9    2.33    0.28
  -9   4   9    1.86    0.23
   9  -4  -8   36.85    1.85
  -9   4   8   37.46    2.06
  -9   4   8   32.01    1.61
   9  -4  -7   13.50    0.73
  -9   4   7   12.57    0.81
  -9   4   7   11.69    0.55
   9  -4  -6    0.02    0.11
  -9   4   6    0.17    0.13
   9  -4  -5    0.31    0.12
  -9   4   5    0.70    0.19
   9  -4  -4    0.85    0.15
  -9   4   4    1.28    0.19
   9  -4  -3    0.62    0.13
  -9   4   3    0.35    0.13
   9  -4  -2    0.10    0.09
  -9   4   2    0.20    0.11
   9  -4  -1   -0.01    0.09
  -9   4   1    0.12    0.12
   9  -4   0    7.06    0.46
  -9   4   0    6.50    0.47
   9  -4   1    9.53    0.63
  -9   4  -1    8.48    0.61
   9  -4   2    1.80    0.26
  -9   4  -2    2.16    0.25
   9  -4   3    1.00    0.18
  -9   4  -3    0.69    0.20
   9  -4   4    4.88    0.42
  -9   4  -4    4.18    0.40
   9  -4   5    0.45    0.14
  -9   4  -5    0.41    0.17
   9  -4   6    0.38    0.14
  -9   4  -6    0.40    0.13
   9  -4   7    0.65    0.18
  -9   4  -7    0.42    0.14
   9  -4   8    2.48    0.25
  -9   4  -8    1.67    0.14
  -9   4  -8    2.59    0.28
   9  -4   9    3.33    0.30
  -9   4  -9    2.66    0.27
  -9   4  -9    2.39    0.20
   9  -4  10    0.99    0.24
  -9   4 -10    0.90    0.20
  -9   4 -10    0.85    0.12
   9  -4  11    0.35    0.18
  -9   4 -11    0.52    0.15
  -9   4 -11    0.16    0.10
   9  -4  12    2.55    0.30
  -9   4 -12    2.09    0.24
  -9   4 -12    2.51    0.27
   9  -4  13    0.31    0.16
  -9   4 -13    0.01    0.10
  -9   4 -13    0.18    0.13
   9  -4  14    1.13    0.23
  -9   4 -14    0.67    0.16
  -9   4 -14    0.62    0.20
   9  -4  15    2.38    0.28
  -9   4 -15    1.20    0.23
  -9   4 -15    1.37    0.23
   9  -4  16    0.11    0.15
  -9   4 -16    0.08    0.13
  -9   4 -16   -0.05    0.11
   9  -4  17    0.12    0.17
  -9   4 -17    0.48    0.17
  -9   4 -17    0.27    0.13
   9  -4  18    0.77    0.24
  -9   4 -18    0.98    0.20
   9  -4  19    0.45    0.21
  -9   4 -19    0.62    0.19
   9  -3 -19    0.21    0.19
  -9   3  19    0.44    0.24
   9  -3 -18    1.44    0.28
  -9   3  18    1.31    0.37
  -9   3  18    1.23    0.29
   9  -3 -17    0.41    0.15
  -9   3  17    0.33    0.24
  -9   3  17    0.59    0.24
   9  -3 -16   -0.07    0.11
   9  -3 -16    0.11    0.08
  -9   3  16    0.06    0.16
   9  -3 -15    0.10    0.11
   9  -3 -15    0.04    0.13
  -9   3  15    0.05    0.15
   9  -3 -14    0.53    0.14
   9  -3 -14    0.50    0.15
  -9   3  14    0.28    0.20
   9  -3 -13    1.78    0.20
   9  -3 -13    1.48    0.22
  -9   3  13    1.39    0.28
   9  -3 -12    0.06    0.09
   9  -3 -12   -0.05    0.12
  -9   3  12    0.06    0.11
   9  -3 -11    0.28    0.12
   9  -3 -11    0.33    0.12
  -9   3  11    0.32    0.15
   9  -3 -10   13.95    0.77
   9  -3 -10   13.75    0.83
  -9   3  10   14.00    0.83
   9  -3  -9    7.92    0.45
  -9   3   9    7.57    0.48
   9  -3  -8   12.86    0.71
  -9   3   8   11.71    0.60
  -9   3   8   11.95    0.78
   9  -3  -7   48.74    2.30
  -9   3   7   52.24    2.82
   9  -3  -6   10.96    0.57
  -9   3   6    9.58    0.39
  -9   3   6   11.83    0.75
   9  -3  -5    2.07    0.21
  -9   3   5    1.81    0.27
  -9   3   5    1.62    0.11
   9  -3  -4    4.74    0.39
  -9   3   4    4.26    0.36
   9  -3  -3    4.57    0.34
  -9   3   3    4.92    0.38
   9  -3  -2    7.27    0.45
  -9   3   2    6.99    0.55
   9  -3  -1   18.75    1.00
  -9   3   1   17.60    1.02
   9  -3   0   10.71    0.66
  -9   3   0   10.76    0.71
   9  -3   1    3.07    0.26
  -9   3  -1    3.11    0.28
   9  -3   2    0.54    0.14
  -9   3  -2    0.85    0.14
   9  -3   3    1.75    0.22
  -9   3  -3    1.76    0.21
   9  -3   4    5.67    0.41
  -9   3  -4    5.60    0.46
   9  -3   5    3.35    0.29
  -9   3  -5    3.22    0.29
   9  -3   6   10.32    0.74
  -9   3  -6   12.40    0.80
   9  -3   7   -0.19    0.12
  -9   3  -7    0.05    0.09
  -9   3  -7    0.05    0.04
   9  -3   8    2.51    0.29
  -9   3  -8    2.07    0.27
  -9   3  -8    1.79    0.16
   9  -3   9    1.56    0.23
  -9   3  -9    2.00    0.23
  -9   3  -9    1.50    0.14
   9  -3  10    3.65    0.37
  -9   3 -10    3.36    0.33
  -9   3 -10    2.52    0.21
   9  -3  11    0.11    0.11
  -9   3 -11   -0.04    0.08
  -9   3 -11   -0.22    0.11
   9  -3  12   -0.04    0.10
  -9   3 -12    0.12    0.11
  -9   3 -12    0.02    0.08
   9  -3  13    0.26    0.17
  -9   3 -13    0.25    0.14
  -9   3 -13    0.25    0.11
   9  -3  14    1.70    0.30
  -9   3 -14    1.44    0.21
  -9   3 -14    0.97    0.22
   9  -3  15   -0.16    0.13
  -9   3 -15   -0.07    0.12
  -9   3 -15    0.03    0.11
   9  -3  16   -0.07    0.14
  -9   3 -16   -0.07    0.13
  -9   3 -16   -0.10    0.13
   9  -3  17    0.34    0.20
  -9   3 -17    0.13    0.17
   9  -3  18    0.22    0.21
  -9   3 -18    0.11    0.16
   9  -3  19    0.37    0.29
  -9   3 -19    0.75    0.23
   9  -2 -19    0.73    0.23
  -9   2  19    0.88    0.33
   9  -2 -18    0.27    0.14
  -9   2  18    0.00    0.22
   9  -2 -17    0.39    0.18
  -9   2  17    0.63    0.21
  -9   2  17    0.03    0.23
   9  -2 -16    0.79    0.19
   9  -2 -16    0.40    0.14
  -9   2  16    0.39    0.23
   9  -2 -15    0.33    0.20
   9  -2 -15    0.85    0.16
  -9   2  15    0.95    0.24
   9  -2 -14    0.72    0.19
   9  -2 -14    0.59    0.14
  -9   2  14    0.73    0.23
   9  -2 -13    0.45    0.13
   9  -2 -13    0.21    0.16
  -9   2  13    0.65    0.17
   9  -2 -12    0.33    0.10
   9  -2 -12    0.31    0.13
  -9   2  12    0.61    0.17
   9  -2 -11    7.30    0.45
   9  -2 -11    7.07    0.53
  -9   2  11    7.89    0.55
   9  -2 -10    0.30    0.09
   9  -2 -10    0.17    0.11
  -9   2  10    0.27    0.11
   9  -2  -9    5.81    0.39
   9  -2  -9    5.50    0.40
  -9   2   9    5.32    0.38
   9  -2  -8    4.11    0.29
   9  -2  -8    4.16    0.32
  -9   2   8    3.93    0.27
   9  -2  -7    2.58    0.21
   9  -2  -7    2.76    0.28
  -9   2   7    2.42    0.18
   9  -2  -6    0.47    0.13
   9  -2  -6    1.01    0.14
  -9   2   6    0.46    0.09
   9  -2  -5    1.47    0.18
  -9   2   5    0.79    0.09
  -9   2   5    0.94    0.17
   9  -2  -4    0.10    0.08
  -9   2   4   -0.05    0.10
   9  -2  -3    0.28    0.10
  -9   2   3    0.38    0.13
  -9   2   3    0.21    0.05
   9  -2  -2    8.43    0.50
  -9   2   2    8.23    0.58
   9  -2  -1    2.04    0.24
  -9   2   1    2.04    0.22
   9  -2   0    0.73    0.16
  -9   2   0    0.85    0.15
  -9   2  -1    2.67    0.29
   9  -2   2    2.58    0.26
  -9   2  -2    2.38    0.24
   9  -2   3    4.11    0.32
  -9   2  -3    2.74    0.14
   9  -2   4    4.40    0.33
  -9   2  -4    4.39    0.40
   9  -2   5    6.11    0.47
  -9   2  -5    5.45    0.40
   9  -2   6    0.47    0.14
  -9   2  -6    0.40    0.08
  -9   2  -6    0.56    0.13
   9  -2   7    7.42    0.51
  -9   2  -7    8.69    0.57
  -9   2  -7    6.30    0.32
   9  -2   8    0.44    0.14
  -9   2  -8    0.22    0.13
  -9   2  -8    0.14    0.09
   9  -2   9    0.16    0.12
  -9   2  -9    0.14    0.11
  -9   2  -9    0.10    0.08
   9  -2  10    2.90    0.34
  -9   2 -10    2.00    0.21
  -9   2 -10    2.22    0.22
   9  -2  11    1.76    0.26
  -9   2 -11    1.13    0.20
  -9   2 -11    0.93    0.16
   9  -2  12    0.89    0.22
  -9   2 -12    0.62    0.15
  -9   2 -12    0.56    0.17
   9  -2  13    0.16    0.12
  -9   2 -13   -0.00    0.10
  -9   2 -13    0.08    0.08
   9  -2  14    0.18    0.16
  -9   2 -14    0.37    0.13
  -9   2 -14    0.17    0.12
   9  -2  15    0.40    0.19
  -9   2 -15   -0.03    0.13
  -9   2 -15    0.35    0.14
   9  -2  16    0.31    0.21
  -9   2 -16    0.15    0.15
  -9   2 -16    0.29    0.13
   9  -2  17    2.07    0.39
  -9   2 -17    1.38    0.29
   9  -2  18    2.21    0.46
  -9   2 -18    1.96    0.35
   9  -2  19   -0.19    0.21
  -9   2 -19   -0.04    0.16
   9  -1 -19    1.92    0.32
  -9   1  19    1.61    0.44
   9  -1 -18    0.04    0.11
  -9   1  18    0.00    0.18
   9  -1 -17    0.16    0.14
  -9   1  17   -0.02    0.19
   9  -1 -16    0.44    0.17
  -9   1  16   -0.02    0.20
   9  -1 -15    2.85    0.35
   9  -1 -15    2.27    0.23
  -9   1  15    3.48    0.41
   9  -1 -14    0.20    0.14
   9  -1 -14    0.10    0.10
  -9   1  14    0.18    0.16
   9  -1 -13    0.20    0.13
   9  -1 -13    0.07    0.09
  -9   1  13    0.23    0.15
   9  -1 -12   -0.04    0.10
   9  -1 -12    0.11    0.08
  -9   1  12    0.10    0.12
   9  -1 -11    6.52    0.41
   9  -1 -11    6.90    0.53
  -9   1  11    7.77    0.49
   9  -1 -10    0.10    0.09
  -9   1  10   -0.01    0.10
   9  -1  -9    0.04    0.11
   9  -1  -8    0.12    0.09
   9  -1  -8    0.38    0.12
  -9   1   8    0.24    0.09
   9  -1  -7    0.01    0.08
   9  -1  -7    0.02    0.08
  -9   1   7    0.06    0.07
   9  -1  -6    0.20    0.09
   9  -1  -6    0.39    0.09
  -9   1   6    0.07    0.06
   9  -1  -5    0.04    0.08
  -9   1   5    0.03    0.05
   9  -1  -4    0.04    0.08
   9  -1  -4    0.23    0.10
  -9   1   4    0.05    0.05
   9  -1  -3    1.43    0.15
  -9   1   3    1.16    0.10
   9  -1  -2    2.52    0.23
  -9   1   2    2.65    0.23
  -9   1   2    1.96    0.13
   9  -1  -1    2.90    0.24
  -9   1   1    2.66    0.27
  -9   1   1    2.22    0.12
   9  -1   0    0.13    0.10
  -9   1   0    0.07    0.04
  -9   1   0    0.22    0.09
   9  -1   1    0.19    0.10
  -9   1  -1    0.06    0.08
  -9   1  -1    0.03    0.04
   9  -1   2    0.46    0.11
  -9   1  -2    0.04    0.12
  -9   1  -2    0.09    0.05
   9  -1   3    1.06    0.19
  -9   1  -3    1.08    0.15
   9  -1   4    4.37    0.34
  -9   1  -4    4.22    0.34
  -9   1  -4    3.17    0.18
   9  -1   5   -0.14    0.11
  -9   1  -5    0.09    0.11
  -9   1  -5    0.26    0.06
   9  -1   6    0.89    0.15
  -9   1  -6    0.74    0.16
  -9   1  -6    0.70    0.10
   9  -1   7    0.77    0.16
  -9   1  -7    0.64    0.11
  -9   1  -7    0.62    0.16
   9  -1   8    0.07    0.12
  -9   1  -8    0.03    0.09
  -9   1  -8   -0.06    0.06
   9  -1   9    0.32    0.13
  -9   1  -9    0.11    0.12
  -9   1  -9    0.28    0.09
   9  -1  10    4.24    0.37
  -9   1 -10    4.43    0.36
  -9   1 -10    4.05    0.31
   9  -1  11   -0.15    0.11
  -9   1 -11    0.01    0.09
  -9   1 -11   -0.01    0.09
   9  -1  12    0.22    0.15
  -9   1 -12    0.46    0.13
  -9   1 -12    0.33    0.13
   9  -1  13    1.20    0.26
  -9   1 -13    0.69    0.17
  -9   1 -13    0.84    0.19
   9  -1  14    0.31    0.17
  -9   1 -14    0.05    0.14
  -9   1 -14    0.61    0.13
   9  -1  15    0.18    0.23
  -9   1 -15    0.48    0.17
   9  -1  16   -0.13    0.18
  -9   1 -16    0.17    0.13
   9  -1  17    8.28    0.86
  -9   1 -17    6.12    0.58
   9  -1  18    3.98    0.61
  -9   1 -18    3.25    0.50
   9  -1  19    0.87    0.32
  -9   1 -19    0.50    0.24
   9   0 -20    2.05    0.37
   9   0 -19    0.19    0.16
  -9   0  19    0.01    0.21
   9   0 -18    0.73    0.25
  -9   0  18    1.15    0.34
   9   0 -17   -0.01    0.13
  -9   0  17    0.33    0.16
   9   0 -16    1.88    0.32
  -9   0  16    2.08    0.38
   9   0 -15    0.12    0.16
  -9   0  15    0.51    0.19
   9   0 -14   13.58    0.91
   9   0 -14   11.00    0.61
  -9   0  14   13.76    1.02
   9   0 -13    0.10    0.12
   9   0 -13   -0.03    0.07
  -9   0  13    0.14    0.13
   9   0 -12    0.09    0.10
   9   0 -12    0.18    0.08
  -9   0  12   -0.18    0.13
   9   0 -11    1.14    0.20
   9   0 -11    1.59    0.16
  -9   0  11    1.24    0.20
   9   0 -10    6.30    0.36
   9   0 -10    6.18    0.46
  -9   0  10    7.28    0.50
   9   0  -9   -0.04    0.06
   9   0  -9   -0.08    0.10
  -9   0   9    0.12    0.08
   9   0  -8   -0.04    0.07
   9   0  -8   -0.06    0.10
  -9   0   8    0.12    0.08
   9   0  -7    0.32    0.09
   9   0  -7    0.07    0.12
  -9   0   7    0.26    0.10
   9   0  -6    2.23    0.20
   9   0  -6    1.24    0.18
  -9   0   6    1.42    0.15
   9   0  -5    2.33    0.19
   9   0  -5    2.18    0.23
  -9   0   5    2.13    0.16
   9   0  -4    0.04    0.07
   9   0  -4    0.01    0.07
  -9   0   4    0.00    0.05
   9   0  -3    2.49    0.19
   9   0  -3    2.81    0.21
  -9   0   3    2.22    0.15
   9   0  -2    1.11    0.16
   9   0  -2    1.26    0.19
  -9   0   2    0.97    0.10
   9   0  -1    8.12    0.43
  -9   0   1    7.23    0.30
  -9   0   1    5.20    0.38
   9   0   0    8.97    0.46
  -9   0   0    9.00    0.53
  -9   0   0    7.66    0.32
   9   0   1    1.23    0.17
  -9   0  -1    1.08    0.16
  -9   0  -1    0.89    0.09
   9   0   2    0.11    0.09
  -9   0  -2    0.18    0.09
  -9   0  -2    0.08    0.05
   9   0   3    3.18    0.25
  -9   0  -3    3.11    0.29
  -9   0  -3    2.31    0.16
   9   0   4    2.65    0.26
  -9   0  -4    2.08    0.16
  -9   0  -4    2.74    0.26
   9   0   5   13.31    0.77
  -9   0  -5   13.71    0.77
  -9   0  -5   12.65    0.60
   9   0   6    8.31    0.55
  -9   0  -6    8.86    0.53
  -9   0  -6    7.60    0.42
   9   0   7    0.07    0.12
  -9   0  -7   -0.06    0.09
  -9   0  -7    0.12    0.07
   9   0   8    1.51    0.22
  -9   0  -8    1.13    0.16
  -9   0  -8    1.35    0.18
   9   0   9    0.58    0.18
  -9   0  -9    0.38    0.13
  -9   0  -9    0.34    0.11
   9   0  10   -0.18    0.14
  -9   0 -10   -0.09    0.08
  -9   0 -10   -0.03    0.09
   9   0  11    0.21    0.21
  -9   0 -11    0.44    0.12
  -9   0 -11    0.58    0.13
   9   0  12    1.32    0.22
  -9   0 -12    0.79    0.15
  -9   0 -12    0.71    0.17
   9   0  13    0.72    0.19
  -9   0 -13    0.60    0.16
  -9   0 -13    0.32    0.12
   9   0  14    0.43    0.20
  -9   0 -14    0.50    0.17
   9   0  15    0.79    0.29
  -9   0 -15    0.58    0.20
   9   0  16    1.65    0.40
  -9   0 -16    1.42    0.26
   9   0  17    0.22    0.27
  -9   0 -17    0.33    0.19
   9   0  18    2.86    0.56
  -9   0 -18    2.15    0.42
   9   0  19   -0.07    0.22
   9   1 -19    0.01    0.14
  -9  -1  19    0.06    0.19
   9   1 -18    0.25    0.15
  -9  -1  18    0.10    0.23
   9   1 -17    0.22    0.20
  -9  -1  17    0.97    0.27
   9   1 -16    0.36    0.23
  -9  -1  16    0.83    0.22
   9   1 -15    0.79    0.19
  -9  -1  15    0.77    0.23
   9   1 -14    0.06    0.13
  -9  -1  14    0.26    0.14
   9   1 -13    1.72    0.24
  -9  -1  13    2.32    0.31
   9   1 -12    3.79    0.34
   9   1 -12    2.97    0.22
  -9  -1  12    4.35    0.36
   9   1 -11    3.07    0.37
   9   1 -11    3.42    0.22
  -9  -1  11    3.67    0.33
   9   1 -10    0.50    0.14
   9   1 -10    0.47    0.10
  -9  -1  10    0.65    0.17
   9   1  -9   -0.02    0.06
   9   1  -9   -0.04    0.09
  -9  -1   9    0.03    0.10
   9   1  -8    0.46    0.10
   9   1  -8    0.61    0.17
  -9  -1   8    0.64    0.14
   9   1  -7    1.35    0.14
   9   1  -7    1.07    0.19
  -9  -1   7    1.01    0.15
   9   1  -6    0.38    0.11
   9   1  -6    0.37    0.12
  -9  -1   6    0.35    0.09
   9   1  -5    4.77    0.29
   9   1  -5    4.36    0.36
  -9  -1   5    4.77    0.28
   9   1  -4    1.18    0.15
   9   1  -4    1.56    0.16
   9   1  -3    0.25    0.10
   9   1  -3    0.28    0.11
  -9  -1   3    0.38    0.08
   9   1  -2    0.17    0.08
   9   1  -2   -0.01    0.08
  -9  -1   2   -0.00    0.06
   9   1  -1    0.98    0.13
   9   1  -1    1.33    0.18
  -9  -1   1    0.98    0.11
   9   1   0    2.63    0.22
   9   1   0    3.35    0.29
  -9  -1   0    2.68    0.17
   9   1   1    1.63    0.20
  -9  -1  -1    1.17    0.12
  -9  -1  -1    1.70    0.22
   9   1   2    6.29    0.38
  -9  -1  -2    5.98    0.38
  -9  -1  -2    4.92    0.27
   9   1   3    0.64    0.13
  -9  -1  -3    0.85    0.15
  -9  -1  -3    0.40    0.11
   9   1   4    0.53    0.16
  -9  -1  -4    0.94    0.15
  -9  -1  -4    0.40    0.10
   9   1   5   11.59    0.74
  -9  -1  -5   10.22    0.51
  -9  -1  -5   10.92    0.64
   9   1   6    3.16    0.34
  -9  -1  -6    3.13    0.27
  -9  -1  -6    2.91    0.24
   9   1   7    3.05    0.32
  -9  -1  -7    3.20    0.28
  -9  -1  -7    3.12    0.26
   9   1   8    1.66    0.31
  -9  -1  -8    1.98    0.21
  -9  -1  -8    2.09    0.20
   9   1   9    0.26    0.14
  -9  -1  -9    0.12    0.11
  -9  -1  -9    0.28    0.11
   9   1  10    1.32    0.22
  -9  -1 -10    0.78    0.15
  -9  -1 -10    0.98    0.18
   9   1  11    1.11    0.25
  -9  -1 -11    0.48    0.14
  -9  -1 -11    0.82    0.16
   9   1  12    0.35    0.18
  -9  -1 -12    0.47    0.12
  -9  -1 -12    0.40    0.16
   9   1  13    0.33    0.25
  -9  -1 -13    0.61    0.17
   9   1  14    0.19    0.16
  -9  -1 -14    0.17    0.15
   9   1  15    4.69    0.59
  -9  -1 -15    4.85    0.53
   9   1  16    0.06    0.18
  -9  -1 -16    0.20    0.14
   9   1  17    0.70    0.28
  -9  -1 -17    0.83    0.27
   9   1  18    4.57    0.53
  -9  -1 -18    2.11    0.51
   9   1  19   -0.39    0.23
  -9  -1 -19    0.12    0.18
   9   2 -19    0.16    0.22
  -9  -2  19    0.39    0.26
   9   2 -18    0.33    0.17
  -9  -2  18    0.28    0.21
   9   2 -17    3.08    0.48
  -9  -2  17    4.21    0.58
   9   2 -16    0.46    0.19
  -9  -2  16    0.40    0.26
   9   2 -15    1.92    0.28
  -9  -2  15    2.15    0.39
   9   2 -14    2.68    0.34
  -9  -2  14    3.23    0.43
   9   2 -13    0.90    0.18
  -9  -2  13    0.72    0.19
   9   2 -12    0.86    0.19
  -9  -2  12    1.37    0.25
   9   2 -11    0.32    0.18
  -9  -2  11    0.73    0.19
   9   2 -10    1.12    0.19
   9   2 -10    0.94    0.11
  -9  -2  10    1.19    0.18
   9   2  -9   -0.02    0.12
   9   2  -9    0.05    0.06
  -9  -2   9    0.15    0.12
   9   2  -8    0.37    0.09
   9   2  -8    0.59    0.13
  -9  -2   8    0.53    0.11
   9   2  -7    0.39    0.10
   9   2  -7    0.49    0.12
  -9  -2   7    0.27    0.12
   9   2  -6    0.03    0.06
   9   2  -6    0.11    0.10
  -9  -2   6   -0.01    0.08
   9   2  -5    0.60    0.12
   9   2  -5    0.80    0.14
  -9  -2   5    0.95    0.11
   9   2  -4    0.51    0.10
   9   2  -4    0.49    0.13
  -9  -2   4    0.17    0.09
   9   2  -3    0.18    0.09
   9   2  -3    0.23    0.10
  -9  -2   3    0.15    0.08
   9   2  -2    0.59    0.11
   9   2  -2    0.78    0.15
  -9  -2   2    0.41    0.10
   9   2  -1    2.14    0.20
   9   2  -1    1.96    0.23
  -9  -2   1    1.77    0.17
   9   2   0    0.03    0.07
   9   2   0   -0.04    0.10
  -9  -2   0    0.13    0.07
   9   2   1    0.10    0.11
   9   2   1    0.08    0.11
  -9  -2  -1    0.20    0.07
   9   2   2    0.00    0.09
  -9  -2  -2   -0.06    0.06
  -9  -2  -2    0.05    0.08
   9   2   3   16.61    0.92
  -9  -2  -3   16.03    0.86
  -9  -2  -3   12.96    0.65
   9   2   4    3.01    0.27
  -9  -2  -4    3.39    0.29
  -9  -2  -4    2.98    0.24
   9   2   5    0.03    0.10
  -9  -2  -5    0.05    0.09
  -9  -2  -5    0.13    0.08
   9   2   6   -0.07    0.09
  -9  -2  -6   -0.00    0.08
  -9  -2  -6    0.04    0.06
   9   2   7    7.88    0.65
  -9  -2  -7    7.18    0.45
  -9  -2  -7    7.18    0.49
   9   2   8   -0.15    0.14
  -9  -2  -8   -0.00    0.08
  -9  -2  -8   -0.07    0.08
   9   2   9    1.97    0.35
  -9  -2  -9    1.68    0.24
  -9  -2  -9    2.00    0.20
   9   2  10    2.31    0.35
  -9  -2 -10    2.06    0.21
  -9  -2 -10    2.03    0.22
   9   2  11    1.95    0.29
  -9  -2 -11    1.31    0.16
  -9  -2 -11    2.19    0.27
   9   2  12    0.34    0.18
  -9  -2 -12    0.30    0.14
   9   2  13    0.47    0.19
  -9  -2 -13    0.28    0.14
   9   2  14    0.33    0.27
  -9  -2 -14    0.63    0.21
   9   2  15    8.32    0.99
  -9  -2 -15    7.84    0.80
   9   2  16    3.64    0.67
  -9  -2 -16    4.46    0.55
   9   2  17    1.54    0.39
  -9  -2 -17    1.07    0.27
   9   2  18    2.32    0.46
  -9  -2 -18    2.20    0.45
   9   3 -19    0.05    0.16
  -9  -3  19    0.23    0.25
   9   3 -18    1.27    0.33
  -9  -3  18    1.18    0.33
   9   3 -17    1.31    0.27
  -9  -3  17    1.52    0.41
   9   3 -16    2.02    0.37
  -9  -3  16    1.98    0.40
   9   3 -15    1.68    0.34
  -9  -3  15    1.65    0.36
   9   3 -14    4.05    0.41
  -9  -3  14    4.06    0.46
   9   3 -13    3.77    0.40
  -9  -3  13    4.22    0.52
   9   3 -12    0.15    0.13
  -9  -3  12    0.20    0.18
   9   3 -11    5.14    0.53
  -9  -3  11    6.87    0.60
   9   3 -10    0.06    0.10
  -9  -3  10    0.01    0.12
   9   3  -9    6.58    0.54
  -9  -3   9    7.52    0.54
   9   3  -8    0.37    0.09
   9   3  -8    0.40    0.13
  -9  -3   8    0.18    0.14
   9   3  -7   -0.06    0.07
   9   3  -7   -0.02    0.08
  -9  -3   7    0.05    0.09
   9   3  -6    0.12    0.06
   9   3  -6   -0.02    0.10
  -9  -3   6    0.15    0.10
   9   3  -5   10.52    0.52
   9   3  -5   10.56    0.67
  -9  -3   5   10.71    0.60
   9   3  -4    0.03    0.07
   9   3  -4    0.11    0.10
  -9  -3   4    0.05    0.09
   9   3  -3    0.01    0.06
   9   3  -3   -0.06    0.09
  -9  -3   3    0.02    0.07
   9   3  -2    0.31    0.11
   9   3  -2    0.56    0.11
  -9  -3   2    0.57    0.11
   9   3  -1    3.66    0.28
   9   3  -1    3.90    0.28
  -9  -3   1    3.36    0.26
   9   3   0    0.57    0.15
   9   3   0    0.58    0.14
  -9  -3   0    0.48    0.12
   9   3   1    1.10    0.16
   9   3   1    1.12    0.15
  -9  -3  -1    0.89    0.14
   9   3   2    0.13    0.08
   9   3   2    0.16    0.10
  -9  -3  -2    0.09    0.09
   9   3   3   10.42    0.63
  -9  -3  -3   10.82    0.60
  -9  -3  -3    8.94    0.52
   9   3   4    1.97    0.25
  -9  -3  -4    2.58    0.25
  -9  -3  -4    2.40    0.22
   9   3   5    0.71    0.17
  -9  -3  -5    0.87    0.14
  -9  -3  -5    0.62    0.14
   9   3   6   -0.06    0.10
  -9  -3  -6   -0.07    0.07
  -9  -3  -6    0.04    0.08
   9   3   7    0.57    0.19
  -9  -3  -7    1.03    0.14
  -9  -3  -7    0.54    0.13
   9   3   8    0.16    0.17
  -9  -3  -8    0.20    0.09
  -9  -3  -8    0.33    0.13
   9   3   9   -0.12    0.15
  -9  -3  -9    0.10    0.10
  -9  -3  -9   -0.05    0.07
   9   3  10    1.38    0.25
  -9  -3 -10    1.00    0.15
  -9  -3 -10    1.16    0.23
   9   3  11    0.03    0.17
  -9  -3 -11   -0.09    0.10
   9   3  12    1.09    0.27
  -9  -3 -12    1.11    0.22
   9   3  13    0.87    0.30
  -9  -3 -13    0.91    0.25
   9   3  14    0.69    0.28
  -9  -3 -14    0.42    0.21
   9   3  15    0.17    0.32
  -9  -3 -15    0.89    0.22
   9   3  16    0.70    0.29
  -9  -3 -16    0.64    0.26
   9   3  17    2.10    0.53
  -9  -3 -17    2.05    0.36
   9   3  18    0.41    0.24
  -9  -3 -18    0.20    0.23
  -9  -4  19    0.20    0.26
   9   4 -18    0.21    0.15
  -9  -4  18   -0.16    0.16
   9   4 -17    0.78    0.29
  -9  -4  17    0.87    0.29
   9   4 -16   11.09    0.94
  -9  -4  16   12.71    1.10
   9   4 -15    2.11    0.34
  -9  -4  15    2.01    0.35
   9   4 -14    0.86    0.22
  -9  -4  14    0.87    0.29
   9   4 -13    0.96    0.28
  -9  -4  13    1.39    0.27
   9   4 -12   -0.02    0.11
  -9  -4  12    0.09    0.15
   9   4 -11    1.02    0.23
  -9  -4  11    1.43    0.26
   9   4 -10    3.10    0.33
  -9  -4  10    3.12    0.32
   9   4  -9    0.13    0.12
  -9  -4   9    0.08    0.13
   9   4  -8   11.54    0.84
  -9  -4   8   13.15    0.84
   9   4  -7    3.42    0.22
   9   4  -7    2.98    0.30
  -9  -4   7    2.97    0.32
   9   4  -6    6.00    0.32
   9   4  -6   10.05    0.56
  -9  -4   6    6.52    0.42
   9   4  -5    1.60    0.16
   9   4  -5    1.81    0.25
  -9  -4   5    1.61    0.21
   9   4  -4    1.94    0.16
   9   4  -4    1.45    0.22
  -9  -4   4    1.89    0.21
   9   4  -3    3.71    0.25
   9   4  -3    4.21    0.36
  -9  -4   3    3.69    0.27
   9   4  -2    2.61    0.22
   9   4  -2    3.02    0.30
  -9  -4   2    2.38    0.24
   9   4  -1    1.17    0.16
   9   4  -1    1.06    0.15
  -9  -4   1    0.89    0.16
   9   4   0    0.86    0.18
   9   4   0    1.04    0.15
  -9  -4   0    1.16    0.17
   9   4   1    0.58    0.15
   9   4   1    0.66    0.15
  -9  -4  -1    0.74    0.12
   9   4   2    2.42    0.23
   9   4   2    2.03    0.26
  -9  -4  -2    2.18    0.22
   9   4   3   -0.02    0.10
   9   4   3    0.50    0.11
  -9  -4  -3    0.10    0.08
   9   4   4    2.07    0.27
  -9  -4  -4    1.77    0.22
  -9  -4  -4    2.41    0.24
   9   4   5    0.14    0.11
  -9  -4  -5   -0.06    0.09
  -9  -4  -5    0.13    0.10
   9   4   6    0.50    0.19
  -9  -4  -6    0.72    0.12
  -9  -4  -6    0.09    0.13
   9   4   7    5.11    0.51
  -9  -4  -7    4.44    0.39
  -9  -4  -7    4.48    0.32
   9   4   8    0.26    0.21
  -9  -4  -8    0.43    0.11
  -9  -4  -8    0.35    0.13
   9   4   9    0.52    0.21
  -9  -4  -9    0.30    0.15
   9   4  10    1.11    0.28
  -9  -4 -10    0.74    0.18
   9   4  11    0.15    0.13
  -9  -4 -11   -0.12    0.10
   9   4  12    0.73    0.23
  -9  -4 -12    0.66    0.18
   9   4  13   -0.06    0.20
   9   4  14    0.70    0.23
  -9  -4 -14   -0.19    0.18
   9   4  15    0.41    0.30
  -9  -4 -15    0.70    0.26
   9   4  16   -0.20    0.21
  -9  -4 -16    0.15    0.14
   9   4  17    0.06    0.18
  -9  -4 -17    0.01    0.17
   9   5 -18    1.58    0.36
  -9  -5  18    1.98    0.42
   9   5 -17    3.32    0.55
  -9  -5  17    3.31    0.53
   9   5 -16   -0.13    0.14
  -9  -5  16    0.21    0.16
   9   5 -15    0.04    0.14
  -9  -5  15    0.15    0.18
   9   5 -14    4.74    0.64
  -9  -5  14    5.85    0.67
   9   5 -13   -0.01    0.15
  -9  -5  13    0.07    0.12
   9   5 -12    0.10    0.18
  -9  -5  12    0.18    0.15
   9   5 -11   -0.06    0.10
  -9  -5  11    0.09    0.11
   9   5 -10   -0.02    0.13
  -9  -5  10   -0.20    0.12
   9   5  -9    1.94    0.31
  -9  -5   9    1.69    0.30
   9   5  -8    2.06    0.26
  -9  -5   8    2.56    0.30
   9   5  -7    0.99    0.20
  -9  -5   7    1.03    0.21
   9   5  -6    5.88    0.33
   9   5  -6    6.80    0.50
  -9  -5   6    7.56    0.53
   9   5  -5    0.15    0.07
   9   5  -5   -0.04    0.12
  -9  -5   5    0.19    0.10
   9   5  -4    3.67    0.25
   9   5  -4    3.95    0.39
  -9  -5   4    4.28    0.35
   9   5  -3    5.08    0.36
   9   5  -3    6.10    0.43
  -9  -5   3    5.85    0.42
   9   5  -2    0.17    0.12
   9   5  -2    0.40    0.11
  -9  -5   2    0.21    0.13
   9   5  -1    0.93    0.16
   9   5  -1    1.03    0.16
  -9  -5   1    0.62    0.18
   9   5   0    7.93    0.54
   9   5   0    6.80    0.50
  -9  -5   0    7.53    0.51
   9   5   1    1.88    0.23
   9   5   1    1.66    0.22
  -9  -5  -1    1.75    0.22
   9   5   2    0.50    0.13
   9   5   2    0.73    0.16
  -9  -5  -2    0.32    0.12
   9   5   3    0.01    0.09
   9   5   3    0.10    0.12
  -9  -5  -3    0.09    0.09
   9   5   4    0.71    0.20
  -9  -5  -4    0.69    0.16
   9   5   5    2.28    0.31
  -9  -5  -5    1.73    0.21
  -9  -5  -5    1.85    0.21
   9   5   6    2.92    0.39
  -9  -5  -6    2.91    0.24
  -9  -5  -6    2.50    0.27
   9   5   7    0.93    0.19
  -9  -5  -7    0.64    0.13
  -9  -5  -7    0.55    0.18
   9   5   8    1.08    0.22
  -9  -5  -8    0.76    0.18
   9   5   9    0.54    0.23
  -9  -5  -9    0.60    0.19
   9   5  10    0.21    0.17
  -9  -5 -10    0.30    0.16
   9   5  11    0.48    0.24
  -9  -5 -11    0.64    0.18
   9   5  12   -0.01    0.18
  -9  -5 -12    0.29    0.15
   9   5  13    0.41    0.25
  -9  -5 -13    0.93    0.21
   9   5  14    1.19    0.29
  -9  -5 -14    1.01    0.33
   9   5  15    2.09    0.42
  -9  -5 -15    1.80    0.35
   9   5  16    0.68    0.31
  -9  -5 -16    0.87    0.30
  -9  -5 -17    0.17    0.22
   9   6 -17    0.91    0.28
  -9  -6  17    1.24    0.35
   9   6 -16   -0.10    0.17
  -9  -6  16    0.07    0.15
   9   6 -15    3.98    0.51
  -9  -6  15    4.64    0.63
   9   6 -14    0.70    0.22
  -9  -6  14    0.97    0.30
   9   6 -13    0.29    0.18
  -9  -6  13    0.26    0.22
   9   6 -12    0.20    0.16
  -9  -6  12    0.43    0.18
   9   6 -11    6.33    0.57
  -9  -6  11    7.13    0.64
   9   6 -10    0.16    0.15
  -9  -6  10    0.29    0.15
   9   6  -9    0.26    0.17
  -9  -6   9    0.24    0.17
   9   6  -8    0.03    0.11
  -9  -6   8    0.06    0.10
   9   6  -7    0.25    0.12
  -9  -6   7    0.04    0.12
   9   6  -6   -0.19    0.15
  -9  -6   6   -0.19    0.12
   9   6  -5    1.29    0.20
  -9  -6   5    0.69    0.17
   9   6  -4    3.55    0.25
   9   6  -4    4.09    0.36
  -9  -6   4    4.55    0.37
   9   6  -3   -0.04    0.12
   9   6  -3   -0.01    0.08
  -9  -6   3   -0.14    0.10
   9   6  -2    5.70    0.49
   9   6  -2    6.10    0.43
  -9  -6   2    5.71    0.48
   9   6  -1    2.53    0.30
   9   6  -1    2.40    0.25
  -9  -6   1    3.24    0.31
   9   6   0    0.82    0.16
   9   6   0    0.78    0.17
  -9  -6   0    0.68    0.15
   9   6   1    1.00    0.21
   9   6   1    1.26    0.19
  -9  -6  -1    1.50    0.18
   9   6   2    0.02    0.10
   9   6   2    0.14    0.13
  -9  -6  -2    0.14    0.09
   9   6   3    1.40    0.18
   9   6   3    1.24    0.24
  -9  -6  -3    1.50    0.22
   9   6   4    1.63    0.19
   9   6   4    1.47    0.28
  -9  -6  -4    1.63    0.24
   9   6   5    0.68    0.18
  -9  -6  -5    0.11    0.13
   9   6   6    0.37    0.18
  -9  -6  -6    0.29    0.11
  -9  -6  -6    0.21    0.15
   9   6   7    0.05    0.17
  -9  -6  -7    0.21    0.14
   9   6   8   -0.02    0.17
  -9  -6  -8    0.23    0.15
   9   6   9   -0.19    0.14
  -9  -6  -9    0.09    0.10
   9   6  10   -0.11    0.13
  -9  -6 -10    0.05    0.11
   9   6  11    0.07    0.16
  -9  -6 -11    0.14    0.14
   9   6  12    0.02    0.20
  -9  -6 -12   -0.19    0.15
   9   6  13    0.33    0.24
  -9  -6 -13    0.18    0.16
   9   6  14    1.23    0.41
  -9  -6 -14    1.51    0.38
   9   6  15    1.37    0.36
  -9  -6 -15    1.21    0.37
   9   6  16    0.19    0.30
  -9  -6 -16    0.83    0.24
   9   7 -16    6.99    0.76
  -9  -7  16    7.61    0.83
   9   7 -15    1.01    0.33
  -9  -7  15    1.23    0.36
   9   7 -14    2.44    0.47
  -9  -7  14    2.83    0.50
   9   7 -13    0.31    0.23
  -9  -7  13    0.44    0.25
   9   7 -12    0.33    0.24
  -9  -7  12    0.58    0.20
   9   7 -11    1.44    0.34
  -9  -7  11    1.83    0.30
   9   7 -10    4.96    0.58
  -9  -7  10    6.59    0.57
   9   7  -9    2.63    0.35
  -9  -7   9    3.06    0.41
   9   7  -8    0.67    0.22
  -9  -7   8    0.68    0.22
   9   7  -7    3.12    0.35
  -9  -7   7    3.79    0.41
   9   7  -6    0.83    0.21
  -9  -7   6    1.48    0.21
   9   7  -5    5.43    0.46
  -9  -7   5    5.37    0.44
   9   7  -4    1.84    0.25
  -9  -7   4    1.87    0.27
   9   7  -3    9.75    0.75
   9   7  -3    8.49    0.54
  -9  -7   3    9.13    0.71
   9   7  -2    1.75    0.27
   9   7  -2    1.30    0.21
  -9  -7   2    1.86    0.23
   9   7  -1    2.96    0.35
   9   7  -1    3.01    0.30
  -9  -7   1    3.70    0.38
   9   7   0    5.57    0.46
   9   7   0    4.52    0.44
  -9  -7   0    5.81    0.45
   9   7   1   23.51    1.35
   9   7   1   22.06    1.48
  -9  -7  -1   23.06    1.43
   9   7   2   -0.03    0.11
   9   7   2   -0.06    0.12
  -9  -7  -2   -0.04    0.10
   9   7   3    2.18    0.25
   9   7   3    2.67    0.34
  -9  -7  -3    2.67    0.33
   9   7   4    0.23    0.10
   9   7   4    0.12    0.17
  -9  -7  -4    0.28    0.13
   9   7   5    0.88    0.16
   9   7   5    0.66    0.19
  -9  -7  -5    0.89    0.23
   9   7   6    0.05    0.16
  -9  -7  -6    0.18    0.12
   9   7   7   -0.08    0.14
  -9  -7  -7    0.01    0.13
  -9  -7  -8    0.09    0.15
   9   7   9    0.15    0.17
  -9  -7  -9   -0.00    0.15
   9   7  10   -0.05    0.14
  -9  -7 -10   -0.04    0.13
   9   7  11   -0.19    0.20
  -9  -7 -11    0.31    0.15
   9   7  12   -0.29    0.20
  -9  -7 -12    0.12    0.18
   9   7  13    1.17    0.38
  -9  -7 -13    1.17    0.32
   9   7  14    0.24    0.24
  -9  -7 -14    0.08    0.17
   9   7  15    0.45    0.31
  -9  -7 -15    0.23    0.21
   9   8 -15    0.23    0.28
  -9  -8  15    0.46    0.26
   9   8 -14    0.02    0.17
  -9  -8  14    0.34    0.23
   9   8 -13   -0.17    0.16
  -9  -8  13   -0.16    0.21
   9   8 -12    0.34    0.19
  -9  -8  12    0.34    0.20
   9   8 -11    0.26    0.16
  -9  -8  11   -0.06    0.19
   9   8 -10    2.22    0.42
  -9  -8  10    2.95    0.44
   9   8  -9    2.77    0.43
  -9  -8   9    2.75    0.38
   9   8  -8    0.23    0.13
  -9  -8   8    0.02    0.17
   9   8  -7    3.56    0.39
  -9  -8   7    3.57    0.37
   9   8  -6    0.63    0.23
  -9  -8   6    0.74    0.22
   9   8  -5    3.01    0.40
  -9  -8   5    3.26    0.33
   9   8  -4    0.99    0.22
  -9  -8   4    0.58    0.18
   9   8  -3    5.75    0.50
  -9  -8   3    5.02    0.45
   9   8  -2    0.61    0.22
   9   8  -2    0.57    0.15
  -9  -8   2    1.39    0.23
   9   8  -1    2.39    0.30
   9   8  -1    1.54    0.26
  -9  -8   1    3.03    0.33
   9   8   0   11.27    0.73
   9   8   0   10.55    0.80
  -9  -8   0   11.79    0.92
   9   8   1    2.76    0.30
   9   8   1    1.73    0.31
  -9  -8  -1    2.59    0.31
   9   8   2    2.76    0.31
   9   8   2    2.33    0.35
  -9  -8  -2    3.23    0.37
   9   8   3    3.80    0.36
   9   8   3    4.41    0.44
  -9  -8  -3    4.68    0.41
   9   8   4    0.63    0.15
   9   8   4    0.86    0.19
  -9  -8  -4    0.95    0.18
   9   8   5    0.38    0.22
  -9  -8  -5    0.94    0.23
   9   8   6   -0.02    0.17
  -9  -8  -6    0.26    0.17
   9   8   7    0.01    0.16
  -9  -8  -7    0.12    0.15
   9   8   8    0.28    0.16
  -9  -8  -8    0.06    0.15
   9   8   9    0.20    0.19
  -9  -8  -9    0.08    0.15
   9   8  10    0.97    0.25
  -9  -8 -10    0.64    0.22
   9   8  11   -0.15    0.20
  -9  -8 -11    0.28    0.18
   9   8  12   -0.12    0.26
  -9  -8 -12    0.56    0.24
   9   8  13    0.50    0.35
  -9  -8 -13    0.96    0.31
   9   9 -14    0.67    0.26
  -9  -9  14    0.88    0.35
   9   9 -13    0.55    0.27
  -9  -9  13    1.16    0.29
   9   9 -12    0.33    0.21
  -9  -9  12    0.49    0.25
   9   9 -11    5.26    0.62
  -9  -9  11    5.81    0.71
   9   9 -10    2.13    0.40
  -9  -9  10    1.53    0.40
   9   9  -9    0.23    0.23
  -9  -9   9    0.93    0.24
   9   9  -8    0.05    0.13
  -9  -9   8    0.00    0.15
   9   9  -7    0.11    0.18
  -9  -9   7    0.25    0.14
   9   9  -6    0.48    0.21
  -9  -9   6    0.34    0.20
   9   9  -5    0.81    0.24
  -9  -9   5    0.77    0.21
   9   9  -4    0.88    0.25
  -9  -9   4    1.01    0.22
   9   9  -3    0.08    0.12
  -9  -9   3    0.14    0.13
   9   9  -2    0.21    0.17
  -9  -9   2    0.21    0.18
   9   9  -1    0.77    0.22
   9   9  -1    0.64    0.18
  -9  -9   1    0.93    0.23
   9   9   0    8.63    0.67
   9   9   0    7.31    0.65
  -9  -9   0    9.65    0.71
   9   9   1    1.57    0.22
   9   9   1    1.22    0.27
  -9  -9  -1    2.03    0.27
   9   9   2    1.45    0.24
   9   9   2    1.27    0.26
  -9  -9  -2    1.40    0.26
   9   9   3    0.10    0.10
   9   9   3   -0.05    0.13
  -9  -9  -3   -0.00    0.12
   9   9   4    0.15    0.15
  -9  -9  -4   -0.02    0.15
   9   9   5    0.52    0.22
  -9  -9  -5    0.54    0.23
   9   9   6    0.18    0.17
  -9  -9  -6    0.17    0.18
   9   9   7   -0.19    0.15
  -9  -9  -7    0.18    0.15
   9   9   8    0.70    0.25
  -9  -9  -8    1.19    0.29
   9   9   9    0.14    0.24
  -9  -9  -9    0.47    0.22
   9   9  10   -0.01    0.23
  -9  -9 -10    0.29    0.20
   9   9  11    0.04    0.16
  -9  -9 -11    0.05    0.15
   9   9  12    0.05    0.17
  -9  -9 -12   -0.09    0.15
   9  10 -13    1.36    0.50
  -9 -10  13    2.82    0.42
   9  10 -12    3.64    0.60
  -9 -10  12    3.57    0.61
   9  10 -11    2.63    0.54
  -9 -10  11    3.56    0.47
   9  10 -10    0.66    0.29
  -9 -10  10    0.85    0.25
   9  10  -9    0.28    0.18
  -9 -10   9    0.28    0.19
   9  10  -8   -0.11    0.18
  -9 -10   8   -0.05    0.14
   9  10  -7    0.75    0.22
  -9 -10   7    0.54    0.26
   9  10  -6    0.95    0.29
  -9 -10   6    0.76    0.22
   9  10  -5    0.82    0.26
  -9 -10   5    0.85    0.26
   9  10  -4    1.27    0.31
  -9 -10   4    1.32    0.26
   9  10  -3    1.74    0.29
  -9 -10   3    1.90    0.36
   9  10  -2    0.12    0.16
  -9 -10   2    0.15    0.14
   9  10  -1   -0.09    0.14
  -9 -10   1    0.15    0.12
   9  10   0    1.36    0.24
   9  10   0    0.90    0.24
  -9 -10   0    1.24    0.25
   9  10   1    0.30    0.15
   9  10   1    0.19    0.16
  -9 -10  -1    0.20    0.16
   9  10   2    0.36    0.15
   9  10   2    0.38    0.18
  -9 -10  -2    0.51    0.18
   9  10   3    0.47    0.21
  -9 -10  -3    0.54    0.19
   9  10   4   -0.02    0.13
  -9 -10  -4    0.04    0.12
   9  10   5    1.35    0.26
  -9 -10  -5    1.45    0.34
   9  10   6    0.15    0.16
  -9 -10  -6    0.44    0.22
   9  10   7    0.21    0.18
  -9 -10  -7    0.38    0.22
   9  10   8    0.18    0.20
  -9 -10  -8   -0.02    0.19
   9  10   9    0.09    0.18
  -9 -10  -9    0.17    0.17
   9  10  10   -0.07    0.21
  -9 -10 -10    0.08    0.15
   9  11 -11    0.39    0.23
   9  11 -10    2.62    0.46
  -9 -11  10    3.51    0.54
   9  11  -9    0.32    0.26
  -9 -11   9    0.40    0.26
   9  11  -8    1.28    0.30
  -9 -11   8    1.48    0.35
   9  11  -7    3.74    0.59
  -9 -11   7    4.44    0.56
   9  11  -6    0.79    0.24
  -9 -11   6    0.90    0.24
   9  11  -5    0.97    0.25
  -9 -11   5    0.84    0.29
   9  11  -4    1.58    0.33
  -9 -11   4    1.35    0.38
   9  11  -3    0.59    0.24
  -9 -11   3    0.73    0.22
   9  11  -2    0.64    0.22
  -9 -11   2    1.12    0.22
   9  11  -1    0.85    0.30
  -9 -11   1    1.75    0.32
   9  11   0    1.26    0.29
  -9 -11   0    1.32    0.29
  -9 -11  -1    3.11    0.42
   9  11   2    0.57    0.24
  -9 -11  -2    0.99    0.29
   9  11   3    0.15    0.16
  -9 -11  -3    0.04    0.19
   9  11   4   -0.29    0.20
  -9 -11  -4    0.94    0.22
   9  11   5    0.13    0.14
  -9 -11  -5   -0.12    0.14
   9  11   6    1.91    0.43
  -9 -11  -6    2.47    0.41
   9  11   7    0.14    0.21
  -9 -11  -7    0.23    0.24
   9  11   8    0.02    0.18
   9  12  -7    0.21    0.19
  -9 -12   7    0.19    0.19
   9  12  -6    0.24    0.18
  -9 -12   6    0.24    0.20
   9  12  -5    0.89    0.33
  -9 -12   5    1.16    0.29
   9  12  -4    1.13    0.29
  -9 -12   4    2.07    0.38
   9  12  -3   -0.09    0.15
  -9 -12   3    0.06    0.14
   9  12  -2   -0.02    0.19
  -9 -12   2   -0.31    0.22
   9  12  -1    0.30    0.25
  -9 -12   1    0.88    0.23
  -9 -12   0    0.16    0.21
  -9 -12  -1    2.31    0.40
  -9 -12  -2    0.79    0.24
  -9 -12  -3    0.01    0.17
  -9 -12  -4    0.17    0.18
 -10  15   0    0.15    0.19
  10 -15   1    1.11    0.28
 -10  15  -1    0.48    0.28
  10 -15   2    0.38    0.18
 -10  15  -2    0.06    0.20
 -10  15  -3    0.08    0.17
  10 -14  -6    2.12    0.41
 -10  14   6    1.51    0.39
  10 -14  -5    1.76    0.39
 -10  14   5    1.58    0.31
  10 -14  -4    2.78    0.44
 -10  14   4    2.47    0.47
  10 -14  -3    0.34    0.17
 -10  14   3   -0.06    0.22
  10 -14  -2    0.50    0.20
 -10  14   2    0.19    0.25
  10 -14  -1    0.03    0.13
 -10  14   1    0.14    0.19
  10 -14   0   -0.02    0.13
 -10  14   0   -0.00    0.17
  10 -14   1    0.75    0.25
 -10  14  -1    0.33    0.27
  10 -14   2    1.40    0.32
 -10  14  -2    0.65    0.33
  10 -14   3    0.06    0.14
 -10  14  -3    0.03    0.16
  10 -14   4    0.12    0.18
 -10  14  -4    0.04    0.16
  10 -14   5   -0.02    0.14
 -10  14  -5   -0.10    0.18
  10 -14   6   -0.14    0.15
 -10  14  -6    0.15    0.15
  10 -14   7    0.84    0.24
 -10  14  -7    0.46    0.33
  10 -14   8   -0.04    0.16
 -10  14  -8    0.11    0.17
  10 -13  -8    0.72    0.26
 -10  13   8    0.47    0.20
  10 -13  -7    1.06    0.28
 -10  13   7    0.51    0.27
  10 -13  -6   -0.07    0.14
 -10  13   6    0.22    0.17
  10 -13  -5    1.13    0.26
 -10  13   5    1.19    0.26
  10 -13  -4    0.12    0.14
 -10  13   4   -0.05    0.19
  10 -13  -3    1.76    0.29
 -10  13   3    1.61    0.39
  10 -13  -2    0.02    0.15
 -10  13   2    0.34    0.20
  10 -13  -1   -0.19    0.13
 -10  13   1    0.16    0.18
  10 -13   0    0.92    0.25
 -10  13   0    0.77    0.29
  10 -13   1    0.78    0.24
 -10  13  -1    0.85    0.23
  10 -13   2    1.65    0.29
 -10  13  -2    1.18    0.31
  10 -13   3    0.31    0.23
 -10  13  -3    0.34    0.24
  10 -13   4    0.13    0.21
 -10  13  -4    0.32    0.18
  10 -13   5    0.05    0.14
  10 -13   5    0.00    0.14
 -10  13  -5    0.09    0.18
  10 -13   6    1.66    0.35
 -10  13  -6    1.48    0.35
  10 -13   7    1.07    0.25
 -10  13  -7    0.60    0.33
  10 -13   8    0.60    0.24
 -10  13  -8    0.33    0.23
  10 -13   9    0.48    0.19
 -10  13  -9    0.15    0.23
  10 -13  10    0.85    0.29
 -10  13 -10    0.82    0.38
  10 -13  11   -0.15    0.20
 -10  13 -11   -0.15    0.26
  10 -12 -10    0.52    0.23
 -10  12  10    0.18    0.22
  10 -12  -9    0.31    0.19
 -10  12   9    0.01    0.14
  10 -12  -8    0.42    0.20
 -10  12   8    0.85    0.24
  10 -12  -7    0.84    0.19
 -10  12   7    0.32    0.19
  10 -12  -6    0.08    0.17
 -10  12   6    0.04    0.16
  10 -12  -5    3.19    0.43
 -10  12   5    2.07    0.43
  10 -12  -4    0.35    0.19
 -10  12   4    0.88    0.24
  10 -12  -3   -0.13    0.16
 -10  12   3    0.72    0.18
  10 -12  -2    0.06    0.14
 -10  12   2    0.05    0.17
  10 -12  -1   -0.05    0.14
 -10  12   1    0.04    0.15
  10 -12   0    0.09    0.16
 -10  12   0   -0.15    0.14
  10 -12   1    0.60    0.25
 -10  12  -1    0.87    0.27
  10 -12   2    1.16    0.29
 -10  12  -2    1.02    0.26
  10 -12   3    2.85    0.40
 -10  12  -3    2.12    0.37
  10 -12   4    0.14    0.15
 -10  12  -4    0.16    0.17
  10 -12   5    0.07    0.11
 -10  12  -5   -0.11    0.15
  10 -12   6    3.30    0.45
 -10  12  -6    2.47    0.41
  10 -12   7    1.10    0.29
 -10  12  -7    0.72    0.28
  10 -12   8    0.52    0.22
 -10  12  -8    0.93    0.30
  10 -12   9    1.08    0.32
 -10  12  -9    0.70    0.31
  10 -12  10    0.04    0.22
 -10  12 -10    0.12    0.18
  10 -12  11   -0.03    0.16
 -10  12 -11    0.10    0.17
 -10  12 -12    0.48    0.26
  10 -12  13    2.10    0.39
 -10  12 -13    1.20    0.40
  10 -11 -12    1.10    0.32
  10 -11 -11    0.24    0.18
 -10  11  11    0.30    0.22
  10 -11 -10    0.79    0.27
 -10  11  10    1.10    0.29
  10 -11  -9    0.25    0.19
 -10  11   9    0.27    0.15
  10 -11  -8    0.07    0.14
 -10  11   8    0.12    0.16
  10 -11  -7    0.82    0.26
 -10  11   7    0.83    0.27
  10 -11  -6    3.28    0.36
 -10  11   6    3.03    0.46
  10 -11  -5    0.27    0.18
 -10  11   5    0.14    0.15
  10 -11  -4    1.50    0.27
 -10  11   4    0.68    0.25
  10 -11  -3    0.25    0.16
 -10  11   3    0.19    0.18
  10 -11  -2    0.47    0.21
 -10  11   2    0.29    0.20
  10 -11  -1    2.49    0.33
 -10  11   1    1.29    0.29
  10 -11   0    1.70    0.26
 -10  11   0    1.14    0.26
  10 -11   1    3.77    0.41
 -10  11  -1    3.05    0.46
  10 -11   2   -0.05    0.13
 -10  11  -2   -0.01    0.16
  10 -11   3    2.57    0.33
 -10  11  -3    1.78    0.34
  10 -11   4    0.17    0.16
 -10  11  -4    0.25    0.21
  10 -11   5    2.00    0.29
 -10  11  -5    1.17    0.37
  10 -11   6    0.15    0.19
 -10  11  -6    0.26    0.17
  10 -11   7    6.35    0.68
 -10  11  -7    3.63    0.54
  10 -11   8    0.11    0.18
 -10  11  -8    0.25    0.17
  10 -11   9    0.72    0.24
 -10  11  -9   -0.06    0.17
  10 -11  10    0.74    0.21
 -10  11 -10    0.25    0.23
  10 -11  11    1.43    0.33
 -10  11 -11    0.93    0.29
  10 -11  12    0.13    0.21
 -10  11 -12    0.19    0.20
  10 -11  13    3.79    0.53
 -10  11 -13    2.61    0.51
  10 -11  14    2.57    0.44
 -10  11 -14    1.19    0.45
  10 -10 -13    0.20    0.20
  10 -10 -12    1.59    0.29
 -10  10  12    1.44    0.32
  10 -10 -11   -0.00    0.18
 -10  10  11    0.22    0.17
  10 -10 -10   -0.04    0.11
 -10  10  10    0.09    0.14
  10 -10  -9    0.15    0.12
 -10  10   9   -0.37    0.16
  10 -10  -8    0.66    0.22
 -10  10   8    0.36    0.19
  10 -10  -7    1.90    0.27
 -10  10   7    1.66    0.37
  10 -10  -6    1.00    0.24
 -10  10   6    0.54    0.26
  10 -10  -5    2.06    0.25
 -10  10   5    1.34    0.39
  10 -10  -4    5.04    0.53
 -10  10   4    4.54    0.52
  10 -10  -3    3.31    0.36
 -10  10   3    2.84    0.38
  10 -10  -2    2.36    0.34
 -10  10   2    1.67    0.37
  10 -10  -1    3.32    0.37
 -10  10   1    3.39    0.40
  10 -10   0    4.44    0.44
 -10  10   0    3.97    0.49
  10 -10   1    3.27    0.41
 -10  10  -1    2.45    0.32
  10 -10   2    2.55    0.34
 -10  10  -2    2.86    0.41
  10 -10   3    2.13    0.30
 -10  10  -3    2.19    0.37
  10 -10   4    2.23    0.34
 -10  10  -4    1.37    0.38
  10 -10   5    0.16    0.17
 -10  10  -5    0.12    0.16
  10 -10   6    0.15    0.20
 -10  10  -6    0.48    0.18
  10 -10   7    2.59    0.45
 -10  10  -7    2.93    0.40
  10 -10   8    5.20    0.60
 -10  10  -8    4.74    0.55
  10 -10   9    0.10    0.15
 -10  10  -9    0.20    0.20
  10 -10  10   -0.07    0.18
 -10  10 -10    0.31    0.21
  10 -10  11    1.60    0.35
 -10  10 -11    1.01    0.33
  10 -10  12    0.24    0.23
 -10  10 -12    0.27    0.19
  10 -10  13    7.76    0.80
 -10  10 -13    7.81    0.98
  10 -10  14    0.17    0.22
 -10  10 -14    0.17    0.23
  10 -10  15    0.82    0.28
 -10  10 -15    0.29    0.25
  10  -9 -15    0.33    0.21
  10  -9 -14    0.77    0.27
  10  -9 -13   -0.05    0.14
 -10   9  13   -0.13    0.17
  10  -9 -12    0.08    0.17
 -10   9  12    0.20    0.18
  10  -9 -11    0.25    0.16
 -10   9  11    0.03    0.14
  10  -9 -10    0.13    0.13
 -10   9  10    0.11    0.17
  10  -9  -9    0.15    0.13
 -10   9   9    0.17    0.17
  10  -9  -8    0.52    0.16
 -10   9   8    0.04    0.15
  10  -9  -7    0.47    0.16
 -10   9   7    0.40    0.17
  10  -9  -6   -0.07    0.12
 -10   9   6   -0.10    0.12
  10  -9  -5    0.55    0.21
 -10   9   5    0.32    0.18
  10  -9  -4    0.16    0.16
 -10   9   4    0.09    0.18
  10  -9  -3   -0.03    0.12
 -10   9   3    0.05    0.11
  10  -9  -2    0.90    0.25
 -10   9   2    1.16    0.23
  10  -9  -1    0.14    0.13
 -10   9   1    0.11    0.14
  10  -9   0    0.21    0.18
 -10   9   0    0.27    0.18
  10  -9   1    2.60    0.30
 -10   9  -1    2.12    0.32
  10  -9   2    4.00    0.43
 -10   9  -2    3.18    0.38
  10  -9   3    3.83    0.44
 -10   9  -3    3.10    0.38
 -10   9  -4   -0.16    0.14
  10  -9   5    1.15    0.23
 -10   9  -5    1.07    0.25
  10  -9   6    6.83    0.58
 -10   9  -6    5.73    0.59
  10  -9   7    2.94    0.36
 -10   9  -7    2.86    0.47
  10  -9   8    0.42    0.22
 -10   9  -8    0.22    0.22
  10  -9   9    1.77    0.31
 -10   9  -9    1.98    0.33
  10  -9  10   -0.06    0.18
 -10   9 -10   -0.12    0.15
  10  -9  11    5.00    0.52
 -10   9 -11    3.73    0.62
  10  -9  12    0.45    0.21
 -10   9 -12    0.09    0.17
  10  -9  13    0.19    0.20
 -10   9 -13    0.07    0.20
  10  -9  14    5.03    0.61
 -10   9 -14    3.47    0.55
  10  -9  15    0.13    0.21
 -10   9 -15    0.37    0.25
  10  -9  16   -0.14    0.14
 -10   9 -16    0.10    0.15
  10  -8 -15    0.59    0.25
  10  -8 -14    0.30    0.21
 -10   8  14    0.43    0.18
  10  -8 -13    0.39    0.21
 -10   8  13    0.52    0.23
  10  -8 -12    0.17    0.14
 -10   8  12    0.22    0.19
  10  -8 -11   -0.15    0.12
 -10   8  11    0.01    0.13
  10  -8 -10   -0.10    0.10
 -10   8  10    0.24    0.14
  10  -8  -9   -0.03    0.11
 -10   8   9    0.12    0.14
  10  -8  -8    1.86    0.29
 -10   8   8    2.08    0.29
  10  -8  -7    0.40    0.17
 -10   8   7    0.26    0.16
  10  -8  -6    2.77    0.36
 -10   8   6    2.66    0.42
  10  -8  -5    3.52    0.41
 -10   8   5    3.79    0.51
  10  -8  -4    2.79    0.30
 -10   8   4    3.12    0.35
  10  -8  -3    0.20    0.14
 -10   8   3    0.58    0.19
  10  -8  -2   -0.08    0.11
 -10   8   2    0.18    0.12
  10  -8  -1    1.38    0.28
 -10   8   1    1.74    0.32
  10  -8   0    1.02    0.21
 -10   8   0    1.11    0.27
  10  -8   1    4.07    0.44
 -10   8  -1    3.65    0.47
  10  -8   2    3.00    0.43
 -10   8  -2    2.32    0.38
  10  -8   3    1.32    0.28
 -10   8  -3    1.63    0.30
  10  -8   4   -0.05    0.12
 -10   8  -4   -0.04    0.15
  10  -8   5   -0.05    0.11
 -10   8  -5    0.11    0.11
  10  -8   6    1.41    0.26
 -10   8  -6    1.51    0.26
  10  -8   7   -0.04    0.12
 -10   8  -7    0.03    0.14
  10  -8   8    0.32    0.19
 -10   8  -8    0.78    0.20
  10  -8   9   -0.11    0.20
 -10   8  -9    0.83    0.21
  10  -8  10    0.10    0.12
 -10   8 -10   -0.13    0.12
  10  -8  11    0.50    0.21
 -10   8 -11    0.27    0.22
  10  -8  12    0.52    0.24
 -10   8 -12    0.57    0.21
  10  -8  13    0.10    0.21
 -10   8 -13    0.46    0.21
  10  -8  14    0.62    0.22
 -10   8 -14    0.04    0.24
  10  -8  15    0.44    0.21
 -10   8 -15    0.01    0.18
  10  -8  16    0.38    0.19
 -10   8 -16    0.45    0.25
  10  -8  17   -0.07    0.17
 -10   8 -17    0.03    0.17
  10  -7 -16    1.02    0.27
  10  -7 -15    0.49    0.20
 -10   7  15    0.07    0.22
  10  -7 -14    2.13    0.34
 -10   7  14    1.95    0.39
  10  -7 -13    0.08    0.14
 -10   7  13    0.04    0.13
  10  -7 -12    0.01    0.12
 -10   7  12   -0.02    0.14
  10  -7 -11    0.07    0.13
 -10   7  11    0.09    0.13
  10  -7 -10    0.79    0.22
 -10   7  10    0.98    0.26
  10  -7  -9    1.32    0.24
 -10   7   9    0.93    0.28
  10  -7  -8    1.94    0.24
 -10   7   8    2.31    0.35
  10  -7  -7    0.22    0.14
 -10   7   7    0.47    0.19
  10  -7  -6    0.02    0.09
 -10   7   6   -0.02    0.13
  10  -7  -5    2.30    0.27
 -10   7   5    2.42    0.32
  10  -7  -4    7.81    0.55
 -10   7   4    8.39    0.76
  10  -7  -3   -0.10    0.11
 -10   7   3   -0.02    0.12
  10  -7  -2    0.21    0.11
 -10   7   2   -0.11    0.16
  10  -7  -1   -0.03    0.10
 -10   7   1    0.13    0.13
  10  -7   0    3.57    0.38
 -10   7   0    3.08    0.42
  10  -7   1    6.05    0.61
 -10   7  -1    5.09    0.57
  10  -7   2    3.77    0.38
 -10   7  -2    3.90    0.48
  10  -7   3   -0.10    0.14
 -10   7  -3   -0.01    0.12
  10  -7   4    1.49    0.24
 -10   7  -4    1.00    0.22
  10  -7   5    3.21    0.42
 -10   7  -5    2.95    0.43
  10  -7   6    0.81    0.23
 -10   7  -6    0.68    0.18
  10  -7   7    5.40    0.55
 -10   7  -7    4.18    0.51
  10  -7   8    1.99    0.29
 -10   7  -8    1.86    0.30
  10  -7   9    0.60    0.20
 -10   7  -9    0.79    0.20
  10  -7  10    2.97    0.40
 -10   7 -10    2.21    0.40
  10  -7  11    0.75    0.26
 -10   7 -11    0.93    0.26
  10  -7  12   -0.00    0.13
 -10   7 -12   -0.06    0.12
  10  -7  13    0.14    0.12
 -10   7 -13   -0.12    0.11
  10  -7  14    0.12    0.14
 -10   7 -14    0.01    0.17
  10  -7  15    0.41    0.23
 -10   7 -15    0.32    0.23
  10  -7  16    0.84    0.30
 -10   7 -16    1.08    0.29
  10  -7  17    0.63    0.27
 -10   7 -17    0.71    0.27
  10  -6 -17   -0.01    0.11
  10  -6 -16    0.04    0.11
 -10   6  16    0.11    0.18
  10  -6 -15    0.40    0.20
 -10   6  15    0.59    0.24
  10  -6 -14   -0.03    0.15
 -10   6  14    0.31    0.18
  10  -6 -13    0.00    0.13
 -10   6  13   -0.12    0.14
  10  -6 -12    0.31    0.18
 -10   6  12    0.53    0.22
  10  -6 -11    1.41    0.21
 -10   6  11    1.57    0.27
  10  -6 -10   -0.05    0.11
 -10   6  10    0.14    0.15
  10  -6  -9    0.73    0.20
 -10   6   9    1.22    0.26
  10  -6  -8    1.21    0.18
 -10   6   8    1.19    0.27
  10  -6  -7    1.50    0.21
 -10   6   7    1.69    0.31
  10  -6  -6    0.18    0.14
 -10   6   6    0.26    0.15
  10  -6  -5    4.90    0.38
 -10   6   5    4.99    0.47
  10  -6  -4    1.25    0.20
 -10   6   4    1.68    0.25
  10  -6  -3    3.81    0.38
 -10   6   3    3.52    0.47
  10  -6  -2    6.93    0.57
 -10   6   2    7.03    0.56
  10  -6  -1    0.65    0.22
 -10   6   1    0.73    0.18
  10  -6   0    6.40    0.54
 -10   6   0    6.19    0.51
  10  -6   1    5.20    0.50
 -10   6  -1    5.91    0.53
  10  -6   2    0.08    0.13
 -10   6  -2    0.19    0.12
  10  -6   3    1.42    0.27
 -10   6  -3    1.16    0.24
  10  -6   4    0.06    0.13
 -10   6  -4    0.35    0.17
  10  -6   5    3.32    0.44
 -10   6  -5    3.27    0.37
  10  -6   6   13.33    0.97
 -10   6  -6   13.35    0.97
  10  -6   7    4.12    0.48
 -10   6  -7    3.45    0.46
  10  -6   8    6.20    0.57
 -10   6  -8    5.40    0.60
  10  -6   9    0.05    0.11
 -10   6  -9   -0.16    0.14
  10  -6  10    2.30    0.36
 -10   6 -10    1.91    0.29
  10  -6  11    3.86    0.42
 -10   6 -11    4.12    0.50
  10  -6  12    2.04    0.28
 -10   6 -12    1.69    0.33
  10  -6  13    0.11    0.12
 -10   6 -13   -0.13    0.15
  10  -6  14    1.59    0.26
 -10   6 -14    1.00    0.29
  10  -6  15    0.23    0.20
 -10   6 -15    0.20    0.19
  10  -6  16    0.87    0.23
 -10   6 -16    0.48    0.26
  10  -6  17    0.29    0.22
 -10   6 -17    0.38    0.22
  10  -6  18    0.73    0.23
 -10   6 -18    0.60    0.20
  10  -5 -17    2.34    0.36
 -10   5  17    3.05    0.45
  10  -5 -16    0.92    0.22
 -10   5  16    0.96    0.29
  10  -5 -15   -0.12    0.14
 -10   5  15    0.04    0.17
  10  -5 -14    1.73    0.23
 -10   5  14    1.44    0.29
  10  -5 -13    0.46    0.17
 -10   5  13    0.34    0.17
  10  -5 -12    0.84    0.17
 -10   5  12    0.93    0.26
  10  -5 -11    0.19    0.15
 -10   5  11    0.42    0.16
  10  -5 -10    0.22    0.11
 -10   5  10    0.26    0.15
  10  -5  -9    0.72    0.18
 -10   5   9    1.15    0.26
  10  -5  -8    5.46    0.42
 -10   5   8    6.26    0.60
  10  -5  -7    6.28    0.47
 -10   5   7    4.97    0.49
  10  -5  -6    0.11    0.08
 -10   5   6   -0.21    0.10
  10  -5  -5    0.13    0.11
 -10   5   5   -0.05    0.15
  10  -5  -4    1.13    0.17
 -10   5   4    0.77    0.21
  10  -5  -3   19.06    1.10
 -10   5   3   18.45    1.22
  10  -5  -2    6.17    0.50
 -10   5   2    5.83    0.50
  10  -5  -1    8.34    0.53
 -10   5   1    7.95    0.60
  10  -5   0    2.46    0.26
 -10   5   0    2.17    0.29
  10  -5   1    1.88    0.25
 -10   5  -1    1.61    0.27
  10  -5   2    0.47    0.15
 -10   5  -2    0.51    0.16
  10  -5   3    0.01    0.09
 -10   5  -3    0.02    0.11
  10  -5   4    0.28    0.13
 -10   5  -4    0.17    0.13
  10  -5   5    0.41    0.17
 -10   5  -5    0.19    0.16
  10  -5   6    1.97    0.28
 -10   5  -6    1.92    0.32
  10  -5   7    2.56    0.37
 -10   5  -7    2.65    0.36
  10  -5   8    0.51    0.22
 -10   5  -8    0.68    0.20
  10  -5   9    4.08    0.41
 -10   5  -9    3.68    0.44
  10  -5  10    0.49    0.22
 -10   5 -10    0.69    0.17
  10  -5  11    5.24    0.47
 -10   5 -11    5.30    0.48
  10  -5  12    0.60    0.19
 -10   5 -12    0.56    0.22
  10  -5  13    1.04    0.24
 -10   5 -13    1.14    0.26
  10  -5  14    0.20    0.16
 -10   5 -14   -0.01    0.11
  10  -5  15   -0.04    0.19
 -10   5 -15    0.30    0.17
  10  -5  16    1.24    0.26
 -10   5 -16    1.14    0.30
  10  -5  17    0.98    0.25
 -10   5 -17    0.20    0.23
  10  -5  18    1.77    0.38
 -10   4  18    1.16    0.31
  10  -4 -17    0.06    0.11
 -10   4  17    0.11    0.16
  10  -4 -16    0.65    0.18
 -10   4  16    0.48    0.26
 -10   4  16    0.77    0.24
  10  -4 -15    2.07    0.25
 -10   4  15    2.06    0.39
 -10   4  15    2.77    0.33
  10  -4 -14    0.13    0.14
 -10   4  14    0.22    0.17
 -10   4  14    0.17    0.18
  10  -4 -13    2.06    0.27
 -10   4  13    2.26    0.32
 -10   4  13    2.07    0.36
  10  -4 -12    0.07    0.08
 -10   4  12   -0.10    0.11
 -10   4  12   -0.04    0.11
  10  -4 -11    0.15    0.13
 -10   4  11    0.41    0.17
 -10   4  11    0.20    0.12
  10  -4 -10   -0.01    0.12
 -10   4  10    0.36    0.13
 -10   4  10    0.08    0.10
  10  -4  -9    0.00    0.10
 -10   4   9    0.02    0.11
  10  -4  -8    0.19    0.11
 -10   4   8    0.23    0.15
  10  -4  -7    0.04    0.08
 -10   4   7   -0.17    0.11
  10  -4  -6    1.66    0.24
 -10   4   6    2.02    0.30
  10  -4  -5    1.17    0.19
 -10   4   5    0.66    0.20
  10  -4  -4   15.12    0.85
 -10   4   4   16.21    1.13
  10  -4  -3    5.43    0.42
 -10   4   3    4.76    0.51
  10  -4  -2    1.64    0.26
 -10   4   2    2.02    0.30
  10  -4  -1    1.27    0.19
 -10   4   1    1.59    0.28
  10  -4   0   15.71    0.90
 -10   4   0   14.39    0.94
  10  -4   1    0.09    0.10
 -10   4  -1    0.02    0.13
  10  -4   2    1.40    0.20
 -10   4  -2    1.49    0.21
  10  -4   3   -0.14    0.11
 -10   4  -3   -0.08    0.13
  10  -4   4    1.22    0.25
 -10   4  -4    1.36    0.26
  10  -4   5    3.09    0.37
 -10   4  -5    2.82    0.35
  10  -4   6    3.00    0.32
 -10   4  -6    4.45    0.43
  10  -4   7   -0.04    0.11
 -10   4  -7    0.23    0.13
  10  -4   8    0.32    0.17
 -10   4  -8    0.38    0.14
  10  -4   9    5.21    0.47
 -10   4  -9    5.18    0.48
  10  -4  10    2.35    0.32
 -10   4 -10    1.28    0.30
  10  -4  11    1.03    0.21
 -10   4 -11    0.77    0.18
  10  -4  12    0.16    0.14
 -10   4 -12    0.21    0.14
  10  -4  13    0.17    0.15
 -10   4 -13   -0.03    0.13
  10  -4  14    0.23    0.19
 -10   4 -14    0.23    0.16
  10  -4  15    0.07    0.18
 -10   4 -15    0.52    0.17
  10  -4  16    1.05    0.30
 -10   4 -16    0.84    0.25
  10  -4  17   -0.01    0.16
 -10   4 -17    0.03    0.13
  10  -4  18    0.58    0.23
  10  -3 -18    0.16    0.14
 -10   3  18    0.05    0.16
  10  -3 -17   -0.22    0.16
 -10   3  17    0.06    0.18
  10  -3 -16    0.68    0.18
  10  -3 -16    0.88    0.23
 -10   3  16    0.84    0.26
  10  -3 -15    0.25    0.14
  10  -3 -15    0.09    0.17
 -10   3  15    0.24    0.18
  10  -3 -14    3.47    0.30
  10  -3 -14    4.01    0.44
 -10   3  14    3.90    0.39
  10  -3 -13    0.05    0.09
  10  -3 -13   -0.12    0.10
 -10   3  13    0.07    0.11
  10  -3 -12    0.59    0.15
 -10   3  12    0.54    0.18
  10  -3 -11    0.81    0.16
 -10   3  11    0.64    0.16
 -10   3  11    0.47    0.12
  10  -3 -10    0.53    0.14
 -10   3  10    0.52    0.13
 -10   3  10    0.45    0.16
  10  -3  -9    0.49    0.12
 -10   3   9    0.36    0.11
 -10   3   9    0.20    0.18
  10  -3  -8    0.19    0.10
 -10   3   8    0.38    0.17
 -10   3   8    0.19    0.08
  10  -3  -7    0.22    0.13
 -10   3   7    0.19    0.07
 -10   3   7    0.12    0.14
  10  -3  -6    1.74    0.23
 -10   3   6    1.31    0.24
  10  -3  -5    0.15    0.10
 -10   3   5   -0.13    0.15
  10  -3  -4   32.15    1.77
 -10   3   4   28.89    1.73
  10  -3  -3   23.34    1.19
 -10   3   3   25.59    1.50
  10  -3  -2    0.23    0.12
 -10   3   2    0.35    0.14
  10  -3  -1    0.76    0.19
 -10   3   1    0.76    0.22
  10  -3   0    1.39    0.19
 -10   3   0    1.60    0.23
  10  -3   1    0.29    0.12
 -10   3  -1    0.36    0.13
  10  -3   2    0.01    0.09
 -10   3  -2    0.03    0.09
  10  -3   3    3.43    0.36
 -10   3  -3    3.29    0.32
  10  -3   4    1.82    0.23
 -10   3  -4    2.02    0.25
  10  -3   5    6.67    0.54
 -10   3  -5    6.07    0.45
  10  -3   6    4.87    0.42
 -10   3  -6    5.76    0.46
  10  -3   7    4.95    0.48
 -10   3  -7    5.05    0.50
  10  -3   8    0.14    0.14
 -10   3  -8    0.05    0.11
  10  -3   9    1.02    0.19
 -10   3  -9    0.55    0.12
 -10   3  -9    0.68    0.19
  10  -3  10   -0.09    0.11
 -10   3 -10   -0.19    0.11
 -10   3 -10    0.06    0.07
  10  -3  11    1.50    0.30
 -10   3 -11    1.32    0.21
  10  -3  12    0.72    0.20
 -10   3 -12    0.43    0.16
 -10   3 -12    0.18    0.11
  10  -3  13    0.90    0.19
 -10   3 -13    0.54    0.20
 -10   3 -13    0.46    0.14
  10  -3  14    0.07    0.14
 -10   3 -14    0.11    0.13
 -10   3 -14    0.03    0.10
  10  -3  15    1.50    0.34
 -10   3 -15    1.36    0.24
 -10   3 -15    1.40    0.25
  10  -3  16    0.86    0.25
 -10   3 -16    0.76    0.24
 -10   3 -16    0.96    0.23
  10  -3  17    0.34    0.20
  10  -3  18    0.57    0.28
  10  -2 -18   -0.08    0.13
 -10   2  18   -0.06    0.16
  10  -2 -17    0.43    0.20
 -10   2  17    0.30    0.24
  10  -2 -16    0.62    0.23
  10  -2 -16    0.69    0.16
 -10   2  16    0.82    0.26
  10  -2 -15    2.12    0.32
  10  -2 -15    1.42    0.22
 -10   2  15    1.98    0.36
  10  -2 -14    4.67    0.38
  10  -2 -14    4.10    0.49
 -10   2  14    5.08    0.53
  10  -2 -13    0.74    0.16
  10  -2 -13    0.62    0.16
 -10   2  13    0.71    0.21
  10  -2 -12    0.71    0.17
  10  -2 -12    0.93    0.18
 -10   2  12    0.83    0.21
  10  -2 -11    0.25    0.12
  10  -2 -11    0.26    0.15
 -10   2  11    0.16    0.14
  10  -2 -10    0.11    0.09
  10  -2 -10   -0.02    0.13
 -10   2  10    0.11    0.10
  10  -2  -9    0.58    0.16
  10  -2  -9    0.86    0.17
 -10   2   9    0.78    0.14
  10  -2  -8   -0.05    0.07
  10  -2  -8    0.01    0.09
 -10   2   8   -0.01    0.07
  10  -2  -7    0.98    0.16
 -10   2   7    0.54    0.12
  10  -2  -6    2.30    0.19
 -10   2   6    1.71    0.15
 -10   2   6    1.81    0.25
  10  -2  -5   14.62    0.77
 -10   2   5   11.47    0.71
 -10   2   5   10.05    0.45
  10  -2  -4    0.06    0.11
 -10   2   4    0.22    0.11
  10  -2  -3    2.96    0.27
 -10   2   3    2.61    0.26
  10  -2  -2    0.10    0.10
 -10   2   2    0.10    0.11
  10  -2  -1    2.84    0.26
 -10   2   1    2.70    0.28
  10  -2   0    2.59    0.28
 -10   2   0    2.23    0.33
  10  -2   1    2.48    0.26
 -10   2  -1    2.20    0.25
  10  -2   2    1.00    0.16
 -10   2  -2    0.85    0.16
  10  -2   3    0.23    0.14
  10  -2   4    0.72    0.14
 -10   2  -4    0.35    0.14
  10  -2   5    2.11    0.30
 -10   2  -5    2.21    0.27
  10  -2   6    1.88    0.29
 -10   2  -6    1.74    0.21
 -10   2  -6    1.39    0.13
  10  -2   7    1.53    0.26
 -10   2  -7    1.28    0.22
 -10   2  -7    0.87    0.13
  10  -2   8    0.09    0.11
 -10   2  -8    0.06    0.11
 -10   2  -8    0.00    0.06
  10  -2   9    2.07    0.34
 -10   2  -9    2.31    0.24
 -10   2  -9    2.06    0.19
  10  -2  10    0.32    0.12
 -10   2 -10    0.05    0.09
 -10   2 -10   -0.04    0.09
  10  -2  11    2.61    0.30
 -10   2 -11    2.23    0.28
 -10   2 -11    1.94    0.23
  10  -2  12    1.64    0.26
 -10   2 -12    1.47    0.25
 -10   2 -12    1.24    0.20
  10  -2  13    1.00    0.26
 -10   2 -13    0.68    0.18
 -10   2 -13    0.58    0.17
  10  -2  14    0.44    0.17
 -10   2 -14    0.21    0.14
 -10   2 -14    0.26    0.14
  10  -2  15    6.12    0.63
 -10   2 -15    4.51    0.44
 -10   2 -15    2.91    0.40
  10  -2  16    3.98    0.47
 -10   2 -16    2.73    0.33
  10  -2  17    4.51    0.52
 -10   2 -17    2.79    0.44
  10  -2  18    1.81    0.40
 -10   2 -18    1.13    0.30
  10  -1 -18    0.20    0.18
 -10   1  18    0.36    0.19
  10  -1 -17    1.38    0.26
 -10   1  17    2.14    0.38
  10  -1 -16    4.30    0.44
 -10   1  16    4.51    0.49
  10  -1 -15   11.88    0.93
  10  -1 -15   10.43    0.70
 -10   1  15   12.37    0.99
  10  -1 -14    0.34    0.15
  10  -1 -14    0.23    0.11
 -10   1  14    0.23    0.16
  10  -1 -13    3.64    0.32
  10  -1 -13    4.28    0.38
 -10   1  13    5.33    0.48
  10  -1 -12    2.50    0.24
  10  -1 -12    2.44    0.34
 -10   1  12    3.34    0.30
  10  -1 -11    0.39    0.12
  10  -1 -11    0.44    0.15
 -10   1  11    0.46    0.15
  10  -1 -10    1.77    0.22
  10  -1 -10    2.02    0.28
 -10   1  10    2.08    0.24
  10  -1  -9    0.82    0.12
  10  -1  -9    0.69    0.17
 -10   1   9    0.88    0.15
  10  -1  -8    3.16    0.26
  10  -1  -8    3.53    0.31
 -10   1   8    3.45    0.27
  10  -1  -7   -0.01    0.09
  10  -1  -7   -0.16    0.10
 -10   1   7   -0.00    0.07
  10  -1  -6    1.31    0.17
  10  -1  -6    0.88    0.19
 -10   1   6    0.80    0.11
  10  -1  -5    5.73    0.36
  10  -1  -5    4.02    0.34
 -10   1   5    4.12    0.23
  10  -1  -4    0.30    0.11
 -10   1   4    0.13    0.08
 -10   1   4    0.33    0.07
  10  -1  -3    2.04    0.21
 -10   1   3    1.42    0.11
 -10   1   3    1.55    0.23
  10  -1  -2   13.59    0.74
 -10   1   2   13.94    0.89
  10  -1  -1    2.14    0.24
 -10   1   1    2.54    0.25
 -10   1   1    1.81    0.12
  10  -1   0    1.23    0.21
 -10   1   0    1.48    0.23
  10  -1   1    0.50    0.14
 -10   1  -1    0.45    0.13
 -10   1  -1    0.31    0.06
  10  -1   2    3.67    0.36
 -10   1  -2    3.99    0.34
  10  -1   3   -0.04    0.11
 -10   1  -3   -0.18    0.11
 -10   1  -3    0.00    0.04
  10  -1   4    0.02    0.10
 -10   1  -4   -0.08    0.11
 -10   1  -4   -0.03    0.06
  10  -1   5    1.16    0.21
 -10   1  -5    0.97    0.16
 -10   1  -5    0.80    0.11
  10  -1   6    4.70    0.41
 -10   1  -6    5.16    0.39
 -10   1  -6    3.45    0.25
  10  -1   7    0.75    0.15
 -10   1  -7    0.32    0.12
 -10   1  -7    0.84    0.16
  10  -1   8    0.33    0.15
 -10   1  -8    0.16    0.12
 -10   1  -8    0.11    0.08
  10  -1   9    0.02    0.10
 -10   1  -9   -0.07    0.10
 -10   1  -9    0.00    0.07
  10  -1  10    0.22    0.11
 -10   1 -10   -0.01    0.10
 -10   1 -10   -0.06    0.08
  10  -1  11    0.57    0.18
 -10   1 -11    0.37    0.15
 -10   1 -11    0.65    0.14
  10  -1  12    0.19    0.17
 -10   1 -12    0.25    0.13
 -10   1 -12    0.40    0.13
  10  -1  13    0.78    0.21
 -10   1 -13    0.79    0.18
 -10   1 -13    0.65    0.19
  10  -1  14    1.35    0.30
 -10   1 -14    0.75    0.18
 -10   1 -14    1.03    0.21
  10  -1  15    1.18    0.31
 -10   1 -15    0.71    0.23
  10  -1  16    4.92    0.58
 -10   1 -16    3.50    0.48
  10  -1  17    2.10    0.36
 -10   1 -17    1.28    0.26
  10  -1  18    0.29    0.23
 -10   1 -18    0.55    0.23
  10   0 -18    0.02    0.16
 -10   0  18    0.62    0.20
  10   0 -17    0.42    0.19
 -10   0  17    0.02    0.23
  10   0 -16    4.18    0.53
 -10   0  16    5.21    0.61
  10   0 -15    0.70    0.21
 -10   0  15    1.02    0.27
  10   0 -14    0.46    0.18
 -10   0  14    0.75    0.24
  10   0 -13   -0.23    0.13
  10   0 -13    0.04    0.07
 -10   0  13    0.20    0.13
  10   0 -12    5.71    0.52
  10   0 -12    5.24    0.35
 -10   0  12    5.32    0.52
  10   0 -11    0.03    0.07
  10   0 -11   -0.04    0.10
 -10   0  11    0.12    0.11
  10   0 -10    2.22    0.22
  10   0 -10    2.05    0.32
 -10   0  10    2.32    0.27
  10   0  -9    2.51    0.22
  10   0  -9    2.78    0.31
 -10   0   9    2.90    0.28
  10   0  -8    6.41    0.41
  10   0  -8    5.72    0.50
 -10   0   8    6.28    0.39
  10   0  -7    5.18    0.35
  10   0  -7    5.04    0.45
 -10   0   7    4.66    0.31
  10   0  -6    3.97    0.28
  10   0  -6    2.81    0.33
 -10   0   6    2.94    0.22
  10   0  -5    0.02    0.10
  10   0  -5    0.25    0.10
 -10   0   5    0.22    0.08
  10   0  -4    1.46    0.19
  10   0  -4    1.44    0.20
  10   0  -3   12.52    0.69
  10   0  -3   11.36    0.74
 -10   0   3   10.25    0.46
  10   0  -2    3.76    0.32
 -10   0   2    3.46    0.23
  10   0  -1    4.95    0.36
 -10   0   1    4.47    0.39
 -10   0   1    3.84    0.22
  10   0   0    0.21    0.08
 -10   0   0    0.19    0.13
 -10   0   0   -0.07    0.06
  10   0   1    0.90    0.19
 -10   0  -1    1.13    0.12
 -10   0  -1    1.77    0.23
  10   0   2    0.71    0.15
 -10   0  -2    0.49    0.17
 -10   0  -2    0.38    0.08
  10   0   3    3.42    0.28
 -10   0  -3    3.42    0.32
 -10   0  -3    2.39    0.18
  10   0   4    0.03    0.14
 -10   0  -4    0.21    0.10
  10   0   5    1.24    0.18
 -10   0  -5    1.43    0.19
 -10   0  -5    0.72    0.11
  10   0   6    0.98    0.20
 -10   0  -6    1.07    0.20
 -10   0  -6    1.11    0.14
  10   0   7    6.05    0.51
 -10   0  -7    5.57    0.43
 -10   0  -7    4.88    0.35
  10   0   8    0.76    0.17
 -10   0  -8    0.34    0.13
 -10   0  -8    0.52    0.15
  10   0   9    0.82    0.19
 -10   0  -9    0.55    0.14
 -10   0  -9    0.11    0.11
  10   0  10    0.80    0.22
 -10   0 -10    0.59    0.14
 -10   0 -10    0.34    0.13
  10   0  11    0.27    0.15
 -10   0 -11   -0.05    0.09
 -10   0 -11    0.05    0.10
  10   0  12    1.12    0.25
 -10   0 -12    0.89    0.19
 -10   0 -12    1.31    0.20
  10   0  13    0.85    0.26
 -10   0 -13    0.50    0.14
 -10   0 -13    0.64    0.17
  10   0  14    1.03    0.27
 -10   0 -14    0.81    0.21
  10   0  15   -0.25    0.20
 -10   0 -15    0.03    0.14
  10   0  16    1.56    0.36
 -10   0 -16    0.94    0.23
  10   0  17    0.15    0.21
 -10   0 -17    0.01    0.16
  10   0  18    0.29    0.26
 -10   0 -18    0.15    0.20
  10   1 -18    0.56    0.24
 -10  -1  18    0.49    0.30
  10   1 -17    0.02    0.18
 -10  -1  17    0.22    0.20
  10   1 -16    0.33    0.17
 -10  -1  16    0.61    0.26
  10   1 -15    0.93    0.22
 -10  -1  15    1.07    0.30
  10   1 -14    0.01    0.14
 -10  -1  14    0.49    0.19
  10   1 -13    0.22    0.14
 -10  -1  13    0.11    0.17
  10   1 -12    0.07    0.14
 -10  -1  12    0.06    0.11
  10   1 -11    0.02    0.10
  10   1 -11   -0.01    0.06
 -10  -1  11    0.05    0.12
  10   1 -10    0.05    0.09
  10   1 -10    0.08    0.12
 -10  -1  10    0.36    0.13
  10   1  -9    0.45    0.10
  10   1  -9    0.46    0.14
 -10  -1   9    0.56    0.14
  10   1  -8    0.94    0.14
  10   1  -8    0.91    0.18
 -10  -1   8    0.97    0.16
  10   1  -7    1.39    0.17
  10   1  -7    0.97    0.18
 -10  -1   7    1.57    0.17
  10   1  -6    1.91    0.22
  10   1  -6    1.90    0.22
 -10  -1   6    1.86    0.18
  10   1  -5    0.66    0.14
  10   1  -5    0.91    0.18
 -10  -1   5    0.55    0.12
  10   1  -4    1.16    0.16
  10   1  -4    0.74    0.17
 -10  -1   4    0.91    0.12
  10   1  -3    9.92    0.54
  10   1  -3    9.70    0.56
 -10  -1   3    7.99    0.43
  10   1  -2    2.80    0.25
  10   1  -2    2.58    0.28
 -10  -1   2    2.50    0.19
  10   1  -1    0.51    0.12
  10   1  -1    0.26    0.12
 -10  -1   1    0.14    0.08
  10   1   0    5.79    0.41
 -10  -1   0    7.21    0.48
 -10  -1   0    5.04    0.29
  10   1   1    0.03    0.09
 -10  -1  -1    0.10    0.06
 -10  -1  -1    0.15    0.12
  10   1   2    0.01    0.10
 -10  -1  -2    0.19    0.13
 -10  -1  -2    0.17    0.06
  10   1   3    0.23    0.11
 -10  -1  -3   -0.03    0.09
 -10  -1  -3    0.03    0.06
  10   1   4    1.46    0.19
 -10  -1  -4    1.43    0.21
 -10  -1  -4    0.84    0.13
  10   1   5    3.82    0.33
 -10  -1  -5    3.72    0.34
 -10  -1  -5    3.17    0.27
  10   1   6    0.23    0.13
 -10  -1  -6    0.41    0.13
 -10  -1  -6    0.10    0.10
  10   1   7   -0.04    0.13
 -10  -1  -7   -0.06    0.11
 -10  -1  -7    0.23    0.09
  10   1   8    1.77    0.24
 -10  -1  -8    1.20    0.19
 -10  -1  -8    1.17    0.18
  10   1   9    1.72    0.30
 -10  -1  -9    1.58    0.20
 -10  -1  -9    1.42    0.21
  10   1  10    0.01    0.15
 -10  -1 -10   -0.17    0.09
 -10  -1 -10    0.12    0.10
  10   1  11    0.70    0.20
 -10  -1 -11    0.34    0.14
 -10  -1 -11    0.66    0.16
  10   1  12    1.32    0.23
 -10  -1 -12    0.48    0.15
 -10  -1 -12    0.99    0.19
  10   1  13    0.22    0.20
 -10  -1 -13    0.09    0.14
 -10  -1 -14    0.22    0.15
  10   1  15    9.51    0.85
 -10  -1 -15    7.45    0.79
  10   1  16    0.36    0.29
 -10  -1 -16    1.03    0.24
  10   1  17    0.11    0.20
 -10  -1 -17    0.23    0.19
  10   1  18    0.30    0.23
 -10  -1 -18    0.40    0.23
  10   2 -18    0.87    0.24
 -10  -2  18    1.22    0.37
  10   2 -17    2.42    0.45
 -10  -2  17    3.68    0.53
  10   2 -16    2.08    0.40
 -10  -2  16    2.53    0.45
  10   2 -15   12.90    1.01
 -10  -2  15   14.51    1.22
  10   2 -14    4.16    0.44
 -10  -2  14    4.66    0.50
  10   2 -13    0.11    0.13
 -10  -2  13    0.03    0.17
  10   2 -12    0.34    0.17
 -10  -2  12    0.09    0.18
  10   2 -11    0.09    0.15
 -10  -2  11    0.22    0.16
  10   2 -10    1.40    0.16
  10   2 -10    1.50    0.24
 -10  -2  10    2.21    0.25
  10   2  -9    0.89    0.13
  10   2  -9    1.15    0.19
 -10  -2   9    1.16    0.18
  10   2  -8    6.68    0.41
  10   2  -8    6.18    0.53
 -10  -2   8    6.72    0.48
  10   2  -7   10.94    0.58
  10   2  -7    7.68    0.64
 -10  -2   7    8.90    0.56
  10   2  -6    3.35    0.25
  10   2  -6    2.57    0.27
 -10  -2   6    2.68    0.25
  10   2  -5    1.25    0.16
  10   2  -5    1.24    0.19
 -10  -2   5    1.24    0.17
  10   2  -4    0.96    0.14
  10   2  -4    0.61    0.18
 -10  -2   4    0.56    0.12
  10   2  -3    2.62    0.23
  10   2  -3    2.52    0.31
 -10  -2   3    2.20    0.20
  10   2  -2    6.25    0.41
  10   2  -2    5.90    0.48
 -10  -2   2    5.60    0.35
  10   2  -1    4.67    0.35
  10   2  -1    4.38    0.41
 -10  -2   1    4.67    0.31
  10   2   0    0.33    0.11
  10   2   0    0.38    0.13
 -10  -2   0    0.44    0.10
  10   2   1    0.62    0.16
 -10  -2  -1    0.56    0.11
 -10  -2  -1    0.68    0.11
  10   2   2    0.39    0.12
 -10  -2  -2    0.08    0.08
 -10  -2  -2    0.06    0.13
  10   2   3    0.11    0.10
 -10  -2  -3    0.13    0.12
 -10  -2  -3    0.05    0.08
  10   2   4    0.56    0.15
 -10  -2  -4    0.70    0.13
 -10  -2  -4    0.42    0.12
  10   2   5    2.75    0.30
 -10  -2  -5    2.07    0.23
 -10  -2  -5    1.83    0.21
  10   2   6    0.11    0.11
 -10  -2  -6    0.02    0.10
 -10  -2  -6    0.02    0.09
  10   2   7    0.08    0.20
 -10  -2  -7    0.65    0.14
 -10  -2  -7    0.42    0.12
  10   2   8    1.09    0.22
 -10  -2  -8    1.34    0.19
 -10  -2  -8    1.34    0.20
  10   2   9    1.96    0.31
 -10  -2  -9    1.89    0.22
 -10  -2  -9    2.25    0.23
  10   2  10   -0.18    0.12
 -10  -2 -10   -0.06    0.09
 -10  -2 -10    0.01    0.12
  10   2  11   -0.00    0.17
 -10  -2 -11    0.08    0.12
  10   2  12    0.18    0.18
 -10  -2 -12    0.23    0.15
  10   2  13    0.72    0.23
 -10  -2 -13    0.20    0.14
  10   2  14    0.22    0.18
 -10  -2 -14    0.11    0.16
  10   2  15    0.18    0.22
 -10  -2 -15    0.39    0.20
  10   2  16    1.55    0.41
 -10  -2 -16    1.85    0.37
  10   2  17    2.33    0.39
 -10  -2 -17    1.04    0.30
  10   3 -18    0.72    0.30
 -10  -3  18    1.00    0.36
  10   3 -17    4.33    0.53
 -10  -3  17    4.98    0.71
  10   3 -16    3.91    0.48
 -10  -3  16    4.00    0.64
  10   3 -15    3.84    0.53
 -10  -3  15    4.13    0.61
  10   3 -14    0.58    0.23
 -10  -3  14    0.25    0.22
  10   3 -13    1.55    0.36
 -10  -3  13    2.58    0.42
  10   3 -12    0.65    0.19
 -10  -3  12    0.92    0.23
  10   3 -11    2.67    0.33
 -10  -3  11    3.09    0.38
  10   3 -10    7.55    0.69
 -10  -3  10    8.03    0.57
  10   3  -9    0.18    0.14
 -10  -3   9    0.30    0.14
  10   3  -8    2.58    0.20
  10   3  -8    2.43    0.29
 -10  -3   8    3.31    0.31
  10   3  -7   15.18    0.79
  10   3  -7   11.77    0.88
 -10  -3   7   12.70    0.73
  10   3  -6    0.58    0.11
  10   3  -6    0.51    0.15
 -10  -3   6    0.26    0.14
  10   3  -5    0.58    0.12
  10   3  -5    0.55    0.16
 -10  -3   5    0.72    0.14
  10   3  -4    9.27    0.52
  10   3  -4   10.00    0.67
 -10  -3   4    9.41    0.55
  10   3  -3    2.55    0.24
  10   3  -3    2.61    0.31
 -10  -3   3    2.41    0.24
  10   3  -2    8.48    0.51
  10   3  -2    8.44    0.53
 -10  -3   2    7.97    0.49
  10   3  -1    2.24    0.23
  10   3  -1    2.82    0.29
 -10  -3   1    2.27    0.23
  10   3   0    0.62    0.14
  10   3   0    0.75    0.15
 -10  -3   0    0.35    0.10
  10   3   1    0.54    0.16
  10   3   1    0.63    0.15
 -10  -3  -1    0.48    0.13
  10   3   2   -0.13    0.10
 -10  -3  -2   -0.01    0.06
 -10  -3  -2    0.06    0.08
  10   3   3    0.62    0.16
 -10  -3  -3    0.84    0.13
 -10  -3  -3    0.71    0.19
  10   3   4    1.26    0.19
 -10  -3  -4    1.23    0.20
 -10  -3  -4    0.86    0.17
  10   3   5    1.39    0.20
 -10  -3  -5    1.47    0.21
 -10  -3  -5    0.94    0.18
  10   3   6    0.25    0.16
 -10  -3  -6    0.49    0.14
 -10  -3  -6    0.66    0.14
  10   3   7    0.90    0.19
 -10  -3  -7    0.79    0.16
 -10  -3  -7    0.78    0.18
  10   3   8    0.29    0.22
 -10  -3  -8    0.50    0.16
  10   3   9    0.20    0.16
 -10  -3  -9    0.11    0.12
 -10  -3  -9   -0.01    0.09
  10   3  10    0.24    0.14
 -10  -3 -10   -0.01    0.10
  10   3  11    0.03    0.15
 -10  -3 -11   -0.17    0.13
  10   3  12    0.18    0.19
 -10  -3 -12    0.10    0.12
  10   3  13    0.77    0.21
 -10  -3 -13    0.10    0.16
  10   3  14    1.02    0.28
 -10  -3 -14    0.94    0.27
  10   3  15   -0.21    0.16
 -10  -3 -15    0.14    0.16
  10   3  16    0.43    0.24
 -10  -3 -16    0.27    0.22
  10   3  17    0.34    0.21
 -10  -3 -17    0.10    0.17
  10   4 -17    1.41    0.31
 -10  -4  17    1.81    0.44
  10   4 -16    0.80    0.30
 -10  -4  16    1.11    0.37
  10   4 -15   -0.19    0.20
 -10  -4  15   -0.17    0.24
  10   4 -14    4.58    0.50
 -10  -4  14    5.84    0.56
  10   4 -13    0.53    0.18
 -10  -4  13    0.20    0.23
  10   4 -12    0.91    0.26
 -10  -4  12    1.23    0.27
  10   4 -11    0.24    0.20
 -10  -4  11    0.57    0.20
  10   4 -10    0.82    0.21
 -10  -4  10    1.35    0.21
  10   4  -9    3.31    0.40
 -10  -4   9    3.97    0.40
  10   4  -8    3.11    0.41
 -10  -4   8    4.50    0.38
  10   4  -7    0.63    0.12
  10   4  -7    0.91    0.17
 -10  -4   7    0.77    0.18
  10   4  -6    0.25    0.09
  10   4  -6    0.17    0.13
 -10  -4   6    0.43    0.13
  10   4  -5    0.22    0.17
 -10  -4   5    0.43    0.14
  10   4  -4    3.82    0.29
  10   4  -4    3.80    0.35
 -10  -4   4    4.08    0.34
  10   4  -3   11.97    0.67
  10   4  -3   12.72    0.88
 -10  -4   3   11.89    0.75
  10   4  -2    2.06    0.20
  10   4  -2    1.31    0.27
 -10  -4   2    1.78    0.23
  10   4  -1    3.46    0.32
  10   4  -1    4.09    0.37
 -10  -4   1    3.51    0.33
  10   4   0    6.17    0.45
  10   4   0    5.99    0.46
 -10  -4   0    6.04    0.44
  10   4   1    5.58    0.44
  10   4   1    5.44    0.44
 -10  -4  -1    4.96    0.41
  10   4   2    7.05    0.51
  10   4   2    6.52    0.47
 -10  -4  -2    6.05    0.46
  10   4   3    0.67    0.16
 -10  -4  -3    0.31    0.13
 -10  -4  -3    0.41    0.14
  10   4   4    0.50    0.21
 -10  -4  -4    0.64    0.17
 -10  -4  -4    0.86    0.15
  10   4   5    2.42    0.31
 -10  -4  -5    1.97    0.26
 -10  -4  -5    2.10    0.21
  10   4   6    0.59    0.18
 -10  -4  -6    0.63    0.15
 -10  -4  -6    0.54    0.16
  10   4   7    0.33    0.19
 -10  -4  -7    0.16    0.12
 -10  -4  -7    0.37    0.14
  10   4   8    0.90    0.29
 -10  -4  -8    1.12    0.17
 -10  -4  -8    1.23    0.23
  10   4   9    0.25    0.24
 -10  -4  -9    0.79    0.19
  10   4  10    0.17    0.18
 -10  -4 -10   -0.17    0.13
  10   4  11    0.05    0.16
 -10  -4 -11    0.18    0.15
  10   4  12    0.21    0.20
 -10  -4 -12    0.02    0.15
  10   4  13    0.02    0.20
 -10  -4 -13    0.10    0.16
  10   4  14    0.05    0.19
 -10  -4 -14    0.15    0.15
  10   4  15    0.53    0.23
 -10  -4 -15    0.31    0.24
  10   4  16    0.16    0.17
 -10  -4 -16   -0.09    0.18
  10   5 -17    0.97    0.30
 -10  -5  17    1.23    0.41
  10   5 -16    4.39    0.73
 -10  -5  16    5.86    0.72
  10   5 -15    0.24    0.23
 -10  -5  15    0.19    0.23
  10   5 -14    1.74    0.32
 -10  -5  14    2.24    0.36
  10   5 -13    0.26    0.15
 -10  -5  13   -0.08    0.18
  10   5 -12    0.96    0.29
 -10  -5  12    0.87    0.29
  10   5 -11    1.17    0.29
 -10  -5  11    0.95    0.27
  10   5 -10   -0.03    0.11
 -10  -5  10    0.13    0.14
  10   5  -9    0.69    0.19
 -10  -5   9    0.31    0.19
  10   5  -8   -0.06    0.11
 -10  -5   8   -0.05    0.10
  10   5  -7    0.53    0.15
 -10  -5   7    0.37    0.17
  10   5  -6    0.53    0.15
 -10  -5   6    0.55    0.14
  10   5  -5    1.22    0.14
  10   5  -5    0.96    0.20
 -10  -5   5    1.39    0.21
  10   5  -4    0.39    0.11
  10   5  -4    0.21    0.18
 -10  -5   4    0.64    0.15
  10   5  -3    2.06    0.22
  10   5  -3    2.33    0.27
 -10  -5   3    2.52    0.28
  10   5  -2    7.43    0.51
  10   5  -2    7.79    0.54
 -10  -5   2    7.77    0.51
  10   5  -1    4.13    0.35
  10   5  -1    3.48    0.35
 -10  -5   1    3.92    0.33
  10   5   0    0.32    0.12
  10   5   0   -0.23    0.11
 -10  -5   0    0.12    0.09
  10   5   1    0.63    0.16
  10   5   1    1.07    0.21
 -10  -5  -1    1.03    0.16
  10   5   2    0.98    0.19
  10   5   2    1.12    0.21
 -10  -5  -2    0.78    0.19
  10   5   3    0.38    0.15
  10   5   3    0.58    0.15
 -10  -5  -3    0.70    0.15
  10   5   4    2.08    0.27
 -10  -5  -4    1.93    0.27
 -10  -5  -4    2.17    0.25
  10   5   5    0.21    0.10
 -10  -5  -5    0.02    0.09
 -10  -5  -5   -0.23    0.10
  10   5   6    0.15    0.15
 -10  -5  -6   -0.20    0.10
 -10  -5  -6    0.26    0.09
  10   5   7    2.78    0.42
 -10  -5  -7    2.69    0.34
 -10  -5  -7    2.62    0.28
  10   5   8    1.14    0.30
 -10  -5  -8    1.14    0.21
  10   5   9    0.23    0.19
 -10  -5  -9    0.07    0.12
  10   5  10    0.13    0.16
 -10  -5 -10    0.02    0.15
  10   5  11    0.95    0.31
 -10  -5 -11    0.72    0.24
  10   5  12    0.17    0.16
 -10  -5 -12   -0.02    0.16
  10   5  13    0.07    0.17
 -10  -5 -13    0.05    0.14
  10   5  14    0.83    0.32
 -10  -5 -14    0.46    0.27
  10   5  15    0.43    0.33
 -10  -5 -15    0.72    0.27
  10   6 -16   -0.00    0.15
 -10  -6  16   -0.09    0.21
  10   6 -15    2.95    0.53
 -10  -6  15    3.26    0.56
  10   6 -14    0.09    0.21
 -10  -6  14    0.13    0.17
  10   6 -13    0.87    0.30
 -10  -6  13    1.04    0.33
  10   6 -12    2.99    0.51
 -10  -6  12    3.76    0.54
  10   6 -11    1.42    0.28
 -10  -6  11    1.25    0.30
  10   6 -10    0.65    0.21
 -10  -6  10    0.75    0.25
  10   6  -9    3.20    0.44
 -10  -6   9    3.03    0.43
  10   6  -8    0.92    0.23
 -10  -6   8    1.33    0.26
  10   6  -7   -0.10    0.11
 -10  -6   7    0.09    0.10
  10   6  -6    5.62    0.49
 -10  -6   6    5.55    0.44
  10   6  -5   -0.07    0.12
 -10  -6   5    0.28    0.11
  10   6  -4    3.43    0.29
  10   6  -4    3.47    0.41
 -10  -6   4    3.93    0.40
  10   6  -3    0.34    0.10
  10   6  -3    0.08    0.12
 -10  -6   3    0.13    0.14
  10   6  -2    0.42    0.18
  10   6  -2    0.50    0.14
 -10  -6   2    0.63    0.15
  10   6  -1    0.76    0.19
  10   6  -1    0.57    0.16
 -10  -6   1    0.63    0.19
  10   6   0   16.18    1.00
  10   6   0   14.83    1.03
 -10  -6   0   16.63    1.07
  10   6   1    1.51    0.24
  10   6   1    1.34    0.25
 -10  -6  -1    1.52    0.20
  10   6   2    0.55    0.15
  10   6   2    0.35    0.18
 -10  -6  -2    0.60    0.17
  10   6   3    0.33    0.13
  10   6   3    0.26    0.13
 -10  -6  -3    0.20    0.15
  10   6   4   -0.09    0.09
  10   6   4    0.10    0.10
 -10  -6  -4   -0.00    0.08
  10   6   5   -0.12    0.13
 -10  -6  -5    0.05    0.09
 -10  -6  -5    0.00    0.11
  10   6   6    1.04    0.22
 -10  -6  -6    1.02    0.22
 -10  -6  -6    0.87    0.17
  10   6   7    0.12    0.18
  10   6   8    0.15    0.18
 -10  -6  -8    0.54    0.19
  10   6   9    0.58    0.22
 -10  -6  -9    0.51    0.21
  10   6  10    1.11    0.37
 -10  -6 -10    1.59    0.31
  10   6  11    0.83    0.23
 -10  -6 -11    0.19    0.24
  10   6  12   -0.06    0.19
 -10  -6 -12    0.03    0.15
  10   6  13   -0.09    0.20
 -10  -6 -13    0.07    0.16
  10   6  14    0.13    0.24
 -10  -6 -14    0.10    0.17
  10   7 -15    0.19    0.25
 -10  -7  15    0.21    0.25
  10   7 -14    0.18    0.23
 -10  -7  14    0.84    0.23
  10   7 -13    1.65    0.33
 -10  -7  13    2.99    0.45
  10   7 -12    2.45    0.37
 -10  -7  12    2.61    0.40
  10   7 -11    2.26    0.43
  10   7 -10    0.52    0.27
 -10  -7  10    1.17    0.23
  10   7  -9    0.37    0.19
 -10  -7   9    0.54    0.21
  10   7  -8    0.12    0.18
 -10  -7   8    0.18    0.16
  10   7  -7    0.30    0.18
 -10  -7   7    0.00    0.15
  10   7  -6    2.08    0.35
 -10  -7   6    1.78    0.25
  10   7  -5    5.52    0.55
 -10  -7   5    5.39    0.47
  10   7  -4    2.99    0.41
 -10  -7   4    3.57    0.35
  10   7  -3    1.16    0.18
  10   7  -3    1.35    0.21
 -10  -7   3    1.20    0.22
  10   7  -2    0.60    0.15
  10   7  -2    0.38    0.14
 -10  -7   2    0.35    0.15
  10   7  -1    0.27    0.17
  10   7  -1    0.49    0.15
 -10  -7   1    0.66    0.19
  10   7   0    7.00    0.52
  10   7   0    5.97    0.54
 -10  -7   0    7.13    0.54
  10   7   1    2.11    0.31
  10   7   1    2.13    0.31
 -10  -7  -1    2.12    0.32
  10   7   2    7.86    0.60
  10   7   2    7.67    0.66
 -10  -7  -2    7.98    0.70
  10   7   3    0.59    0.15
  10   7   3   -0.03    0.15
 -10  -7  -3    0.46    0.15
  10   7   4    0.04    0.11
  10   7   4    0.13    0.16
 -10  -7  -4    0.19    0.14
  10   7   5    1.63    0.36
 -10  -7  -5    1.93    0.23
 -10  -7  -5    2.60    0.29
  10   7   6    0.33    0.16
 -10  -7  -6   -0.11    0.11
  10   7   7    5.34    0.67
 -10  -7  -7    5.53    0.59
  10   7   8    1.28    0.33
 -10  -7  -8    1.08    0.28
  10   7   9    0.48    0.30
 -10  -7  -9    0.93    0.25
  10   7  10    0.41    0.21
 -10  -7 -10    0.23    0.22
  10   7  11   -0.34    0.28
  10   7  12   -0.15    0.19
 -10  -7 -12    0.06    0.13
  10   7  13    0.16    0.22
 -10  -7 -13    0.01    0.16
  10   8 -14    0.22    0.20
 -10  -8  14    0.48    0.27
  10   8 -13    0.17    0.16
 -10  -8  13    0.04    0.18
  10   8 -12    0.11    0.16
 -10  -8  12    0.19    0.18
  10   8 -11    0.26    0.20
 -10  -8  11    0.42    0.24
  10   8 -10    0.96    0.31
 -10  -8  10    0.70    0.28
  10   8  -9    0.65    0.22
 -10  -8   9    0.79    0.21
  10   8  -8    1.33    0.33
 -10  -8   8    1.33    0.27
  10   8  -7    3.24    0.40
 -10  -8   7    3.16    0.44
  10   8  -6    0.81    0.23
  10   8  -5    0.04    0.14
 -10  -8   5    0.29    0.16
  10   8  -4    0.62    0.19
 -10  -8   4    0.82    0.22
  10   8  -3   -0.01    0.15
 -10  -8   3    0.31    0.16
  10   8  -2    1.87    0.28
  10   8  -2    0.97    0.20
 -10  -8   2    1.55    0.29
  10   8  -1    0.02    0.14
  10   8  -1    0.20    0.12
 -10  -8   1    0.08    0.15
  10   8   0    1.64    0.28
  10   8   0    1.20    0.25
 -10  -8   0    1.71    0.29
  10   8   1    3.67    0.38
  10   8   1    2.90    0.40
 -10  -8  -1    3.93    0.39
  10   8   2    1.97    0.29
  10   8   2    2.06    0.34
 -10  -8  -2    2.42    0.31
  10   8   3    4.43    0.42
  10   8   3    4.71    0.56
 -10  -8  -3    5.54    0.53
  10   8   4    0.32    0.12
  10   8   4    0.21    0.15
 -10  -8  -4    0.17    0.18
  10   8   5    3.04    0.49
 -10  -8  -5    4.03    0.51
  10   8   6    0.39    0.20
 -10  -8  -6    0.10    0.20
  10   8   7   -0.03    0.13
 -10  -8  -7    0.10    0.15
  10   8   8    4.75    0.72
 -10  -8  -8    6.43    0.68
  10   8   9    1.23    0.36
 -10  -8  -9    1.26    0.35
  10   8  10    0.82    0.24
 -10  -8 -10    0.25    0.26
  10   8  11   -0.03    0.20
 -10  -8 -11    0.52    0.22
 -10  -8 -12    1.15    0.29
  10   9 -12    1.76    0.35
 -10  -9  12    2.10    0.45
  10   9 -11    0.32    0.20
 -10  -9  11    0.44    0.27
  10   9 -10   -0.03    0.20
 -10  -9  10   -0.17    0.16
  10   9  -9    0.04    0.13
 -10  -9   9   -0.06    0.13
  10   9  -8    0.97    0.33
 -10  -9   8    1.59    0.32
  10   9  -7    0.02    0.19
 -10  -9   7    0.66    0.21
  10   9  -6   -0.08    0.13
 -10  -9   6    0.03    0.12
  10   9  -5    0.79    0.21
 -10  -9   5    0.66    0.26
  10   9  -4    0.76    0.21
 -10  -9   4    0.76    0.21
  10   9  -3    0.22    0.16
 -10  -9   3    0.09    0.14
  10   9  -2    0.80    0.19
 -10  -9   2    0.92    0.25
  10   9  -1   -0.03    0.10
 -10  -9   1    0.13    0.15
  10   9   0    0.14    0.17
  10   9   0    0.16    0.14
 -10  -9   0    0.54    0.18
  10   9   1    1.32    0.24
  10   9   1    0.67    0.23
 -10  -9  -1    1.51    0.28
  10   9   2    0.68    0.17
  10   9   2    0.03    0.19
 -10  -9  -2    0.40    0.21
  10   9   3   -0.10    0.14
 -10  -9  -3    0.17    0.15
  10   9   4    1.64    0.28
 -10  -9  -4    1.69    0.34
  10   9   5    0.51    0.24
 -10  -9  -5    0.59    0.25
  10   9   6    1.98    0.44
 -10  -9  -6    2.48    0.45
  10   9   7    2.34    0.47
 -10  -9  -7    2.22    0.45
  10   9   8    0.48    0.28
 -10  -9  -8    0.42    0.25
  10   9   9   -0.10    0.15
 -10  -9  -9    0.01    0.15
  10   9  10    0.44    0.32
 -10  -9 -10    0.74    0.25
  10  10 -10   -0.06    0.21
 -10 -10  10   -0.25    0.22
  10  10  -9    1.29    0.28
 -10 -10   9    0.37    0.31
  10  10  -8   -0.00    0.21
 -10 -10   8    0.21    0.19
  10  10  -7   -0.09    0.20
  10  10  -6    0.32    0.18
 -10 -10   6    0.14    0.17
  10  10  -5    2.49    0.38
 -10 -10   5    3.21    0.46
  10  10  -4   -0.01    0.15
 -10 -10   4    0.21    0.15
  10  10  -3    0.09    0.20
 -10 -10   3    0.36    0.20
  10  10  -2    0.21    0.16
 -10 -10   2   -0.02    0.14
  10  10  -1    0.26    0.14
 -10 -10   1    0.16    0.16
  10  10   0    0.58    0.21
 -10 -10   0    0.83    0.26
  10  10   1    1.66    0.30
 -10 -10  -1    1.77    0.36
  10  10   2    0.59    0.20
 -10 -10  -2    0.11    0.24
  10  10   3    0.54    0.20
 -10 -10  -3    0.05    0.18
  10  10   4   -0.05    0.21
 -10 -10  -4    0.72    0.20
  10  10   5   -0.01    0.20
 -10 -10  -5    0.25    0.16
  10  10   6    0.28    0.23
 -10 -10  -6    0.21    0.23
  10  10   7    0.82    0.31
 -10 -10  -7    0.64    0.31
 -10 -10  -8    0.10    0.17
 -10 -11   8    0.36    0.25
  10  11  -7    0.42    0.27
 -10 -11   7    0.82    0.24
  10  11  -6    0.08    0.18
 -10 -11   6   -0.11    0.14
  10  11  -5    3.67    0.57
  10  11  -4    0.71    0.30
  10  11  -3    0.15    0.17
 -10 -11   3    0.19    0.17
  10  11  -2    0.15    0.16
 -10 -11   2   -0.03    0.20
  10  11  -1    0.38    0.23
 -10 -11   1    0.74    0.22
 -10 -11   0    1.65    0.38
 -10 -11  -1    1.13    0.32
 -10 -11  -2    0.11    0.17
 -10 -11  -3    0.33    0.19
 -10 -11  -4    0.59    0.28
 -10 -11  -5    0.09    0.22
  11 -14  -2    0.17    0.23
 -11  14   2    0.32    0.25
  11 -14  -1    2.06    0.40
 -11  14   1    1.79    0.47
  11 -14   0    1.43    0.32
 -11  14   0    0.86    0.37
  11 -14   1    8.00    0.61
 -11  14  -1    1.17    0.62
  11 -14   2    6.33    0.56
 -11  14  -2    1.13    0.60
  11 -14   3    0.44    0.27
 -11  14  -3    0.27    0.22
  11 -14   4    0.31    0.17
 -11  14  -4   -0.01    0.18
  11 -14   5    0.45    0.25
 -11  14  -5    0.20    0.28
  11 -13  -6   -0.38    0.21
 -11  13   6    0.03    0.20
  11 -13  -5    2.20    0.38
 -11  13   5    1.03    0.32
  11 -13  -4    0.45    0.21
 -11  13   4    0.07    0.19
  11 -13  -3    0.29    0.22
 -11  13   3    0.18    0.23
  11 -13  -2   -0.11    0.19
 -11  13   2   -0.01    0.20
  11 -13  -1    0.20    0.20
 -11  13   1    0.03    0.17
  11 -13   0    1.42    0.32
 -11  13   0    0.80    0.30
  11 -13   1    2.28    0.39
 -11  13  -1    1.17    0.33
  11 -13   2   -0.03    0.14
 -11  13  -2    0.15    0.19
  11 -13   3    0.17    0.15
 -11  13  -3   -0.06    0.16
  11 -13   4    0.07    0.20
 -11  13  -4    0.12    0.17
  11 -13   5    1.69    0.35
 -11  13  -5    1.69    0.44
  11 -13   6    0.14    0.18
 -11  13  -6   -0.13    0.15
  11 -13   7    1.14    0.26
 -11  13  -7    0.30    0.30
  11 -13   8    1.71    0.38
 -11  13  -8    1.07    0.42
  11 -13   9    0.49    0.22
 -11  13  -9    0.29    0.23
  11 -12  -9   -0.00    0.15
 -11  12   9    0.26    0.20
  11 -12  -8   -0.22    0.18
 -11  12   8    0.05    0.15
  11 -12  -7    2.12    0.38
 -11  12   7    1.03    0.39
  11 -12  -6    0.13    0.17
 -11  12   6    0.24    0.17
  11 -12  -5    1.01    0.22
 -11  12   5    0.40    0.23
  11 -12  -4    0.04    0.18
 -11  12   4    0.09    0.14
  11 -12  -3    0.08    0.18
 -11  12   3    0.14    0.16
  11 -12  -2    0.17    0.19
 -11  12   2    0.02    0.15
  11 -12  -1   -0.07    0.16
 -11  12   1    0.04    0.13
  11 -12   0    0.18    0.19
 -11  12   0    0.12    0.20
  11 -12   1    0.26    0.22
 -11  12  -1    0.46    0.24
  11 -12   2    0.15    0.17
 -11  12  -2   -0.01    0.15
  11 -12   3   -0.11    0.20
 -11  12  -3    0.47    0.21
  11 -12   4    0.58    0.19
 -11  12  -4   -0.02    0.20
  11 -12   5    0.99    0.27
 -11  12  -5    1.44    0.35
  11 -12   6   -0.23    0.19
 -11  12  -6    0.12    0.20
  11 -12   7    0.25    0.18
 -11  12  -7    0.15    0.19
  11 -12   8    0.36    0.25
 -11  12  -8    0.36    0.22
  11 -12   9    0.05    0.16
 -11  12  -9   -0.04    0.18
  11 -12  10    0.39    0.24
 -11  12 -10   -0.14    0.23
  11 -12  11    0.11    0.24
 -11  12 -11    0.08    0.24
  11 -11 -11    0.62    0.24
 -11  11  11    0.27    0.21
  11 -11 -10    0.29    0.18
 -11  11  10    0.21    0.23
  11 -11  -9    0.38    0.19
 -11  11   9   -0.08    0.22
  11 -11  -8   -0.09    0.14
 -11  11   8    0.10    0.17
  11 -11  -7    2.09    0.33
 -11  11   7    2.00    0.36
  11 -11  -6    0.23    0.19
 -11  11   6    0.18    0.17
  11 -11  -5    0.74    0.19
 -11  11   5    0.33    0.21
  11 -11  -4    0.23    0.17
 -11  11   4    0.18    0.20
  11 -11  -3    0.91    0.23
 -11  11   3    0.03    0.20
  11 -11  -2    0.14    0.21
 -11  11   2    0.23    0.16
  11 -11  -1    0.36    0.17
 -11  11   1    0.19    0.21
  11 -11   0    0.67    0.20
 -11  11   0    0.62    0.25
  11 -11   1    1.09    0.25
 -11  11  -1    0.79    0.24
  11 -11   2    0.34    0.19
 -11  11  -2    0.35    0.22
  11 -11   3    6.56    0.60
 -11  11  -3    4.58    0.58
  11 -11   4    0.52    0.24
 -11  11  -4    0.83    0.23
  11 -11   5    0.06    0.26
 -11  11  -5    1.00    0.27
  11 -11   6    1.07    0.36
 -11  11  -6    0.89    0.31
  11 -11   7    1.23    0.28
 -11  11  -7    0.25    0.27
  11 -11   8    0.08    0.19
 -11  11  -8   -0.03    0.14
  11 -11   9    0.10    0.18
 -11  11  -9   -0.02    0.16
  11 -11  10    0.12    0.22
 -11  11 -10    0.14    0.17
  11 -11  11   -0.14    0.20
 -11  11 -11   -0.06    0.17
  11 -11  12    0.38    0.27
 -11  11 -12    0.51    0.29
  11 -10 -12   -0.04    0.16
 -11  10  12    0.11    0.18
  11 -10 -11    0.31    0.19
 -11  10  11    0.00    0.21
  11 -10 -10    1.21    0.24
 -11  10  10    0.92    0.32
  11 -10  -9    2.06    0.39
 -11  10   9    1.94    0.41
  11 -10  -8    0.18    0.14
 -11  10   8    0.06    0.16
  11 -10  -7   -0.08    0.15
 -11  10   7    0.04    0.18
  11 -10  -6    1.24    0.23
 -11  10   6    1.22    0.34
  11 -10  -5    0.50    0.23
 -11  10   5    0.37    0.25
  11 -10  -4    1.10    0.23
 -11  10   4    0.80    0.34
  11 -10  -3   -0.13    0.12
 -11  10   3    0.08    0.15
  11 -10  -2    0.05    0.18
 -11  10   2    0.28    0.16
  11 -10  -1    1.40    0.25
 -11  10   1    0.94    0.33
  11 -10   0    1.23    0.23
 -11  10   0    0.74    0.25
  11 -10   1    0.00    0.18
 -11  10  -1    0.18    0.17
  11 -10   2    0.87    0.26
 -11  10  -2    0.67    0.20
  11 -10   3    0.80    0.27
 -11  10  -3    0.94    0.23
  11 -10   4   -0.02    0.21
 -11  10  -4    0.08    0.14
  11 -10   5    4.67    0.67
 -11  10  -5    3.55    0.54
  11 -10   6    3.31    0.47
 -11  10  -6    2.38    0.51
  11 -10   7    2.62    0.37
 -11  10  -7    2.12    0.45
  11 -10   8    1.14    0.31
 -11  10  -8    0.96    0.33
  11 -10   9    1.03    0.26
 -11  10  -9    0.77    0.33
  11 -10  10    0.14    0.17
 -11  10 -10   -0.09    0.15
  11 -10  11    2.38    0.44
 -11  10 -11    1.41    0.37
  11 -10  12    0.67    0.27
 -11  10 -12    0.24    0.23
  11 -10  13    0.12    0.22
 -11  10 -13    0.08    0.23
  11 -10  14    0.49    0.25
 -11  10 -14    0.06    0.22
  11  -9 -13    0.12    0.17
 -11   9  13   -0.05    0.19
  11  -9 -12   -0.07    0.15
 -11   9  12    0.09    0.14
  11  -9 -11    0.62    0.19
 -11   9  11    0.23    0.25
  11  -9 -10   -0.08    0.15
 -11   9  10    0.13    0.14
  11  -9  -9   -0.01    0.17
 -11   9   9    0.37    0.20
  11  -9  -8   -0.14    0.12
 -11   9   8    0.10    0.17
  11  -9  -7    0.06    0.14
 -11   9   7    0.06    0.14
  11  -9  -6   -0.23    0.15
 -11   9   6    0.10    0.14
  11  -9  -5    0.16    0.14
 -11   9   5    0.25    0.20
  11  -9  -4   -0.06    0.13
 -11   9   4    0.06    0.16
  11  -9  -3    1.08    0.22
 -11   9   3    1.18    0.28
  11  -9  -2   -0.14    0.17
 -11   9   2   -0.06    0.15
  11  -9  -1    2.08    0.31
 -11   9   1    2.44    0.42
  11  -9   0    1.34    0.31
 -11   9   0    1.52    0.32
  11  -9   1    3.45    0.37
 -11   9  -1    2.86    0.38
  11  -9   2    0.92    0.25
 -11   9  -2    0.44    0.26
  11  -9   3    0.20    0.19
 -11   9  -3   -0.02    0.16
  11  -9   4   -0.02    0.22
 -11   9  -4   -0.36    0.19
  11  -9   5   -0.32    0.18
 -11   9  -5    0.01    0.18
  11  -9   6    0.88    0.22
 -11   9  -6    0.55    0.28
  11  -9   7    2.87    0.37
 -11   9  -7    2.50    0.49
  11  -9   8    2.28    0.40
 -11   9  -8    1.71    0.36
  11  -9   9   -0.09    0.15
 -11   9  -9    0.01    0.15
  11  -9  10    0.27    0.23
 -11   9 -10    0.28    0.22
  11  -9  11    0.16    0.19
 -11   9 -11    0.00    0.15
  11  -9  12    0.28    0.23
 -11   9 -12    0.21    0.19
  11  -9  13    2.40    0.48
 -11   9 -13    1.80    0.41
  11  -9  14    1.44    0.36
 -11   9 -14    1.14    0.33
  11  -9  15   -0.04    0.21
 -11   9 -15   -0.26    0.22
  11  -8 -14    1.49    0.28
 -11   8  14    1.51    0.39
  11  -8 -13    0.89    0.22
 -11   8  13    0.64    0.25
  11  -8 -12    3.44    0.45
 -11   8  12    3.70    0.54
  11  -8 -11    0.28    0.17
 -11   8  11    0.07    0.21
  11  -8 -10    0.46    0.21
 -11   8  10    0.42    0.26
  11  -8  -9    0.74    0.22
 -11   8   9    0.47    0.20
  11  -8  -8    1.25    0.25
 -11   8   8    1.76    0.30
  11  -8  -7    0.18    0.14
 -11   8   7    0.05    0.19
  11  -8  -6    0.83    0.20
 -11   8   6    0.98    0.25
  11  -8  -5    2.72    0.36
 -11   8   5    3.12    0.39
  11  -8  -4    0.84    0.25
 -11   8   4    1.10    0.28
  11  -8  -3    0.84    0.19
 -11   8   3    0.28    0.24
  11  -8  -2    1.50    0.24
 -11   8   2    1.46    0.27
  11  -8  -1    1.22    0.26
 -11   8   1    0.86    0.24
  11  -8   0    6.10    0.55
 -11   8   0    5.78    0.68
  11  -8   1   -0.15    0.19
 -11   8  -1    0.23    0.17
  11  -8   2    2.78    0.40
 -11   8  -2    2.47    0.34
  11  -8   3    0.08    0.13
 -11   8  -3    0.01    0.13
  11  -8   4    0.14    0.14
 -11   8  -4    0.07    0.14
  11  -8   5    1.13    0.26
 -11   8  -5    1.22    0.28
  11  -8   6    0.65    0.21
 -11   8  -6    0.55    0.24
  11  -8   7    0.04    0.13
 -11   8  -7   -0.01    0.12
  11  -8   8   -0.15    0.16
 -11   8  -8    0.12    0.15
  11  -8   9    1.81    0.34
 -11   8  -9    2.17    0.40
  11  -8  10    0.46    0.18
 -11   8 -10   -0.16    0.16
  11  -8  11    0.48    0.24
 -11   8 -11    0.33    0.23
  11  -8  12    0.08    0.13
 -11   8 -12   -0.02    0.14
  11  -8  13    0.11    0.16
 -11   8 -13    0.11    0.15
  11  -8  14   -0.01    0.18
 -11   8 -14    0.14    0.17
  11  -8  15    0.30    0.23
 -11   8 -15    0.17    0.19
  11  -7 -15    0.50    0.22
 -11   7  15    0.45    0.22
  11  -7 -14    0.77    0.20
 -11   7  14    0.75    0.24
  11  -7 -13    3.54    0.38
 -11   7  13    3.96    0.57
  11  -7 -12    1.47    0.26
 -11   7  12    2.08    0.40
  11  -7 -11    0.60    0.20
 -11   7  11    0.87    0.24
  11  -7 -10    1.04    0.22
 -11   7  10    1.47    0.32
  11  -7  -9    0.69    0.20
 -11   7   9    0.42    0.25
  11  -7  -8    0.28    0.16
 -11   7   8    0.14    0.19
  11  -7  -7   -0.11    0.14
 -11   7   7    0.03    0.16
  11  -7  -6    0.79    0.21
 -11   7   6    0.48    0.27
  11  -7  -5    0.30    0.13
 -11   7   5    0.26    0.21
  11  -7  -4    9.85    0.73
 -11   7   4   10.03    0.86
  11  -7  -3    4.86    0.43
 -11   7   3    4.03    0.58
  11  -7  -2    0.57    0.18
 -11   7   2    0.73    0.20
  11  -7  -1    0.80    0.22
 -11   7   1    0.77    0.22
  11  -7   0    7.45    0.77
 -11   7   0    7.32    0.69
  11  -7   1    0.44    0.20
 -11   7  -1    0.19    0.20
  11  -7   2    2.11    0.28
 -11   7  -2    1.62    0.37
  11  -7   3    0.28    0.18
 -11   7  -3    0.14    0.16
  11  -7   4    7.21    0.66
 -11   7  -4    7.16    0.64
  11  -7   5    1.89    0.28
 -11   7  -5    1.29    0.28
  11  -7   6    0.49    0.18
 -11   7  -6    0.48    0.21
  11  -7   7    1.13    0.24
 -11   7  -7    1.10    0.23
  11  -7   8    1.09    0.32
 -11   7  -8    1.51    0.30
  11  -7   9    0.04    0.13
 -11   7  -9   -0.12    0.13
  11  -7  10    0.30    0.18
 -11   7 -10   -0.07    0.14
  11  -7  11   -0.05    0.19
 -11   7 -11    0.30    0.19
  11  -7  12    0.46    0.19
 -11   7 -12    0.27    0.22
  11  -7  13    0.40    0.18
 -11   7 -13    0.19    0.19
  11  -7  14    0.54    0.22
 -11   7 -14    0.04    0.16
  11  -7  15    0.42    0.21
 -11   7 -15   -0.10    0.19
  11  -7  16   -0.07    0.18
 -11   7 -16    0.58    0.22
  11  -6 -16    0.27    0.20
 -11   6  16    0.46    0.25
  11  -6 -15    0.20    0.16
 -11   6  15    0.61    0.24
  11  -6 -14    0.10    0.14
 -11   6  14    0.45    0.22
  11  -6 -13    0.11    0.14
  11  -6 -12   -0.05    0.13
 -11   6  12    0.01    0.14
  11  -6 -11    4.02    0.44
 -11   6  11    4.48    0.56
  11  -6 -10    0.46    0.17
 -11   6  10    0.89    0.21
  11  -6  -9    0.71    0.16
 -11   6   9    0.33    0.20
  11  -6  -8    0.19    0.17
 -11   6   8    0.40    0.18
  11  -6  -7   -0.02    0.15
 -11   6   7    0.22    0.14
  11  -6  -6   -0.16    0.14
 -11   6   6   -0.09    0.14
  11  -6  -5    3.69    0.35
 -11   6   5    3.58    0.48
  11  -6  -4    0.43    0.16
 -11   6   4    0.76    0.20
  11  -6  -3    0.89    0.19
 -11   6   3    0.86    0.29
  11  -6  -2   29.69    1.84
 -11   6   2   24.15    1.66
  11  -6  -1    0.01    0.15
 -11   6   1    0.20    0.14
  11  -6   0    6.48    0.61
 -11   6   0    6.07    0.55
  11  -6   1    0.34    0.17
 -11   6  -1    0.03    0.14
  11  -6   2    0.48    0.16
 -11   6  -2    0.15    0.16
  11  -6   3    0.80    0.24
 -11   6  -3    0.56    0.26
  11  -6   4    2.36    0.38
 -11   6  -4    2.30    0.41
  11  -6   5    0.21    0.17
 -11   6  -5    0.55    0.17
  11  -6   6    0.53    0.17
 -11   6  -6    0.16    0.21
  11  -6   7    2.02    0.36
 -11   6  -7    1.94    0.29
  11  -6   8   -0.24    0.18
 -11   6  -8   -0.08    0.13
  11  -6   9    0.23    0.15
 -11   6  -9    0.22    0.19
  11  -6  10    0.36    0.16
 -11   6 -10    0.04    0.19
  11  -6  11    2.04    0.33
 -11   6 -11    0.94    0.30
  11  -6  12    0.43    0.17
 -11   6 -12   -0.22    0.15
  11  -6  13    0.31    0.18
 -11   6 -13   -0.04    0.17
  11  -6  14    0.25    0.18
 -11   6 -14   -0.08    0.15
  11  -6  15    0.27    0.17
 -11   6 -15    0.05    0.19
  11  -6  16    1.02    0.37
 -11   6 -16    1.36    0.33
  11  -6  17    0.96    0.27
  11  -5 -16    0.69    0.23
 -11   5  16    0.85    0.30
  11  -5 -15    0.17    0.16
 -11   5  15    0.18    0.21
  11  -5 -14    0.99    0.22
 -11   5  14    1.47    0.28
  11  -5 -13    6.51    0.57
 -11   5  13    5.63    0.74
  11  -5 -12    6.16    0.55
 -11   5  12    5.97    0.71
  11  -5 -11    0.23    0.12
 -11   5  11    0.15    0.17
  11  -5 -10    0.15    0.13
 -11   5  10    0.07    0.15
  11  -5  -9    0.56    0.14
 -11   5   9    0.29    0.24
  11  -5  -8    2.09    0.30
 -11   5   8    2.71    0.41
  11  -5  -7    0.23    0.11
 -11   5   7   -0.09    0.18
  11  -5  -6   -0.02    0.10
 -11   5   6    0.25    0.14
  11  -5  -5   -0.17    0.13
 -11   5   5    0.28    0.13
  11  -5  -4    5.91    0.48
 -11   5   4    6.82    0.67
  11  -5  -3    0.29    0.15
 -11   5   3    0.02    0.18
  11  -5  -2    3.77    0.38
 -11   5   2    2.87    0.39
  11  -5  -1    1.04    0.21
 -11   5   1    1.34    0.25
  11  -5   0    5.54    0.45
 -11   5   0    5.61    0.52
  11  -5   1    1.32    0.22
 -11   5  -1    0.76    0.23
  11  -5   2    0.41    0.19
 -11   5  -2    0.32    0.22
  11  -5   3    0.14    0.15
 -11   5  -3    0.36    0.15
  11  -5   4    1.65    0.31
 -11   5  -4    1.75    0.32
  11  -5   5    0.16    0.17
 -11   5  -5    0.26    0.15
  11  -5   6   -0.02    0.15
 -11   5  -6    0.30    0.17
  11  -5   7    1.63    0.31
 -11   5  -7    1.25    0.30
  11  -5   8    0.89    0.21
 -11   5  -8    1.06    0.25
  11  -5   9    0.22    0.16
 -11   5  -9   -0.12    0.14
  11  -5  10    0.29    0.17
 -11   5 -10    0.24    0.18
  11  -5  11    1.05    0.21
 -11   5 -11    0.41    0.23
  11  -5  12   -0.05    0.13
 -11   5 -12   -0.13    0.15
  11  -5  13    0.08    0.13
 -11   5 -13    0.12    0.16
  11  -5  14    0.13    0.16
 -11   5 -14    0.13    0.14
  11  -5  15    1.28    0.29
 -11   5 -15    0.36    0.25
  11  -5  16    0.76    0.24
 -11   5 -16    0.51    0.25
  11  -5  17    2.68    0.53
 -11   4  17    0.03    0.18
  11  -4 -16    1.72    0.29
 -11   4  16    1.61    0.38
  11  -4 -15    3.22    0.38
 -11   4  15    3.86    0.51
  11  -4 -14    1.20    0.24
 -11   4  14    1.13    0.31
  11  -4 -13   20.06    1.20
 -11   4  13   21.02    1.48
  11  -4 -12    0.37    0.17
 -11   4  12    0.57    0.23
  11  -4 -11    0.25    0.15
 -11   4  11    0.36    0.17
  11  -4 -10    0.51    0.15
 -11   4  10    0.92    0.25
  11  -4  -9    0.84    0.22
 -11   4   9    1.09    0.27
  11  -4  -8    4.12    0.39
 -11   4   8    4.63    0.53
  11  -4  -7    3.08    0.30
 -11   4   7    3.76    0.47
  11  -4  -6    1.59    0.24
 -11   4   6    1.03    0.32
  11  -4  -5    0.61    0.14
 -11   4   5    0.67    0.19
  11  -4  -4    5.31    0.49
 -11   4   4    5.90    0.63
  11  -4  -3   12.24    0.83
 -11   4   3   10.87    0.89
  11  -4  -2   31.28    1.83
 -11   4   2   32.53    2.07
  11  -4  -1    3.39    0.38
 -11   4   1    2.95    0.38
  11  -4   0   12.58    0.92
 -11   4   0   12.42    0.87
  11  -4   1    2.01    0.31
 -11   4  -1    1.67    0.31
  11  -4   2    1.36    0.23
 -11   4  -2    1.33    0.23
  11  -4   3    3.06    0.38
 -11   4  -3    2.74    0.40
  11  -4   4    1.00    0.21
 -11   4  -4    1.15    0.21
  11  -4   5    1.44    0.23
 -11   4  -5    1.12    0.28
  11  -4   6    1.32    0.25
 -11   4  -6    1.86    0.31
  11  -4   7    0.25    0.13
 -11   4  -7   -0.12    0.15
  11  -4   8    2.21    0.31
 -11   4  -8    2.92    0.37
  11  -4   9    0.85    0.19
 -11   4  -9    0.53    0.21
  11  -4  10    0.25    0.21
 -11   4 -10    0.46    0.15
  11  -4  11    0.72    0.18
 -11   4 -11    0.30    0.21
  11  -4  12    0.74    0.21
 -11   4 -12    0.61    0.22
  11  -4  13    0.12    0.17
 -11   4 -13    0.03    0.14
  11  -4  14    0.73    0.27
 -11   4 -14    0.61    0.22
  11  -4  15   -0.12    0.15
 -11   4 -15    0.01    0.14
  11  -4  16    1.19    0.28
 -11   4 -16    0.29    0.18
  11  -4  17    0.13    0.18
 -11   3  17   -0.07    0.15
  11  -3 -16   -0.09    0.11
 -11   3  16    0.10    0.12
  11  -3 -15    0.26    0.13
 -11   3  15    0.26    0.17
  11  -3 -14    0.22    0.14
 -11   3  14    0.19    0.16
  11  -3 -13    0.68    0.19
 -11   3  13    1.03    0.23
  11  -3 -12    3.41    0.36
 -11   3  12    4.54    0.49
  11  -3 -11    0.16    0.12
 -11   3  11    0.08    0.13
  11  -3 -10    0.07    0.11
 -11   3  10    0.07    0.16
  11  -3  -9    1.54    0.22
 -11   3   9    1.33    0.28
  11  -3  -8    0.36    0.16
 -11   3   8    0.53    0.17
  11  -3  -7    1.07    0.21
 -11   3   7    1.24    0.27
  11  -3  -6    5.03    0.38
 -11   3   6    4.57    0.52
  11  -3  -5    0.77    0.15
 -11   3   5    0.54    0.21
  11  -3  -4   59.12    3.33
 -11   3   4   48.62    3.13
  11  -3  -3    0.81    0.16
 -11   3   3    0.50    0.21
  11  -3  -2    3.79    0.37
 -11   3   2    3.06    0.36
  11  -3  -1    0.50    0.17
 -11   3   1    0.85    0.19
  11  -3   0    9.60    0.69
 -11   3   0   10.95    0.84
  11  -3   1    8.99    0.64
 -11   3  -1    8.73    0.78
  11  -3   2    0.10    0.11
 -11   3  -2    0.08    0.13
  11  -3   3    1.09    0.24
 -11   3  -3    1.14    0.21
  11  -3   4    0.03    0.16
 -11   3  -4    0.33    0.16
  11  -3   5    0.15    0.13
 -11   3  -5    0.25    0.16
  11  -3   6    2.55    0.29
 -11   3  -6    2.22    0.35
  11  -3   7    0.42    0.20
 -11   3  -7    0.71    0.21
  11  -3   8    0.16    0.15
 -11   3  -8    0.08    0.13
  11  -3   9   -0.15    0.14
 -11   3  -9   -0.10    0.14
  11  -3  10    0.46    0.17
 -11   3 -10    0.36    0.17
  11  -3  11    0.28    0.15
 -11   3 -11    0.12    0.15
  11  -3  12    0.23    0.12
 -11   3 -12   -0.15    0.10
  11  -3  13    0.13    0.17
 -11   3 -13    0.17    0.15
  11  -3  14    2.41    0.42
 -11   3 -14    2.04    0.33
  11  -3  15   -0.05    0.16
 -11   3 -15   -0.12    0.13
  11  -3  16    0.21    0.24
  11  -3  17   -0.03    0.15
  11  -2 -17    3.79    0.52
  11  -2 -16    3.56    0.49
  11  -2 -15    0.56    0.17
  11  -2 -15    0.82    0.24
 -11   2  15    0.73    0.26
  11  -2 -14    0.59    0.22
 -11   2  14    0.27    0.21
  11  -2 -13    2.00    0.26
  11  -2 -13    2.40    0.31
 -11   2  13    2.63    0.34
  11  -2 -12    1.65    0.23
  11  -2 -12    1.52    0.32
 -11   2  12    2.09    0.28
  11  -2 -11    0.30    0.14
  11  -2 -11    0.57    0.16
 -11   2  11    0.46    0.17
  11  -2 -10    0.51    0.14
  11  -2 -10    0.09    0.18
  11  -2  -9    0.68    0.16
  11  -2  -9    0.42    0.16
 -11   2   9    0.50    0.13
  11  -2  -8    0.56    0.15
 -11   2   8    0.65    0.17
  11  -2  -7    2.55    0.30
 -11   2   7    2.21    0.33
  11  -2  -6    7.53    0.56
 -11   2   6    7.98    0.71
  11  -2  -5    4.29    0.40
 -11   2   5    2.42    0.35
  11  -2  -4    8.32    0.57
 -11   2   4    7.14    0.63
  11  -2  -3    1.81    0.21
 -11   2   3    2.14    0.37
  11  -2  -2    3.41    0.36
 -11   2   2    2.79    0.34
  11  -2  -1    0.23    0.15
 -11   2   1    0.19    0.17
  11  -2   0    1.33    0.23
 -11   2   0    0.79    0.26
  11  -2   1    6.52    0.56
 -11   2  -1    6.67    0.56
  11  -2   2    3.78    0.36
 -11   2  -2    4.00    0.45
  11  -2   3    0.24    0.13
 -11   2  -3    0.22    0.17
  11  -2   4    0.28    0.13
 -11   2  -4    0.12    0.15
  11  -2   5    0.05    0.17
 -11   2  -5    0.32    0.15
  11  -2   6    0.05    0.14
 -11   2  -6    0.08    0.13
  11  -2   7    0.86    0.21
 -11   2  -7    0.91    0.18
  11  -2   8   -0.16    0.13
 -11   2  -8   -0.10    0.15
  11  -2   9    0.27    0.14
 -11   2  -9    0.06    0.12
  11  -2  10    0.48    0.20
 -11   2 -10    0.15    0.16
  11  -2  11   -0.19    0.14
 -11   2 -11    0.10    0.10
  11  -2  12    0.06    0.16
 -11   2 -12    0.23    0.14
  11  -2  13    0.02    0.13
 -11   2 -13   -0.08    0.12
  11  -2  14    0.12    0.15
 -11   2 -14   -0.06    0.10
  11  -2  15    0.48    0.23
  11  -2  16   -0.12    0.21
  11  -2  17    0.34    0.26
  11  -1 -17    0.45    0.22
 -11   1  17    0.19    0.24
  11  -1 -16    3.29    0.43
 -11   1  16    4.39    0.50
  11  -1 -15    6.42    0.63
 -11   1  15    8.85    0.80
  11  -1 -14    5.46    0.44
  11  -1 -14    6.38    0.58
 -11   1  14    6.52    0.66
  11  -1 -13    5.35    0.42
  11  -1 -13    5.56    0.60
 -11   1  13    6.86    0.57
  11  -1 -12    0.02    0.10
  11  -1 -12    0.18    0.16
 -11   1  12    0.11    0.13
  11  -1 -11    0.03    0.10
  11  -1 -11    0.19    0.12
 -11   1  11    0.08    0.12
  11  -1 -10    4.51    0.38
  11  -1 -10    4.97    0.44
 -11   1  10    5.18    0.45
  11  -1  -9    1.44    0.20
  11  -1  -9    1.43    0.29
 -11   1   9    1.51    0.19
  11  -1  -8    8.94    0.52
  11  -1  -8    8.50    0.69
 -11   1   8    7.37    0.47
  11  -1  -7    0.59    0.15
  11  -1  -7    0.44    0.17
 -11   1   7    0.41    0.10
  11  -1  -6    0.43    0.14
  11  -1  -6    0.29    0.13
 -11   1   6    0.25    0.09
  11  -1  -5    0.33    0.11
 -11   1   5    0.15    0.13
 -11   1   5    0.02    0.08
  11  -1  -4    1.22    0.19
 -11   1   4    0.68    0.19
  11  -1  -3    4.52    0.41
 -11   1   3    4.92    0.48
  11  -1  -2    9.43    0.62
 -11   1   2    9.70    0.84
  11  -1  -1   -0.09    0.12
 -11   1   1   -0.13    0.16
  11  -1   0    4.51    0.40
 -11   1   0    4.76    0.45
  11  -1   1   -0.03    0.12
 -11   1  -1   -0.20    0.15
  11  -1   2   -0.05    0.12
 -11   1  -2    0.16    0.11
  11  -1   3    2.04    0.31
 -11   1  -3    2.38    0.28
  11  -1   4    0.09    0.15
 -11   1  -4    0.19    0.12
  11  -1   5    0.13    0.13
 -11   1  -5    0.28    0.15
  11  -1   6   -0.10    0.15
 -11   1  -6   -0.05    0.12
  11  -1   7    0.21    0.14
 -11   1  -7    0.07    0.07
 -11   1  -7    0.15    0.11
  11  -1   8    1.27    0.23
 -11   1  -8    1.77    0.23
 -11   1  -8    0.80    0.15
  11  -1   9    0.32    0.16
 -11   1  -9    0.40    0.16
 -11   1  -9    0.23    0.10
  11  -1  10    0.03    0.14
 -11   1 -10   -0.06    0.10
 -11   1 -10    0.03    0.07
  11  -1  11   -0.20    0.15
 -11   1 -11    0.05    0.11
 -11   1 -11    0.10    0.10
  11  -1  12   -0.01    0.13
 -11   1 -12    0.16    0.11
 -11   1 -12   -0.06    0.10
  11  -1  13   -0.14    0.15
 -11   1 -13   -0.04    0.11
 -11   1 -13    0.01    0.11
  11  -1  14    0.76    0.27
 -11   1 -14    0.39    0.17
  11  -1  15    0.05    0.15
 -11   1 -15   -0.05    0.12
  11  -1  16   -0.18    0.19
  11  -1  17    0.22    0.25
  11   0 -17    0.90    0.25
 -11   0  17    1.28    0.28
  11   0 -16    0.68    0.21
 -11   0  16    0.54    0.24
  11   0 -15    2.42    0.36
 -11   0  15    2.73    0.45
  11   0 -14    1.28    0.25
 -11   0  14    1.23    0.30
  11   0 -13    0.93    0.22
 -11   0  13    0.99    0.25
  11   0 -12    0.06    0.09
  11   0 -12    0.17    0.16
 -11   0  12    0.17    0.15
  11   0 -11    0.43    0.12
  11   0 -11    0.49    0.16
 -11   0  11    0.34    0.17
  11   0 -10    5.18    0.37
  11   0 -10    4.88    0.51
 -11   0  10    4.87    0.39
  11   0  -9   13.07    0.71
  11   0  -9   12.69    0.86
 -11   0   9   12.70    0.74
  11   0  -8    1.77    0.20
  11   0  -8    1.11    0.23
 -11   0   8    1.30    0.18
  11   0  -7    2.29    0.24
  11   0  -7    1.63    0.26
 -11   0   7    2.25    0.22
  11   0  -6    1.30    0.22
  11   0  -6    1.21    0.18
 -11   0   6    0.88    0.14
  11   0  -5    2.95    0.27
  11   0  -5    2.78    0.34
 -11   0   5    2.53    0.20
  11   0  -4    8.26    0.50
  11   0  -4    8.13    0.54
 -11   0   4    7.16    0.37
  11   0  -3    4.32    0.34
 -11   0   3    2.82    0.28
 -11   0   3    3.31    0.22
  11   0  -2   13.24    0.75
 -11   0   2   13.29    0.88
 -11   0   2   10.82    0.55
  11   0  -1    0.55    0.13
 -11   0   1    0.01    0.13
 -11   0   1    0.04    0.07
  11   0   0    4.42    0.35
 -11   0   0    4.77    0.48
 -11   0   0    3.82    0.24
  11   0   1    0.76    0.14
 -11   0  -1    0.89    0.17
 -11   0  -1    0.40    0.09
 -11   0  -2    2.53    0.39
 -11   0  -2    4.03    0.23
  11   0   3    3.28    0.35
 -11   0  -3    2.35    0.20
 -11   0  -3    3.71    0.37
  11   0   4    5.30    0.41
 -11   0  -4    5.77    0.47
 -11   0  -4    3.85    0.27
  11   0   5   -0.11    0.11
 -11   0  -5    0.18    0.10
 -11   0  -5    0.15    0.08
  11   0   6    0.57    0.17
 -11   0  -6    0.55    0.16
 -11   0  -6    0.45    0.12
  11   0   7    0.38    0.15
 -11   0  -7   -0.09    0.13
 -11   0  -7    0.09    0.09
  11   0   8    0.23    0.11
 -11   0  -8   -0.03    0.08
 -11   0  -8   -0.08    0.11
  11   0   9    0.04    0.15
 -11   0  -9    0.23    0.10
  11   0  10    0.87    0.28
 -11   0 -10    1.04    0.20
 -11   0 -10    0.91    0.17
  11   0  11    0.05    0.14
 -11   0 -11   -0.14    0.11
 -11   0 -11    0.36    0.11
  11   0  12    0.66    0.20
 -11   0 -12    0.52    0.16
 -11   0 -12    0.56    0.17
  11   0  13    0.07    0.18
 -11   0 -13    0.00    0.11
  11   0  14    0.25    0.17
 -11   0 -14    0.05    0.11
  11   0  15   -0.33    0.19
 -11   0 -15    0.13    0.13
  11   0  16    0.61    0.29
 -11   0 -16    0.49    0.21
  11   0  17    0.18    0.21
  11   1 -17    0.24    0.16
 -11  -1  17    0.00    0.18
  11   1 -16    0.47    0.21
 -11  -1  16    0.91    0.30
  11   1 -15    0.24    0.18
 -11  -1  15    0.44    0.19
  11   1 -14    0.38    0.17
 -11  -1  14    0.17    0.21
  11   1 -13    0.73    0.21
 -11  -1  13    0.82    0.27
  11   1 -12    0.75    0.20
 -11  -1  12    0.01    0.20
  11   1 -11    1.31    0.24
 -11  -1  11    0.62    0.19
  11   1 -10    1.67    0.19
  11   1 -10    2.06    0.30
 -11  -1  10    1.74    0.21
  11   1  -9    2.39    0.22
  11   1  -9    2.64    0.30
  11   1  -8    0.06    0.09
  11   1  -8   -0.08    0.11
 -11  -1   8   -0.22    0.10
  11   1  -7    4.11    0.33
  11   1  -7    4.27    0.36
 -11  -1   7    4.12    0.32
  11   1  -6    0.02    0.10
  11   1  -6   -0.05    0.09
 -11  -1   6    0.03    0.07
  11   1  -5    1.32    0.18
  11   1  -5    0.82    0.24
 -11  -1   5    1.21    0.18
  11   1  -4    0.45    0.13
  11   1  -4    0.36    0.14
 -11  -1   4    0.49    0.11
  11   1  -3    1.14    0.16
  11   1  -3    1.23    0.24
 -11  -1   3    0.99    0.14
  11   1  -2    2.60    0.21
  11   1  -2    2.43    0.31
 -11  -1   2    1.62    0.18
  11   1  -1    0.66    0.17
 -11  -1   1    0.69    0.18
 -11  -1   1    0.46    0.12
  11   1   0    3.60    0.33
 -11  -1   0    2.64    0.22
 -11  -1   0    3.63    0.34
  11   1   1   -0.07    0.10
 -11  -1  -1    0.16    0.14
 -11  -1  -1    0.13    0.07
  11   1   2    2.78    0.29
 -11  -1  -2    3.79    0.37
 -11  -1  -2    2.30    0.22
  11   1   3    0.24    0.14
 -11  -1  -3    0.26    0.15
 -11  -1  -3    0.09    0.08
  11   1   4    6.56    0.53
 -11  -1  -4    6.07    0.40
 -11  -1  -4    7.89    0.59
  11   1   5    0.55    0.16
 -11  -1  -5    0.78    0.18
 -11  -1  -5    0.42    0.12
  11   1   6   -0.15    0.12
 -11  -1  -6    0.38    0.12
 -11  -1  -6    0.08    0.09
  11   1   7   -0.23    0.14
 -11  -1  -7    0.01    0.11
 -11  -1  -7    0.01    0.09
  11   1   8    3.65    0.38
 -11  -1  -8    3.88    0.36
 -11  -1  -8    2.74    0.32
  11   1   9    1.05    0.22
 -11  -1  -9    0.70    0.18
 -11  -1  -9    0.72    0.18
  11   1  10    0.36    0.21
 -11  -1 -10    0.71    0.18
 -11  -1 -10    0.66    0.17
  11   1  11    0.37    0.19
 -11  -1 -11    0.18    0.14
 -11  -1 -11    0.73    0.15
  11   1  12    1.36    0.32
 -11  -1 -12    0.84    0.21
  11   1  13    0.34    0.19
 -11  -1 -13    0.19    0.15
  11   1  14    1.20    0.34
 -11  -1 -14    0.74    0.24
  11   1  15   -0.05    0.18
 -11  -1 -15   -0.14    0.16
  11   1  16    0.07    0.18
 -11  -1 -16    0.13    0.16
  11   2 -17    1.18    0.32
 -11  -2  17    1.11    0.38
  11   2 -16    0.35    0.27
 -11  -2  16    0.85    0.32
  11   2 -15    0.40    0.20
 -11  -2  15    0.43    0.22
  11   2 -14    3.36    0.43
 -11  -2  14    3.71    0.56
  11   2 -13    0.65    0.27
 -11  -2  13    0.88    0.20
  11   2 -12    0.20    0.19
 -11  -2  12    0.44    0.15
  11   2 -11    0.25    0.14
 -11  -2  11    0.13    0.15
  11   2 -10    2.46    0.36
 -11  -2  10    2.92    0.33
  11   2  -9    0.35    0.10
  11   2  -9    0.27    0.16
 -11  -2   9    0.58    0.16
  11   2  -8    0.05    0.09
  11   2  -8    0.15    0.11
 -11  -2   8    0.05    0.12
  11   2  -7   -0.01    0.08
  11   2  -7   -0.16    0.08
 -11  -2   7    0.14    0.08
  11   2  -6    0.31    0.12
  11   2  -6    0.50    0.15
 -11  -2   6    0.32    0.12
  11   2  -5    0.30    0.13
  11   2  -5    0.35    0.16
 -11  -2   5    0.38    0.12
  11   2  -4    1.17    0.17
  11   2  -4    0.61    0.17
 -11  -2   4    0.59    0.14
  11   2  -3    0.99    0.18
  11   2  -3    1.26    0.24
 -11  -2   3    1.17    0.16
  11   2  -2    1.11    0.25
 -11  -2   2    1.23    0.17
  11   2  -1   -0.19    0.12
  11   2  -1   -0.14    0.14
 -11  -2   1   -0.10    0.09
  11   2   0    0.12    0.10
 -11  -2   0    0.15    0.09
 -11  -2   0    0.08    0.09
  11   2   1   -0.03    0.12
 -11  -2  -1    0.16    0.13
 -11  -2  -1    0.01    0.08
  11   2   2    0.32    0.14
 -11  -2  -2    0.59    0.19
 -11  -2  -2    0.24    0.10
  11   2   3    0.20    0.14
 -11  -2  -3    0.11    0.14
 -11  -2  -3    0.04    0.09
  11   2   4    0.15    0.10
 -11  -2  -4    0.20    0.11
 -11  -2  -4   -0.12    0.08
  11   2   5    0.00    0.10
 -11  -2  -5   -0.07    0.12
  11   2   6    0.09    0.15
 -11  -2  -6    0.18    0.12
 -11  -2  -6    0.04    0.10
  11   2   7    0.73    0.19
 -11  -2  -7    0.71    0.17
 -11  -2  -7    0.66    0.16
  11   2   8    3.25    0.42
 -11  -2  -8    2.21    0.29
 -11  -2  -8    2.84    0.30
  11   2   9    2.74    0.40
 -11  -2  -9    2.03    0.30
 -11  -2  -9    2.77    0.29
  11   2  10    0.96    0.25
 -11  -2 -10    0.36    0.15
  11   2  11    0.18    0.16
 -11  -2 -11    0.05    0.14
  11   2  12    1.10    0.28
 -11  -2 -12    0.91    0.25
  11   2  13   -0.02    0.17
 -11  -2 -13   -0.05    0.13
  11   2  14    0.55    0.24
 -11  -2 -14    0.04    0.18
  11   2  15    0.20    0.19
 -11  -2 -15    0.14    0.18
  11   2  16    1.06    0.28
 -11  -2 -16    0.21    0.26
  11   3 -16    0.14    0.15
 -11  -3  16   -0.06    0.22
  11   3 -15    1.56    0.31
 -11  -3  15    2.03    0.44
  11   3 -14    0.72    0.26
 -11  -3  14    0.93    0.28
  11   3 -13    2.61    0.41
 -11  -3  13    3.42    0.39
  11   3 -12    0.35    0.17
 -11  -3  12    0.29    0.20
  11   3 -11   -0.02    0.14
  11   3 -10    0.80    0.21
 -11  -3  10    0.79    0.23
  11   3  -9    6.34    0.62
 -11  -3   9    7.18    0.57
  11   3  -8    5.65    0.50
 -11  -3   8    6.23    0.49
  11   3  -7   -0.02    0.10
  11   3  -7    0.10    0.10
 -11  -3   7   -0.04    0.10
  11   3  -6    2.08    0.20
  11   3  -6    1.63    0.25
 -11  -3   6    1.79    0.24
  11   3  -5    0.76    0.20
 -11  -3   5    0.75    0.16
  11   3  -4    5.77    0.44
  11   3  -4    6.51    0.50
 -11  -3   4    5.90    0.42
  11   3  -3   -0.01    0.12
  11   3  -3    0.22    0.14
 -11  -3   3    0.20    0.10
  11   3  -2    5.87    0.43
  11   3  -2    6.07    0.55
 -11  -3   2    5.36    0.36
  11   3  -1    0.57    0.16
  11   3  -1    0.63    0.19
 -11  -3   1    0.59    0.14
  11   3   0   -0.05    0.08
  11   3   0    0.07    0.09
 -11  -3   0   -0.02    0.08
  11   3   1    0.29    0.12
 -11  -3  -1    0.10    0.11
  11   3   2    0.25    0.15
 -11  -3  -2    0.37    0.16
 -11  -3  -2    0.21    0.11
  11   3   3    2.45    0.33
 -11  -3  -3    2.61    0.34
 -11  -3  -3    2.31    0.26
  11   3   4    5.14    0.48
 -11  -3  -4    5.02    0.40
 -11  -3  -4    3.70    0.37
  11   3   5   -0.25    0.12
 -11  -3  -5    0.02    0.11
 -11  -3  -5    0.14    0.09
  11   3   6    0.49    0.16
 -11  -3  -6    0.15    0.14
 -11  -3  -6    0.69    0.16
  11   3   7    0.02    0.15
 -11  -3  -7    0.07    0.11
 -11  -3  -7    0.11    0.11
  11   3   8   -0.09    0.16
 -11  -3  -8    0.09    0.10
 -11  -3  -8    0.06    0.12
  11   3   9    1.40    0.33
 -11  -3  -9    1.34    0.26
 -11  -3  -9    1.30    0.20
  11   3  10    0.58    0.23
 -11  -3 -10    0.22    0.17
  11   3  11    0.01    0.17
 -11  -3 -11   -0.06    0.14
  11   3  12    0.22    0.19
 -11  -3 -12    0.29    0.18
  11   3  13    0.58    0.29
 -11  -3 -13    0.60    0.22
  11   3  14    0.51    0.26
 -11  -3 -14    0.11    0.16
  11   3  15    0.05    0.20
 -11  -3 -15    0.21    0.18
  11   4 -16    0.44    0.22
 -11  -4  16    0.45    0.28
  11   4 -15    0.20    0.26
 -11  -4  15    0.81    0.28
  11   4 -14    1.03    0.32
 -11  -4  14    0.93    0.27
  11   4 -13   -0.04    0.14
 -11  -4  13    0.04    0.15
  11   4 -12    1.35    0.26
 -11  -4  12    1.36    0.33
  11   4 -11    5.91    0.55
 -11  -4  11    6.74    0.64
  11   4 -10   -0.06    0.13
 -11  -4  10    0.02    0.10
  11   4  -9    1.05    0.21
 -11  -4   9    0.97    0.22
  11   4  -8   -0.12    0.12
 -11  -4   8   -0.02    0.12
  11   4  -7    1.19    0.20
 -11  -4   7    1.24    0.22
  11   4  -6    2.05    0.21
  11   4  -6    2.12    0.27
 -11  -4   6    2.59    0.27
  11   4  -5    0.10    0.09
  11   4  -5   -0.12    0.11
 -11  -4   5    0.02    0.10
  11   4  -4    5.96    0.42
  11   4  -4    6.82    0.57
 -11  -4   4    5.72    0.48
  11   4  -3    3.71    0.33
  11   4  -3    3.63    0.36
 -11  -4   3    2.88    0.33
  11   4  -2    2.07    0.25
  11   4  -2    2.07    0.26
 -11  -4   2    1.77    0.26
  11   4  -1    0.12    0.13
  11   4  -1    0.22    0.12
 -11  -4   1    0.16    0.12
  11   4   0    0.41    0.14
  11   4   0    0.26    0.15
 -11  -4   0    0.09    0.12
  11   4   1    0.43    0.17
  11   4   1    0.50    0.17
 -11  -4  -1    0.28    0.14
  11   4   2   11.75    0.87
 -11  -4  -2   11.80    0.78
  11   4   3    1.86    0.27
 -11  -4  -3    1.25    0.22
 -11  -4  -3    1.25    0.21
  11   4   4    1.62    0.31
 -11  -4  -4    2.30    0.27
 -11  -4  -4    1.31    0.25
  11   4   5    0.61    0.21
 -11  -4  -5    0.97    0.18
 -11  -4  -5    0.28    0.16
  11   4   6    0.13    0.16
 -11  -4  -6    0.16    0.12
 -11  -4  -6    0.00    0.12
  11   4   7    2.82    0.41
 -11  -4  -7    2.85    0.31
 -11  -4  -7    2.34    0.32
  11   4   8    2.33    0.37
 -11  -4  -8    2.68    0.28
 -11  -4  -8    2.40    0.35
  11   4   9    1.20    0.32
 -11  -4  -9    1.32    0.23
  11   4  10    2.32    0.42
 -11  -4 -10    1.80    0.30
  11   4  11    2.90    0.46
 -11  -4 -11    2.43    0.42
  11   4  12    0.52    0.22
 -11  -4 -12    0.01    0.15
  11   4  13    0.82    0.26
 -11  -4 -13    0.41    0.24
  11   4  14    0.17    0.19
 -11  -4 -14   -0.14    0.16
 -11  -4 -15    0.32    0.19
  11   5 -15    0.71    0.25
 -11  -5  15    1.01    0.36
  11   5 -14   -0.13    0.17
 -11  -5  14    0.06    0.15
  11   5 -13    2.64    0.40
 -11  -5  13    2.66    0.47
  11   5 -12    0.26    0.16
 -11  -5  12    0.17    0.21
  11   5 -11    0.16    0.15
 -11  -5  11    0.27    0.19
  11   5 -10    1.32    0.30
 -11  -5  10    1.66    0.31
  11   5  -9    0.18    0.16
 -11  -5   9    0.36    0.14
  11   5  -8   -0.05    0.12
 -11  -5   8   -0.08    0.13
  11   5  -7    0.44    0.20
 -11  -5   7    0.31    0.17
  11   5  -6    0.82    0.24
 -11  -5   6    1.16    0.21
  11   5  -5    3.36    0.29
  11   5  -5    3.94    0.37
 -11  -5   5    3.55    0.35
  11   5  -4    0.24    0.11
  11   5  -4    0.46    0.18
 -11  -5   4    0.21    0.12
  11   5  -3    2.32    0.26
  11   5  -3    2.64    0.31
 -11  -5   3    3.04    0.31
  11   5  -2    0.08    0.13
  11   5  -2    0.29    0.17
 -11  -5   2    0.44    0.12
  11   5  -1    4.91    0.45
  11   5  -1    5.25    0.48
 -11  -5   1    4.98    0.46
  11   5   0    7.68    0.66
  11   5   0    8.62    0.64
 -11  -5   0    7.48    0.60
  11   5   1    0.20    0.17
  11   5   1    0.50    0.16
 -11  -5  -1    0.33    0.13
  11   5   2    0.80    0.22
  11   5   2    0.76    0.23
 -11  -5  -2    1.22    0.21
  11   5   3    0.07    0.12
 -11  -5  -3   -0.08    0.10
 -11  -5  -3    0.02    0.09
  11   5   4    1.51    0.24
 -11  -5  -4    1.51    0.25
 -11  -5  -4    1.61    0.22
  11   5   5    0.46    0.22
 -11  -5  -5    0.62    0.19
 -11  -5  -5    0.66    0.18
  11   5   6   -0.01    0.13
 -11  -5  -6    0.13    0.12
 -11  -5  -6    0.11    0.13
  11   5   7    4.01    0.55
 -11  -5  -7    4.40    0.48
 -11  -5  -7    4.20    0.39
  11   5   8    1.11    0.33
 -11  -5  -8    1.20    0.23
  11   5   9    0.36    0.27
 -11  -5  -9    0.57    0.17
  11   5  10    1.93    0.36
 -11  -5 -10    1.88    0.30
  11   5  11    2.39    0.42
 -11  -5 -11    2.58    0.37
  11   5  12   -0.05    0.21
 -11  -5 -12    0.08    0.13
  11   5  13   -0.26    0.20
 -11  -5 -13    0.12    0.16
  11   5  14    1.31    0.34
 -11  -5 -14    0.74    0.34
  11   6 -14    1.21    0.31
 -11  -6  14    1.41    0.40
  11   6 -13    1.59    0.32
 -11  -6  13    2.02    0.35
  11   6 -12    2.35    0.39
 -11  -6  12    3.48    0.41
  11   6 -11    0.02    0.24
 -11  -6  11    0.82    0.24
  11   6 -10    1.01    0.24
 -11  -6  10    0.90    0.22
  11   6  -9    0.06    0.13
 -11  -6   9   -0.06    0.13
  11   6  -8    0.41    0.16
 -11  -6   8    0.42    0.19
  11   6  -7    0.19    0.14
 -11  -6   7    0.15    0.16
  11   6  -6    0.72    0.19
 -11  -6   6    0.97    0.21
 -11  -6   5    0.02    0.10
  11   6  -4    0.04    0.16
 -11  -6   4    0.24    0.15
  11   6  -3    1.24    0.20
  11   6  -3    1.64    0.25
 -11  -6   3    1.78    0.28
  11   6  -2    1.61    0.21
  11   6  -2    1.72    0.29
 -11  -6   2    1.14    0.27
  11   6  -1   -0.19    0.12
  11   6  -1    0.01    0.10
 -11  -6   1    0.08    0.09
  11   6   0    0.54    0.19
  11   6   0    0.49    0.18
 -11  -6   0    0.76    0.19
  11   6   1    1.24    0.23
  11   6   1    1.23    0.22
 -11  -6  -1    0.79    0.19
  11   6   2    0.71    0.16
  11   6   2    0.56    0.21
 -11  -6  -2    0.84    0.20
  11   6   3    4.80    0.44
  11   6   3    4.89    0.51
 -11  -6  -3    4.16    0.41
  11   6   4    2.66    0.41
 -11  -6  -4    3.20    0.40
 -11  -6  -4    3.59    0.38
  11   6   5    0.16    0.19
 -11  -6  -5    0.13    0.15
 -11  -6  -5    0.52    0.17
  11   6   6    0.50    0.19
 -11  -6  -6    0.30    0.16
 -11  -6  -6    0.48    0.16
  11   6   7    0.15    0.18
 -11  -6  -7    0.46    0.18
  11   6   8    0.20    0.15
 -11  -6  -8   -0.04    0.15
  11   6   9   -0.13    0.14
 -11  -6  -9    0.20    0.15
  11   6  10   -0.14    0.18
 -11  -6 -10    0.14    0.16
  11   6  11    0.25    0.20
 -11  -6 -11    0.17    0.21
  11   6  12    0.32    0.22
 -11  -6 -12   -0.05    0.19
  11   7 -13   -0.05    0.20
 -11  -7  13    0.10    0.19
  11   7 -12    0.12    0.15
 -11  -7  12   -0.10    0.18
  11   7 -11    0.73    0.21
 -11  -7  11    0.50    0.27
  11   7 -10   -0.03    0.17
 -11  -7  10    0.11    0.16
  11   7  -9    0.32    0.15
 -11  -7   9    0.01    0.18
  11   7  -8    1.07    0.29
 -11  -7   8    1.15    0.24
  11   7  -7    1.73    0.36
 -11  -7   7    1.87    0.33
  11   7  -6    2.44    0.38
 -11  -7   6    2.27    0.30
  11   7  -5    1.16    0.30
 -11  -7   5    1.67    0.29
  11   7  -4    0.71    0.24
 -11  -7   4    0.98    0.23
  11   7  -3    3.55    0.39
 -11  -7   3    3.81    0.44
  11   7  -2    0.82    0.20
  11   7  -2    0.99    0.21
 -11  -7   2    1.55    0.25
  11   7  -1    0.31    0.18
  11   7  -1    0.22    0.15
 -11  -7   1    0.56    0.18
  11   7   0    0.75    0.17
  11   7   0    0.63    0.19
 -11  -7   0    0.57    0.18
  11   7   1    2.44    0.32
  11   7   1    2.11    0.33
 -11  -7  -1    2.67    0.36
  11   7   2    0.51    0.19
  11   7   2    0.82    0.21
 -11  -7  -2    0.79    0.22
  11   7   3    0.90    0.19
  11   7   3    0.90    0.23
 -11  -7  -3    0.88    0.24
  11   7   4    0.44    0.21
 -11  -7  -4    0.57    0.16
 -11  -7  -4    0.20    0.14
  11   7   5    7.74    0.79
 -11  -7  -5    9.73    0.79
  11   7   6    2.62    0.45
 -11  -7  -6    2.41    0.41
  11   7   7    0.45    0.27
 -11  -7  -7    0.76    0.24
  11   7   8    0.32    0.24
 -11  -7  -8    0.36    0.21
  11   7   9    2.46    0.42
 -11  -7  -9    2.30    0.45
  11   7  10    1.27    0.32
 -11  -7 -10    1.15    0.34
  11   7  11    0.09    0.24
 -11  -7 -11    0.15    0.17
  11   8 -12    0.08    0.17
 -11  -8  12   -0.07    0.15
  11   8 -11    0.24    0.22
 -11  -8  11    0.50    0.25
  11   8 -10    0.05    0.16
 -11  -8  10    0.06    0.17
  11   8  -9    0.36    0.25
 -11  -8   9    0.40    0.23
  11   8  -8    0.44    0.22
 -11  -8   8    0.19    0.17
  11   8  -7    0.96    0.24
  11   8  -6   -0.06    0.14
  11   8  -5    1.18    0.26
 -11  -8   5    1.74    0.31
  11   8  -4    0.76    0.25
 -11  -8   4    0.71    0.19
  11   8  -3    1.42    0.25
 -11  -8   3    1.13    0.30
  11   8  -2    0.41    0.20
 -11  -8   2    0.34    0.20
  11   8  -1    0.22    0.18
 -11  -8   1    0.34    0.19
  11   8   0   -0.04    0.13
  11   8   0   -0.13    0.12
 -11  -8   0    0.13    0.15
  11   8   1    0.63    0.20
  11   8   1    0.43    0.20
 -11  -8  -1    0.96    0.23
  11   8   2    2.75    0.33
  11   8   2    2.84    0.39
 -11  -8  -2    2.33    0.41
  11   8   3    0.31    0.14
  11   8   3    0.23    0.17
 -11  -8  -3    0.08    0.15
  11   8   4    0.37    0.23
 -11  -8  -4    0.66    0.19
  11   8   5    3.84    0.52
 -11  -8  -5    4.20    0.50
  11   8   6    0.54    0.27
 -11  -8  -6    0.56    0.21
  11   8   7    4.76    0.67
 -11  -8  -7    4.67    0.54
  11   8   8    7.84    0.96
 -11  -8  -8    8.59    0.94
  11   8   9    0.88    0.30
 -11  -8  -9    0.87    0.32
  11   9 -10    0.08    0.18
 -11  -9  10   -0.03    0.14
  11   9  -9    0.31    0.33
 -11  -9   9    1.26    0.26
  11   9  -8    3.77    0.62
 -11  -9   8    4.36    0.50
  11   9  -7    1.60    0.30
 -11  -9   7    1.30    0.28
  11   9  -6    0.37    0.21
 -11  -9   6    0.95    0.26
  11   9  -5    1.71    0.31
 -11  -9   5    2.31    0.33
  11   9  -4    0.07    0.19
 -11  -9   4    0.36    0.20
  11   9  -3   -0.22    0.17
 -11  -9   3   -0.03    0.14
  11   9  -2   -0.01    0.15
 -11  -9   2   -0.07    0.13
  11   9  -1    0.04    0.16
 -11  -9   1    0.15    0.17
  11   9   0    0.16    0.15
 -11  -9   0    0.01    0.17
  11   9   1    0.08    0.16
  11   9   1    0.02    0.15
 -11  -9  -1    0.36    0.18
  11   9   2    0.12    0.14
 -11  -9  -2   -0.03    0.17
  11   9   3    0.29    0.16
 -11  -9  -3   -0.03    0.15
  11   9   4    0.52    0.21
 -11  -9  -4    0.05    0.18
  11   9   5    4.31    0.57
 -11  -9  -5    5.78    0.63
  11   9   6    0.05    0.24
 -11  -9  -6    0.54    0.26
  11   9   7   -0.03    0.19
 -11  -9  -7   -0.05    0.18
  11  10  -7    0.13    0.20
 -11 -10   7    0.00    0.15
  11  10  -6   -0.18    0.19
 -11 -10   6   -0.00    0.20
  11  10  -5    0.71    0.28
  11  10  -4   -0.02    0.18
 -11 -10   4   -0.12    0.14
  11  10  -3    0.83    0.21
 -11 -10   3    0.69    0.27
  11  10  -2   -0.07    0.18
 -11 -10   2   -0.21    0.16
  11  10  -1    0.42    0.19
 -11 -10   1    0.02    0.22
  11  10   0    0.14    0.18
 -11 -10   0    0.20    0.21
 -11 -10  -1    1.03    0.26
 -11 -10  -2    0.79    0.25
 -11 -10  -3   -0.12    0.19
  11  10   4   -0.25    0.16
 -11 -10  -4    0.22    0.20
  12 -13  -3    0.77    0.23
 -12  13   3    0.12    0.30
  12 -13  -2    0.26    0.19
 -12  13   2    0.16    0.26
  12 -13  -1   -0.13    0.20
 -12  13   1    0.04    0.20
  12 -13   0    1.11    0.32
 -12  13   0    0.35    0.32
  12 -13   1    0.07    0.21
 -12  13  -1    0.12    0.23
  12 -13   2    0.10    0.17
 -12  13  -2    0.05    0.18
  12 -13   3    0.07    0.21
 -12  13  -3    0.16    0.23
  12 -13   4   -0.11    0.22
 -12  13  -4   -0.08    0.22
  12 -13   5    0.18    0.17
 -12  13  -5   -0.07    0.18
  12 -12  -6   -0.10    0.14
 -12  12   6    0.11    0.15
  12 -12  -5   -0.03    0.19
 -12  12   5    0.19    0.20
  12 -12  -4    0.02    0.18
 -12  12   4    0.12    0.20
  12 -12  -3    0.52    0.26
 -12  12   3    0.45    0.28
  12 -12  -2    0.18    0.24
 -12  12   2    0.23    0.23
  12 -12  -1    0.81    0.29
 -12  12   1    0.33    0.23
  12 -12   0    1.53    0.31
 -12  12   0    0.37    0.26
  12 -12   1    0.61    0.26
 -12  12  -1    0.22    0.26
  12 -12   2    0.05    0.22
 -12  12  -2    0.36    0.23
  12 -12   3    0.81    0.24
 -12  12  -3    0.25    0.25
  12 -12   4   -0.13    0.16
 -12  12  -4    0.13    0.20
  12 -12   5    1.36    0.38
 -12  12  -5    1.23    0.41
  12 -12   6    0.30    0.19
 -12  12  -6    0.07    0.21
  12 -12   7    1.16    0.34
 -12  12  -7    0.50    0.35
  12 -12   8    0.38    0.23
 -12  12  -8    0.44    0.28
  12 -11  -9    1.18    0.32
 -12  11   9    1.10    0.33
  12 -11  -8    0.23    0.16
 -12  11   8   -0.09    0.23
  12 -11  -7    1.35    0.29
 -12  11   7    1.53    0.34
  12 -11  -6   -0.16    0.21
 -12  11   6   -0.16    0.20
  12 -11  -5   -0.18    0.15
 -12  11   5    0.36    0.15
  12 -11  -4    0.19    0.18
 -12  11   4    0.25    0.19
  12 -11  -3    1.10    0.33
 -12  11   3    1.09    0.30
  12 -11  -2    0.63    0.25
 -12  11   2    0.28    0.22
  12 -11  -1    1.62    0.39
 -12  11   1    1.61    0.32
  12 -11   0    0.59    0.27
 -12  11   0    0.88    0.29
  12 -11   1   -0.10    0.16
 -12  11  -1   -0.01    0.14
  12 -11   2    0.37    0.27
 -12  11  -2    0.43    0.26
  12 -11   3    0.43    0.27
 -12  11  -3    0.51    0.24
  12 -11   4    0.36    0.25
 -12  11  -4    0.25    0.26
  12 -11   5    1.65    0.34
 -12  11  -5    1.29    0.42
  12 -11   6    0.67    0.33
 -12  11  -6    0.36    0.24
  12 -11   7    0.58    0.32
 -12  11  -7    0.44    0.23
  12 -11   8    0.19    0.40
 -12  11  -8    1.51    0.31
  12 -11   9    0.10    0.17
 -12  11  -9   -0.01    0.21
  12 -11  10    0.42    0.26
 -12  11 -10    0.17    0.29
  12 -10 -10   -0.05    0.13
 -12  10  10    0.20    0.16
  12 -10  -9   -0.15    0.17
 -12  10   9    0.11    0.19
  12 -10  -8    2.06    0.30
 -12  10   8    1.73    0.43
  12 -10  -7    0.86    0.27
 -12  10   7    0.88    0.28
  12 -10  -6    0.29    0.16
 -12  10   6    0.20    0.21
  12 -10  -5    0.38    0.23
 -12  10   5    0.51    0.23
  12 -10  -4    0.12    0.15
 -12  10   4    0.02    0.17
  12 -10  -3    0.36    0.18
 -12  10   3    0.35    0.21
  12 -10  -2    4.60    0.54
 -12  10   2    4.00    0.63
  12 -10  -1   -0.18    0.17
 -12  10   1    0.24    0.18
  12 -10   0    1.36    0.28
 -12  10   0    1.66    0.31
  12 -10   1    0.96    0.24
 -12  10  -1    0.58    0.30
  12 -10   2    0.04    0.12
 -12  10  -2   -0.03    0.11
  12 -10   3    1.06    0.28
 -12  10  -3    1.22    0.27
  12 -10   4    0.45    0.24
 -12  10  -4    0.20    0.22
  12 -10   5    0.35    0.27
 -12  10  -5    0.19    0.24
  12 -10   6    1.41    0.38
 -12  10  -6    0.73    0.28
  12 -10   7    0.17    0.16
 -12  10  -7    0.01    0.17
  12 -10   8    0.38    0.24
 -12  10  -8    0.16    0.20
  12 -10   9   -0.01    0.19
 -12  10  -9    0.42    0.23
  12 -10  10    0.21    0.20
 -12  10 -10    0.25    0.25
  12 -10  11    0.46    0.28
 -12  10 -11    0.11    0.28
  12 -10  12    1.83    0.43
 -12  10 -12    1.20    0.42
  12  -9 -12    1.05    0.31
 -12   9  12    0.90    0.38
  12  -9 -11    2.48    0.42
 -12   9  11    2.13    0.48
  12  -9 -10    0.68    0.22
 -12   9  10    0.63    0.32
  12  -9  -9    1.28    0.30
 -12   9   9    1.23    0.37
  12  -9  -8   -0.11    0.11
 -12   9   8    0.21    0.14
  12  -9  -7    0.93    0.21
 -12   9   7    0.52    0.25
  12  -9  -6    0.12    0.19
 -12   9   6    0.29    0.22
  12  -9  -5    0.72    0.23
 -12   9   5    0.95    0.26
  12  -9  -4    1.63    0.32
 -12   9   4    1.20    0.32
  12  -9  -3    0.26    0.16
 -12   9   3    0.34    0.21
  12  -9  -2    0.33    0.23
 -12   9   2    0.50    0.26
  12  -9  -1    0.72    0.20
 -12   9   1    0.30    0.23
  12  -9   0    1.33    0.28
 -12   9   0    1.20    0.36
  12  -9   1   -0.03    0.14
 -12   9  -1   -0.02    0.13
  12  -9   2    0.37    0.33
 -12   9  -2    0.82    0.22
  12  -9   3    0.70    0.28
 -12   9  -3    0.21    0.24
  12  -9   4    0.02    0.21
 -12   9  -4    0.05    0.17
  12  -9   5    0.99    0.25
 -12   9  -5    0.91    0.31
  12  -9   6    1.43    0.30
 -12   9  -6    1.11    0.36
  12  -9   7    0.99    0.32
 -12   9  -7    0.66    0.30
  12  -9   8    0.46    0.24
 -12   9  -8    0.88    0.30
  12  -9   9    0.21    0.21
 -12   9  -9    0.02    0.18
  12  -9  10   -0.08    0.16
 -12   9 -10    0.13    0.15
  12  -9  11    0.33    0.20
 -12   9 -11    0.25    0.25
  12  -9  12    0.05    0.17
 -12   9 -12    0.09    0.20
  12  -9  13   -0.02    0.15
 -12   9 -13    0.01    0.13
  12  -8 -13    8.22    0.82
 -12   8  13    8.67    1.03
  12  -8 -12   -0.09    0.16
 -12   8  12   -0.27    0.24
  12  -8 -11    0.96    0.23
 -12   8  11    0.92    0.29
  12  -8 -10    4.60    0.57
 -12   8  10    5.07    0.70
  12  -8  -9    1.28    0.29
 -12   8   9    1.19    0.31
  12  -8  -8    0.65    0.22
 -12   8   8    0.76    0.25
  12  -8  -7    2.07    0.31
 -12   8   7    1.85    0.44
  12  -8  -6    1.97    0.31
 -12   8   6    1.95    0.42
  12  -8  -5    0.75    0.19
 -12   8   5   -0.18    0.20
  12  -8  -4    0.63    0.18
 -12   8   4    0.33    0.22
  12  -8  -3    1.28    0.25
 -12   8   3    1.22    0.35
  12  -8  -2    0.65    0.24
 -12   8   2    0.41    0.22
  12  -8  -1    1.36    0.29
 -12   8   1    1.68    0.31
  12  -8   0    1.99    0.33
 -12   8   0    2.20    0.40
  12  -8   1    2.19    0.47
 -12   8  -1    2.30    0.46
  12  -8   2    0.07    0.19
 -12   8  -2    0.55    0.23
  12  -8   3    0.72    0.22
 -12   8  -3    0.45    0.27
  12  -8   4    0.84    0.23
 -12   8  -4    0.66    0.29
  12  -8   5    0.78    0.23
 -12   8  -5    0.51    0.27
  12  -8   6    0.21    0.21
 -12   8  -6    0.19    0.19
  12  -8   7    0.01    0.21
 -12   8  -7   -0.18    0.18
  12  -8   8    0.44    0.21
 -12   8  -8    0.21    0.20
  12  -8   9    0.27    0.23
 -12   8  -9    0.25    0.23
  12  -8  10    0.15    0.27
 -12   8 -10    0.80    0.22
  12  -8  11    0.48    0.21
 -12   8 -11    0.34    0.26
  12  -8  12    0.35    0.20
 -12   8 -12    0.19    0.22
  12  -8  13    0.13    0.18
 -12   8 -13    0.22    0.21
  12  -8  14    0.40    0.22
 -12   8 -14   -0.03    0.18
  12  -7 -14    0.61    0.26
 -12   7  14    1.12    0.34
  12  -7 -13    0.94    0.29
 -12   7  13    1.48    0.38
  12  -7 -12    2.99    0.40
 -12   7  12    2.82    0.48
  12  -7 -11    7.70    0.73
 -12   7  11    8.24    0.95
  12  -7 -10    2.27    0.36
 -12   7  10    2.17    0.37
  12  -7  -9    0.22    0.15
 -12   7   9   -0.05    0.16
  12  -7  -8    1.88    0.34
 -12   7   8    1.54    0.39
  12  -7  -7    0.34    0.22
 -12   7   7    0.88    0.27
  12  -7  -6    2.38    0.30
 -12   7   6    2.11    0.45
  12  -7  -5    5.45    0.49
 -12   7   5    6.43    0.62
  12  -7  -4    0.02    0.13
 -12   7   4    0.20    0.16
  12  -7  -3    0.16    0.19
 -12   7   3    0.45    0.23
  12  -7  -2    9.74    0.76
 -12   7   2    9.70    0.87
  12  -7  -1   14.22    1.04
 -12   7   1   14.47    1.26
  12  -7   0    7.96    0.81
 -12   7   0    6.00    0.75
  12  -7   1    0.91    0.26
 -12   7  -1    0.75    0.21
  12  -7   2    3.26    0.39
 -12   7  -2    2.40    0.43
  12  -7   3    1.63    0.34
 -12   7  -3    1.59    0.34
  12  -7   4    0.36    0.20
 -12   7  -4   -0.00    0.16
  12  -7   5    0.27    0.18
 -12   7  -5   -0.08    0.18
  12  -7   6    0.74    0.24
 -12   7  -6    0.87    0.28
  12  -7   7   -0.03    0.15
 -12   7  -7   -0.09    0.13
  12  -7   8    0.18    0.18
 -12   7  -8   -0.09    0.16
  12  -7   9    0.05    0.18
 -12   7  -9    0.32    0.16
  12  -7  10    0.18    0.18
 -12   7 -10   -0.05    0.18
  12  -7  11    0.05    0.18
 -12   7 -11   -0.14    0.15
  12  -7  12    1.41    0.29
 -12   7 -12    0.49    0.25
  12  -7  13    0.77    0.26
 -12   7 -13    0.05    0.25
  12  -7  14   -0.05    0.20
 -12   7 -14   -0.09    0.18
  12  -6 -14    3.61    0.47
 -12   6  14    3.76    0.64
  12  -6 -13    3.22    0.42
 -12   6  13    3.25    0.59
  12  -6 -12    0.78    0.23
 -12   6  12    0.57    0.26
  12  -6 -11    0.16    0.13
 -12   6  11   -0.02    0.22
  12  -6 -10    0.36    0.14
 -12   6  10    0.01    0.20
  12  -6  -9    0.07    0.13
 -12   6   9   -0.21    0.18
  12  -6  -8    0.79    0.22
 -12   6   8    0.38    0.28
  12  -6  -7    0.23    0.15
 -12   6   7   -0.09    0.20
  12  -6  -6    0.41    0.18
 -12   6   6    0.47    0.25
  12  -6  -5    1.19    0.25
 -12   6   5    0.74    0.25
  12  -6  -4    0.51    0.20
 -12   6   4    0.42    0.20
  12  -6  -3    1.95    0.34
 -12   6   3    2.16    0.41
  12  -6  -2   12.13    0.92
 -12   6   2    9.87    0.91
  12  -6  -1    1.12    0.26
 -12   6   1    1.08    0.26
  12  -6   0    5.16    0.54
 -12   6   0    3.84    0.49
  12  -6   1    1.07    0.23
 -12   6  -1    1.17    0.29
  12  -6   2    0.36    0.22
 -12   6  -2    0.33    0.24
  12  -6   3    0.77    0.21
 -12   6  -3    0.45    0.20
  12  -6   4    0.40    0.22
 -12   6  -4    0.68    0.21
  12  -6   5    0.03    0.15
 -12   6  -5    0.34    0.20
  12  -6   6    0.74    0.23
 -12   6  -6    0.72    0.22
  12  -6   7    0.69    0.26
 -12   6  -7    0.82    0.27
  12  -6   8   -0.13    0.13
 -12   6  -8    0.06    0.12
  12  -6   9    1.62    0.35
 -12   6  -9    1.03    0.31
  12  -6  10    0.41    0.18
 -12   6 -10    0.20    0.22
  12  -6  11   -0.08    0.15
 -12   6 -11    0.19    0.15
  12  -6  12    0.37    0.18
 -12   6 -12    0.13    0.16
  12  -6  13   -0.27    0.14
 -12   6 -13    0.19    0.12
  12  -6  14   -0.04    0.17
 -12   6 -14    0.33    0.16
  12  -6  15    0.90    0.30
 -12   6 -15    0.60    0.22
  12  -5 -15    1.83    0.28
 -12   5  15    2.09    0.37
  12  -5 -14    6.21    0.62
 -12   5  14    7.18    0.74
  12  -5 -13    0.15    0.15
 -12   5  13    0.00    0.22
  12  -5 -12    0.21    0.13
 -12   5  12   -0.13    0.22
  12  -5 -11    0.28    0.17
 -12   5  11    0.30    0.25
  12  -5 -10    0.36    0.18
 -12   5  10    0.39    0.21
  12  -5  -9    2.91    0.34
 -12   5   9    2.99    0.50
  12  -5  -8    2.49    0.35
 -12   5   8    2.42    0.47
  12  -5  -7    2.09    0.34
 -12   5   7    3.55    0.49
  12  -5  -6    0.11    0.13
 -12   5   6    0.21    0.20
  12  -5  -5    0.24    0.13
 -12   5   5    0.02    0.16
  12  -5  -4    5.43    0.45
 -12   5   4    5.51    0.65
  12  -5  -3    4.02    0.43
 -12   5   3    3.14    0.42
  12  -5  -2    2.11    0.32
 -12   5   2    1.41    0.36
  12  -5  -1    4.77    0.45
 -12   5   1    4.87    0.52
  12  -5   0    0.62    0.16
 -12   5   0    0.04    0.16
  12  -5   1    1.56    0.33
 -12   5  -1    1.42    0.29
  12  -5   2    3.90    0.43
 -12   5  -2    3.58    0.53
  12  -5   3   10.90    0.87
 -12   5  -3   11.37    1.04
  12  -5   4    0.86    0.27
 -12   5  -4    0.66    0.21
  12  -5   5    0.20    0.19
 -12   5  -5    0.38    0.23
  12  -5   6    0.21    0.19
 -12   5  -6    0.21    0.16
  12  -5   7    0.63    0.22
 -12   5  -7    1.02    0.25
  12  -5   8    0.36    0.25
 -12   5  -8    0.84    0.24
  12  -5   9    1.26    0.27
 -12   5  -9    1.25    0.25
  12  -5  10    0.20    0.18
 -12   5 -10    0.01    0.13
  12  -5  11    0.15    0.16
 -12   5 -11   -0.09    0.12
  12  -5  12    0.00    0.16
 -12   5 -12   -0.02    0.15
  12  -5  13    0.12    0.20
 -12   5 -13    0.08    0.18
  12  -5  14    1.61    0.31
 -12   5 -14    1.18    0.31
  12  -5  15    1.22    0.27
 -12   5 -15    0.77    0.28
  12  -4 -15    1.68    0.32
 -12   4  15    2.18    0.36
  12  -4 -14    5.51    0.50
 -12   4  14    7.16    0.74
  12  -4 -13    2.30    0.33
 -12   4  13    2.81    0.47
  12  -4 -12    0.18    0.12
 -12   4  12    0.12    0.17
  12  -4 -11    0.74    0.21
 -12   4  11    0.96    0.30
  12  -4 -10    0.71    0.20
 -12   4  10    0.85    0.22
  12  -4  -9    1.06    0.24
 -12   4   9    0.83    0.30
  12  -4  -8    4.30    0.45
 -12   4   8    5.29    0.60
  12  -4  -7    4.58    0.46
 -12   4   7    4.80    0.62
  12  -4  -6    2.60    0.29
 -12   4   6    2.50    0.39
  12  -4  -5    1.49    0.28
 -12   4   5    1.98    0.32
  12  -4  -4    0.16    0.15
 -12   4   4    0.64    0.22
  12  -4  -3    6.31    0.55
 -12   4   3    5.84    0.58
  12  -4  -2    3.63    0.36
 -12   4   2    3.17    0.44
  12  -4  -1    1.21    0.25
 -12   4   1    1.76    0.33
  12  -4   0    3.14    0.37
 -12   4   0    3.26    0.46
  12  -4   1   13.02    1.02
 -12   4  -1   11.43    0.96
  12  -4   2    0.77    0.21
 -12   4  -2    0.55    0.21
  12  -4   3    0.44    0.17
 -12   4  -3   -0.26    0.18
  12  -4   4    3.35    0.37
 -12   4  -4    2.94    0.40
  12  -4   5    7.46    0.66
 -12   4  -5    8.60    0.76
  12  -4   6    0.54    0.21
 -12   4  -6    0.34    0.18
  12  -4   7    0.01    0.16
 -12   4  -7    0.07    0.14
  12  -4   8    0.05    0.16
 -12   4  -8    0.53    0.16
  12  -4   9    0.96    0.28
 -12   4  -9    0.69    0.26
  12  -4  10    1.09    0.32
 -12   4 -10    1.05    0.22
  12  -4  11    0.29    0.18
 -12   4 -11    0.25    0.15
  12  -4  12    0.00    0.13
 -12   4 -12    0.06    0.15
  12  -4  13    1.01    0.30
 -12   4 -13    0.74    0.26
  12  -4  14    0.45    0.25
 -12   4 -14    0.30    0.20
  12  -4  15    0.28    0.20
 -12   4 -15    0.24    0.20
  12  -4  16    0.26    0.25
 -12   3  16    0.02    0.17
 -12   3  15   -0.06    0.18
  12  -3 -14    0.14    0.13
 -12   3  14    0.07    0.19
  12  -3 -13    0.23    0.14
 -12   3  13    0.20    0.21
  12  -3 -12    0.33    0.14
 -12   3  12    0.09    0.17
  12  -3 -11    0.74    0.17
 -12   3  11    0.39    0.26
  12  -3 -10    0.59    0.17
 -12   3  10    0.21    0.23
  12  -3  -9    0.40    0.17
 -12   3   9    0.67    0.20
  12  -3  -8   -0.03    0.10
 -12   3   8    0.24    0.13
  12  -3  -7    1.48    0.27
 -12   3   7    1.70    0.27
  12  -3  -6    0.49    0.17
 -12   3   6    0.50    0.17
  12  -3  -5    0.42    0.15
 -12   3   5    0.78    0.22
  12  -3  -4    0.01    0.13
 -12   3   4   -0.04    0.12
  12  -3  -3   -0.01    0.11
 -12   3   3   -0.22    0.16
  12  -3  -2    5.33    0.45
 -12   3   2    5.25    0.53
  12  -3  -1    0.40    0.15
 -12   3   1    0.12    0.16
  12  -3   0   34.13    2.08
 -12   3   0   32.12    2.17
  12  -3   1    0.21    0.14
 -12   3  -1    0.08    0.18
  12  -3   2    5.89    0.58
 -12   3  -2    5.92    0.64
  12  -3   3    0.67    0.19
 -12   3  -3    0.69    0.21
 -12   3  -4    1.69    0.33
  12  -3   5    0.19    0.17
 -12   3  -5    0.60    0.20
  12  -3   6    2.00    0.27
 -12   3  -6    1.36    0.32
  12  -3   7   -0.02    0.14
 -12   3  -7    0.02    0.14
  12  -3   8    0.13    0.15
 -12   3  -8    0.20    0.17
  12  -3   9    1.00    0.28
 -12   3  -9    0.88    0.23
  12  -3  10    0.19    0.13
 -12   3 -10   -0.12    0.13
  12  -3  11    0.33    0.18
 -12   3 -11    0.21    0.18
  12  -3  12    0.11    0.15
 -12   3 -12   -0.23    0.14
  12  -3  13    1.03    0.35
 -12   3 -13    1.10    0.27
  12  -3  14    0.01    0.19
 -12   3 -14    0.10    0.16
  12  -3  15    0.15    0.18
  12  -3  16    0.18    0.20
  12  -2 -16    0.44    0.25
  12  -2 -15    2.10    0.40
  12  -2 -14    1.47    0.28
  12  -2 -13    0.42    0.16
  12  -2 -13    0.60    0.19
  12  -2 -12    0.17    0.13
  12  -2 -11    0.01    0.10
 -12   2  11    0.03    0.09
  12  -2 -10    2.48    0.30
 -12   2  10    2.22    0.35
  12  -2  -9    0.07    0.11
 -12   2   9   -0.00    0.15
  12  -2  -8    0.80    0.23
 -12   2   8    4.21    0.36
  12  -2  -7    1.06    0.20
 -12   2   7    0.76    0.26
  12  -2  -6    0.82    0.19
 -12   2   6    0.42    0.23
  12  -2  -5    1.59    0.29
 -12   2   5    1.32    0.26
  12  -2  -4    0.24    0.11
 -12   2   4    0.09    0.18
  12  -2  -3   -0.11    0.15
 -12   2   3   -0.23    0.16
  12  -2  -2    0.77    0.19
 -12   2   2    1.14    0.29
  12  -2  -1    1.03    0.20
 -12   2   1    0.70    0.29
  12  -2   0    1.14    0.24
 -12   2   0    1.73    0.28
  12  -2   1    0.84    0.18
 -12   2  -1    0.72    0.22
  12  -2   2    1.96    0.33
 -12   2  -2    2.26    0.38
  12  -2   3    2.38    0.30
 -12   2  -3    2.09    0.30
  12  -2   4    3.52    0.39
 -12   2  -4    4.06    0.48
  12  -2   5    0.32    0.18
 -12   2  -5    0.14    0.17
  12  -2   6   -0.09    0.11
 -12   2  -6    0.10    0.13
  12  -2   7    0.82    0.20
 -12   2  -7    0.64    0.23
  12  -2   8    1.33    0.29
 -12   2  -8    0.92    0.22
  12  -2   9    0.73    0.24
 -12   2  -9    0.43    0.20
  12  -2  10    0.95    0.24
 -12   2 -10    0.81    0.24
  12  -2  11    0.79    0.22
 -12   2 -11    0.46    0.20
  12  -2  12   -0.26    0.18
 -12   2 -12   -0.24    0.16
  12  -2  13    0.26    0.25
 -12   2 -13    0.38    0.18
  12  -2  14    0.36    0.21
  12  -2  15    0.00    0.16
  12  -2  16    0.14    0.19
  12  -1 -16   -0.05    0.18
  12  -1 -15    0.83    0.29
  12  -1 -14    0.94    0.30
  12  -1 -13    0.16    0.16
  12  -1 -12    0.55    0.17
  12  -1 -12    0.67    0.20
  12  -1 -11    2.99    0.31
  12  -1 -11    3.62    0.44
  12  -1 -10    0.81    0.22
  12  -1  -9   -0.10    0.10
  12  -1  -9    0.10    0.12
  12  -1  -8    5.36    0.45
  12  -1  -8    5.32    0.50
  12  -1  -7    3.05    0.26
 -12   1   7    1.17    0.22
  12  -1  -6    0.25    0.12
 -12   1   6    0.19    0.16
  12  -1  -5    1.89    0.30
 -12   1   5    1.19    0.30
  12  -1  -4    0.39    0.16
 -12   1   4    0.34    0.17
  12  -1  -3    2.44    0.32
 -12   1   3    2.13    0.39
  12  -1  -2    8.34    0.61
 -12   1   2    9.30    0.82
  12  -1  -1    0.82    0.18
 -12   1   1    0.65    0.27
  12  -1   0    0.31    0.13
 -12   1   0   -0.00    0.21
  12  -1   1   -0.11    0.10
 -12   1  -1    0.13    0.12
  12  -1   2    2.09    0.34
 -12   1  -2    2.37    0.36
  12  -1   3    1.28    0.24
 -12   1  -3    1.91    0.28
  12  -1   4    1.64    0.28
 -12   1  -4    0.84    0.27
  12  -1   5    0.17    0.13
 -12   1  -5   -0.17    0.12
  12  -1   6   -0.01    0.15
 -12   1  -6    0.41    0.14
  12  -1   7    1.88    0.31
 -12   1  -7    1.91    0.25
  12  -1   8    1.23    0.30
 -12   1  -8    1.24    0.26
  12  -1   9    0.35    0.18
 -12   1  -9   -0.05    0.15
  12  -1  10    3.82    0.49
 -12   1 -10    2.86    0.40
  12  -1  11   -0.11    0.21
 -12   1 -11    0.34    0.14
  12  -1  12    0.01    0.18
 -12   1 -12   -0.16    0.13
  12  -1  13    0.05    0.15
  12  -1  14    0.24    0.24
  12  -1  15    0.22    0.20
  12   0 -16    0.00    0.15
  12   0 -15    0.15    0.19
  12   0 -14    0.08    0.17
  12   0 -13    1.04    0.29
 -12   0  13    0.82    0.27
  12   0 -12    1.40    0.28
 -12   0  12    1.39    0.25
  12   0 -11    1.68    0.22
  12   0 -11    2.21    0.33
 -12   0  11    1.51    0.25
  12   0 -10   -0.05    0.09
  12   0 -10    0.15    0.12
 -12   0  10   -0.08    0.10
  12   0  -9    0.53    0.14
  12   0  -9    0.36    0.17
 -12   0   9    0.57    0.13
  12   0  -8    1.12    0.19
  12   0  -8    1.00    0.25
 -12   0   8    0.91    0.17
  12   0  -7    7.40    0.54
  12   0  -7    6.43    0.60
 -12   0   7    6.25    0.45
  12   0  -6    0.14    0.12
  12   0  -6    0.15    0.13
  12   0  -5    0.01    0.10
  12   0  -5    0.00    0.10
  12   0  -4    2.01    0.28
 -12   0   4    1.66    0.30
  12   0  -3    7.24    0.52
 -12   0   3    7.74    0.72
  12   0  -2    3.27    0.35
 -12   0   2    2.49    0.36
  12   0  -1    0.26    0.12
 -12   0   1    0.07    0.15
  12   0   0    4.88    0.42
 -12   0   0    5.34    0.57
  12   0   1    5.56    0.46
 -12   0  -1    5.99    0.66
  12   0   2    3.28    0.41
 -12   0  -2    3.25    0.39
 -12   0  -3    4.34    0.44
  12   0   4    4.53    0.41
 -12   0  -4    4.21    0.49
  12   0   5    1.02    0.27
 -12   0  -5    1.12    0.22
  12   0   6    0.18    0.17
 -12   0  -6    0.69    0.18
  12   0   7    0.30    0.21
 -12   0  -7    0.73    0.19
  12   0   8    0.24    0.17
 -12   0  -8    0.33    0.16
  12   0   9    4.43    0.55
 -12   0  -9    3.77    0.39
  12   0  10    2.57    0.44
 -12   0 -10    2.43    0.32
  12   0  11    1.40    0.31
 -12   0 -11    0.89    0.23
  12   0  12    0.18    0.17
  12   0  13    0.39    0.27
  12   0  14    0.08    0.18
  12   0  15   -0.05    0.21
  12   1 -15    0.16    0.20
  12   1 -14    1.53    0.33
 -12  -1  14    1.09    0.31
  12   1 -13    0.44    0.19
 -12  -1  13    0.53    0.20
  12   1 -12   -0.13    0.14
 -12  -1  12   -0.08    0.14
  12   1 -11    0.07    0.13
 -12  -1  11   -0.06    0.11
  12   1 -10    0.38    0.16
 -12  -1  10    0.36    0.17
  12   1  -9    0.23    0.13
  12   1  -9    0.78    0.17
 -12  -1   9    0.57    0.15
  12   1  -8    0.11    0.10
  12   1  -8    0.17    0.15
 -12  -1   8    0.07    0.10
  12   1  -7    0.00    0.11
  12   1  -7    0.26    0.16
 -12  -1   7    0.18    0.10
  12   1  -6   -0.07    0.09
 -12  -1   6    0.05    0.08
  12   1  -5    0.53    0.15
  12   1  -5    0.29    0.15
 -12  -1   5    0.46    0.13
  12   1  -4    0.80    0.19
  12   1  -4    0.86    0.22
 -12  -1   4    0.74    0.12
  12   1  -3    0.02    0.11
  12   1  -3    0.03    0.11
  12   1  -2    0.39    0.15
 -12  -1   2    0.21    0.09
 -12  -1   2    0.40    0.17
  12   1  -1    0.67    0.20
 -12  -1   1    1.05    0.22
  12   1   0   -0.01    0.11
 -12  -1   0   -0.05    0.14
 -12  -1   0   -0.00    0.08
  12   1   1    1.40    0.22
 -12  -1  -1    0.61    0.13
 -12  -1  -1    1.38    0.28
  12   1   2    3.55    0.39
 -12  -1  -2    3.57    0.47
  12   1   3   -0.15    0.12
 -12  -1  -3    0.37    0.12
 -12  -1  -3    0.01    0.08
  12   1   4    4.27    0.40
 -12  -1  -4    3.13    0.32
 -12  -1  -4    5.25    0.43
 -12  -1  -5    1.56    0.25
 -12  -1  -5    0.74    0.16
  12   1   6   -0.29    0.16
 -12  -1  -6   -0.05    0.13
 -12  -1  -6    0.02    0.09
  12   1   7    1.41    0.24
 -12  -1  -7    1.25    0.23
 -12  -1  -7    0.79    0.18
  12   1   8    0.87    0.29
 -12  -1  -8    0.71    0.18
 -12  -1  -8    1.14    0.22
  12   1   9    4.46    0.45
 -12  -1  -9    4.08    0.41
 -12  -1  -9    2.40    0.36
  12   1  10    9.38    0.81
 -12  -1 -10    8.42    0.68
 -12  -1 -10    5.33    0.60
  12   1  11    2.86    0.42
 -12  -1 -11    1.10    0.27
  12   1  12   -0.22    0.20
 -12  -1 -12    0.00    0.13
  12   1  13   -0.13    0.18
  12   1  14    0.43    0.29
  12   1  15    1.37    0.36
  12   2 -15    1.23    0.27
 -12  -2  15    0.85    0.33
  12   2 -14    1.43    0.28
 -12  -2  14    1.23    0.27
  12   2 -13    1.02    0.34
 -12  -2  13    1.51    0.29
  12   2 -12    0.89    0.31
 -12  -2  12    1.28    0.28
  12   2 -11    1.84    0.29
 -12  -2  11    2.24    0.33
  12   2 -10    0.54    0.18
 -12  -2  10    0.06    0.15
  12   2  -9    0.11    0.10
 -12  -2   9   -0.10    0.11
  12   2  -8    0.04    0.10
  12   2  -8    0.09    0.12
 -12  -2   8    0.15    0.11
  12   2  -7    0.20    0.13
  12   2  -7    0.11    0.13
 -12  -2   7    0.17    0.12
  12   2  -6    0.02    0.08
  12   2  -6   -0.12    0.10
 -12  -2   6    0.08    0.09
  12   2  -5   -0.07    0.10
  12   2  -5    0.09    0.12
 -12  -2   5   -0.01    0.08
  12   2  -4    4.08    0.37
  12   2  -4    3.99    0.43
 -12  -2   4    3.36    0.30
  12   2  -3    0.11    0.15
  12   2  -3    0.47    0.18
 -12  -2   3    0.22    0.12
  12   2  -2    1.90    0.25
  12   2  -2    1.37    0.24
 -12  -2   2    1.47    0.20
  12   2  -1    0.52    0.17
 -12  -2   1    0.58    0.19
 -12  -2   1    0.53    0.13
  12   2   0    0.25    0.11
 -12  -2   0    0.01    0.16
 -12  -2   0   -0.11    0.10
  12   2   1    1.69    0.28
 -12  -2  -1    2.24    0.28
 -12  -2  -1    1.17    0.19
  12   2   2    5.83    0.45
 -12  -2  -2    3.69    0.37
 -12  -2  -2    6.03    0.56
  12   2   3    0.11    0.16
 -12  -2  -3    0.27    0.16
 -12  -2  -3    0.04    0.09
  12   2   4    0.03    0.15
 -12  -2  -4    0.19    0.15
 -12  -2  -4    0.07    0.10
  12   2   5    0.56    0.22
 -12  -2  -5    0.58    0.15
 -12  -2  -5    0.69    0.21
  12   2   6    0.31    0.14
 -12  -2  -6    0.23    0.15
 -12  -2  -6    0.09    0.12
  12   2   7    0.79    0.24
 -12  -2  -7    0.59    0.16
 -12  -2  -7    0.53    0.16
  12   2   8   -0.09    0.14
 -12  -2  -8    0.01    0.12
  12   2   9    0.64    0.19
 -12  -2  -9    0.22    0.17
 -12  -2  -9    0.55    0.16
  12   2  10    0.34    0.18
 -12  -2 -10    0.18    0.16
  12   2  11    0.42    0.20
 -12  -2 -11    0.16    0.17
  12   2  12    0.15    0.23
 -12  -2 -12    0.25    0.17
  12   2  13    1.09    0.28
 -12  -2 -13    0.66    0.25
  12   2  14    0.80    0.35
  12   3 -15    0.10    0.17
 -12  -3  15    0.08    0.16
  12   3 -14    0.70    0.23
 -12  -3  14    0.72    0.27
  12   3 -13    0.43    0.20
 -12  -3  13    0.37    0.24
  12   3 -12    1.82    0.31
 -12  -3  12    2.83    0.39
  12   3 -11    1.10    0.28
 -12  -3  11    0.84    0.26
  12   3 -10    0.72    0.21
 -12  -3  10    0.95    0.23
  12   3  -9   -0.21    0.12
 -12  -3   9    0.33    0.12
  12   3  -8   -0.02    0.14
 -12  -3   8   -0.05    0.12
  12   3  -7    0.43    0.15
  12   3  -7    0.49    0.21
 -12  -3   7    0.52    0.15
  12   3  -6    0.99    0.18
  12   3  -6    1.07    0.28
 -12  -3   6    1.47    0.20
  12   3  -5   -0.07    0.10
  12   3  -5   -0.02    0.11
 -12  -3   5    0.03    0.10
  12   3  -4    0.42    0.15
  12   3  -4    0.36    0.16
 -12  -3   4    0.34    0.14
  12   3  -3   11.05    0.74
  12   3  -3   10.62    0.86
 -12  -3   3    9.47    0.66
  12   3  -2    5.42    0.43
  12   3  -2    5.15    0.56
 -12  -3   2    5.95    0.45
  12   3  -1    0.26    0.14
  12   3  -1    0.14    0.16
 -12  -3   1    0.13    0.11
 -12  -3   0    0.07    0.09
 -12  -3   0   -0.02    0.09
  12   3   1    4.50    0.48
 -12  -3  -1    5.47    0.57
  12   3   2    3.04    0.39
 -12  -3  -2    3.55    0.37
 -12  -3  -2    2.36    0.28
  12   3   3    5.70    0.50
 -12  -3  -3    4.60    0.46
 -12  -3  -3    6.73    0.59
  12   3   4    0.89    0.20
 -12  -3  -4    1.00    0.20
 -12  -3  -4    0.56    0.17
  12   3   5   -0.03    0.14
 -12  -3  -5    0.07    0.10
 -12  -3  -5    0.02    0.13
  12   3   6   -0.03    0.15
 -12  -3  -6    0.07    0.12
 -12  -3  -6   -0.05    0.10
  12   3   7    1.62    0.28
 -12  -3  -7    2.18    0.28
 -12  -3  -7    1.08    0.27
  12   3   8    3.38    0.38
 -12  -3  -8    2.21    0.31
 -12  -3  -8    1.87    0.34
  12   3   9    1.57    0.29
 -12  -3  -9    1.31    0.28
  12   3  10    0.98    0.27
 -12  -3 -10    0.89    0.24
  12   3  11    0.01    0.16
 -12  -3 -11    0.09    0.14
  12   3  12   -0.12    0.18
 -12  -3 -12    0.08    0.13
  12   3  13    0.11    0.20
 -12  -3 -13    0.21    0.18
 -12  -3 -14   -0.02    0.16
  12   4 -14    0.13    0.14
 -12  -4  14   -0.18    0.15
  12   4 -13    0.10    0.18
 -12  -4  13    0.79    0.24
  12   4 -12    0.50    0.21
 -12  -4  12    0.57    0.25
  12   4 -11    0.30    0.25
 -12  -4  11    0.71    0.23
  12   4 -10    0.85    0.24
 -12  -4  10    1.48    0.27
  12   4  -9    0.22    0.18
 -12  -4   9    0.09    0.15
  12   4  -8   -0.08    0.14
 -12  -4   8    0.04    0.11
  12   4  -7    0.40    0.16
 -12  -4   7    0.28    0.16
  12   4  -6    0.30    0.16
 -12  -4   6    0.00    0.12
  12   4  -5    0.01    0.09
  12   4  -5   -0.04    0.13
 -12  -4   5   -0.02    0.10
  12   4  -4    1.70    0.25
  12   4  -4    1.75    0.28
 -12  -4   4    2.20    0.26
  12   4  -3    0.36    0.16
  12   4  -3    0.61    0.21
 -12  -4   3    0.47    0.16
  12   4  -2    0.95    0.21
  12   4  -2    1.45    0.22
 -12  -4   2    1.03    0.20
  12   4  -1    1.33    0.21
  12   4  -1    1.14    0.22
 -12  -4   1    0.85    0.20
  12   4   0   -0.15    0.13
  12   4   0    0.48    0.14
 -12  -4   0   -0.01    0.11
  12   4   1    1.16    0.24
 -12  -4  -1    0.60    0.16
 -12  -4  -1    1.20    0.17
  12   4   2    4.73    0.50
 -12  -4  -2    5.96    0.55
 -12  -4  -2    3.58    0.40
  12   4   3    0.81    0.20
 -12  -4  -3    0.94    0.24
 -12  -4  -3    0.62    0.19
  12   4   4    0.03    0.12
 -12  -4  -4    0.09    0.14
 -12  -4  -4    0.09    0.12
  12   4   5    0.80    0.22
 -12  -4  -5    1.24    0.24
 -12  -4  -5    0.96    0.21
  12   4   6    2.92    0.41
 -12  -4  -6    2.03    0.33
 -12  -4  -6    2.79    0.34
  12   4   7    3.16    0.40
 -12  -4  -7    3.22    0.38
 -12  -4  -7    2.40    0.38
  12   4   8    1.70    0.34
 -12  -4  -8    1.81    0.27
  12   4   9    7.48    0.81
 -12  -4  -9    7.30    0.77
  12   4  10    2.09    0.37
 -12  -4 -10    1.90    0.37
  12   4  11    0.34    0.25
 -12  -4 -11    0.25    0.21
  12   4  12   -0.23    0.17
 -12  -4 -12    0.06    0.13
  12   4  13    0.76    0.30
 -12  -4 -13    0.25    0.24
  12   5 -13    0.29    0.19
 -12  -5  13    0.39    0.24
  12   5 -12    0.18    0.21
 -12  -5  12    0.23    0.17
  12   5 -11    0.32    0.18
 -12  -5  11   -0.02    0.15
  12   5 -10    0.33    0.17
 -12  -5  10    0.37    0.20
  12   5  -9    0.13    0.18
 -12  -5   9    0.20    0.17
  12   5  -8    0.91    0.26
 -12  -5   8    0.97    0.23
  12   5  -7    0.27    0.18
 -12  -5   7    0.19    0.13
  12   5  -6    2.13    0.36
 -12  -5   6    2.04    0.30
  12   5  -5    0.95    0.26
 -12  -5   5    0.75    0.17
  12   5  -4    0.76    0.20
  12   5  -4    1.36    0.22
 -12  -5   4    0.77    0.22
  12   5  -3   -0.21    0.12
  12   5  -3   -0.26    0.15
 -12  -5   3    0.05    0.14
  12   5  -2    0.70    0.19
  12   5  -2    0.68    0.20
 -12  -5   2    1.15    0.21
  12   5  -1    0.26    0.14
 -12  -5   1    0.13    0.13
  12   5   0   -0.03    0.13
  12   5   0    0.26    0.14
 -12  -5   0   -0.01    0.12
  12   5   1   -0.04    0.14
  12   5   1    0.02    0.14
 -12  -5  -1   -0.13    0.12
  12   5   2    1.50    0.33
 -12  -5  -2    2.23    0.28
 -12  -5  -2    1.71    0.24
  12   5   3    2.70    0.33
 -12  -5  -3    3.88    0.42
 -12  -5  -3    2.34    0.34
  12   5   4    0.77    0.22
 -12  -5  -4    0.82    0.23
  12   5   5    0.27    0.18
 -12  -5  -5   -0.05    0.15
 -12  -5  -5    0.20    0.14
  12   5   6    0.02    0.19
 -12  -5  -6    0.19    0.14
 -12  -5  -6    0.20    0.15
  12   5   7    0.28    0.21
 -12  -5  -7    0.19    0.14
  12   5   8    3.27    0.54
 -12  -5  -8    3.42    0.48
  12   5   9    0.85    0.32
 -12  -5  -9    0.94    0.28
  12   5  10    1.23    0.39
 -12  -5 -10    1.52    0.33
  12   5  11    0.02    0.17
 -12  -5 -11    0.18    0.15
  12   5  12    0.70    0.30
 -12  -5 -12    0.48    0.22
  12   6 -12    0.66    0.26
 -12  -6  12    1.12    0.32
  12   6 -11    0.96    0.23
 -12  -6  11    0.21    0.29
  12   6 -10    0.71    0.26
 -12  -6  10    0.67    0.25
  12   6  -9    0.34    0.21
 -12  -6   9    1.03    0.24
  12   6  -8    0.67    0.20
 -12  -6   8    0.40    0.18
  12   6  -7    2.41    0.40
 -12  -6   7    2.40    0.36
  12   6  -6    0.83    0.27
 -12  -6   6    0.74    0.23
  12   6  -5    0.83    0.26
 -12  -6   5    0.74    0.22
  12   6  -4   -0.15    0.12
 -12  -6   4    0.08    0.13
  12   6  -3    0.83    0.24
 -12  -6   3    0.68    0.22
  12   6  -2    0.02    0.11
  12   6  -2   -0.02    0.14
 -12  -6   2    0.08    0.13
  12   6  -1    0.72    0.20
  12   6  -1    0.75    0.20
 -12  -6   1    0.84    0.22
  12   6   0    0.11    0.18
  12   6   0    0.40    0.16
 -12  -6   0    0.43    0.14
  12   6   1    0.21    0.14
  12   6   1   -0.09    0.13
 -12  -6  -1    0.07    0.13
  12   6   2    0.01    0.13
  12   6   2   -0.19    0.13
 -12  -6  -2    0.06    0.13
  12   6   3    0.36    0.20
 -12  -6  -3    0.32    0.19
 -12  -6  -3    0.31    0.14
  12   6   4    0.90    0.29
 -12  -6  -4    1.42    0.27
 -12  -6  -4    1.22    0.26
  12   6   5    5.91    0.70
 -12  -6  -5    6.79    0.61
 -12  -6  -5    5.63    0.66
  12   6   6    0.09    0.18
 -12  -6  -6    0.17    0.17
  12   6   7    0.11    0.16
 -12  -6  -7    0.06    0.17
  12   6   8    0.25    0.19
 -12  -6  -8    0.40    0.21
  12   6   9    0.08    0.16
 -12  -6  -9   -0.21    0.17
  12   6  10    0.71    0.25
 -12  -6 -10    0.73    0.28
  12   7 -11    1.13    0.27
 -12  -7  11    0.17    0.28
  12   7 -10    0.20    0.18
 -12  -7  10    0.15    0.21
  12   7  -9    0.04    0.19
 -12  -7   9    0.10    0.18
  12   7  -8    0.90    0.37
 -12  -7   8    2.80    0.32
  12   7  -7   -0.29    0.13
 -12  -7   7    0.29    0.14
  12   7  -6    0.11    0.13
 -12  -7   6   -0.04    0.12
  12   7  -5    1.21    0.29
 -12  -7   5    1.00    0.27
  12   7  -4   -0.08    0.17
 -12  -7   4   -0.07    0.16
  12   7  -3    0.04    0.13
 -12  -7   3    0.06    0.14
  12   7  -2    1.22    0.26
 -12  -7   2    0.78    0.21
  12   7  -1    0.06    0.14
  12   7  -1    0.16    0.15
 -12  -7   1    0.07    0.15
  12   7   0   -0.08    0.16
  12   7   0    0.15    0.14
 -12  -7   0    0.25    0.16
  12   7   1   -0.07    0.10
  12   7   1    0.10    0.12
 -12  -7  -1    0.05    0.13
  12   7   2    0.32    0.14
  12   7   2    0.09    0.15
 -12  -7  -2   -0.10    0.15
  12   7   3   -0.16    0.12
 -12  -7  -3   -0.01    0.12
 -12  -7  -3   -0.06    0.15
  12   7   4    0.70    0.20
 -12  -7  -4    0.89    0.23
 -12  -7  -4    0.41    0.25
  12   7   5    0.46    0.24
 -12  -7  -5    0.84    0.24
  12   7   6    0.16    0.15
 -12  -7  -6   -0.07    0.17
  12   7   7    2.82    0.47
 -12  -7  -7    1.98    0.46
  12   7   8   -0.02    0.19
 -12  -7  -8    0.14    0.18
  12   7   9    1.22    0.40
 -12  -7  -9    1.45    0.36
  12   8  -9    0.14    0.18
 -12  -8   9   -0.04    0.17
  12   8  -8    0.26    0.22
 -12  -8   8    0.78    0.20
  12   8  -7   -0.05    0.16
 -12  -8   7    0.32    0.15
  12   8  -6   -0.27    0.15
 -12  -8   6    0.14    0.18
  12   8  -5    0.17    0.13
 -12  -8   5   -0.13    0.12
  12   8  -4    0.26    0.23
 -12  -8   4    0.53    0.22
  12   8  -3    0.09    0.17
 -12  -8   3    0.14    0.17
  12   8  -2    0.04    0.17
 -12  -8   2   -0.18    0.13
  12   8  -1    2.07    0.35
 -12  -8   1    1.78    0.31
  12   8   0    0.18    0.18
 -12  -8   0    0.24    0.18
  12   8   1    0.33    0.19
  12   8   1    0.44    0.20
 -12  -8  -1    0.42    0.22
  12   8   2    0.22    0.16
  12   8   2    0.15    0.14
 -12  -8  -2    0.24    0.19
  12   8   3    0.64    0.28
 -12  -8  -3    1.08    0.27
  12   8   4    0.08    0.14
 -12  -8  -4    0.06    0.18
  12   8   5    0.30    0.21
 -12  -8  -5    0.32    0.23
  12   8   6    0.43    0.23
 -12  -8  -6    1.08    0.28
 -12  -9   6    1.12    0.28
  12   9  -5    1.16    0.28
 -12  -9   5    1.02    0.34
  12   9  -4    0.14    0.21
 -12  -9   4    0.38    0.18
  12   9  -3    0.45    0.22
 -12  -9   3    0.21    0.22
  12   9  -2    0.46    0.22
 -12  -9   2    0.25    0.18
  12   9  -1    0.74    0.27
 -12  -9   1    1.20    0.30
  12   9   0    0.22    0.19
 -12  -9   0    0.21    0.20
 -12  -9  -1    0.33    0.24
 -12  -9  -2    0.21    0.16
 -12  -9  -3    0.47    0.21
  13 -12  -2    1.25    0.36
 -13  12   2    0.66    0.30
  13 -12  -1    0.12    0.22
 -13  12   1    0.07    0.18
  13 -12   0   -0.12    0.17
 -13  12   0    0.01    0.17
  13 -12   1    1.03    0.31
 -13  12  -1    1.14    0.40
  13 -12   2   -0.06    0.16
 -13  12  -2    0.12    0.19
  13 -12   3    0.69    0.33
 -13  12  -3    0.42    0.27
  13 -12   4    0.19    0.20
 -13  12  -4    0.15    0.24
  13 -11  -6    2.21    0.43
 -13  11   6    1.67    0.55
  13 -11  -5    0.18    0.17
 -13  11   5   -0.02    0.19
  13 -11  -4    1.10    0.27
 -13  11   4    0.36    0.29
  13 -11  -3    0.20    0.18
 -13  11   3    0.03    0.19
  13 -11  -2   -0.04    0.16
 -13  11   2    0.12    0.17
  13 -11  -1    2.32    0.38
 -13  11   1    1.37    0.48
  13 -11   0    1.73    0.38
 -13  11   0    1.78    0.44
  13 -11   1    3.69    0.51
 -13  11  -1    2.66    0.46
  13 -11   2    0.26    0.22
 -13  11  -2    0.25    0.25
  13 -11   3    1.20    0.29
 -13  11  -3    0.36    0.29
  13 -11   4   -0.16    0.19
 -13  11  -4    0.14    0.21
  13 -11   5    0.36    0.22
 -13  11  -5    0.32    0.29
  13 -11   6    0.16    0.26
 -13  11  -6    0.57    0.24
  13 -11   7    0.37    0.31
 -13  11  -7    0.20    0.23
 -13  11  -8    0.38    0.29
  13 -10  -8    0.16    0.16
 -13  10   8    0.16    0.20
  13 -10  -7   -0.29    0.19
 -13  10   7    0.03    0.24
  13 -10  -6    0.16    0.18
 -13  10   6    0.63    0.29
  13 -10  -5    2.25    0.34
 -13  10   5    0.65    0.47
  13 -10  -4    0.18    0.19
 -13  10   4   -0.12    0.22
  13 -10  -3   -0.12    0.20
 -13  10   3    0.46    0.24
  13 -10  -2    0.18    0.17
 -13  10   2   -0.06    0.24
  13 -10  -1   -0.09    0.18
 -13  10   1   -0.16    0.18
  13 -10   0    1.23    0.32
 -13  10   0    1.16    0.39
  13 -10   1    1.91    0.43
 -13  10  -1    1.73    0.37
  13 -10   2    0.85    0.27
 -13  10  -2    0.39    0.31
  13 -10   3    0.70    0.22
 -13  10  -3    0.25    0.23
  13 -10   4   -0.03    0.19
 -13  10  -4    0.15    0.20
  13 -10   5    0.57    0.37
 -13  10  -5    0.84    0.33
  13 -10   6    0.77    0.30
 -13  10  -6    0.71    0.32
  13 -10   7    0.78    0.31
 -13  10  -7    0.39    0.27
  13 -10   8    0.26    0.20
 -13  10  -8    0.06    0.20
  13 -10   9    0.04    0.24
 -13  10  -9    0.30    0.23
 -13  10 -10    0.23    0.22
 -13   9  10    0.21    0.26
  13  -9  -9   -0.06    0.17
 -13   9   9    0.14    0.20
  13  -9  -8    0.62    0.20
 -13   9   8    0.27    0.25
  13  -9  -7    0.33    0.20
 -13   9   7    0.04    0.25
  13  -9  -6    0.34    0.18
 -13   9   6    0.20    0.25
  13  -9  -5    0.36    0.22
 -13   9   5    0.32    0.27
  13  -9  -4    0.28    0.16
 -13   9   4    0.06    0.24
  13  -9  -3   -0.10    0.17
 -13   9   3    0.17    0.17
  13  -9  -2    0.83    0.26
 -13   9   2    0.94    0.28
  13  -9  -1    0.41    0.22
 -13   9   1    0.51    0.30
  13  -9   0    0.27    0.20
 -13   9   0    0.38    0.23
  13  -9   1    0.41    0.27
 -13   9  -1    0.65    0.29
  13  -9   2    0.05    0.24
 -13   9  -2    0.06    0.17
  13  -9   3    0.03    0.22
 -13   9  -3   -0.08    0.16
  13  -9   4    0.18    0.25
 -13   9  -4    0.56    0.26
  13  -9   5    1.25    0.33
 -13   9  -5    1.54    0.39
  13  -9   6    0.04    0.21
 -13   9  -6   -0.12    0.19
  13  -9   7    0.37    0.20
 -13   9  -7    0.09    0.26
  13  -9   8    0.37    0.27
 -13   9  -8    0.32    0.27
  13  -9   9   -0.21    0.16
 -13   9  -9    0.16    0.16
  13  -9  10    1.43    0.31
 -13   9 -10    0.76    0.32
  13  -9  11    0.03    0.26
 -13   9 -11    0.51    0.27
  13  -8 -11    2.51    0.38
 -13   8  11    2.78    0.49
  13  -8 -10    0.82    0.28
 -13   8  10    0.77    0.34
  13  -8  -9    1.60    0.34
 -13   8   9    1.67    0.45
  13  -8  -8    1.26    0.25
 -13   8   8    1.21    0.33
  13  -8  -7    3.63    0.45
 -13   8   7    4.04    0.56
  13  -8  -6    2.70    0.42
 -13   8   6    2.23    0.44
  13  -8  -5    2.35    0.33
 -13   8   5    1.99    0.41
  13  -8  -4   -0.04    0.16
 -13   8   4   -0.10    0.17
  13  -8  -3    2.00    0.31
 -13   8   3    1.19    0.35
  13  -8  -2    1.54    0.35
 -13   8   2    1.13    0.39
  13  -8  -1    2.46    0.36
 -13   8   1    1.95    0.40
  13  -8   0    0.00    0.15
 -13   8   0   -0.10    0.20
  13  -8   1   11.13    1.18
 -13   8  -1    8.74    0.97
  13  -8   2   -0.34    0.24
 -13   8  -2    0.31    0.17
  13  -8   3   -0.33    0.19
 -13   8  -3    0.28    0.15
  13  -8   4    0.26    0.22
 -13   8  -4    0.14    0.23
  13  -8   5    1.00    0.31
 -13   8  -5    0.45    0.30
  13  -8   6    2.22    0.38
 -13   8  -6    1.56    0.35
  13  -8   7    1.38    0.38
 -13   8  -7    0.84    0.28
  13  -8   8    0.08    0.17
 -13   8  -8    0.13    0.17
  13  -8   9    0.14    0.21
 -13   8  -9    0.05    0.22
  13  -8  10    0.35    0.24
 -13   8 -10    0.05    0.23
  13  -8  11    0.15    0.17
 -13   8 -11   -0.03    0.17
  13  -8  12    0.05    0.17
 -13   8 -12    0.02    0.18
  13  -7 -12    0.05    0.20
 -13   7  12    0.53    0.26
  13  -7 -11    0.17    0.18
 -13   7  11   -0.00    0.19
  13  -7 -10   -0.30    0.19
 -13   7  10   -0.12    0.26
  13  -7  -9    0.25    0.19
 -13   7   9    0.18    0.26
  13  -7  -8    0.20    0.15
 -13   7   8    0.11    0.18
  13  -7  -7   -0.02    0.12
 -13   7   7    0.01    0.15
  13  -7  -6    1.78    0.30
 -13   7   6    1.23    0.35
  13  -7  -5    0.11    0.17
 -13   7   5    0.27    0.19
  13  -7  -4    0.75    0.20
 -13   7   4    0.40    0.31
  13  -7  -3    1.12    0.26
 -13   7   3    1.18    0.37
  13  -7  -2   -0.12    0.20
 -13   7   2    0.32    0.18
  13  -7  -1    1.29    0.31
 -13   7   1    2.23    0.40
  13  -7   0    0.20    0.20
 -13   7   0    0.08    0.17
  13  -7   1    1.23    0.33
 -13   7  -1    0.63    0.25
  13  -7   2    0.43    0.27
 -13   7  -2    0.47    0.25
  13  -7   3    0.13    0.15
 -13   7  -3    0.03    0.18
  13  -7   4    3.95    0.53
 -13   7  -4    4.38    0.61
  13  -7   5   10.09    1.04
 -13   7  -5    9.16    0.99
  13  -7   6    0.10    0.23
 -13   7  -6    0.24    0.19
  13  -7   7    0.16    0.19
 -13   7  -7    0.14    0.21
  13  -7   8    0.48    0.25
 -13   7  -8    0.15    0.23
  13  -7   9    0.09    0.21
 -13   7  -9    0.37    0.20
  13  -7  10    1.64    0.32
 -13   7 -10    1.20    0.39
  13  -7  11    0.12    0.29
 -13   7 -11    0.63    0.22
  13  -7  12    2.89    0.47
 -13   7 -12    1.48    0.46
  13  -7  13    0.84    0.23
 -13   7 -13    0.24    0.29
 -13   6  13    3.06    0.59
  13  -6 -12   -0.06    0.14
 -13   6  12    0.05    0.16
  13  -6 -11    0.34    0.16
 -13   6  11    0.14    0.28
  13  -6 -10    0.11    0.13
 -13   6  10   -0.03    0.18
  13  -6  -9    0.23    0.16
 -13   6   9    0.23    0.25
  13  -6  -8    0.04    0.11
 -13   6   8   -0.11    0.18
  13  -6  -7    1.66    0.27
 -13   6   7    2.03    0.43
  13  -6  -6    0.29    0.16
 -13   6   6    0.35    0.25
  13  -6  -5    0.09    0.13
 -13   6   5   -0.04    0.18
  13  -6  -4    0.79    0.24
 -13   6   4    0.38    0.28
  13  -6  -3    0.34    0.21
 -13   6   3    0.41    0.22
  13  -6  -2    0.88    0.25
 -13   6   2    0.47    0.28
  13  -6  -1    2.50    0.40
 -13   6   1    2.13    0.39
  13  -6   0    0.50    0.19
 -13   6   0    0.51    0.23
  13  -6   1    3.08    0.49
 -13   6  -1    3.10    0.54
  13  -6   2    2.51    0.40
 -13   6  -2    3.29    0.50
  13  -6   3   10.50    0.91
 -13   6  -3    9.27    1.04
  13  -6   4    2.93    0.44
 -13   6  -4    2.86    0.48
  13  -6   5    1.18    0.31
 -13   6  -5    1.60    0.33
  13  -6   6   -0.03    0.21
 -13   6  -6    0.33    0.20
  13  -6   7    0.21    0.22
 -13   6  -7    0.20    0.22
  13  -6   8    1.47    0.27
 -13   6  -8    0.70    0.27
  13  -6   9   -0.24    0.18
 -13   6  -9   -0.01    0.20
  13  -6  10    1.60    0.39
 -13   6 -10    1.34    0.36
  13  -6  11    1.16    0.26
 -13   6 -11   -0.10    0.20
  13  -6  12    0.40    0.25
 -13   6 -12    0.23    0.20
  13  -6  13    1.38    0.33
 -13   6 -13    0.49    0.34
  13  -5 -13    0.24    0.18
 -13   5  13    0.32    0.25
  13  -5 -12    0.74    0.19
 -13   5  12    0.44    0.26
  13  -5 -11   -0.25    0.18
 -13   5  11   -0.27    0.24
  13  -5 -10    3.79    0.45
 -13   5  10    4.44    0.56
  13  -5  -9    1.14    0.29
 -13   5   9    1.44    0.34
  13  -5  -8    5.07    0.49
 -13   5   8    5.65    0.72
  13  -5  -7    0.81    0.20
 -13   5   7    0.98    0.32
  13  -5  -6    0.16    0.15
 -13   5   6    0.02    0.20
  13  -5  -5    0.53    0.23
 -13   5   5    0.71    0.23
  13  -5  -4   -0.07    0.10
 -13   5   4    0.13    0.13
  13  -5  -3    0.72    0.22
 -13   5   3    0.50    0.26
  13  -5  -2    1.33    0.31
 -13   5   2    1.83    0.31
  13  -5  -1   -0.18    0.14
 -13   5   1    0.14    0.13
  13  -5   0    4.49    0.49
 -13   5   0    4.51    0.61
  13  -5   1    4.18    0.53
 -13   5  -1    3.43    0.58
  13  -5   2    0.96    0.27
 -13   5  -2    1.12    0.32
  13  -5   3    0.09    0.14
 -13   5  -3   -0.05    0.17
  13  -5   4    0.15    0.16
 -13   5  -4    0.12    0.16
  13  -5   5    0.29    0.19
 -13   5  -5    0.28    0.20
  13  -5   6    0.98    0.25
 -13   5  -6    1.24    0.36
  13  -5   7   -0.04    0.18
 -13   5  -7    0.15    0.15
  13  -5   8    1.02    0.25
 -13   5  -8    0.72    0.28
  13  -5   9    0.40    0.24
 -13   5  -9    0.36    0.23
  13  -5  10    0.68    0.27
 -13   5 -10    0.28    0.23
  13  -5  11   -0.08    0.21
 -13   5 -11   -0.18    0.19
  13  -5  12   -0.06    0.19
 -13   5 -12    0.07    0.16
  13  -5  13    0.48    0.25
 -13   5 -13    0.20    0.23
  13  -5  14   -0.23    0.20
 -13   5 -14    0.06    0.18
 -13   4  14    0.01    0.19
  13  -4 -13   -0.01    0.14
 -13   4  13    0.11    0.16
  13  -4 -12    0.03    0.12
 -13   4  12    0.20    0.20
  13  -4 -11    0.76    0.22
 -13   4  11    0.69    0.25
  13  -4 -10    1.03    0.23
 -13   4  10    1.58    0.35
  13  -4  -9    1.45    0.30
 -13   4   9    1.88    0.34
  13  -4  -8    1.95    0.28
 -13   4   8    0.91    0.33
  13  -4  -7    0.28    0.14
 -13   4   7    0.13    0.18
  13  -4  -6    0.67    0.19
 -13   4   6    0.09    0.21
  13  -4  -5    0.06    0.18
 -13   4   5    0.97    0.26
  13  -4  -4    0.77    0.24
 -13   4   4    0.76    0.29
  13  -4  -3    4.38    0.58
 -13   4   3    4.29    0.51
  13  -4  -2    2.38    0.36
 -13   4   2    1.93    0.35
  13  -4  -1    1.24    0.31
 -13   4   1    1.78    0.36
  13  -4   0    3.29    0.38
 -13   4   0    2.54    0.49
  13  -4   1    1.17    0.33
 -13   4  -1    1.81    0.36
  13  -4   2    9.79    0.79
 -13   4  -2    8.79    0.95
  13  -4   3    9.34    0.83
 -13   4  -3    9.32    0.95
  13  -4   4    4.98    0.58
 -13   4  -4    4.16    0.52
  13  -4   5    1.71    0.33
 -13   4  -5    2.24    0.41
  13  -4   6    0.25    0.19
 -13   4  -6    0.43    0.19
  13  -4   7    0.52    0.24
 -13   4  -7    0.33    0.26
  13  -4   8    1.31    0.28
 -13   4  -8    1.22    0.34
  13  -4   9   -0.18    0.20
 -13   4  -9   -0.11    0.20
  13  -4  10    2.28    0.42
 -13   4 -10    1.46    0.36
  13  -4  11    0.53    0.20
 -13   4 -11    0.10    0.21
  13  -4  12    1.93    0.37
 -13   4 -12    1.90    0.40
  13  -4  13    1.45    0.36
 -13   4 -13    0.97    0.32
  13  -4  14   -0.09    0.14
 -13   4 -14    0.07    0.13
 -13   3  14    0.16    0.23
  13  -3 -13    0.18    0.16
 -13   3  13    0.05    0.22
  13  -3 -12    0.05    0.13
 -13   3  12    0.01    0.15
  13  -3 -11    1.64    0.27
 -13   3  11    1.38    0.37
  13  -3 -10    0.09    0.17
 -13   3  10    0.37    0.18
  13  -3  -9    4.34    0.48
 -13   3   9    4.96    0.55
  13  -3  -8   -0.09    0.14
 -13   3   8   -0.19    0.20
  13  -3  -7    1.27    0.21
 -13   3   7    0.96    0.34
  13  -3  -6    0.87    0.20
 -13   3   6    0.00    0.25
  13  -3  -5   -0.04    0.12
 -13   3   5   -0.10    0.14
  13  -3  -4    0.71    0.21
 -13   3   4    0.29    0.26
  13  -3  -3    0.25    0.18
 -13   3   3    0.29    0.19
  13  -3  -2    0.34    0.20
 -13   3   2    0.64    0.25
  13  -3  -1   10.88    0.82
 -13   3   1    9.45    0.91
  13  -3   0    8.99    0.73
 -13   3   0    8.39    0.81
  13  -3   1    4.09    0.49
 -13   3  -1    2.95    0.46
  13  -3   2    4.45    0.49
 -13   3  -2    4.02    0.60
  13  -3   3    0.58    0.17
 -13   3  -3   -0.25    0.22
  13  -3   4    1.47    0.31
 -13   3  -4    0.77    0.25
  13  -3   5   10.19    0.84
 -13   3  -5    9.73    0.94
  13  -3   6    3.72    0.45
 -13   3  -6    3.81    0.51
  13  -3   7   -0.10    0.17
 -13   3  -7    0.19    0.14
  13  -3   8    0.25    0.15
 -13   3  -8   -0.06    0.15
  13  -3   9    2.27    0.42
 -13   3  -9    1.98    0.31
  13  -3  10    5.20    0.64
 -13   3 -10    4.82    0.58
  13  -3  11    5.45    0.71
 -13   3 -11    4.43    0.57
  13  -3  12    1.56    0.34
 -13   3 -12    0.73    0.29
  13  -3  13    0.32    0.22
 -13   3 -13    0.01    0.18
  13  -3  14   -0.12    0.19
 -13   2  14    0.85    0.27
 -13   2  13    0.30    0.25
  13  -2 -12    2.94    0.34
 -13   2  12    3.05    0.53
  13  -2 -11    2.03    0.30
 -13   2  11    2.62    0.39
  13  -2 -10    2.60    0.32
 -13   2  10    1.96    0.37
  13  -2  -9    0.46    0.17
 -13   2   9    0.29    0.25
  13  -2  -8    1.84    0.31
 -13   2   8    2.73    0.42
  13  -2  -7   -0.06    0.10
 -13   2   7   -0.04    0.17
  13  -2  -6    1.10    0.22
 -13   2   6    0.48    0.27
  13  -2  -5    0.11    0.16
 -13   2   5    0.54    0.20
  13  -2  -4    0.29    0.20
 -13   2   4    0.25    0.17
  13  -2  -3    0.15    0.15
 -13   2   3    0.16    0.19
  13  -2  -2   10.85    0.82
 -13   2   2   12.57    1.06
  13  -2  -1    0.10    0.14
 -13   2   1    0.02    0.16
  13  -2   0    4.92    0.58
 -13   2   0    5.42    0.58
  13  -2   1    1.85    0.33
 -13   2  -1    1.39    0.33
  13  -2   2    1.95    0.32
 -13   2  -2    2.16    0.39
  13  -2   3    0.17    0.16
 -13   2  -3    0.39    0.17
  13  -2   4    0.01    0.14
 -13   2  -4    0.24    0.18
  13  -2   5    2.42    0.35
  13  -2   6    0.22    0.16
 -13   2  -6    0.13    0.18
  13  -2   7    0.45    0.26
 -13   2  -7    0.85    0.25
  13  -2   8    0.22    0.17
 -13   2  -8    0.17    0.20
  13  -2   9    1.01    0.27
 -13   2  -9    0.32    0.21
  13  -2  10    1.30    0.37
 -13   2 -10    1.20    0.29
  13  -2  11    1.16    0.33
 -13   2 -11    0.76    0.25
  13  -2  12    2.93    0.48
 -13   2 -12    2.47    0.40
  13  -2  13   -0.16    0.18
  13  -2  14   -0.08    0.22
  13  -1 -14    0.25    0.20
  13  -1 -13    0.09    0.16
  13  -1 -12    2.09    0.42
  13  -1 -11    1.87    0.26
  13  -1 -11    1.93    0.33
  13  -1 -10    0.11    0.13
  13  -1  -9    2.40    0.30
 -13   1   9    2.12    0.36
  13  -1  -8    1.38    0.24
 -13   1   8    1.20    0.27
  13  -1  -7    0.20    0.14
 -13   1   7    0.11    0.15
  13  -1  -6   -0.07    0.13
 -13   1   6   -0.09    0.17
  13  -1  -5    1.73    0.32
 -13   1   5    1.37    0.35
  13  -1  -4    0.01    0.14
 -13   1   4    0.10    0.14
  13  -1  -3    2.67    0.36
 -13   1   3    2.48    0.43
  13  -1  -2    2.53    0.39
 -13   1   2    3.02    0.39
  13  -1  -1    0.85    0.26
 -13   1   1    1.24    0.27
  13  -1   0    2.25    0.40
 -13   1   0    2.89    0.39
  13  -1   1    0.75    0.20
 -13   1  -1    0.79    0.23
  13  -1   2    5.67    0.61
 -13   1  -2    6.36    0.70
  13  -1   3   -0.10    0.12
 -13   1  -3    0.12    0.12
  13  -1   4    3.36    0.40
 -13   1  -4    3.71    0.48
  13  -1   5    0.36    0.19
 -13   1  -5    0.78    0.23
  13  -1   6    0.36    0.19
 -13   1  -6    0.04    0.18
  13  -1   7    0.26    0.21
 -13   1  -7    0.44    0.19
  13  -1   8    3.68    0.53
 -13   1  -8    3.03    0.43
  13  -1   9   -0.08    0.17
 -13   1  -9   -0.15    0.14
  13  -1  10    1.10    0.29
 -13   1 -10    1.18    0.27
  13  -1  11    0.07    0.15
 -13   1 -11   -0.00    0.13
  13  -1  12   -0.10    0.18
 -13   1 -12    0.23    0.12
  13  -1  13    0.18    0.24
  13  -1  14    0.01    0.16
  13   0 -14   -0.02    0.14
  13   0 -13    0.37    0.24
  13   0 -12    0.36    0.23
  13   0 -11    0.82    0.23
  13   0 -10    0.63    0.18
  13   0 -10    0.90    0.27
  13   0  -9    0.08    0.11
  13   0  -9    0.03    0.16
  13   0  -8    0.35    0.14
  13   0  -8    0.10    0.16
  13   0  -7   -0.03    0.11
  13   0  -7   -0.01    0.12
  13   0  -6    0.81    0.21
 -13   0   6    0.28    0.20
  13   0  -5    6.01    0.52
 -13   0   5    5.72    0.67
  13   0  -4    0.68    0.16
 -13   0   4    0.40    0.21
  13   0  -3    0.78    0.22
 -13   0   3    0.81    0.27
  13   0  -2   -0.16    0.11
 -13   0   2    0.15    0.17
  13   0  -1    4.38    0.41
 -13   0   1    4.13    0.50
  13   0   0    0.83    0.19
 -13   0   0    0.77    0.24
  13   0   1    1.39    0.29
 -13   0  -1    1.60    0.37
  13   0   2    0.71    0.24
 -13   0  -2    0.71    0.28
  13   0   3    1.00    0.29
 -13   0  -3    1.66    0.32
  13   0   4    0.73    0.23
 -13   0  -4    0.63    0.21
  13   0   5    1.69    0.34
 -13   0  -5    1.74    0.28
  13   0   6    0.31    0.22
 -13   0  -6    0.39    0.16
  13   0   7    0.66    0.25
 -13   0  -7    1.10    0.25
  13   0   8    3.57    0.50
 -13   0  -8    2.62    0.40
  13   0   9    3.72    0.58
 -13   0  -9    3.86    0.50
  13   0  10    2.27    0.43
 -13   0 -10    1.45    0.33
  13   0  11    3.00    0.48
 -13   0 -11    1.69    0.33
  13   0  12    1.63    0.35
  13   0  13    0.20    0.20
  13   1 -14    0.27    0.24
  13   1 -13    1.32    0.34
  13   1 -12    0.36    0.19
  13   1 -11    0.52    0.24
  13   1 -10    0.68    0.22
  13   1  -9    0.19    0.20
  13   1  -8    0.39    0.15
  13   1  -8    0.50    0.22
  13   1  -7    0.24    0.12
  13   1  -7    0.10    0.18
  13   1  -6    0.44    0.19
  13   1  -6    0.22    0.21
  13   1  -5    0.37    0.15
  13   1  -5    0.12    0.19
  13   1  -4    2.51    0.33
 -13  -1   4    2.37    0.37
  13   1  -3    2.78    0.34
 -13  -1   3    3.53    0.41
  13   1  -2    0.68    0.24
 -13  -1   2    1.43    0.30
  13   1  -1   -0.04    0.13
 -13  -1   1    0.14    0.17
  13   1   0    0.07    0.13
 -13  -1   0   -0.16    0.16
  13   1   1   -0.03    0.15
 -13  -1  -1    0.18    0.18
  13   1   2   -0.05    0.12
 -13  -1  -2    0.22    0.14
  13   1   3    0.19    0.15
 -13  -1  -3    0.31    0.20
  13   1   4    0.65    0.19
 -13  -1  -4    0.88    0.24
  13   1   5    1.02    0.23
 -13  -1  -5    0.83    0.27
  13   1   6    0.33    0.16
 -13  -1  -6    0.08    0.17
  13   1   7    0.25    0.15
 -13  -1  -7   -0.01    0.13
  13   1   8    1.11    0.32
 -13  -1  -8    1.21    0.26
  13   1   9    2.67    0.43
 -13  -1  -9    1.63    0.32
  13   1  10    1.57    0.27
 -13  -1 -10   -0.09    0.27
  13   1  11    1.16    0.37
  13   1  12    0.56    0.30
  13   1  13    0.24    0.20
  13   2 -13   -0.33    0.19
  13   2 -12    2.83    0.44
  13   2 -11    0.95    0.25
  13   2 -10    1.38    0.33
  13   2  -9    0.45    0.18
  13   2  -8    2.34    0.33
  13   2  -7    0.02    0.13
  13   2  -7   -0.12    0.13
  13   2  -6    0.20    0.15
  13   2  -6    0.06    0.15
 -13  -2   6    0.12    0.11
  13   2  -5    0.28    0.15
  13   2  -5    0.33    0.16
 -13  -2   5    0.13    0.12
  13   2  -4    0.08    0.12
  13   2  -4   -0.07    0.15
 -13  -2   4    0.01    0.09
  13   2  -3    1.33    0.25
  13   2  -3    1.20    0.25
 -13  -2   3    0.88    0.17
  13   2  -2    1.18    0.22
 -13  -2   2    0.65    0.25
  13   2  -1   -0.02    0.15
 -13  -2   1    0.29    0.15
  13   2   0   -0.17    0.13
 -13  -2   0    0.05    0.14
  13   2   1    0.43    0.24
 -13  -2  -1    1.26    0.28
  13   2   2    2.28    0.31
 -13  -2  -2    2.74    0.41
  13   2   3    0.19    0.19
 -13  -2  -3    0.50    0.22
  13   2   4   -0.02    0.16
 -13  -2  -4    0.17    0.16
  13   2   5    0.25    0.17
 -13  -2  -5   -0.05    0.15
  13   2   6    0.14    0.13
 -13  -2  -6   -0.20    0.13
  13   2   7    0.35    0.19
 -13  -2  -7    0.07    0.13
  13   2   8   -0.10    0.18
 -13  -2  -8   -0.02    0.14
  13   2   9   -0.02    0.13
 -13  -2  -9    0.05    0.11
  13   2  10    0.57    0.21
  13   2  11   -0.12    0.22
  13   2  12    0.75    0.33
  13   3 -13    0.08    0.17
  13   3 -12    0.47    0.26
  13   3 -11    0.53    0.20
 -13  -3  11   -0.08    0.13
  13   3 -10    1.16    0.25
 -13  -3  10    1.19    0.25
  13   3  -9    0.64    0.16
 -13  -3   9    0.04    0.17
  13   3  -8    0.41    0.21
 -13  -3   8    0.36    0.14
  13   3  -7    1.73    0.30
 -13  -3   7    1.12    0.24
  13   3  -6    4.38    0.48
 -13  -3   6    3.33    0.39
  13   3  -5    0.87    0.20
  13   3  -5    0.64    0.21
 -13  -3   5    0.63    0.19
  13   3  -4    0.36    0.17
  13   3  -4    0.39    0.17
 -13  -3   4    0.27    0.15
  13   3  -3    1.09    0.19
  13   3  -3    0.86    0.29
 -13  -3   3    1.07    0.20
  13   3  -2    0.70    0.21
  13   3  -2    1.02    0.25
 -13  -3   2    0.58    0.17
  13   3  -1    0.39    0.20
 -13  -3   1    0.35    0.16
 -13  -3   1    0.93    0.22
  13   3   0    0.11    0.13
 -13  -3   0    0.38    0.20
 -13  -3   0    0.30    0.13
  13   3   1    0.11    0.14
 -13  -3  -1    0.44    0.18
 -13  -3  -1    0.28    0.13
  13   3   2   -0.13    0.12
 -13  -3  -2    0.06    0.09
 -13  -3  -2    0.03    0.14
  13   3   3   -0.08    0.15
 -13  -3  -3    0.00    0.13
 -13  -3  -3   -0.06    0.11
  13   3   4    0.38    0.14
 -13  -3  -4   -0.01    0.12
 -13  -3  -4   -0.17    0.10
  13   3   5    0.98    0.28
 -13  -3  -5    0.73    0.21
 -13  -3  -5    1.05    0.26
  13   3   6   -0.19    0.15
 -13  -3  -6   -0.10    0.16
 -13  -3  -6   -0.11    0.14
  13   3   7    0.91    0.20
 -13  -3  -7   -0.07    0.16
 -13  -3  -7    0.02    0.15
  13   3   8    1.75    0.36
 -13  -3  -8    1.09    0.28
  13   3   9    0.05    0.15
  13   3  10    0.59    0.29
  13   3  11    0.06    0.19
  13   4 -12    1.35    0.31
 -13  -4  12    0.50    0.28
  13   4 -11    0.33    0.20
 -13  -4  11    0.01    0.15
  13   4 -10    0.26    0.17
 -13  -4  10    0.16    0.18
  13   4  -9    1.11    0.23
 -13  -4   9    0.46    0.23
  13   4  -8    0.84    0.28
 -13  -4   8    0.84    0.23
  13   4  -7    1.79    0.38
 -13  -4   7    1.88    0.29
  13   4  -6    1.59    0.32
 -13  -4   6    1.51    0.26
  13   4  -5    1.74    0.38
 -13  -4   5    2.28    0.30
  13   4  -4    0.37    0.17
  13   4  -4    0.52    0.19
 -13  -4   4    0.43    0.17
  13   4  -3    0.22    0.15
  13   4  -3    0.46    0.21
 -13  -4   3    0.34    0.15
  13   4  -2    0.29    0.17
  13   4  -2    0.30    0.20
 -13  -4   2    0.30    0.15
  13   4  -1    0.72    0.21
  13   4  -1    0.75    0.24
 -13  -4   1    0.64    0.19
  13   4   0    0.35    0.16
 -13  -4   0    0.10    0.11
 -13  -4   0    0.18    0.16
  13   4   1    0.66    0.25
 -13  -4  -1    2.46    0.30
 -13  -4  -1    0.50    0.19
  13   4   2    0.74    0.24
 -13  -4  -2    1.33    0.29
 -13  -4  -2    0.76    0.20
  13   4   3    4.00    0.48
 -13  -4  -3    2.32    0.40
 -13  -4  -3    4.22    0.42
  13   4   4   -0.01    0.15
 -13  -4  -4    0.09    0.13
 -13  -4  -4    0.00    0.12
  13   4   5    0.49    0.24
 -13  -4  -5    0.20    0.17
 -13  -4  -5    0.81    0.22
  13   4   6    0.09    0.16
 -13  -4  -6    0.47    0.18
 -13  -4  -6    0.10    0.16
  13   4   7    1.03    0.30
 -13  -4  -7    0.65    0.23
  13   4   8   -0.23    0.21
 -13  -4  -8   -0.03    0.16
  13   4   9    0.49    0.29
 -13  -4  -9    0.76    0.24
  13   4  10    1.13    0.31
 -13  -4 -10    0.44    0.27
  13   5 -11    1.30    0.29
 -13  -5  11    1.45    0.27
  13   5 -10    2.36    0.45
 -13  -5  10    2.68    0.42
  13   5  -9    1.53    0.31
 -13  -5   9    1.77    0.34
  13   5  -8    0.46    0.21
 -13  -5   8    0.77    0.18
  13   5  -7    1.99    0.41
 -13  -5   7    2.46    0.35
  13   5  -6    0.61    0.25
 -13  -5   6    0.46    0.21
  13   5  -5    1.04    0.23
 -13  -5   5    0.75    0.25
  13   5  -4    0.14    0.16
 -13  -5   4    0.33    0.17
  13   5  -3    0.01    0.17
 -13  -5   3    0.10    0.13
  13   5  -2    0.06    0.12
  13   5  -2   -0.33    0.14
 -13  -5   2    0.12    0.12
  13   5  -1    0.59    0.20
  13   5  -1    0.82    0.22
 -13  -5   1    0.49    0.20
  13   5   0    1.13    0.25
  13   5   0    0.88    0.29
 -13  -5   0    1.03    0.23
  13   5   1    0.89    0.23
 -13  -5  -1    0.53    0.17
 -13  -5  -1    0.87    0.23
  13   5   2    0.05    0.16
 -13  -5  -2   -0.08    0.18
 -13  -5  -2    0.22    0.13
  13   5   3    2.36    0.40
 -13  -5  -3    3.11    0.43
 -13  -5  -3    1.87    0.36
  13   5   4    0.86    0.27
 -13  -5  -4    1.32    0.27
 -13  -5  -4    0.60    0.20
  13   5   5    0.15    0.20
 -13  -5  -5    0.76    0.23
 -13  -5  -5    0.73    0.21
  13   5   6    0.55    0.22
 -13  -5  -6    0.16    0.19
  13   5   7    0.15    0.18
 -13  -5  -7    0.00    0.16
  13   5   8    0.20    0.18
 -13  -5  -8    0.12    0.18
  13   5   9    0.01    0.18
 -13  -5  -9    0.31    0.19
  13   6  -9   -0.17    0.16
 -13  -6   9    0.11    0.15
  13   6  -8    4.51    0.69
 -13  -6   8    7.57    0.66
  13   6  -7    1.24    0.30
 -13  -6   7    1.90    0.28
  13   6  -6    1.66    0.30
 -13  -6   6    1.41    0.30
  13   6  -5    1.09    0.32
 -13  -6   5    1.08    0.28
  13   6  -4    2.98    0.48
 -13  -6   4    3.15    0.43
  13   6  -3    0.56    0.19
 -13  -6   3    0.41    0.20
  13   6  -2    0.34    0.21
 -13  -6   2    0.19    0.17
  13   6  -1    0.05    0.13
  13   6  -1    0.36    0.16
 -13  -6   1   -0.15    0.14
  13   6   0    1.95    0.36
  13   6   0    3.11    0.40
 -13  -6   0    2.34    0.37
  13   6   1    2.97    0.46
  13   6   1    3.91    0.40
 -13  -6  -1    3.29    0.44
  13   6   2    0.97    0.23
 -13  -6  -2    0.32    0.25
 -13  -6  -2    0.39    0.17
  13   6   3   -0.04    0.16
 -13  -6  -3   -0.04    0.15
 -13  -6  -3    0.19    0.13
 -13  -6  -4    0.04    0.16
 -13  -6  -4   -0.17    0.16
  13   6   5   -0.00    0.17
 -13  -6  -5    0.09    0.16
  13   6   6    0.15    0.14
 -13  -6  -6   -0.10    0.15
  13   6   7   -0.04    0.15
 -13  -6  -7   -0.07    0.16
  13   7  -7   -0.11    0.19
 -13  -7   7   -0.11    0.18
  13   7  -6    0.24    0.18
 -13  -7   6   -0.04    0.14
  13   7  -5    0.27    0.21
 -13  -7   5    0.64    0.23
  13   7  -4    0.73    0.25
 -13  -7   4    1.14    0.28
  13   7  -3    0.27    0.20
 -13  -7   3    0.22    0.16
  13   7  -2    1.03    0.28
 -13  -7   2    0.97    0.26
  13   7  -1    0.70    0.23
 -13  -7   1    0.38    0.23
  13   7   0    0.12    0.22
 -13  -7   0    0.66    0.22
  13   7   1    0.29    0.19
  13   7   1    0.29    0.18
 -13  -7  -1    0.14    0.19
  13   7   2   -0.05    0.14
 -13  -7  -2    0.03    0.13
 -13  -7  -2    0.08    0.15
  13   7   3   -0.01    0.14
 -13  -7  -3    0.32    0.18
  13   7   4    0.04    0.13
 -13  -7  -4    0.02    0.16
  13   7   5    0.09    0.21
 -13  -7  -5    0.23    0.19
  13   8  -3   -0.22    0.17
 -13  -8   3    0.23    0.14
 -13  -8   2   -0.09    0.17
  13   8  -1    0.16    0.14
 -13  -8   1   -0.13    0.17
  13   8   0    0.75    0.21
 -13  -8   0    0.50    0.21
 -13  -8  -1    0.12    0.16
  14 -10  -4    0.52    0.21
 -14  10   4    0.01    0.24
  14 -10  -3    0.15    0.18
 -14  10   3    0.14    0.29
  14 -10  -2   -0.25    0.19
 -14  10   2    0.12    0.27
  14 -10  -1   -0.18    0.25
 -14  10   1   -0.32    0.27
  14 -10   0   -0.02    0.20
  14 -10   1    1.24    0.40
 -14  10  -1    1.16    0.41
  14 -10   2   -0.16    0.20
 -14  10  -2    0.41    0.20
  14 -10   3   -0.09    0.19
 -14  10  -3    0.30    0.22
  14 -10   4   -0.13    0.29
 -14  10  -4    0.27    0.20
  14 -10   5    0.49    0.33
 -14  10  -5    0.16    0.22
  14 -10   6   -0.13    0.26
 -14  10  -6   -0.19    0.27
  14  -9  -7    1.21    0.30
 -14   9   7    1.08    0.34
  14  -9  -6    1.03    0.35
 -14   9   6    1.33    0.40
  14  -9  -5    1.58    0.30
 -14   9   5    0.77    0.43
  14  -9  -4   -0.26    0.23
 -14   9   4   -0.15    0.27
  14  -9  -3    0.71    0.28
 -14   9   3    0.42    0.27
  14  -9  -2    0.00    0.17
 -14   9   2    0.18    0.20
  14  -9  -1    1.48    0.33
 -14   9   1    1.32    0.47
  14  -9   0   -0.04    0.18
 -14   9   0    0.27    0.20
  14  -9   1   -0.14    0.18
 -14   9  -1   -0.03    0.23
  14  -9   2    0.66    0.33
 -14   9  -2    0.81    0.27
  14  -9   3    1.94    0.41
 -14   9  -3    1.24    0.46
  14  -9   4    0.35    0.23
 -14   9  -4    0.02    0.21
  14  -9   5    0.26    0.25
 -14   9  -5    0.20    0.20
  14  -9   6    0.67    0.26
 -14   9  -6    0.62    0.27
  14  -9   7    0.70    0.29
 -14   9  -7    0.23    0.26
  14  -9   8   -0.10    0.18
 -14   9  -8   -0.04    0.20
  14  -8  -8    1.30    0.33
 -14   8   8    0.97    0.42
  14  -8  -7    0.48    0.25
 -14   8   7    0.13    0.29
  14  -8  -6    1.79    0.32
 -14   8   6    1.38    0.40
  14  -8  -5    1.42    0.35
 -14   8   5    1.37    0.36
  14  -8  -4    0.13    0.15
 -14   8   4   -0.03    0.19
  14  -8  -3    0.20    0.18
 -14   8   3    0.18    0.25
  14  -8  -2    1.26    0.35
 -14   8   2    1.26    0.44
  14  -8  -1    1.37    0.31
 -14   8   1    1.46    0.36
  14  -8   0    2.48    0.40
 -14   8   0    1.74    0.55
  14  -8   1    1.06    0.33
 -14   8  -1    0.76    0.30
  14  -8   2    0.82    0.24
 -14   8  -2   -0.32    0.23
  14  -8   3    0.33    0.20
 -14   8  -3   -0.00    0.25
  14  -8   4    4.54    0.55
 -14   8  -4    3.92    0.69
  14  -8   5    0.51    0.32
 -14   8  -5    0.66    0.34
  14  -8   6    1.60    0.37
 -14   8  -6    1.40    0.41
  14  -8   7    0.47    0.30
 -14   8  -7    0.35    0.27
  14  -8   8   -0.26    0.19
 -14   8  -8    0.05    0.23
  14  -8   9    0.88    0.38
 -14   8  -9    0.92    0.38
  14  -7  -9    3.01    0.37
 -14   7   9    2.71    0.52
  14  -7  -8    0.36    0.25
 -14   7   8    0.44    0.26
  14  -7  -7    7.12    0.75
 -14   7   7    7.06    1.00
  14  -7  -6    0.07    0.18
 -14   7   6    0.67    0.27
  14  -7  -5    0.15    0.17
 -14   7   5   -0.08    0.21
  14  -7  -4    0.84    0.27
 -14   7   4    0.45    0.28
  14  -7  -3    0.34    0.19
 -14   7   3    0.20    0.22
  14  -7  -2    0.30    0.19
 -14   7   2    0.19    0.27
  14  -7  -1    3.28    0.52
 -14   7   1    2.70    0.46
  14  -7   0    4.19    0.61
 -14   7   0    3.54    0.61
  14  -7   1    1.82    0.40
 -14   7  -1    1.48    0.36
  14  -7   2    1.91    0.37
 -14   7  -2    2.15    0.43
  14  -7   3    3.49    0.50
 -14   7  -3    3.69    0.67
  14  -7   4    3.88    0.53
 -14   7  -4    3.70    0.67
  14  -7   5    0.80    0.31
 -14   7  -5    0.32    0.34
  14  -7   6    0.55    0.26
 -14   7  -6   -0.14    0.26
  14  -7   7    0.49    0.25
 -14   7  -7    0.50    0.23
  14  -7   8    0.23    0.25
 -14   7  -8    0.09    0.18
  14  -7   9    0.84    0.32
 -14   7  -9    0.41    0.32
  14  -7  10    1.80    0.39
 -14   7 -10    1.45    0.36
  14  -6 -10    0.12    0.19
 -14   6  10    0.20    0.22
  14  -6  -9    3.00    0.45
 -14   6   9    2.75    0.59
  14  -6  -8    0.28    0.19
 -14   6   8   -0.01    0.26
  14  -6  -7    0.44    0.22
 -14   6   7    0.41    0.24
  14  -6  -6   -0.03    0.12
 -14   6   6    0.01    0.16
  14  -6  -5    0.02    0.13
 -14   6   5    0.04    0.16
  14  -6  -4    0.17    0.21
 -14   6   4    0.32    0.25
  14  -6  -3    1.46    0.31
 -14   6   3    1.03    0.34
  14  -6  -2    2.17    0.29
 -14   6   2    0.27    0.32
  14  -6  -1    1.05    0.36
 -14   6   1    1.04    0.36
  14  -6   0    3.28    0.56
 -14   6   0    2.20    0.53
  14  -6   1    0.59    0.21
 -14   6  -1    0.28    0.23
  14  -6   2    4.96    0.56
 -14   6  -2    4.29    0.60
  14  -6   3    0.10    0.17
 -14   6  -3   -0.00    0.16
  14  -6   4    0.39    0.22
 -14   6  -4    0.25    0.21
  14  -6   5    2.42    0.50
 -14   6  -5    2.14    0.43
  14  -6   6    0.74    0.24
 -14   6  -6   -0.13    0.18
  14  -6   7    0.12    0.21
 -14   6  -7    0.33    0.23
  14  -6   8    0.05    0.21
 -14   6  -8    0.09    0.17
  14  -6   9   -0.07    0.23
 -14   6  -9   -0.23    0.21
  14  -6  10    0.39    0.25
 -14   6 -10    0.73    0.24
  14  -6  11    3.55    0.51
 -14   6 -11    2.56    0.58
  14  -5 -11    0.61    0.25
 -14   5  11    0.67    0.28
  14  -5 -10    0.23    0.16
 -14   5  10    0.38    0.27
  14  -5  -9    0.82    0.27
 -14   5   9    0.79    0.29
  14  -5  -8    3.56    0.43
 -14   5   8    3.69    0.53
  14  -5  -7    0.77    0.24
 -14   5   7    0.41    0.26
  14  -5  -6    1.09    0.27
 -14   5   6    0.57    0.30
  14  -5  -5   -0.26    0.16
 -14   5   5   -0.16    0.20
  14  -5  -4    1.53    0.28
 -14   5   4    1.41    0.33
  14  -5  -3    0.33    0.21
 -14   5   3    0.28    0.27
  14  -5  -2    0.06    0.25
 -14   5   2    0.38    0.20
  14  -5  -1   -0.07    0.16
 -14   5   1   -0.02    0.19
  14  -5   0    0.00    0.17
 -14   5   0   -0.05    0.15
  14  -5   1    1.78    0.38
  14  -5   2    0.43    0.20
 -14   5  -2    0.20    0.22
  14  -5   3    0.11    0.15
 -14   5  -3   -0.11    0.14
  14  -5   4    2.43    0.40
 -14   5  -4    1.98    0.40
  14  -5   5    0.23    0.22
 -14   5  -5   -0.01    0.23
  14  -5   6    0.54    0.31
 -14   5  -6    0.68    0.32
  14  -5   7    3.04    0.45
 -14   5  -7    2.49    0.44
  14  -5   8    0.81    0.27
 -14   5  -8    0.38    0.30
  14  -5   9    1.67    0.41
 -14   5  -9    1.33    0.32
  14  -5  10    0.32    0.22
 -14   5 -10    0.40    0.23
  14  -5  11   -0.03    0.15
 -14   5 -11    0.02    0.17
  14  -4 -11    0.05    0.13
 -14   4  11    0.32    0.24
  14  -4 -10    0.23    0.16
 -14   4  10   -0.14    0.17
  14  -4  -9    1.09    0.30
 -14   4   9    1.43    0.39
  14  -4  -8    2.52    0.32
 -14   4   8    2.40    0.52
  14  -4  -7    0.54    0.19
 -14   4   7    0.72    0.29
  14  -4  -6    0.23    0.18
 -14   4   6    0.01    0.23
  14  -4  -5    0.23    0.18
 -14   4   5   -0.04    0.20
  14  -4  -4    0.36    0.18
 -14   4   4    0.07    0.18
  14  -4  -3    1.82    0.46
 -14   4   3    1.44    0.45
  14  -4  -2   -0.17    0.15
 -14   4   2    0.12    0.15
  14  -4  -1    2.03    0.39
 -14   4   1    1.77    0.43
  14  -4   0    0.88    0.28
 -14   4   0    1.66    0.31
  14  -4   1    0.43    0.22
 -14   4  -1    0.01    0.19
  14  -4   2    0.99    0.33
 -14   4  -2    1.05    0.28
  14  -4   3    0.40    0.16
 -14   4  -3   -0.21    0.18
  14  -4   4    0.91    0.29
 -14   4  -4    0.49    0.31
  14  -4   5    1.00    0.28
 -14   4  -5    0.45    0.30
  14  -4   6    0.34    0.22
 -14   4  -6    0.24    0.21
  14  -4   7    0.33    0.20
 -14   4  -7    0.25    0.26
  14  -4   8    0.40    0.22
 -14   4  -8    0.49    0.27
  14  -4   9    3.37    0.56
 -14   4  -9    3.32    0.48
  14  -4  10    5.79    0.75
 -14   4 -10    4.39    0.59
  14  -4  11    0.16    0.19
 -14   4 -11    0.28    0.21
  14  -4  12    0.66    0.34
 -14   3  12    0.17    0.19
  14  -3 -11    0.23    0.19
 -14   3  11    0.85    0.29
  14  -3 -10    0.59    0.25
 -14   3  10    1.09    0.28
  14  -3  -9    0.36    0.15
 -14   3   9    0.37    0.28
  14  -3  -8    0.21    0.17
 -14   3   8    0.15    0.23
  14  -3  -7    0.72    0.21
 -14   3   7    1.35    0.34
  14  -3  -6    0.08    0.15
 -14   3   6    0.04    0.19
  14  -3  -5    0.05    0.19
 -14   3   5    0.53    0.22
  14  -3  -4   -0.36    0.18
 -14   3   4    0.20    0.15
  14  -3  -3   -0.10    0.19
 -14   3   3    0.24    0.17
  14  -3  -2    0.14    0.18
 -14   3   2    0.22    0.21
  14  -3  -1    0.31    0.17
 -14   3   1    0.07    0.26
  14  -3   0    0.89    0.29
 -14   3   0    0.86    0.28
  14  -3   1    1.40    0.29
 -14   3  -1    1.77    0.34
  14  -3   2   -0.28    0.21
 -14   3  -2   -0.05    0.23
  14  -3   3    0.75    0.26
 -14   3  -3    0.28    0.27
  14  -3   4    0.51    0.29
 -14   3  -4    1.14    0.31
  14  -3   5    9.82    1.03
 -14   3  -5   10.42    0.92
  14  -3   6    0.48    0.22
 -14   3  -6    0.39    0.25
  14  -3   7    0.33    0.21
 -14   3  -7   -0.06    0.21
  14  -3   8    0.02    0.14
 -14   3  -8   -0.06    0.14
  14  -3   9    0.51    0.25
 -14   3  -9    0.24    0.19
  14  -3  10    0.94    0.34
 -14   3 -10    0.83    0.25
  14  -3  11    1.82    0.44
 -14   3 -11    1.55    0.30
  14  -3  12    1.35    0.41
 -14   2  12    0.24    0.21
 -14   2  11    1.55    0.42
  14  -2 -10    0.19    0.18
 -14   2  10    0.21    0.20
  14  -2  -9    3.32    0.40
 -14   2   9    3.54    0.59
  14  -2  -8    1.06    0.26
 -14   2   8    1.12    0.36
  14  -2  -7    0.46    0.21
 -14   2   7    0.62    0.22
  14  -2  -6    0.45    0.22
 -14   2   6    0.69    0.26
  14  -2  -5   -0.09    0.16
 -14   2   5    0.06    0.17
  14  -2  -4    1.16    0.29
 -14   2   4    0.55    0.25
  14  -2  -3    1.13    0.29
 -14   2   3    1.81    0.40
  14  -2  -2    0.95    0.30
 -14   2   2    1.46    0.31
  14  -2  -1    0.27    0.23
 -14   2   1    0.57    0.28
  14  -2   0    0.34    0.18
 -14   2   0    0.28    0.26
  14  -2   1   -0.02    0.17
 -14   2  -1   -0.11    0.20
  14  -2   2    0.01    0.14
 -14   2  -2    0.05    0.18
  14  -2   3    0.28    0.17
 -14   2  -3    0.07    0.18
  14  -2   4    2.56    0.35
 -14   2  -4    1.68    0.34
  14  -2   5    0.22    0.20
 -14   2  -5    0.44    0.24
  14  -2   6    1.24    0.37
 -14   2  -6    1.72    0.35
  14  -2   7    0.29    0.21
 -14   2  -7    0.07    0.16
  14  -2   8    1.30    0.31
 -14   2  -8    0.88    0.26
  14  -2   9    0.36    0.21
 -14   2  -9    0.27    0.19
  14  -2  10    0.17    0.17
 -14   2 -10    0.07    0.18
  14  -2  11    0.52    0.20
 -14   2 -11    0.02    0.20
  14  -2  12    0.12    0.19
 -14   1  12   -0.09    0.18
 -14   1  11    0.86    0.34
 -14   1  10    4.05    0.54
  14  -1  -9    0.55    0.20
 -14   1   9    0.87    0.31
  14  -1  -8    2.48    0.35
 -14   1   8    2.15    0.43
  14  -1  -7    0.83    0.23
 -14   1   7    0.89    0.31
  14  -1  -6   -0.08    0.13
 -14   1   6   -0.03    0.19
  14  -1  -5    4.59    0.56
 -14   1   5    3.47    0.57
  14  -1  -4    0.28    0.18
 -14   1   4    0.22    0.19
  14  -1  -3   -0.05    0.13
 -14   1   3   -0.12    0.19
  14  -1  -2    0.68    0.19
 -14   1   2    0.22    0.24
  14  -1  -1    0.91    0.23
 -14   1   1    0.93    0.29
  14  -1   0   -0.10    0.17
 -14   1   0    0.33    0.21
  14  -1   1    1.32    0.28
 -14   1  -1    1.53    0.38
  14  -1   2    0.86    0.28
 -14   1  -2    0.89    0.26
  14  -1   3    1.09    0.29
 -14   1  -3    0.49    0.29
  14  -1   4    0.13    0.18
 -14   1  -4   -0.31    0.19
  14  -1   5    0.29    0.19
 -14   1  -5    0.00    0.19
  14  -1   6    0.04    0.18
 -14   1  -6    0.07    0.15
  14  -1   7    0.32    0.19
 -14   1  -7    0.24    0.16
  14  -1   8    0.71    0.25
  14  -1   9    0.21    0.21
 -14   1  -9    0.20    0.20
  14  -1  10    0.02    0.21
 -14   1 -10    0.07    0.15
  14  -1  11    0.91    0.36
  14   0 -12    0.52    0.22
  14   0 -11    0.54    0.26
  14   0 -10   -0.05    0.16
 -14   0   9   -0.11    0.12
  14   0  -8    0.95    0.25
 -14   0   8    1.66    0.31
  14   0  -7    0.09    0.18
 -14   0   7    0.71    0.25
  14   0  -6    1.74    0.32
 -14   0   6    1.26    0.33
  14   0  -5    0.43    0.25
 -14   0   5    0.68    0.24
  14   0  -4    1.58    0.32
 -14   0   4    2.25    0.43
  14   0  -3    1.15    0.30
 -14   0   3    1.53    0.32
  14   0  -2   -0.05    0.15
 -14   0   2    0.13    0.18
  14   0  -1    0.00    0.16
 -14   0   1    0.20    0.17
  14   0   0    1.58    0.29
 -14   0   0    1.91    0.35
  14   0   1    0.95    0.27
 -14   0  -1    0.69    0.27
 -14   0  -2    0.93    0.32
  14   0   3    0.02    0.16
 -14   0  -3   -0.36    0.20
  14   0   4   -0.13    0.13
 -14   0  -4    0.16    0.16
  14   0   5    0.31    0.17
 -14   0  -5    0.13    0.16
  14   0   6    0.13    0.18
 -14   0  -6    0.05    0.14
  14   0   7   -0.03    0.15
 -14   0  -7    0.17    0.14
  14   0   8   -0.11    0.20
 -14   0  -8   -0.14    0.17
  14   0   9    0.05    0.18
 -14   0  -9   -0.03    0.15
  14   0  10    1.01    0.29
 -14   0 -10    0.74    0.24
  14   0  11   -0.20    0.24
  14   1 -11    2.08    0.37
  14   1 -10    0.96    0.31
  14   1  -9    0.37    0.24
  14   1  -8    0.13    0.16
  14   1  -7    0.25    0.19
  14   1  -7    0.62    0.20
  14   1  -6    0.54    0.24
 -14  -1   6    0.97    0.24
  14   1  -5    0.04    0.14
 -14  -1   5    0.15    0.20
  14   1  -4    2.70    0.36
 -14  -1   4    2.19    0.40
  14   1  -3    0.85    0.25
 -14  -1   3    0.70    0.34
  14   1  -2    0.38    0.23
 -14  -1   2    0.93    0.25
  14   1  -1   -0.01    0.17
 -14  -1   1   -0.23    0.20
  14   1   0    2.64    0.43
 -14  -1   0    3.66    0.53
  14   1   1   -0.12    0.13
 -14  -1  -1    0.01    0.19
  14   1   2    0.49    0.19
 -14  -1  -2    0.62    0.23
  14   1   3    0.62    0.24
 -14  -1  -3    0.59    0.27
  14   1   4   -0.17    0.15
 -14  -1  -4    0.12    0.13
  14   1   5    0.05    0.13
 -14  -1  -5   -0.07    0.13
  14   1   6   -0.07    0.13
 -14  -1  -6    0.17    0.16
  14   1   7    0.23    0.23
  14   1   8    0.20    0.17
 -14  -1  -8   -0.12    0.13
  14   1   9    0.18    0.19
  14   1  10    0.05    0.16
  14   2 -11    1.53    0.33
  14   2 -10    0.81    0.30
  14   2  -9    1.03    0.27
  14   2  -8    0.39    0.19
  14   2  -7    0.27    0.21
  14   2  -6   -0.16    0.16
  14   2  -5    4.65    0.50
  14   2  -5    4.64    0.52
  14   2  -4   -0.01    0.18
 -14  -2   4    0.56    0.20
  14   2  -3    4.02    0.49
 -14  -2   3    4.09    0.54
  14   2  -2    0.11    0.16
 -14  -2   2    0.09    0.20
  14   2  -1   -0.17    0.15
 -14  -2   1    0.10    0.20
  14   2   0    0.07    0.16
 -14  -2   0    0.09    0.19
  14   2   1    1.00    0.27
 -14  -2  -1    0.89    0.34
  14   2   2    2.06    0.38
 -14  -2  -2    2.15    0.45
  14   2   3    0.99    0.33
 -14  -2  -3    1.94    0.36
  14   2   4    0.08    0.15
 -14  -2  -4   -0.04    0.13
  14   2   5    0.93    0.32
 -14  -2  -5    1.17    0.31
  14   2   6    0.43    0.19
 -14  -2  -6    0.40    0.19
  14   2   7    0.02    0.17
 -14  -2  -7    0.04    0.15
  14   2   8    0.35    0.26
  14   2   9    0.18    0.24
  14   2  10    0.17    0.23
  14   3 -10    1.07    0.26
  14   3  -9    0.52    0.21
  14   3  -8    1.35    0.35
  14   3  -7   -0.12    0.18
  14   3  -6    5.13    0.63
  14   3  -5    2.13    0.36
  14   3  -4    3.13    0.40
  14   3  -4    2.91    0.42
  14   3  -3    0.37    0.20
 -14  -3   3    0.40    0.17
  14   3  -2    0.78    0.26
 -14  -3   2    1.19    0.32
  14   3  -1    0.81    0.25
 -14  -3   1    0.96    0.32
  14   3   0    7.30    0.80
 -14  -3   0   10.42    0.99
  14   3   1    0.23    0.19
 -14  -3  -1    0.18    0.22
  14   3   2    0.95    0.28
 -14  -3  -2    1.05    0.33
  14   3   3    0.75    0.29
 -14  -3  -3    0.93    0.31
  14   3   4    0.01    0.19
 -14  -3  -4   -0.24    0.16
  14   3   5    0.03    0.21
 -14  -3  -5    0.35    0.16
  14   3   6    0.30    0.15
 -14  -3  -6   -0.21    0.17
  14   3   7   -0.05    0.15
  14   3   8   -0.30    0.25
  14   3   9    1.47    0.41
  14   4  -9   -0.15    0.18
  14   4  -8   -0.25    0.18
  14   4  -7    2.75    0.46
  14   4  -6    1.10    0.33
  14   4  -5    0.47    0.21
  14   4  -4    0.07    0.14
  14   4  -3    0.64    0.28
  14   4  -2    0.97    0.27
 -14  -4   1    0.31    0.25
  14   4   0   -0.04    0.17
 -14  -4   0    0.45    0.22
  14   4   1    0.27    0.20
 -14  -4  -1    0.25    0.23
  14   4   2    1.13    0.26
 -14  -4  -2    1.79    0.31
  14   4   3    0.27    0.18
 -14  -4  -3   -0.09    0.20
  14   4   4    0.39    0.24
 -14  -4  -4    0.50    0.26
 -14  -4  -5    0.08    0.18
  14   4   6    0.00    0.16
  14   4   7    0.11    0.20
  14   5  -7   -0.08    0.15
  14   5  -6    1.08    0.27
  14   5  -5    2.10    0.36
  14   5  -4    1.70    0.39
  14   5  -3    0.85    0.26
  14   5  -2    0.14    0.19
  14   5   0    0.05    0.16
 -14  -5   0   -0.22    0.20
  14   5   1    0.15    0.23
 -14  -5  -1    1.17    0.28
  14   5   2    0.48    0.22
 -14  -5  -2    0.37    0.26
  14   5   3    0.45    0.27
 -14  -5  -3    0.96    0.29
  14   5   4    0.25    0.23
 -14  -5  -4    0.47    0.25
  14   5   5    0.02    0.16
  14   6  -4   -0.18    0.18
  14   6  -3    3.91    0.59
  14   6  -2   -0.21    0.18
  14   6  -1   -0.00    0.12
 -14  -6   0    0.15    0.19
 -14  -6  -1    3.95    0.62
  14   6   2    0.16    0.15
 -14  -6  -2    0.00    0.21
  14   6   3    3.19    0.52
  15  -9   0    0.43    0.24
 -15   9   0    0.22    0.28
 -15   9  -1    0.23    0.29
  15  -8  -4    0.82    0.31
 -15   8   4    0.88    0.37
  15  -8  -3    0.11    0.19
 -15   8   3    0.14    0.21
  15  -8  -2    0.90    0.34
 -15   8   2    0.82    0.33
  15  -8  -1   -0.03    0.24
 -15   8   1    0.39    0.27
  15  -8   0    1.74    0.42
 -15   8   0    0.78    0.41
  15  -8   1    0.36    0.31
 -15   8  -1    0.06    0.30
  15  -8   2    0.32    0.29
 -15   8  -2    0.02    0.22
  15  -8   3    0.12    0.26
 -15   8  -3   -0.01    0.23
  15  -8   4    0.17    0.21
 -15   8  -4    0.25    0.26
  15  -8   5    0.18    0.25
 -15   8  -5    0.07    0.20
  15  -7  -6    0.79    0.25
 -15   7   6    0.49    0.40
  15  -7  -5    0.02    0.18
 -15   7   5    0.15    0.24
  15  -7  -4    0.31    0.19
 -15   7   4   -0.09    0.27
  15  -7  -3   -0.06    0.20
 -15   7   3   -0.05    0.24
  15  -7  -2    0.14    0.17
 -15   7   2    0.02    0.20
  15  -7  -1    0.58    0.25
 -15   7   1    0.60    0.34
  15  -7   0    0.36    0.23
 -15   7   0    0.01    0.20
  15  -7   1   -0.04    0.24
 -15   7  -1   -0.03    0.20
  15  -7   2    0.14    0.21
 -15   7  -2   -0.01    0.19
  15  -7   3    1.83    0.35
 -15   7  -3    1.07    0.38
  15  -7   4    0.21    0.20
 -15   7  -4    0.09    0.28
  15  -7   5    0.21    0.26
 -15   7  -5    0.24    0.28
  15  -7   6    0.23    0.21
 -15   7  -6    0.06    0.25
 -15   7  -7    1.01    0.38
  15  -6  -7    0.75    0.28
 -15   6   7    0.43    0.37
  15  -6  -6   -0.05    0.14
 -15   6   6    0.19    0.18
  15  -6  -5    0.07    0.22
 -15   6   5    0.33    0.23
  15  -6  -4    1.10    0.31
 -15   6   4    0.80    0.37
  15  -6  -3    0.20    0.17
 -15   6   3    0.06    0.26
  15  -6  -2    0.21    0.21
 -15   6   2    0.04    0.21
  15  -6  -1    0.11    0.25
 -15   6   1   -0.22    0.23
  15  -6   0    0.05    0.23
 -15   6   0    0.39    0.23
  15  -6   1    0.08    0.20
 -15   6  -1    0.61    0.27
  15  -6   2    0.09    0.18
 -15   6  -2    0.44    0.25
  15  -6   3    0.01    0.18
 -15   6  -3    0.13    0.20
  15  -6   4    2.97    0.55
 -15   6  -4    2.12    0.49
  15  -6   5    0.51    0.32
 -15   6  -5    0.39    0.27
  15  -6   6    1.27    0.35
 -15   6  -6    0.99    0.32
  15  -6   7    4.03    0.69
 -15   6  -7    3.26    0.66
 -15   6  -8    0.24    0.26
  15  -5  -8    0.30    0.17
 -15   5   8    0.16    0.23
  15  -5  -7    3.37    0.44
 -15   5   7    3.46    0.53
  15  -5  -6    0.82    0.26
 -15   5   6    1.05    0.30
  15  -5  -5    0.40    0.24
 -15   5   5    0.22    0.21
  15  -5  -4    0.56    0.26
 -15   5   4    0.24    0.29
  15  -5  -3    0.08    0.15
 -15   5   3    0.08    0.23
  15  -5  -2   -0.16    0.22
 -15   5   2    0.16    0.17
  15  -5  -1    0.90    0.31
 -15   5   1    0.96    0.36
  15  -5   0    0.64    0.25
 -15   5   0   -0.02    0.23
  15  -5   1    2.72    0.47
 -15   5  -1    1.77    0.54
  15  -5   2    0.58    0.24
 -15   5  -2   -0.24    0.24
  15  -5   3    0.27    0.29
 -15   5  -3    0.63    0.28
  15  -5   4    0.34    0.28
 -15   5  -4    0.43    0.28
  15  -5   5    5.53    0.67
 -15   5  -5    3.92    0.75
  15  -5   6   -0.23    0.20
 -15   5  -6   -0.06    0.20
  15  -5   7    0.21    0.21
 -15   5  -7   -0.17    0.16
  15  -5   8   -0.16    0.25
 -15   5  -8   -0.25    0.25
 -15   4   9    0.07    0.22
  15  -4  -8    1.19    0.32
 -15   4   8    1.56    0.35
  15  -4  -7    0.06    0.16
 -15   4   7    0.47    0.21
  15  -4  -6    0.85    0.22
 -15   4   6    0.25    0.27
  15  -4  -5    0.19    0.20
 -15   4   5    0.13    0.20
  15  -4  -4   -0.15    0.16
 -15   4   4    0.23    0.18
  15  -4  -3    0.45    0.31
 -15   4   3    0.69    0.30
 -15   4   2    0.25    0.24
  15  -4  -1    0.95    0.32
 -15   4   1    1.03    0.41
  15  -4   0   -0.13    0.15
 -15   4   0    0.08    0.16
  15  -4   1    1.19    0.32
 -15   4  -1    1.40    0.35
  15  -4   2   -0.28    0.18
 -15   4  -2    0.10    0.19
  15  -4   3    0.02    0.20
 -15   4  -3    0.62    0.23
  15  -4   4    0.77    0.25
 -15   4  -4    0.45    0.25
  15  -4   5    0.17    0.15
 -15   4  -5   -0.17    0.14
  15  -4   6   -0.19    0.20
 -15   4  -6    0.32    0.22
  15  -4   7    2.63    0.44
 -15   4  -7    2.11    0.44
  15  -4   8    0.16    0.24
 -15   4  -8    0.18    0.22
  15  -4   9    0.13    0.22
 -15   4  -9    0.08    0.17
  15  -3  -9    0.93    0.23
 -15   3   9    0.74    0.39
  15  -3  -8    0.00    0.17
 -15   3   8    0.12    0.17
  15  -3  -7    1.54    0.37
 -15   3   7    2.05    0.40
  15  -3  -6    0.28    0.19
 -15   3   6   -0.03    0.18
  15  -3  -5    0.23    0.23
 -15   3   5    0.41    0.23
  15  -3  -4    1.23    0.35
 -15   3   4    0.62    0.37
  15  -3  -3    0.59    0.33
 -15   3   3    0.67    0.28
  15  -3  -2    0.18    0.21
 -15   3   2    0.25    0.23
  15  -3  -1   -0.06    0.16
 -15   3   1   -0.18    0.21
  15  -3   0    1.04    0.31
 -15   3   0    0.35    0.36
  15  -3   1   -0.40    0.26
 -15   3  -1   -0.11    0.28
  15  -3   2    2.25    0.46
 -15   3  -2    2.51    0.52
  15  -3   3    2.46    0.42
 -15   3  -3    2.35    0.52
  15  -3   4    1.49    0.43
 -15   3  -4    1.91    0.44
  15  -3   5    3.08    0.52
 -15   3  -5    2.78    0.48
  15  -3   6    0.31    0.20
 -15   3  -6    0.15    0.24
  15  -3   7    3.98    0.61
 -15   3  -7    2.79    0.59
  15  -3   8    1.17    0.35
 -15   3  -8    1.70    0.41
  15  -3   9   -0.24    0.17
 -15   3  -9    0.15    0.20
  15  -2  -9    1.62    0.34
 -15   2   9    2.32    0.51
  15  -2  -8    1.88    0.34
 -15   2   8    1.69    0.48
  15  -2  -7    1.31    0.29
 -15   2   7    0.73    0.33
  15  -2  -6    4.37    0.54
 -15   2   6    3.79    0.58
  15  -2  -5    1.73    0.38
 -15   2   5    1.56    0.46
  15  -2  -4    2.16    0.50
 -15   2   4    2.06    0.51
  15  -2  -3    0.13    0.16
 -15   2   3   -0.11    0.17
  15  -2  -2    2.11    0.43
 -15   2   2    2.60    0.57
  15  -2  -1    0.53    0.20
 -15   2   1    0.07    0.25
  15  -2   0    0.78    0.29
 -15   2   0    0.47    0.28
  15  -2   1    1.87    0.32
 -15   2  -1    1.16    0.39
  15  -2   2    0.38    0.20
 -15   2  -2    0.09    0.22
  15  -2   3    0.95    0.29
 -15   2  -3    1.19    0.32
  15  -2   4    3.05    0.45
 -15   2  -4    2.88    0.56
  15  -2   5    2.85    0.44
 -15   2  -5    2.90    0.52
  15  -2   6    0.10    0.25
 -15   2  -6    0.27    0.19
  15  -2   7    1.14    0.32
 -15   2  -7    1.50    0.37
  15  -2   8    0.11    0.23
 -15   2  -8    0.23    0.23
  15  -2   9    0.48    0.33
 -15   2  -9    0.90    0.29
 -15   1   9   -0.00    0.15
  15  -1  -8    0.16    0.16
 -15   1   8   -0.07    0.22
  15  -1  -7    0.18    0.18
 -15   1   7    0.15    0.25
  15  -1  -6    0.04    0.28
 -15   1   6    2.76    0.37
  15  -1  -5    0.00    0.22
 -15   1   5    0.18    0.18
  15  -1  -4    1.25    0.35
 -15   1   4    0.94    0.32
  15  -1  -3   12.41    1.13
 -15   1   3   14.11    1.41
  15  -1  -2   -0.13    0.20
 -15   1   2   -0.16    0.20
  15  -1  -1    2.57    0.47
 -15   1   1    2.82    0.59
  15  -1   0    0.22    0.18
 -15   1   0    0.14    0.26
  15  -1   1    0.08    0.15
 -15   1  -1   -0.02    0.22
  15  -1   2    6.28    0.77
 -15   1  -2    6.71    0.87
  15  -1   3    6.09    0.72
 -15   1  -3    5.77    0.83
  15  -1   4    0.08    0.17
 -15   1  -4   -0.07    0.14
  15  -1   5    0.02    0.14
 -15   1  -5   -0.05    0.17
  15  -1   6    0.69    0.25
 -15   1  -6    0.85    0.26
  15  -1   7    0.03    0.22
 -15   1  -7    0.24    0.20
  15  -1   8    0.34    0.27
 -15   1  -8    0.35    0.25
 -15   0   8    1.08    0.30
 -15   0   7   -0.04    0.18
  15   0  -6   -0.02    0.15
 -15   0   6    0.00    0.15
  15   0  -5    1.40    0.36
 -15   0   5    1.16    0.41
  15   0  -4    0.68    0.28
 -15   0   4    0.91    0.35
  15   0  -3    0.45    0.22
 -15   0   3    0.25    0.24
  15   0  -2    0.30    0.23
 -15   0   2    0.38    0.30
  15   0  -1    0.44    0.23
 -15   0   1    0.23    0.24
  15   0   0    2.05    0.37
 -15   0   0    2.75    0.44
  15   0   1    0.04    0.20
 -15   0  -1   -0.32    0.20
  15   0   2    1.72    0.41
 -15   0  -2    2.41    0.40
  15   0   3   -0.10    0.22
 -15   0  -3   -0.32    0.24
  15   0   4    0.14    0.24
 -15   0  -4    0.72    0.26
  15   0   5    0.22    0.17
 -15   0  -5   -0.20    0.18
  15   0   6   -0.00    0.14
  15   0   7    0.02    0.19
 -15   0  -7    0.06    0.14
  15   0   8    0.62    0.28
 -15   0  -8    0.16    0.19
 -15  -1   8    0.24    0.20
 -15  -1   7    0.12    0.19
 -15  -1   6    2.23    0.42
  15   1  -5    0.10    0.18
 -15  -1   5   -0.01    0.17
  15   1  -4    6.03    0.69
 -15  -1   4    6.53    0.87
  15   1  -3    0.83    0.27
 -15  -1   3    0.73    0.35
  15   1  -2    0.28    0.21
 -15  -1   2    0.23    0.26
  15   1  -1    1.35    0.33
 -15  -1   1    1.54    0.35
  15   1   0    0.35    0.21
 -15  -1   0    0.89    0.32
  15   1   1    0.08    0.19
 -15  -1  -1    0.12    0.22
  15   1   2    1.31    0.37
 -15  -1  -2    1.88    0.35
  15   1   3    0.14    0.23
 -15  -1  -3    0.38    0.26
  15   1   4    0.02    0.19
 -15  -1  -4   -0.25    0.21
  15   1   5    0.20    0.19
 -15  -1  -5   -0.04    0.20
  15   1   6   -0.11    0.15
 -15  -1  -6    0.07    0.18
  15   1   7    0.09    0.24
 -15  -1  -7    0.34    0.21
 -15  -2   6    0.92    0.30
 -15  -2   5    2.04    0.42
  15   2  -4    4.18    0.58
 -15  -2   4    4.91    0.66
  15   2  -3    6.42    0.65
 -15  -2   3    6.39    0.92
  15   2  -2    1.10    0.33
 -15  -2   2    1.54    0.34
  15   2  -1    0.29    0.17
 -15  -2   1    0.20    0.22
  15   2   0    0.21    0.23
 -15  -2   0    0.48    0.27
  15   2   1    2.17    0.42
 -15  -2  -1    2.52    0.51
  15   2   2    1.76    0.40
 -15  -2  -2    2.47    0.42
  15   2   3    0.81    0.31
 -15  -2  -3    1.13    0.36
  15   2   4    1.01    0.35
 -15  -2  -4    1.12    0.37
  15   2   5    0.35    0.25
 -15  -2  -5    0.36    0.24
  15   2   6    0.06    0.18
 -15  -2  -6    0.34    0.20
 -15  -3   5    0.05    0.13
 -15  -3   4    0.46    0.25
 -15  -3   3    1.90    0.48
  15   3  -2    0.55    0.24
 -15  -3   2    0.25    0.25
  15   3  -1   -0.12    0.19
 -15  -3   1   -0.10    0.19
  15   3   0    0.32    0.22
 -15  -3   0    0.32    0.23
  15   3   1    0.38    0.20
 -15  -3  -1   -0.06    0.20
  15   3   2    0.99    0.27
 -15  -3  -2    0.21    0.27
  15   3   3    6.18    0.85
 -15  -3  -3    9.01    0.98
  15   3   4    0.37    0.29
 -15  -3  -4    1.08    0.33
 -15  -4   3    0.66    0.28
 -15  -4   2    1.59    0.45
 -15  -4   1   -0.08    0.18
 -15  -4   0    1.47    0.35
  15   4   1    0.44    0.22
 -15  -4  -1    0.07    0.27
  16  -5  -2    2.87    0.62
 -16   5   2    2.10    0.61
  16  -5  -1   -0.10    0.19
 -16   5   1    0.21    0.24
  16  -5   0    2.53    0.47
  16  -5   1   -0.09    0.24
 -16   5  -1   -0.33    0.28
  16  -5   2    0.43    0.28
 -16   5  -2    0.33    0.32
 -16   5  -3    1.99    0.46
 -16   4   4    0.94    0.41
  16  -4  -3    0.55    0.37
 -16   4   3    0.79    0.32
  16  -4  -2   -0.09    0.23
 -16   4   2   -0.31    0.28
  16  -4  -1    2.23    0.52
 -16   4   1    2.80    0.56
  16  -4   0    0.37    0.27
 -16   4   0    0.49    0.34
  16  -4   1    0.14    0.22
 -16   4  -1    0.02    0.21
  16  -4   2    0.13    0.24
 -16   4  -2    0.07    0.21
  16  -4   3    1.36    0.42
 -16   4  -3    1.15    0.35
 -16   4  -4    0.12    0.21
  16  -3  -4    0.29    0.21
 -16   3   4   -0.08    0.21
  16  -3  -3    2.59    0.59
 -16   3   3    2.11    0.59
  16  -3  -2    0.22    0.22
 -16   3   2    0.05    0.30
  16  -3  -1    0.23    0.26
 -16   3   1    0.52    0.31
  16  -3   0    0.24    0.25
 -16   3   0    0.43    0.27
  16  -3   1    0.27    0.21
 -16   3  -1    0.29    0.31
  16  -3   2    0.31    0.23
 -16   3  -2    0.47    0.32
  16  -3   3    0.57    0.31
 -16   3  -3    1.48    0.39
 -16   3  -4   -0.02    0.20
  16  -2  -4   11.59    1.31
 -16   2   4   10.50    1.41
  16  -2  -3    2.37    0.52
 -16   2   3    1.88    0.46
  16  -2  -2    5.01    0.60
 -16   2   2    5.53    0.77
  16  -2  -1    0.41    0.27
 -16   2   1    0.52    0.29
  16  -2   0    0.03    0.17
 -16   2   0    0.12    0.25
  16  -2   1    0.04    0.24
 -16   2  -1    1.21    0.33
  16  -2   2    1.38    0.41
 -16   2  -2    1.29    0.37
  16  -2   3    1.00    0.28
 -16   2  -3    0.74    0.40
  16  -2   4    0.32    0.22
 -16   2  -4    0.26    0.30
 -16   1   4    3.53    0.61
  16  -1  -3    3.27    0.45
 -16   1   3    3.16    0.69
  16  -1  -2    1.98    0.37
 -16   1   2    2.23    0.48
  16  -1  -1    0.42    0.25
 -16   1   1    0.23    0.32
  16  -1   0   -0.04    0.17
 -16   1   0    0.23    0.20
  16  -1   1    0.78    0.28
 -16   1  -1    0.87    0.33
  16  -1   2   -0.03    0.23
 -16   1  -2   -0.20    0.21
  16  -1   3    2.24    0.46
 -16   1  -3    1.50    0.41
 -16   0   3    0.06    0.21
  16   0  -2   -0.01    0.20
 -16   0   2    0.29    0.27
  16   0  -1    0.24    0.27
 -16   0   1    0.92    0.34
  16   0   0    0.02    0.18
 -16   0   0    0.02    0.19
  16   0   1    0.16    0.18
 -16   0  -1    0.09    0.20
  16   0   2    0.48    0.27
 -16   0  -2    0.35    0.26
   0   0   0    0.00    0.00
;
_shelx_hkl_checksum              44738
loop_
_space_group_symop_operation_xyz
'x, y, z'
'-x, -y, -z'
loop_
_atom_site_label
_atom_site_type_symbol
_atom_site_fract_x
_atom_site_fract_y
_atom_site_fract_z
_atom_site_U_iso_or_equiv
_atom_site_adp_type
_atom_site_occupancy
_atom_site_site_symmetry_order
_atom_site_calc_flag
_atom_site_refinement_flags_posn
_atom_site_refinement_flags_adp
S1 S 0.39764(6) 0.09172(6) 0.42113(4) 0.02333(19) Uani 1 1 d . .
S2 S 0.43288(7) 0.14268(7) 0.57952(4) 0.0262(2) Uani 1 1 d . .
S3 S 0.65489(7) 0.14950(7) 0.39598(5) 0.0256(2) Uani 1 1 d . .
S4 S 0.69273(7) 0.19190(6) 0.55484(5) 0.0259(2) Uani 1 1 d . .
O7 O 0.12473(16) -0.22271(16) 0.76185(11) 0.0188(5) Uani 1 1 d . .
O6 O 0.25996(19) 0.24133(18) 0.72198(13) 0.0283(6) Uani 1 1 d . .
O14 O 0.11503(16) 0.31605(15) 0.33420(11) 0.0187(5) Uani 1 1 d . .
O1 O 0.2160(2) -0.55859(18) 0.73842(14) 0.0285(6) Uani 1 1 d . .
O13 O -0.00457(18) -0.14436(18) 0.38910(13) 0.0225(5) Uani 1 1 d . .
O10 O 0.38566(17) 0.40896(17) 0.22100(12) 0.0238(5) Uani 1 1 d . .
O8 O 0.03169(19) 0.65271(17) 0.36606(14) 0.0262(6) Uani 1 1 d . .
O11 O 0.34057(19) 0.21009(17) 0.25171(13) 0.0232(5) Uani 1 1 d . .
O9 O 0.33887(19) 0.59617(18) 0.23237(14) 0.0279(6) Uani 1 1 d . .
O4 O -0.06711(19) -0.10746(17) 0.87447(13) 0.0262(5) Uani 1 1 d . .
O12 O 0.15849(19) -0.12891(16) 0.29277(13) 0.0246(5) Uani 1 1 d . .
O5 O 0.07218(19) 0.22260(17) 0.79526(14) 0.0292(6) Uani 1 1 d . .
O2 O -0.0777(2) -0.4951(2) 0.88345(17) 0.0422(8) Uani 1 1 d . .
C8 C -0.0145(2) -0.1790(2) 0.84042(17) 0.0200(7) Uani 1 1 d . .
O3 O -0.1230(2) -0.30972(18) 0.89685(14) 0.0344(6) Uani 1 1 d . .
C6 C 0.0198(2) -0.3555(2) 0.82422(17) 0.0211(7) Uani 1 1 d . .
C1 C 0.1044(2) -0.3229(2) 0.77792(16) 0.0182(6) Uani 1 1 d . .
C22 C 0.3018(2) 0.3824(2) 0.25605(16) 0.0188(6) Uani 1 1 d . .
C24 C 0.1813(2) 0.2459(2) 0.31101(16) 0.0177(6) Uani 1 1 d . .
C14 C 0.2619(2) 0.0629(2) 0.72423(17) 0.0212(7) Uani 1 1 d . .
H14 H 0.3290 0.0707 0.7000 0.025 Uiso 1 1 calc R U
C19 C 0.1844(2) 0.6236(2) 0.29936(18) 0.0214(7) Uani 1 1 d . .
H19 H 0.1987 0.6943 0.2920 0.026 Uiso 1 1 calc R U
C18 C 0.0944(2) 0.5847(2) 0.33931(18) 0.0208(7) Uani 1 1 d . .
C26 C 0.1740(2) 0.0553(2) 0.30185(16) 0.0184(6) Uani 1 1 d . .
H26 H 0.2307 0.0613 0.2678 0.022 Uiso 1 1 calc R U
C64 C 0.4909(2) 0.1323(2) 0.49310(16) 0.0186(6) Uani 1 1 d . .
C7 C -0.0452(2) -0.2846(2) 0.85585(17) 0.0217(7) Uani 1 1 d . .
C25 C 0.1373(2) 0.1439(2) 0.33251(17) 0.0177(6) Uani 1 1 d . .
C23 C 0.2730(2) 0.2768(2) 0.27363(16) 0.0185(6) Uani 1 1 d . .
C28 C 0.0434(2) -0.0505(2) 0.37124(16) 0.0169(6) Uani 1 1 d . .
C11 C 0.0670(2) 0.0393(2) 0.79583(16) 0.0183(6) Uani 1 1 d . .
H11 H -0.0001 0.0317 0.8201 0.022 Uiso 1 1 calc R U
N5 N -0.2342(2) -0.1388(2) 0.96415(16) 0.0271(6) Uani 1 1 d . .
C12 C 0.1141(2) 0.1353(2) 0.77842(17) 0.0208(7) Uani 1 1 d . .
C16 C 0.1399(2) 0.4174(2) 0.32190(16) 0.0173(6) Uani 1 1 d . .
C29 C 0.0083(2) 0.0366(2) 0.40234(17) 0.0193(6) Uani 1 1 d . .
H29 H -0.0479 0.0305 0.4368 0.023 Uiso 1 1 calc R U
C63 C 0.5979(3) 0.1549(2) 0.48312(17) 0.0212(7) Uani 1 1 d . .
C2 C 0.1701(2) -0.3882(2) 0.74665(17) 0.0207(7) Uani 1 1 d . .
H2 H 0.2251 -0.3646 0.7141 0.025 Uiso 1 1 calc R U
C27 C 0.1279(2) -0.0404(2) 0.32099(16) 0.0172(6) Uani 1 1 d . .
C30 C 0.0545(2) 0.1325(2) 0.38354(17) 0.0190(6) Uani 1 1 d . .
H30 H 0.0297 0.1914 0.4055 0.023 Uiso 1 1 calc R U
C9 C 0.0692(2) -0.1505(2) 0.79582(16) 0.0175(6) Uani 1 1 d . .
C10 C 0.1166(2) -0.0475(2) 0.77831(16) 0.0185(6) Uani 1 1 d . .
C17 C 0.0717(2) 0.4815(2) 0.35094(17) 0.0201(7) Uani 1 1 d . .
H17 H 0.0109 0.4558 0.3782 0.024 Uiso 1 1 calc R U
C21 C 0.2309(2) 0.4521(2) 0.28174(17) 0.0191(6) Uani 1 1 d . .
C3 C 0.1534(3) -0.4895(2) 0.76428(18) 0.0228(7) Uani 1 1 d . .
C66 C 0.3004(3) 0.1018(3) 0.54760(19) 0.0261(7) Uani 1 1 d . .
H66 H 0.2413 0.0966 0.5798 0.031 Uiso 1 1 calc R U
C15 C 0.2154(2) -0.0329(2) 0.74257(16) 0.0198(7) Uani 1 1 d . .
H15 H 0.2512 -0.0898 0.7307 0.024 Uiso 1 1 calc R U
N6 N -0.6658(2) -0.1079(2) 1.20788(16) 0.0296(7) Uani 1 1 d . .
C20 C 0.2520(2) 0.5585(2) 0.27089(17) 0.0211(7) Uani 1 1 d . .
C4 C 0.0710(3) -0.5256(3) 0.81020(19) 0.0263(8) Uani 1 1 d . .
H4 H 0.0610 -0.5949 0.8216 0.032 Uiso 1 1 calc R U
C5 C 0.0040(3) -0.4604(3) 0.83919(19) 0.0263(8) Uani 1 1 d . .
C13 C 0.2119(2) 0.1474(2) 0.74069(17) 0.0203(7) Uani 1 1 d . .
C56 C -0.4965(3) -0.1278(3) 1.11161(18) 0.0246(7) Uani 1 1 d . .
C53 C -0.4051(3) -0.1355(3) 1.06085(18) 0.0240(7) Uani 1 1 d . .
C65 C 0.2858(3) 0.0785(2) 0.47714(18) 0.0246(7) Uani 1 1 d . .
H65 H 0.2156 0.0551 0.4574 0.030 Uiso 1 1 calc R U
C62 C 0.8038(3) 0.2101(3) 0.4980(2) 0.0323(8) Uani 1 1 d . .
H62 H 0.8743 0.2330 0.5173 0.039 Uiso 1 1 calc R U
C57 C -0.4976(3) -0.1654(3) 1.1790(2) 0.0356(9) Uani 1 1 d . .
H57 H -0.4399 -0.1978 1.1945 0.043 Uiso 1 1 calc R U
C61 C 0.7870(3) 0.1912(3) 0.4274(2) 0.0307(8) Uani 1 1 d . .
H61 H 0.8452 0.2001 0.3946 0.037 Uiso 1 1 calc R U
C59 C -0.6623(3) -0.0669(3) 1.1433(2) 0.0395(9) Uani 1 1 d . .
H59 H -0.7183 -0.0301 1.1313 0.047 Uiso 1 1 calc R U
C54 C -0.3004(3) -0.1067(3) 1.0838(2) 0.0335(9) Uani 1 1 d . .
H54 H -0.2844 -0.0857 1.1333 0.040 Uiso 1 1 calc R U
C58 C -0.5843(3) -0.1554(3) 1.2242(2) 0.0370(9) Uani 1 1 d . .
H58 H -0.5852 -0.1845 1.2697 0.044 Uiso 1 1 calc R U
C55 C -0.2177(3) -0.1081(3) 1.0343(2) 0.0367(9) Uani 1 1 d . .
H55 H -0.1457 -0.0861 1.0511 0.044 Uiso 1 1 calc R U
C60 C -0.5807(3) -0.0759(3) 1.0932(2) 0.0383(9) Uani 1 1 d . .
H60 H -0.5822 -0.0474 1.0477 0.046 Uiso 1 1 calc R U
C52 C -0.4208(3) -0.1728(3) 0.9893(2) 0.0414(10) Uani 1 1 d . .
H52 H -0.4916 -0.1979 0.9713 0.050 Uiso 1 1 calc R U
C51 C -0.3337(3) -0.1737(3) 0.9438(2) 0.0416(10) Uani 1 1 d . .
H51 H -0.3468 -0.2012 0.8951 0.050 Uiso 1 1 calc R U
S5 S 0.33793(8) 0.44470(8) 0.03989(5) 0.0394(3) Uani 1 1 d . .
S6 S 0.44065(9) 0.41358(8) -0.10252(5) 0.0390(3) Uani 1 1 d . .
C67 C 0.4538(3) 0.4708(3) -0.0128(2) 0.0304(8) Uani 1 1 d . .
C68 C 0.3041(4) 0.3692(3) -0.0959(2) 0.0458(10) Uani 1 1 d . .
H68 H 0.2637 0.3362 -0.1368 0.055 Uiso 1 1 calc R U
C69 C 0.2573(3) 0.3823(4) -0.0323(2) 0.0464(11) Uani 1 1 d . .
H69 H 0.1828 0.3587 -0.0262 0.056 Uiso 1 1 calc R U
C34 C 0.4753(3) 0.3830(3) 0.39775(19) 0.0271(8) Uani 1 1 d . .
H34 H 0.4504 0.3160 0.4113 0.033 Uiso 1 1 calc R U
N2 N 0.1384(2) 0.4173(2) 0.55352(15) 0.0245(6) Uani 1 1 d . .
N1 N 0.6065(2) 0.4933(2) 0.33453(15) 0.0233(6) Uani 1 1 d . .
C33 C 0.4212(2) 0.4643(2) 0.42080(16) 0.0175(6) Uani 1 1 d . .
C36 C 0.3232(2) 0.4474(2) 0.46646(17) 0.0194(6) Uani 1 1 d . .
C32 C 0.4630(3) 0.5598(3) 0.39829(19) 0.0265(8) Uani 1 1 d . .
H32 H 0.4286 0.6171 0.4117 0.032 Uiso 1 1 calc R U
C31 C 0.5546(3) 0.5714(3) 0.35633(19) 0.0270(8) Uani 1 1 d . .
H31 H 0.5821 0.6375 0.3423 0.032 Uiso 1 1 calc R U
C38 C 0.1810(3) 0.5093(3) 0.5347(2) 0.0363(9) Uani 1 1 d . .
H38 H 0.1472 0.5657 0.5515 0.044 Uiso 1 1 calc R U
C40 C 0.2785(3) 0.3517(3) 0.4857(2) 0.0332(9) Uani 1 1 d . .
H40 H 0.3102 0.2937 0.4695 0.040 Uiso 1 1 calc R U
C37 C 0.2715(3) 0.5281(3) 0.4922(2) 0.0324(9) Uani 1 1 d . .
H37 H 0.2981 0.5957 0.4807 0.039 Uiso 1 1 calc R U
C39 C 0.1880(3) 0.3400(3) 0.5286(2) 0.0316(8) Uani 1 1 d . .
H39 H 0.1594 0.2732 0.5409 0.038 Uiso 1 1 calc R U
C35 C 0.5659(3) 0.4019(3) 0.3548(2) 0.0294(8) Uani 1 1 d . .
H35 H 0.6010 0.3459 0.3391 0.035 Uiso 1 1 calc R U
N3 N 0.5459(2) 0.2524(2) 0.18685(16) 0.0285(7) Uani 1 1 d . .
C43 C 0.7038(3) 0.2416(3) 0.0791(2) 0.0283(8) Uani 1 1 d . .
N4 N 0.9165(3) 0.2080(2) -0.1014(2) 0.0429(9) Uani 1 1 d . .
C50 C 0.8463(3) 0.1583(3) 0.0132(2) 0.0370(9) Uani 1 1 d . .
H50 H 0.8464 0.1130 0.0506 0.044 Uiso 1 1 calc R U
C45 C 0.5883(3) 0.1676(3) 0.17096(19) 0.0291(8) Uani 1 1 d . .
H45 H 0.5640 0.1098 0.1971 0.035 Uiso 1 1 calc R U
C44 C 0.6664(3) 0.1589(3) 0.11818(19) 0.0306(8) Uani 1 1 d . .
H44 H 0.6937 0.0964 0.1091 0.037 Uiso 1 1 calc R U
C49 C 0.9123(3) 0.1497(3) -0.0458(2) 0.0384(10) Uani 1 1 d . .
H49 H 0.9578 0.0987 -0.0467 0.046 Uiso 1 1 calc R U
C46 C 0.7802(3) 0.2324(3) 0.0182(2) 0.0325(8) Uani 1 1 d . .
C41 C 0.5871(3) 0.3331(3) 0.1525(2) 0.0322(8) Uani 1 1 d . .
H41 H 0.5619 0.3958 0.1651 0.039 Uiso 1 1 calc R U
C42 C 0.6650(3) 0.3319(3) 0.0990(2) 0.0328(8) Uani 1 1 d . .
H42 H 0.6914 0.3925 0.0764 0.039 Uiso 1 1 calc R U
C47 C 0.7800(3) 0.2930(3) -0.0423(2) 0.0435(10) Uani 1 1 d . .
H47 H 0.7336 0.3432 -0.0430 0.052 Uiso 1 1 calc R U
C48 C 0.8479(3) 0.2785(3) -0.1003(2) 0.0439(10) Uani 1 1 d . .
H48 H 0.8464 0.3190 -0.1405 0.053 Uiso 1 1 calc R U
H11O H 0.395(3) 0.237(3) 0.235(2) 0.037(12) Uiso 1 1 d . .
H12O H 0.217(3) -0.119(3) 0.267(2) 0.043(12) Uiso 1 1 d . .
H5O H 0.020(4) 0.217(3) 0.826(2) 0.050(13) Uiso 1 1 d . .
H4O H -0.113(4) -0.128(4) 0.904(3) 0.061(15) Uiso 1 1 d . .
H13O H 0.015(4) -0.188(4) 0.366(3) 0.054(15) Uiso 1 1 d . .
H8O H -0.009(4) 0.623(4) 0.390(3) 0.063(16) Uiso 1 1 d . .
H9O H 0.377(4) 0.541(4) 0.225(3) 0.078(17) Uiso 1 1 d . .
H2O H -0.101(6) -0.443(6) 0.897(4) 0.15(3) Uiso 1 1 d . .
H6O H 0.214(4) 0.288(3) 0.734(2) 0.059(14) Uiso 1 1 d . .
H1O H 0.264(4) -0.531(4) 0.719(3) 0.055(15) Uiso 1 1 d . .
loop_
_atom_site_aniso_label
_atom_site_aniso_U_11
_atom_site_aniso_U_22
_atom_site_aniso_U_33
_atom_site_aniso_U_23
_atom_site_aniso_U_13
_atom_site_aniso_U_12
S1 0.0210(4) 0.0274(4) 0.0211(4) -0.0002(3) 0.0014(3) 0.0031(3)
S2 0.0222(4) 0.0341(5) 0.0202(4) -0.0006(4) 0.0060(3) -0.0010(3)
S3 0.0206(4) 0.0326(5) 0.0244(4) 0.0013(4) 0.0075(3) 0.0061(3)
S4 0.0241(4) 0.0261(4) 0.0264(4) 0.0006(4) -0.0011(3) 0.0016(3)
O7 0.0171(11) 0.0183(11) 0.0214(11) 0.0008(9) 0.0090(9) 0.0038(8)
O6 0.0258(13) 0.0223(12) 0.0391(15) 0.0089(11) 0.0176(11) 0.0076(10)
O14 0.0161(10) 0.0156(10) 0.0249(12) 0.0007(9) 0.0069(9) 0.0043(8)
O1 0.0241(13) 0.0220(12) 0.0400(15) 0.0042(11) 0.0167(11) 0.0046(10)
O13 0.0237(12) 0.0162(11) 0.0292(13) 0.0045(10) 0.0122(10) 0.0059(9)
O10 0.0197(11) 0.0239(12) 0.0290(13) 0.0039(10) 0.0126(9) 0.0059(9)
O8 0.0231(12) 0.0170(11) 0.0391(15) 0.0022(11) 0.0175(11) 0.0044(9)
O11 0.0194(12) 0.0209(12) 0.0303(13) 0.0036(10) 0.0127(10) 0.0056(10)
O9 0.0232(12) 0.0215(12) 0.0403(15) 0.0068(11) 0.0179(11) 0.0051(10)
O4 0.0264(13) 0.0203(12) 0.0331(14) 0.0020(11) 0.0198(11) 0.0068(10)
O12 0.0259(13) 0.0166(11) 0.0325(13) 0.0018(10) 0.0152(10) 0.0068(9)
O5 0.0242(13) 0.0214(12) 0.0446(15) 0.0057(11) 0.0210(11) 0.0093(10)
O2 0.0422(16) 0.0243(14) 0.063(2) 0.0131(14) 0.0391(14) 0.0073(12)
C8 0.0180(15) 0.0214(16) 0.0215(16) -0.0007(13) 0.0073(12) 0.0071(12)
O3 0.0319(14) 0.0252(13) 0.0475(16) 0.0067(12) 0.0305(12) 0.0059(11)
C6 0.0190(16) 0.0202(16) 0.0239(17) 0.0007(14) 0.0088(13) 0.0028(12)
C1 0.0154(15) 0.0191(15) 0.0195(16) 0.0013(13) 0.0038(12) 0.0011(12)
C22 0.0169(15) 0.0211(16) 0.0188(15) 0.0003(13) 0.0062(12) 0.0051(12)
C24 0.0163(15) 0.0184(15) 0.0199(15) 0.0011(13) 0.0040(12) 0.0073(12)
C14 0.0183(16) 0.0261(17) 0.0204(16) 0.0039(14) 0.0097(12) 0.0058(13)
C19 0.0215(16) 0.0140(15) 0.0284(18) -0.0008(13) 0.0081(13) 0.0028(12)
C18 0.0173(15) 0.0181(15) 0.0271(17) -0.0004(14) 0.0057(13) 0.0047(12)
C26 0.0177(15) 0.0217(16) 0.0169(15) 0.0023(13) 0.0050(12) 0.0060(12)
C64 0.0222(16) 0.0182(15) 0.0163(15) 0.0023(13) 0.0035(12) 0.0049(12)
C7 0.0180(16) 0.0228(16) 0.0246(17) 0.0008(14) 0.0080(13) 0.0043(13)
C25 0.0127(14) 0.0203(16) 0.0204(15) 0.0017(13) 0.0036(11) 0.0036(12)
C23 0.0184(15) 0.0193(15) 0.0191(15) 0.0021(13) 0.0056(12) 0.0070(12)
C28 0.0151(14) 0.0165(15) 0.0198(15) 0.0042(13) 0.0026(12) 0.0028(12)
C11 0.0135(14) 0.0239(16) 0.0185(15) 0.0018(13) 0.0073(12) 0.0054(12)
N5 0.0255(15) 0.0272(15) 0.0288(16) 0.0006(13) 0.0109(12) 0.0058(12)
C12 0.0201(16) 0.0218(16) 0.0220(16) 0.0027(13) 0.0082(13) 0.0071(13)
C16 0.0150(15) 0.0176(15) 0.0193(15) 0.0031(13) 0.0040(12) 0.0021(12)
C29 0.0149(15) 0.0203(16) 0.0236(16) 0.0020(13) 0.0086(12) 0.0054(12)
C63 0.0218(16) 0.0174(16) 0.0257(17) 0.0024(14) 0.0046(13) 0.0063(12)
C2 0.0175(15) 0.0227(16) 0.0213(16) 0.0002(13) 0.0071(12) 0.0023(12)
C27 0.0165(15) 0.0174(15) 0.0187(15) 0.0000(13) 0.0037(12) 0.0059(12)
C30 0.0180(15) 0.0178(15) 0.0227(16) 0.0019(13) 0.0060(12) 0.0071(12)
C9 0.0156(15) 0.0190(15) 0.0190(15) -0.0008(13) 0.0039(12) 0.0068(12)
C10 0.0159(15) 0.0224(16) 0.0174(15) 0.0030(13) 0.0047(12) 0.0030(12)
C17 0.0158(15) 0.0204(16) 0.0248(17) 0.0015(13) 0.0087(12) 0.0050(12)
C21 0.0151(15) 0.0214(16) 0.0213(16) 0.0012(13) 0.0040(12) 0.0050(12)
C3 0.0196(16) 0.0216(16) 0.0281(18) 0.0006(14) 0.0075(13) 0.0064(13)
C66 0.0187(16) 0.0299(18) 0.0304(19) 0.0074(15) 0.0067(14) 0.0030(14)
C15 0.0190(16) 0.0222(16) 0.0193(16) 0.0000(13) 0.0075(12) 0.0068(13)
N6 0.0248(15) 0.0372(17) 0.0280(16) -0.0003(14) 0.0106(12) 0.0096(13)
C20 0.0181(16) 0.0201(16) 0.0251(17) 0.0018(14) 0.0088(13) 0.0029(12)
C4 0.0237(17) 0.0197(16) 0.036(2) 0.0037(15) 0.0150(14) 0.0021(13)
C5 0.0241(17) 0.0232(17) 0.0318(19) 0.0054(15) 0.0146(14) 0.0018(14)
C13 0.0191(16) 0.0206(16) 0.0220(16) 0.0069(13) 0.0096(12) 0.0032(12)
C56 0.0167(16) 0.0305(18) 0.0251(17) -0.0033(15) 0.0068(13) 0.0018(13)
C53 0.0217(17) 0.0265(17) 0.0239(17) 0.0003(14) 0.0085(13) 0.0050(13)
C65 0.0191(16) 0.0244(17) 0.0311(19) 0.0048(15) 0.0005(13) 0.0045(13)
C62 0.0175(17) 0.0291(19) 0.050(2) 0.0020(18) 0.0022(15) 0.0032(14)
C57 0.0279(19) 0.035(2) 0.045(2) 0.0059(18) 0.0113(17) 0.0083(16)
C61 0.0193(17) 0.0317(19) 0.042(2) 0.0031(17) 0.0120(15) 0.0066(14)
C59 0.0256(19) 0.046(2) 0.048(2) 0.003(2) 0.0077(17) 0.0081(17)
C54 0.031(2) 0.048(2) 0.0237(18) 0.0053(17) 0.0080(15) 0.0117(17)
C58 0.034(2) 0.042(2) 0.035(2) 0.0051(18) 0.0162(17) 0.0052(17)
C55 0.0242(19) 0.052(2) 0.034(2) 0.0036(19) 0.0064(15) 0.0072(17)
C60 0.0269(19) 0.055(3) 0.034(2) 0.0094(19) 0.0070(16) 0.0091(18)
C52 0.0233(19) 0.066(3) 0.033(2) -0.008(2) 0.0025(15) 0.0049(18)
C51 0.033(2) 0.061(3) 0.028(2) -0.0090(19) 0.0068(16) 0.0069(19)
S5 0.0345(5) 0.0487(6) 0.0340(5) 0.0028(5) 0.0132(4) 0.0034(4)
S6 0.0474(6) 0.0351(5) 0.0324(5) 0.0006(4) 0.0147(4) 0.0007(4)
C67 0.034(2) 0.0262(19) 0.032(2) 0.0052(16) 0.0088(15) 0.0052(15)
C68 0.051(3) 0.051(3) 0.033(2) 0.004(2) 0.0051(19) 0.001(2)
C69 0.035(2) 0.058(3) 0.045(2) 0.010(2) 0.0050(18) -0.002(2)
C34 0.0243(17) 0.0222(17) 0.035(2) 0.0051(15) 0.0132(15) 0.0037(14)
N2 0.0213(14) 0.0238(14) 0.0284(15) 0.0022(12) 0.0100(11) 0.0032(11)
N1 0.0191(14) 0.0258(15) 0.0252(15) 0.0008(12) 0.0074(11) 0.0040(11)
C33 0.0154(15) 0.0201(15) 0.0172(15) -0.0001(13) 0.0029(12) 0.0037(12)
C36 0.0174(15) 0.0222(16) 0.0187(16) -0.0009(13) 0.0038(12) 0.0046(12)
C32 0.0237(17) 0.0207(16) 0.036(2) 0.0043(15) 0.0140(15) 0.0061(13)
C31 0.0247(17) 0.0204(17) 0.036(2) 0.0044(15) 0.0131(15) 0.0023(14)
C38 0.033(2) 0.0246(18) 0.054(2) 0.0042(18) 0.0281(18) 0.0114(15)
C40 0.0293(19) 0.0211(17) 0.051(2) 0.0064(17) 0.0226(17) 0.0081(15)
C37 0.032(2) 0.0210(17) 0.046(2) 0.0070(17) 0.0211(17) 0.0070(15)
C39 0.0289(19) 0.0234(18) 0.043(2) 0.0050(16) 0.0163(16) 0.0052(15)
C35 0.0276(18) 0.0252(18) 0.038(2) 0.0072(16) 0.0175(15) 0.0082(14)
N3 0.0268(15) 0.0280(16) 0.0319(16) 0.0022(13) 0.0086(12) 0.0082(12)
C43 0.0194(17) 0.0310(19) 0.035(2) -0.0023(16) 0.0078(14) 0.0062(14)
N4 0.0356(19) 0.0328(18) 0.060(2) -0.0024(17) 0.0280(17) 0.0056(14)
C50 0.034(2) 0.047(2) 0.033(2) -0.0008(18) 0.0074(16) 0.0186(18)
C45 0.0269(18) 0.035(2) 0.0283(19) 0.0092(16) 0.0061(14) 0.0108(15)
C44 0.0251(18) 0.040(2) 0.0304(19) 0.0009(17) 0.0042(15) 0.0168(16)
C49 0.026(2) 0.055(3) 0.037(2) -0.005(2) 0.0066(16) 0.0225(18)
C46 0.0235(18) 0.0283(19) 0.044(2) -0.0047(17) 0.0146(16) 0.0018(15)
C41 0.0296(19) 0.0284(19) 0.039(2) 0.0003(17) 0.0079(16) 0.0077(15)
C42 0.0278(19) 0.0305(19) 0.039(2) 0.0003(17) 0.0105(16) 0.0028(15)
C47 0.044(2) 0.029(2) 0.058(3) 0.004(2) 0.025(2) 0.0089(18)
C48 0.046(2) 0.032(2) 0.053(3) 0.005(2) 0.022(2) 0.0036(18)
loop_
_atom_type_symbol
_atom_type_description
_atom_type_scat_dispersion_real
_atom_type_scat_dispersion_imag
_atom_type_scat_source
C C 0.0033 0.0016 'International Tables Vol C Tables 4.2.6.8 and 6.1.1.4'
H H 0.0000 0.0000 'International Tables Vol C Tables 4.2.6.8 and 6.1.1.4'
N N 0.0061 0.0033 'International Tables Vol C Tables 4.2.6.8 and 6.1.1.4'
O O 0.0106 0.0060 'International Tables Vol C Tables 4.2.6.8 and 6.1.1.4'
S S 0.1246 0.1234 'International Tables Vol C Tables 4.2.6.8 and 6.1.1.4'
loop_
_geom_angle_atom_site_label_1
_geom_angle_atom_site_label_2
_geom_angle_atom_site_label_3
_geom_angle
_geom_angle_site_symmetry_1
C65 S1 C64 94.35(15) .
C66 S2 C64 94.56(15) .
C61 S3 C63 94.55(16) .
C62 S4 C63 94.59(17) .
C1 O7 C9 120.9(2) .
C13 O6 H6O 109(3) .
C16 O14 C24 121.7(2) .
C3 O1 H1O 109(4) .
C28 O13 H13O 113(4) .
C18 O8 H8O 106(4) .
C23 O11 H11O 113(3) .
C20 O9 H9O 104(3) .
C8 O4 H4O 116(3) .
C27 O12 H12O 113(3) .
C12 O5 H5O 115(3) .
C5 O2 H2O 103(6) .
O4 C8 C9 120.1(3) .
O4 C8 C7 118.6(3) .
C9 C8 C7 121.2(3) .
C1 C6 C5 117.1(3) .
C1 C6 C7 120.5(3) .
C5 C6 C7 122.4(3) .
O7 C1 C2 117.2(3) .
O7 C1 C6 120.1(3) .
C2 C1 C6 122.7(3) .
O10 C22 C21 123.2(3) .
O10 C22 C23 120.2(3) .
C21 C22 C23 116.6(3) .
C23 C24 O14 120.0(3) .
C23 C24 C25 129.5(3) .
O14 C24 C25 110.5(2) .
C15 C14 C13 120.9(3) .
C15 C14 H14 119.6 .
C13 C14 H14 119.6 .
C20 C19 C18 119.6(3) .
C20 C19 H19 120.2 .
C18 C19 H19 120.2 .
O8 C18 C17 122.1(3) .
O8 C18 C19 116.6(3) .
C17 C18 C19 121.3(3) .
C27 C26 C25 120.5(3) .
C27 C26 H26 119.7 .
C25 C26 H26 119.7 .
C63 C64 S2 122.3(3) .
C63 C64 S1 123.0(2) .
S2 C64 S1 114.72(17) .
O3 C7 C6 123.2(3) .
O3 C7 C8 120.4(3) .
C6 C7 C8 116.3(3) .
C30 C25 C26 118.3(3) .
C30 C25 C24 119.9(3) .
C26 C25 C24 121.8(3) .
O11 C23 C24 121.2(3) .
O11 C23 C22 117.6(3) .
C24 C23 C22 121.2(3) .
O13 C28 C29 119.8(3) .
O13 C28 C27 120.9(3) .
C29 C28 C27 119.2(3) .
C12 C11 C10 121.3(3) .
C12 C11 H11 119.3 .
C10 C11 H11 119.3 .
C51 N5 C55 116.6(3) .
O5 C12 C11 124.5(3) .
O5 C12 C13 115.5(3) .
C11 C12 C13 120.0(3) .
O14 C16 C17 116.8(3) .
O14 C16 C21 120.4(3) .
C17 C16 C21 122.7(3) .
C28 C29 C30 120.6(3) .
C28 C29 H29 119.7 .
C30 C29 H29 119.7 .
C64 C63 S3 122.0(3) .
C64 C63 S4 123.6(3) .
S3 C63 S4 114.42(17) .
C1 C2 C3 118.2(3) .
C1 C2 H2 120.9 .
C3 C2 H2 120.9 .
O12 C27 C26 123.5(3) .
O12 C27 C28 116.1(3) .
C26 C27 C28 120.4(3) .
C29 C30 C25 121.0(3) .
C29 C30 H30 119.5 .
C25 C30 H30 119.5 .
C8 C9 O7 120.6(3) .
C8 C9 C10 128.8(3) .
O7 C9 C10 110.6(2) .
C15 C10 C11 117.5(3) .
C15 C10 C9 119.6(3) .
C11 C10 C9 122.9(3) .
C16 C17 C18 118.4(3) .
C16 C17 H17 120.8 .
C18 C17 H17 120.8 .
C16 C21 C20 117.6(3) .
C16 C21 C22 120.1(3) .
C20 C21 C22 122.3(3) .
O1 C3 C4 115.9(3) .
O1 C3 C2 122.7(3) .
C4 C3 C2 121.4(3) .
C65 C66 S2 117.6(3) .
C65 C66 H66 121.2 .
S2 C66 H66 121.2 .
C14 C15 C10 121.3(3) .
C14 C15 H15 119.4 .
C10 C15 H15 119.4 .
C58 N6 C59 116.8(3) .
O9 C20 C19 119.5(3) .
O9 C20 C21 120.0(3) .
C19 C20 C21 120.4(3) .
C5 C4 C3 119.7(3) .
C5 C4 H4 120.1 .
C3 C4 H4 120.1 .
O2 C5 C4 120.3(3) .
O2 C5 C6 118.9(3) .
C4 C5 C6 120.8(3) .
O6 C13 C14 119.6(3) .
O6 C13 C12 121.4(3) .
C14 C13 C12 119.0(3) .
C57 C56 C60 118.0(3) .
C57 C56 C53 121.5(3) .
C60 C56 C53 120.3(3) .
C54 C53 C52 116.4(3) .
C54 C53 C56 121.1(3) .
C52 C53 C56 122.5(3) .
C66 C65 S1 118.8(3) .
C66 C65 H65 120.6 .
S1 C65 H65 120.6 .
C61 C62 S4 118.2(3) .
C61 C62 H62 120.9 .
S4 C62 H62 120.9 .
C56 C57 C58 119.1(4) .
C56 C57 H57 120.4 .
C58 C57 H57 120.4 .
C62 C61 S3 118.2(3) .
C62 C61 H61 120.9 .
S3 C61 H61 120.9 .
N6 C59 C60 123.3(4) .
N6 C59 H59 118.3 .
C60 C59 H59 118.3 .
C53 C54 C55 119.7(3) .
C53 C54 H54 120.1 .
C55 C54 H54 120.1 .
N6 C58 C57 124.1(4) .
N6 C58 H58 117.9 .
C57 C58 H58 117.9 .
N5 C55 C54 123.3(4) .
N5 C55 H55 118.3 .
C54 C55 H55 118.3 .
C59 C60 C56 118.5(4) .
C59 C60 H60 120.7 .
C56 C60 H60 120.7 .
C53 C52 C51 120.1(4) .
C53 C52 H52 119.9 .
C51 C52 H52 119.9 .
N5 C51 C52 123.5(4) .
N5 C51 H51 118.3 .
C52 C51 H51 118.3 .
C69 S5 C67 94.53(19) .
C68 S6 C67 94.48(19) .
C67 C67 S5 123.2(4) 2_665
C67 C67 S6 122.4(4) 2_665
S5 C67 S6 114.4(2) .
C69 C68 S6 118.5(4) .
C69 C68 H68 120.8 .
S6 C68 H68 120.8 .
C68 C69 S5 117.6(3) .
C68 C69 H69 121.2 .
S5 C69 H69 121.2 .
C35 C34 C33 119.1(3) .
C35 C34 H34 120.5 .
C33 C34 H34 120.5 .
C38 N2 C39 116.0(3) .
C35 N1 C31 117.0(3) .
C32 C33 C34 116.6(3) .
C32 C33 C36 122.5(3) .
C34 C33 C36 120.9(3) .
C40 C36 C37 116.1(3) .
C40 C36 C33 122.5(3) .
C37 C36 C33 121.4(3) .
C31 C32 C33 120.2(3) .
C31 C32 H32 119.9 .
C33 C32 H32 119.9 .
N1 C31 C32 123.0(3) .
N1 C31 H31 118.5 .
C32 C31 H31 118.5 .
N2 C38 C37 124.2(3) .
N2 C38 H38 117.9 .
C37 C38 H38 117.9 .
C39 C40 C36 120.3(3) .
C39 C40 H40 119.9 .
C36 C40 H40 119.9 .
C38 C37 C36 119.6(3) .
C38 C37 H37 120.2 .
C36 C37 H37 120.2 .
N2 C39 C40 123.7(3) .
N2 C39 H39 118.1 .
C40 C39 H39 118.1 .
N1 C35 C34 124.1(3) .
N1 C35 H35 118.0 .
C34 C35 H35 118.0 .
C41 N3 C45 116.0(3) .
C44 C43 C42 116.3(3) .
C44 C43 C46 121.1(3) .
C42 C43 C46 122.5(3) .
C49 N4 C48 116.9(3) .
C46 C50 C49 120.3(4) .
C46 C50 H50 119.8 .
C49 C50 H50 119.8 .
N3 C45 C44 123.8(3) .
N3 C45 H45 118.1 .
C44 C45 H45 118.1 .
C43 C44 C45 119.8(3) .
C43 C44 H44 120.1 .
C45 C44 H44 120.1 .
N4 C49 C50 124.4(4) .
N4 C49 H49 117.8 .
C50 C49 H49 117.8 .
C50 C46 C47 116.2(3) .
C50 C46 C43 122.3(4) .
C47 C46 C43 121.1(3) .
N3 C41 C42 124.3(3) .
N3 C41 H41 117.9 .
C42 C41 H41 117.9 .
C43 C42 C41 119.5(3) .
C43 C42 H42 120.2 .
C41 C42 H42 120.2 .
C48 C47 C46 119.8(4) .
C48 C47 H47 120.1 .
C46 C47 H47 120.1 .
N4 C48 C47 122.2(4) .
N4 C48 H48 118.9 .
C47 C48 H48 118.9 .
loop_
_geom_bond_atom_site_label_1
_geom_bond_atom_site_label_2
_geom_bond_distance
_geom_bond_site_symmetry_2
S1 C65 1.742(3) .
S1 C64 1.767(3) .
S2 C66 1.754(3) .
S2 C64 1.763(3) .
S3 C61 1.749(4) .
S3 C63 1.766(3) .
S4 C62 1.747(4) .
S4 C63 1.769(3) .
O7 C1 1.373(4) .
O7 C9 1.386(3) .
O6 C13 1.371(4) .
O6 H6O 0.93(5) .
O14 C16 1.372(4) .
O14 C24 1.388(3) .
O1 C3 1.360(4) .
O1 H1O 0.76(5) .
O13 C28 1.365(4) .
O13 H13O 0.76(5) .
O10 C22 1.256(3) .
O8 C18 1.355(4) .
O8 H8O 0.76(5) .
O11 C23 1.360(4) .
O11 H11O 0.80(4) .
O9 C20 1.355(4) .
O9 H9O 0.93(5) .
O4 C8 1.358(4) .
O4 H4O 0.83(5) .
O12 C27 1.361(4) .
O12 H12O 0.88(4) .
O5 C12 1.362(4) .
O5 H5O 0.87(4) .
O2 C5 1.360(4) .
O2 H2O 0.81(7) .
C8 C9 1.364(4) .
C8 C7 1.447(4) .
O3 C7 1.258(4) .
C6 C1 1.403(4) .
C6 C5 1.426(4) .
C6 C7 1.434(4) .
C1 C2 1.384(4) .
C22 C21 1.437(4) .
C22 C23 1.456(4) .
C24 C23 1.370(4) .
C24 C25 1.468(4) .
C14 C15 1.384(4) .
C14 C13 1.384(4) .
C14 H14 0.9500 .
C19 C20 1.381(4) .
C19 C18 1.405(4) .
C19 H19 0.9500 .
C18 C17 1.392(4) .
C26 C27 1.387(4) .
C26 C25 1.410(4) .
C26 H26 0.9500 .
C64 C63 1.346(4) .
C25 C30 1.405(4) .
C28 C29 1.387(4) .
C28 C27 1.410(4) .
C11 C12 1.383(4) .
C11 C10 1.411(4) .
C11 H11 0.9500 .
N5 C51 1.307(5) .
N5 C55 1.336(5) .
C12 C13 1.408(4) .
C16 C17 1.380(4) .
C16 C21 1.401(4) .
C29 C30 1.387(4) .
C29 H29 0.9500 .
C2 C3 1.394(4) .
C2 H2 0.9500 .
C30 H30 0.9500 .
C9 C10 1.466(4) .
C10 C15 1.402(4) .
C17 H17 0.9500 .
C21 C20 1.429(4) .
C3 C4 1.391(4) .
C66 C65 1.322(5) .
C66 H66 0.9500 .
C15 H15 0.9500 .
N6 C58 1.328(5) .
N6 C59 1.346(5) .
C4 C5 1.380(4) .
C4 H4 0.9500 .
C56 C57 1.377(5) .
C56 C60 1.401(5) .
C56 C53 1.495(4) .
C53 C54 1.368(5) .
C53 C52 1.381(5) .
C65 H65 0.9500 .
C62 C61 1.320(5) .
C62 H62 0.9500 .
C57 C58 1.390(5) .
C57 H57 0.9500 .
C61 H61 0.9500 .
C59 C60 1.396(5) .
C59 H59 0.9500 .
C54 C55 1.387(5) .
C54 H54 0.9500 .
C58 H58 0.9500 .
C55 H55 0.9500 .
C60 H60 0.9500 .
C52 C51 1.383(5) .
C52 H52 0.9500 .
C51 H51 0.9500 .
S5 C69 1.750(5) .
S5 C67 1.758(4) .
S6 C68 1.733(4) .
S6 C67 1.769(4) .
C67 C67 1.355(7) 2_665
C68 C69 1.328(6) .
C68 H68 0.9500 .
C69 H69 0.9500 .
C34 C35 1.391(4) .
C34 C33 1.403(4) .
C34 H34 0.9500 .
N2 C38 1.330(4) .
N2 C39 1.335(4) .
N1 C35 1.325(4) .
N1 C31 1.346(4) .
C33 C32 1.391(4) .
C33 C36 1.492(4) .
C36 C40 1.383(4) .
C36 C37 1.393(4) .
C32 C31 1.384(4) .
C32 H32 0.9500 .
C31 H31 0.9500 .
C38 C37 1.384(5) .
C38 H38 0.9500 .
C40 C39 1.383(5) .
C40 H40 0.9500 .
C37 H37 0.9500 .
C39 H39 0.9500 .
C35 H35 0.9500 .
N3 C41 1.325(4) .
N3 C45 1.332(4) .
C43 C44 1.384(5) .
C43 C42 1.389(5) .
C43 C46 1.492(5) .
N4 C49 1.329(5) .
N4 C48 1.367(5) .
C50 C46 1.379(5) .
C50 C49 1.381(5) .
C50 H50 0.9500 .
C45 C44 1.396(5) .
C45 H45 0.9500 .
C44 H44 0.9500 .
C49 H49 0.9500 .
C46 C47 1.427(6) .
C41 C42 1.393(5) .
C41 H41 0.9500 .
C42 H42 0.9500 .
C47 C48 1.393(5) .
C47 H47 0.9500 .
C48 H48 0.9500 .
loop_
_geom_hbond_atom_site_label_D
_geom_hbond_atom_site_label_H
_geom_hbond_atom_site_label_A
_geom_hbond_distance_DH
_geom_hbond_distance_HA
_geom_hbond_distance_DA
_geom_hbond_angle_DHA
_geom_hbond_site_symmetry_A
C14 H14 S2 0.95 2.75 3.557(3) 143.9 .
C19 H19 O12 0.95 2.48 3.367(4) 155.9 1_565
C26 H26 O11 0.95 2.27 2.907(4) 123.5 .
C11 H11 O4 0.95 2.22 2.862(4) 123.5 .
C4 H4 O5 0.95 2.47 3.342(4) 153.4 1_545
C69 H69 O3 0.95 2.61 3.152(5) 116.7 2_556
C34 H34 S1 0.95 2.97 3.905(4) 166.3 .
C37 H37 S4 0.95 2.93 3.847(4) 161.8 2_666
C41 H41 O10 0.95 2.47 3.102(4) 124.1 .
C41 H41 S6 0.95 2.87 3.626(4) 137.4 2_665
C48 H48 O2 0.95 2.52 3.050(5) 115.7 1_664
O11 H11O O10 0.80(4) 2.34(4) 2.721(3) 110(3) .
O11 H11O N3 0.80(4) 2.08(4) 2.841(4) 159(4) .
O12 H12O N6 0.88(4) 1.83(4) 2.703(3) 175(4) 1_654
O5 H5O N4 0.87(4) 1.86(5) 2.732(4) 175(4) 1_456
O4 H4O N5 0.83(5) 1.88(5) 2.680(3) 162(5) .
O13 H13O O8 0.76(5) 2.17(5) 2.807(3) 143(5) 1_545
O13 H13O O12 0.76(5) 2.34(5) 2.711(3) 112(4) .
O8 H8O N2 0.76(5) 1.96(5) 2.693(3) 162(5) 2_566
O9 H9O O10 0.93(5) 1.78(5) 2.638(3) 152(5) .
O2 H2O O3 0.81(7) 1.84(8) 2.608(4) 157(8) .
O6 H6O O1 0.93(5) 2.03(5) 2.794(3) 139(4) 1_565
O6 H6O O5 0.93(5) 2.22(5) 2.710(3) 112(3) .
O1 H1O N1 0.76(5) 1.92(5) 2.672(3) 167(5) 2_656
C14 H14 S2 0.95 2.75 3.557(3) 143.9 .
C19 H19 O12 0.95 2.48 3.367(4) 155.9 1_565
C26 H26 O11 0.95 2.27 2.907(4) 123.5 .
C11 H11 O4 0.95 2.22 2.862(4) 123.5 .
C4 H4 O5 0.95 2.47 3.342(4) 153.4 1_545
C69 H69 O3 0.95 2.61 3.152(5) 116.7 2_556
C34 H34 S1 0.95 2.97 3.905(4) 166.3 .
C37 H37 S4 0.95 2.93 3.847(4) 161.8 2_666
C41 H41 O10 0.95 2.47 3.102(4) 124.1 .
C41 H41 S6 0.95 2.87 3.626(4) 137.4 2_665
C48 H48 O2 0.95 2.52 3.050(5) 115.7 1_664
O11 H11O O10 0.80(4) 2.34(4) 2.721(3) 110(3) .
O11 H11O N3 0.80(4) 2.08(4) 2.841(4) 159(4) .
O12 H12O N6 0.88(4) 1.83(4) 2.703(3) 175(4) 1_654
O5 H5O N4 0.87(4) 1.86(5) 2.732(4) 175(4) 1_456
O4 H4O N5 0.83(5) 1.88(5) 2.680(3) 162(5) .
O13 H13O O8 0.76(5) 2.17(5) 2.807(3) 143(5) 1_545
O13 H13O O12 0.76(5) 2.34(5) 2.711(3) 112(4) .
O8 H8O N2 0.76(5) 1.96(5) 2.693(3) 162(5) 2_566
O9 H9O O10 0.93(5) 1.78(5) 2.638(3) 152(5) .
O2 H2O O3 0.81(7) 1.84(8) 2.608(4) 157(8) .
O6 H6O O1 0.93(5) 2.03(5) 2.794(3) 139(4) 1_565
O6 H6O O5 0.93(5) 2.22(5) 2.710(3) 112(3) .
O1 H1O N1 0.76(5) 1.92(5) 2.672(3) 167(5) 2_656
