#------------------------------------------------------------------------------
#$Date: 2016-03-04 12:10:04 +0200 (Fri, 04 Mar 2016) $
#$Revision: 177459 $
#$URL: svn://www.crystallography.net/cod/cif/1/54/25/1542535.cif $
#------------------------------------------------------------------------------
#
# This file is available in the Crystallography Open Database (COD),
# http://www.crystallography.net/
#
# All data on this site have been placed in the public domain by the
# contributors.
#
data_1542535
loop_
_publ_author_name
'Lorion, M\'elanie M'
'Duarte, Filipe J. S.'
'Calhorda, Maria Jos\'e'
'Oble, Julie'
'Poli, Giovanni'
_publ_section_title
;
 Opening the Way to Catalytic Aminopalladation/Proxicyclic
 Dehydropalladation: Access to Methylidene \g-Lactams.
;
_journal_issue                   5
_journal_name_full               'Organic letters'
_journal_page_first              1020
_journal_paper_doi               10.1021/acs.orglett.6b00143
_journal_volume                  18
_journal_year                    2016
_chemical_formula_moiety         'C11 H10 F N O3 S'
_chemical_formula_sum            'C11 H10 F N O3 S'
_chemical_formula_weight         255.26
_space_group_crystal_system      monoclinic
_space_group_IT_number           14
_space_group_name_Hall           '-P 2ybc'
_space_group_name_H-M_alt        'P 1 21/c 1'
_symmetry_space_group_name_Hall  '-P 2ybc'
_symmetry_space_group_name_H-M   'P 1 21/c 1'
_atom_sites_solution_hydrogens   geom
_atom_sites_solution_primary     dual
_atom_sites_solution_secondary   difmap
_audit_creation_method           SHELXL-2014/7
_cell_angle_alpha                90
_cell_angle_beta                 97.224(3)
_cell_angle_gamma                90
_cell_formula_units_Z            4
_cell_length_a                   5.1196(2)
_cell_length_b                   11.2852(5)
_cell_length_c                   18.9656(7)
_cell_measurement_reflns_used    5801
_cell_measurement_temperature    200(1)
_cell_measurement_theta_max      30.32
_cell_measurement_theta_min      2.82
_cell_volume                     1087.05(8)
_computing_cell_refinement       'Bruker SAINT'
_computing_data_collection       'Bruker APEX2'
_computing_data_reduction        'Bruker SAINT'
_computing_molecular_graphics    'SXGRAPH (Farrugia, 2012)'
_computing_publication_material  'WinGX publication routines (Farrugia, 2012)'
_computing_structure_refinement  'SHELXL-2014/7 (Sheldrick, 2014)'
_computing_structure_solution    'SHELXT-2014/5 (Sheldrick, 2014)'
_diffrn_ambient_temperature      200(1)
_diffrn_detector_area_resol_mean 8.3333
_diffrn_measured_fraction_theta_full 1.000
_diffrn_measured_fraction_theta_max 1.000
_diffrn_measurement_device_type  'Bruker APEX-II CCD'
_diffrn_measurement_method       '\f and \w scans'
_diffrn_radiation_monochromator  'curved graphite'
_diffrn_radiation_source         'fine-focus sealed tube'
_diffrn_radiation_type           MoK\a
_diffrn_radiation_wavelength     0.71073
_diffrn_reflns_av_R_equivalents  0.0260
_diffrn_reflns_av_unetI/netI     0.0197
_diffrn_reflns_laue_measured_fraction_full 1.000
_diffrn_reflns_laue_measured_fraction_max 1.000
_diffrn_reflns_limit_h_max       7
_diffrn_reflns_limit_h_min       -7
_diffrn_reflns_limit_k_max       15
_diffrn_reflns_limit_k_min       -16
_diffrn_reflns_limit_l_max       27
_diffrn_reflns_limit_l_min       -27
_diffrn_reflns_number            19455
_diffrn_reflns_point_group_measured_fraction_full 1.000
_diffrn_reflns_point_group_measured_fraction_max 1.000
_diffrn_reflns_theta_full        25.242
_diffrn_reflns_theta_max         30.542
_diffrn_reflns_theta_min         2.104
_exptl_absorpt_coefficient_mu    0.307
_exptl_absorpt_correction_T_max  0.746
_exptl_absorpt_correction_T_min  0.718
_exptl_absorpt_correction_type   multi-scan
_exptl_absorpt_process_details
; 
R.H. Blessing, Acta Cryst. (1995), A51, 33-38
;
_exptl_crystal_colour            colourless
_exptl_crystal_density_diffrn    1.560
_exptl_crystal_density_method    'not measured'
_exptl_crystal_description       prism
_exptl_crystal_F_000             528
_exptl_crystal_size_max          0.4
_exptl_crystal_size_mid          0.2
_exptl_crystal_size_min          0.1
_refine_diff_density_max         0.365
_refine_diff_density_min         -0.287
_refine_diff_density_rms         0.050
_refine_ls_extinction_method     none
_refine_ls_goodness_of_fit_ref   1.031
_refine_ls_hydrogen_treatment    constr
_refine_ls_matrix_type           full
_refine_ls_number_parameters     154
_refine_ls_number_reflns         3334
_refine_ls_number_restraints     0
_refine_ls_restrained_S_all      1.031
_refine_ls_R_factor_all          0.0478
_refine_ls_R_factor_gt           0.0354
_refine_ls_shift/su_max          0.001
_refine_ls_shift/su_mean         0.000
_refine_ls_structure_factor_coef Fsqd
_refine_ls_weighting_details
'w=1/[\s^2^(Fo^2^)+(0.0474P)^2^+0.3677P] where P=(Fo^2^+2Fc^2^)/3'
_refine_ls_weighting_scheme      calc
_refine_ls_wR_factor_gt          0.0917
_refine_ls_wR_factor_ref         0.0995
_reflns_number_gt                2685
_reflns_number_total             3334
_reflns_threshold_expression     'I > 2\s(I)'
_cod_data_source_file            ol6b00143_si_001.cif
_cod_data_source_block           mml606
_cod_depositor_comments          'Adding full bibliography for 1542535.cif.'
_cod_database_code               1542535
_shelx_shelxl_version_number     2014/7
_shelx_space_group_comment
;
The symmetry employed for this shelxl refinement is uniquely defined
by the following loop, which should always be used as a source of
symmetry information in preference to the above space-group names.
They are only intended as comments.
;
_shelx_res_file
;

    shelx.res created by SHELXL-2014/7

TITL mml606 in P21/c
CELL  0.71073   5.1196  11.2852  18.9656   90.000   97.224   90.000
ZERR     4.00   0.0002   0.0005   0.0007    0.000    0.003    0.000
LATT   1
SYMM  - X, 1/2 + Y, 1/2 - Z
SFAC  C    H    N    O    F    S
UNIT  44 40 4 12 4 4
MERG   2
FMAP   2
PLAN   20
ACTA
L.S.  10
TEMP   -73.00
WGHT    0.047400    0.367700
FVAR       0.18489
S1    6    0.603638    0.664844    0.337172    11.00000    0.02210    0.03606 =
         0.02745   -0.00251    0.00501    0.00183
F1    5   -0.253676    0.689062    0.105511    11.00000    0.05436    0.05746 =
         0.04064    0.00344   -0.01904   -0.00461
O1    4    0.781635    0.760842    0.332525    11.00000    0.02910    0.05643 =
         0.03888   -0.00589    0.00900   -0.01404
O2    4    0.701603    0.546967    0.343961    11.00000    0.03739    0.04551 =
         0.04075   -0.00240    0.00512    0.01835
O3    4    0.294963    0.498945    0.421163    11.00000    0.04308    0.03208 =
         0.04557   -0.00119    0.00460   -0.00557
N1    3    0.449112    0.690814    0.408489    11.00000    0.02546    0.02760 =
         0.02359    0.00011    0.00443    0.00175
C1    1    0.351208    0.672139    0.266131    11.00000    0.02511    0.02828 =
         0.02136   -0.00176    0.00588   -0.00033
C2    1    0.211739    0.569812    0.245680    11.00000    0.03471    0.02457 =
         0.03007    0.00020    0.00529   -0.00143
AFIX  43
H2    2    0.256235    0.496880    0.269185    11.00000   -1.20000
AFIX   0
C3    1    0.007118    0.575114    0.190676    11.00000    0.03917    0.03226 =
         0.03254   -0.00454    0.00128   -0.00903
AFIX  43
H3    2   -0.089752    0.506105    0.175142    11.00000   -1.20000
AFIX   0
C4    1   -0.052074    0.683445    0.159078    11.00000    0.03505    0.04046 =
         0.02340   -0.00082   -0.00062   -0.00157
C5    1    0.082338    0.786169    0.178382    11.00000    0.04116    0.02915 =
         0.02596    0.00308    0.00522    0.00095
AFIX  43
H5    2    0.035123    0.859006    0.155081    11.00000   -1.20000
AFIX   0
C6    1    0.288717    0.780039    0.232873    11.00000    0.03492    0.02683 =
         0.02603   -0.00082    0.00705   -0.00485
AFIX  43
H6    2    0.387045    0.849110    0.247458    11.00000   -1.20000
AFIX   0
C7    1    0.394068    0.806043    0.435029    11.00000    0.02699    0.03069 =
         0.02246   -0.00206   -0.00223    0.00437
C8    1    0.486567    0.908997    0.417039    11.00000    0.05351    0.03015 =
         0.03380    0.00024    0.00177    0.00198
AFIX  93
H8A   2    0.605287    0.912657    0.382423    11.00000   -1.20000
H8B   2    0.434633    0.979672    0.438667    11.00000   -1.20000
AFIX   0
C9    1    0.203246    0.788100    0.488600    11.00000    0.03175    0.04492 =
         0.03101   -0.00915    0.00646    0.00231
AFIX  23
H9A   2    0.027134    0.819158    0.470013    11.00000   -1.20000
H9B   2    0.265677    0.829562    0.533575    11.00000   -1.20000
AFIX   0
C10   1    0.191136    0.656136    0.500688    11.00000    0.04067    0.04605 =
         0.03430    0.00320    0.01394    0.00196
AFIX  23
H10A  2    0.292991    0.634348    0.546721    11.00000   -1.20000
H10B  2    0.006600    0.629984    0.500784    11.00000   -1.20000
AFIX   0
C11   1    0.308928    0.600327    0.440264    11.00000    0.02643    0.03305 =
         0.02897    0.00381    0.00117   -0.00014
HKLF    4

REM  mml606 in P21/c
REM R1 =  0.0354 for    2685 Fo > 4sig(Fo)  and  0.0478 for all    3334 data
REM    154 parameters refined using      0 restraints

END

WGHT      0.0474      0.3677

REM Highest difference peak  0.365,  deepest hole -0.287,  1-sigma level  0.050
Q1    1   0.4638  0.6715  0.3013  11.00000  0.05    0.36
Q2    1   0.3000  0.6226  0.2483  11.00000  0.05    0.33
Q3    1   0.3036  0.8071  0.4590  11.00000  0.05    0.31
Q4    1   0.2606  0.6249  0.4787  11.00000  0.05    0.29
Q5    1   0.1959  0.7735  0.2043  11.00000  0.05    0.29
Q6    1   0.1062  0.5802  0.2175  11.00000  0.05    0.28
Q7    1   0.3280  0.7150  0.2476  11.00000  0.05    0.27
Q8    1   0.3865  0.6483  0.4224  11.00000  0.05    0.26
Q9    1   0.5010  0.8471  0.4397  11.00000  0.05    0.25
Q10   1   0.6920  0.7228  0.3311  11.00000  0.05    0.25
Q11   1   0.7249  0.6056  0.3499  11.00000  0.05    0.25
Q12   1   0.0073  0.7398  0.1769  11.00000  0.05    0.23
Q13   1   0.4138  0.7500  0.4221  11.00000  0.05    0.23
Q14   1   0.7188  0.8088  0.3415  11.00000  0.05    0.23
Q15   1  -0.0025  0.6321  0.1807  11.00000  0.05    0.23
Q16   1   0.3693  0.8584  0.4150  11.00000  0.05    0.23
Q17   1   0.5217  0.6804  0.3835  11.00000  0.05    0.23
Q18   1  -0.1028  0.6835  0.1469  11.00000  0.05    0.20
Q19   1   0.1568  0.7061  0.4927  11.00000  0.05    0.17
Q20   1   0.2550  0.7463  0.5092  11.00000  0.05    0.16
;
_shelx_res_checksum              14691
_shelx_hkl_file
;
  -1   0   0  132.33    1.97
   1   0   0  131.04    1.96
  -1   0   0  133.96    1.98
   2   0   0  133.74    2.07
  -2   0   0  129.55    2.08
  -2   0   0  134.18    2.08
  -2   0   0  132.28    1.91
  -2   0   0  134.64    1.91
  -3   0   0   41.33    0.65
  -3   0   0   40.73    0.64
  -3   0   0   41.71    0.89
  -3   0   0   40.86    0.85
  -4   0   0    3.11    0.31
  -4   0   0    2.78    0.12
  -4   0   0    2.61    0.12
   5   0   0   12.43    0.26
   5   0   0   12.30    0.25
  -5   0   0   12.70    0.58
  -5   0   0   12.49    0.27
  -6   0   0    3.15    0.40
   6   0   0    3.64    0.17
   7   0   0   -0.07    0.09
  -7   0   0    0.01    0.23
   0  -1   0   -0.44    0.02
   0  -1   0   -0.37    0.03
   0  -1   0   -0.53    0.02
   0   1   0   -0.57    0.02
   0   1   0   -0.50    0.02
   0   1   0   -0.54    0.02
   0   1   0   -0.47    0.02
  -1  -1   0   14.09    0.25
   1  -1   0   14.87    0.24
  -1  -1   0   15.19    0.25
   1  -1   0   14.50    0.26
   1  -1   0   14.86    0.24
   1   1   0   15.08    0.24
   1   1   0   14.93    0.24
  -1   1   0   15.09    0.27
  -2  -1   0    0.66    0.12
  -2  -1   0    0.74    0.06
  -2  -1   0    0.66    0.05
  -2   1   0    0.87    0.07
  -2   1   0    0.79    0.12
   2   1   0    0.59    0.10
  -2   1   0    0.73    0.07
  -3  -1   0    0.78    0.06
  -3  -1   0    0.72    0.06
  -3  -1   0    0.78    0.17
  -3   1   0    0.86    0.08
  -3   1   0    0.66    0.14
  -3   1   0    0.71    0.08
  -3   1   0    0.98    0.15
   4  -1   0    0.83    0.07
  -4  -1   0    0.97    0.08
  -4  -1   0    1.03    0.09
   4  -1   0    0.85    0.06
  -4  -1   0    0.62    0.19
  -4   1   0    0.90    0.18
  -4   1   0    0.67    0.18
  -4   1   0    0.83    0.09
   4   1   0    0.93    0.08
  -4   1   0    0.86    0.09
  -5  -1   0    0.81    0.24
   5  -1   0    0.70    0.09
  -5  -1   0    0.67    0.07
  -5   1   0    0.84    0.24
  -5   1   0    0.66    0.09
   6  -1   0    3.91    0.19
  -6  -1   0    3.70    0.42
  -6   1   0    3.38    0.41
   6   1   0    3.72    0.16
  -6   1   0    3.98    0.17
   7  -1   0    4.37    0.24
  -7  -1   0    6.48    0.61
  -7   1   0    5.21    0.55
   7   1   0    4.86    0.22
   0  -2   0  374.00    5.44
   0  -2   0  367.75    5.35
   0   2   0  374.92    5.55
   0   2   0  368.53    5.49
  -1  -2   0    1.14    0.13
  -1  -2   0    0.97    0.09
   1  -2   0    1.02    0.08
   1  -2   0    1.07    0.09
  -1  -2   0    1.14    0.06
  -1  -2   0    1.05    0.09
   1  -2   0    1.05    0.09
  -1   2   0    1.15    0.10
   1   2   0    1.25    0.10
  -1   2   0    1.21    0.11
   1   2   0    1.13    0.08
   1   2   0    1.18    0.08
  -1   2   0    1.18    0.11
  -2  -2   0    0.24    0.05
   2  -2   0    0.08    0.05
  -2  -2   0    0.12    0.05
   2  -2   0    0.12    0.05
   2  -2   0    0.13    0.05
  -2  -2   0    0.16    0.10
   2   2   0    0.22    0.16
  -2   2   0    0.17    0.07
  -3  -2   0    7.02    0.18
   3  -2   0    7.16    0.19
  -3  -2   0    6.75    0.32
   3  -2   0    6.98    0.18
  -3  -2   0    7.04    0.18
  -3   2   0    7.20    0.22
  -3   2   0    7.10    0.21
  -3   2   0    6.31    0.30
  -4  -2   0    3.98    0.14
  -4  -2   0    3.99    0.33
   4  -2   0    4.03    0.16
   4  -2   0    3.74    0.15
  -4  -2   0    4.01    0.15
  -4   2   0    3.80    0.18
  -4   2   0    3.69    0.29
  -4   2   0    4.15    0.19
  -4   2   0    3.82    0.30
  -4   2   0    3.73    0.18
  -5  -2   0   14.23    0.30
   5  -2   0   14.31    0.35
  -5  -2   0   15.17    0.63
  -5   2   0   14.51    0.36
   5   2   0   14.62    0.29
  -5   2   0   13.63    0.56
  -5   2   0   14.71    0.62
   6  -2   0    5.86    0.25
  -6  -2   0    5.49    0.52
  -6   2   0    6.36    0.50
  -6   2   0    5.55    0.22
   6   2   0    5.61    0.20
  -7  -2   0    0.95    0.33
   7  -2   0    0.99    0.15
   7   2   0    1.10    0.13
  -7   2   0    0.68    0.31
   0  -3   0   -0.03    0.08
   0  -3   0   -0.08    0.07
   0   3   0   -0.11    0.08
   0   3   0   -0.02    0.07
   1  -3   0    3.71    0.16
   1  -3   0    3.70    0.16
  -1  -3   0    4.05    0.16
  -1  -3   0    3.69    0.16
  -1   3   0    3.61    0.17
   1   3   0    3.78    0.16
   1   3   0    3.99    0.15
   1   3   0    3.48    0.14
  -1   3   0    3.72    0.15
   2  -3   0   12.37    0.30
   2  -3   0   12.13    0.29
  -2  -3   0   11.90    0.38
   2  -3   0   12.16    0.29
  -2  -3   0   12.34    0.30
  -2   3   0   11.87    0.32
   2   3   0   12.12    0.26
  -2   3   0   12.17    0.31
   2   3   0   11.84    0.26
  -2   3   0   12.14    0.31
   2   3   0   12.73    0.26
   3  -3   0   11.82    0.30
  -3  -3   0   12.49    0.45
   3  -3   0   11.46    0.29
  -3  -3   0   11.64    0.29
  -3  -3   0   11.87    0.28
  -3   3   0   12.22    0.41
   3   3   0   12.28    0.25
  -3   3   0   12.07    0.32
   3   3   0   11.92    0.25
   4  -3   0    1.90    0.15
  -4  -3   0    1.81    0.13
   4  -3   0    1.68    0.15
  -4  -3   0    1.57    0.13
  -4  -3   0    1.66    0.25
   4   3   0    1.71    0.11
  -4   3   0    1.13    0.19
  -4   3   0    1.69    0.15
   4   3   0    1.72    0.10
  -5  -3   0    0.55    0.23
   5  -3   0    0.18    0.10
  -5  -3   0    0.35    0.08
  -5   3   0    0.14    0.18
  -5   3   0    0.01    0.16
   5   3   0    0.23    0.07
  -5   3   0    0.17    0.10
  -6  -3   0    0.75    0.27
   6  -3   0    1.05    0.15
  -6   3   0    1.15    0.30
  -6   3   0    1.24    0.15
   6   3   0    1.19    0.13
  -6   3   0    1.09    0.26
  -7  -3   0    0.22    0.26
   7  -3   0    0.06    0.11
  -7   3   0   -0.04    0.24
   7   3   0    0.01    0.09
   0  -4   0    4.33    0.19
   0  -4   0    4.35    0.20
   0   4   0    4.61    0.20
   1  -4   0   13.21    0.34
  -1  -4   0   13.87    0.31
  -1  -4   0   13.63    0.35
   1  -4   0   13.79    0.36
  -1   4   0   13.76    0.36
   1   4   0   13.74    0.34
  -1   4   0   14.63    0.34
   1   4   0   14.03    0.34
  -2  -4   0   56.47    0.96
   2  -4   0   56.46    0.98
  -2  -4   0   57.02    0.97
   2  -4   0   57.08    0.98
   2   4   0   56.46    0.93
  -2   4   0   56.64    0.91
  -2   4   0   57.03    0.91
  -2   4   0   56.90    1.00
   2   4   0   55.16    0.94
   2   4   0   55.70    0.93
  -3  -4   0    0.17    0.08
   3  -4   0    0.23    0.08
  -3  -4   0    0.08    0.06
   3  -4   0    0.17    0.08
   3  -4   0    0.19    0.07
  -3  -4   0    0.18    0.14
  -3   4   0    0.21    0.09
   3   4   0    0.14    0.06
  -3   4   0    0.18    0.10
   3   4   0    0.16    0.06
  -4  -4   0    7.50    0.44
  -4  -4   0    6.45    0.24
   4  -4   0    6.46    0.27
  -4   4   0    6.85    0.29
   4   4   0    7.33    0.23
  -4   4   0    6.92    0.38
   4   4   0    6.82    0.23
   5  -4   0    3.84    0.24
  -5  -4   0    4.62    0.44
  -5  -4   0    4.26    0.20
  -5   4   0    4.37    0.26
   5   4   0    4.44    0.20
  -5   4   0    4.64    0.41
  -5   4   0    4.41    0.36
   6  -4   0   -0.15    0.11
  -6  -4   0   -0.29    0.22
  -6   4   0   -0.08    0.10
  -6   4   0   -0.19    0.17
   6   4   0   -0.05    0.09
  -6   4   0    0.24    0.24
   7  -4   0   -0.04    0.12
  -7  -4   0    0.06    0.29
  -7   4   0   -0.26    0.22
   7   4   0    0.17    0.11
   0  -5   0   -0.06    0.09
   0  -5   0    0.01    0.08
   0   5   0    0.01    0.08
   0   5   0    0.05    0.09
   1  -5   0    1.23    0.15
   1  -5   0    1.12    0.14
  -1  -5   0    1.11    0.11
   1  -5   0    1.34    0.14
  -1  -5   0    1.14    0.14
  -1   5   0    1.63    0.17
   1   5   0    1.10    0.13
  -1   5   0    1.38    0.14
   1   5   0    1.29    0.14
  -2  -5   0    2.51    0.18
   2  -5   0    2.22    0.18
   2  -5   0    2.33    0.18
  -2   5   0    1.73    0.17
   2   5   0    2.30    0.16
   2   5   0    2.11    0.15
   2   5   0    1.94    0.16
   3  -5   0   21.52    0.50
  -3  -5   0   21.97    0.51
   3  -5   0   20.63    0.51
  -3  -5   0   20.85    0.49
  -3   5   0   21.32    0.54
   3   5   0   21.83    0.47
   3   5   0   21.80    0.48
   4  -5   0    1.29    0.17
  -4  -5   0    1.37    0.15
  -4  -5   0    1.20    0.25
  -4   5   0    1.30    0.18
  -4   5   0    1.39    0.23
   4   5   0    1.17    0.14
   5  -5   0    0.36    0.14
  -5  -5   0    0.57    0.12
  -5  -5   0    0.46    0.22
  -5   5   0    1.02    0.22
   5   5   0    0.63    0.12
  -5   5   0    0.32    0.13
  -6  -5   0    2.00    0.17
  -6  -5   0    1.82    0.36
   6  -5   0    1.71    0.22
  -6  -5   0    1.90    0.16
   6   5   0    2.43    0.21
  -6   5   0    1.67    0.31
  -6   5   0    1.98    0.35
  -6   5   0    1.90    0.22
   0  -6   0   72.54    1.24
   0  -6   0   69.88    1.27
   0   6   0   71.70    1.27
   0   6   0   71.83    1.25
   1  -6   0   49.43    0.95
  -1  -6   0   49.26    0.95
  -1  -6   0   48.59    0.88
   1  -6   0   47.80    0.93
   1  -6   0   49.72    0.96
   1   6   0   47.43    0.92
  -1   6   0   48.84    0.91
  -1   6   0   47.89    0.95
   1   6   0   48.85    0.92
   2  -6   0    0.88    0.14
  -2  -6   0    0.81    0.14
   2  -6   0    0.77    0.13
   2   6   0    1.05    0.14
   2   6   0    1.01    0.13
  -2   6   0    0.73    0.15
  -2   6   0    1.14    0.13
   3  -6   0   10.13    0.37
  -3  -6   0   11.05    0.37
   3  -6   0    9.93    0.35
  -3   6   0   10.83    0.40
   3   6   0   10.51    0.35
  -4  -6   0   25.34    0.61
   4  -6   0   24.36    0.64
   4   6   0   24.52    0.59
  -4   6   0   26.10    0.67
   5  -6   0    6.10    0.34
  -5  -6   0    5.38    0.28
  -5   6   0    5.82    0.42
  -5   6   0    5.51    0.32
   5   6   0    6.04    0.31
  -6  -6   0    3.62    0.23
   6  -6   0    3.74    0.31
  -6  -6   0    3.85    0.24
  -6   6   0    3.48    0.30
  -6   6   0    3.25    0.39
   6   6   0    4.09    0.30
  -6   6   0    3.42    0.43
   0  -7   0   -0.01    0.09
   0  -7   0   -0.08    0.11
   0   7   0   -0.05    0.10
   0   7   0    0.12    0.12
   1  -7   0   11.50    0.41
   1  -7   0   12.24    0.42
  -1  -7   0   10.65    0.34
  -1  -7   0   10.39    0.39
   1  -7   0   11.45    0.39
   1   7   0   11.71    0.39
  -1   7   0    9.82    0.39
   1   7   0   10.77    0.38
  -1   7   0   10.73    0.36
   2  -7   0    9.74    0.38
  -2  -7   0    9.11    0.37
  -2  -7   0    9.68    0.28
   2  -7   0   10.49    0.39
   2   7   0   10.14    0.36
  -2   7   0    9.56    0.33
  -2   7   0    9.95    0.39
   2   7   0   10.04    0.34
   3  -7   0    0.62    0.22
   3  -7   0    0.41    0.14
  -3  -7   0    0.49    0.15
   3   7   0    0.42    0.12
  -3   7   0    0.36    0.16
  -4  -7   0    5.26    0.30
   4  -7   0    6.00    0.34
   4   7   0    4.70    0.29
  -4   7   0    5.79    0.34
  -5  -7   0   -0.02    0.12
   5  -7   0   -0.15    0.13
   5   7   0   -0.04    0.12
  -5   7   0    0.12    0.15
  -5   7   0   -0.12    0.17
  -6  -7   0    0.25    0.13
   6  -7   0    0.28    0.17
  -6  -7   0    0.12    0.12
  -6   7   0   -0.18    0.19
  -6   7   0    0.12    0.16
   6   7   0   -0.03    0.15
  -6   7   0   -0.04    0.23
   0  -8   0   72.59    1.37
   0  -8   0   71.22    1.36
   0  -8   0   69.78    1.30
   0   8   0   69.75    1.35
   0   8   0   70.70    1.32
   1  -8   0    3.69    0.28
   1  -8   0    3.91    0.27
  -1  -8   0    3.53    0.26
  -1  -8   0    3.47    0.22
  -1   8   0    4.15    0.30
  -1   8   0    3.50    0.25
   1   8   0    3.73    0.27
   1   8   0    3.85    0.27
  -2  -8   0    4.46    0.31
   2  -8   0    4.68    0.31
   2  -8   0    4.52    0.29
   2   8   0    4.15    0.28
  -2   8   0    4.55    0.25
   2   8   0    4.15    0.26
  -2   8   0    4.31    0.30
  -3  -8   0    0.65    0.18
   3  -8   0    0.91    0.18
  -3   8   0    0.70    0.19
   3   8   0    0.80    0.17
  -4  -8   0    0.11    0.14
   4  -8   0    0.29    0.15
  -4   8   0    0.11    0.17
   4   8   0    0.14    0.13
  -5  -8   0    3.67    0.30
   5  -8   0    3.43    0.33
  -5   8   0    3.02    0.31
   5   8   0    3.47    0.30
  -5   8   0    3.92    0.41
   6  -8   0    0.62    0.20
  -6  -8   0    1.08    0.18
   6   8   0    1.51    0.24
  -6   8   0    0.77    0.22
   0  -9   0    0.03    0.15
   0  -9   0   -0.05    0.15
   0  -9   0    0.06    0.12
   0   9   0   -0.13    0.11
   0   9   0    0.05    0.15
  -1  -9   0    8.16    0.39
   1  -9   0    6.91    0.36
   1  -9   0    7.97    0.41
  -1  -9   0    7.48    0.33
  -1   9   0    7.39    0.36
  -1   9   0    6.63    0.39
   1   9   0    7.00    0.36
   1   9   0    7.52    0.37
   2  -9   0    4.57    0.32
   2  -9   0    3.71    0.31
  -2  -9   0    4.42    0.33
  -2   9   0    4.34    0.32
   2   9   0    3.46    0.28
   2   9   0    4.17    0.31
   3  -9   0    1.30    0.22
  -3  -9   0    1.40    0.22
  -3   9   0    1.31    0.24
   3   9   0    1.66    0.22
  -4  -9   0    1.36    0.22
   4  -9   0    1.34    0.23
   4   9   0    1.54    0.23
  -4   9   0    1.41    0.26
  -5  -9   0    0.12    0.15
   5  -9   0   -0.17    0.15
  -5  -9   0   -0.18    0.13
   5   9   0   -0.08    0.16
  -5   9   0   -0.03    0.19
  -5   9   0    0.03    0.17
   6  -9   0   -0.27    0.16
  -6  -9   0    0.14    0.14
  -6   9   0   -0.15    0.17
   6   9   0    0.23    0.19
   0 -10   0    5.50    0.34
   0 -10   0    5.84    0.40
   0 -10   0    5.85    0.40
   0  10   0    4.92    0.34
   0  10   0    5.09    0.37
   1 -10   0    0.03    0.16
  -1 -10   0    0.30    0.16
  -1 -10   0    0.25    0.15
   1 -10   0    0.19    0.16
  -1 -10   0    0.13    0.12
   1  10   0    0.13    0.15
  -1  10   0    0.02    0.15
  -1  10   0    0.11    0.14
   1  10   0    0.05    0.13
   2 -10   0    0.30    0.17
   2 -10   0    0.27    0.17
  -2 -10   0    0.16    0.17
  -2  10   0   -0.04    0.17
   2  10   0    0.07    0.14
  -3 -10   0    0.33    0.19
   3 -10   0    0.09    0.17
   3  10   0    0.23    0.16
  -3  10   0    0.32    0.19
   4 -10   0    2.00    0.29
  -4 -10   0    1.79    0.26
   4  10   0    1.77    0.26
  -4  10   0    2.15    0.31
  -5 -10   0    3.80    0.35
  -5 -10   0    3.67    0.35
   5 -10   0    3.69    0.38
   5  10   0    4.25    0.39
  -5  10   0    4.42    0.41
   0 -11   0   -0.11    0.17
   0 -11   0    0.17    0.14
   0 -11   0   -0.03    0.18
   0  11   0   -0.04    0.16
   0  11   0   -0.06    0.14
  -1 -11   0    3.45    0.35
   1 -11   0    2.65    0.30
   1 -11   0    3.28    0.32
  -1 -11   0    3.11    0.35
  -1  11   0    3.06    0.33
  -1  11   0    2.79    0.29
   1  11   0    3.53    0.33
   1  11   0    2.97    0.29
  -2 -11   0    6.03    0.42
   2 -11   0    6.09    0.40
  -2 -11   0    5.79    0.40
   2 -11   0    6.18    0.41
   2  11   0    6.60    0.41
  -2  11   0    5.49    0.40
  -3 -11   0    6.40    0.43
  -3 -11   0    5.66    0.40
   3 -11   0    6.30    0.43
   3  11   0    5.53    0.41
  -3  11   0    6.42    0.45
  -4 -11   0    0.85    0.23
   4 -11   0    1.13    0.24
  -4 -11   0    0.83    0.24
   4  11   0    1.28    0.26
  -4  11   0    1.24    0.27
   5 -11   0    0.14    0.20
  -5 -11   0    0.01    0.19
  -5 -11   0   -0.03    0.17
  -5  11   0    0.25    0.22
   5  11   0    0.25    0.22
   0 -12   0   11.58    0.52
   0 -12   0   12.40    0.58
   0  12   0   12.71    0.55
   0  12   0   12.78    0.58
   1 -12   0    4.37    0.38
  -1 -12   0    4.02    0.40
   1 -12   0    3.82    0.37
  -1 -12   0    3.61    0.38
   1  12   0    3.13    0.32
   1  12   0    3.88    0.36
  -1  12   0    4.23    0.34
  -1  12   0    4.93    0.43
  -2 -12   0    0.47    0.22
  -2 -12   0    0.68    0.24
   2 -12   0    0.62    0.21
   2 -12   0    0.97    0.36
   2  12   0    0.63    0.21
  -2  12   0    1.02    0.27
   3 -12   0    0.71    0.23
  -3 -12   0    0.28    0.19
  -3 -12   0    0.31    0.22
   3  12   0    0.68    0.23
  -3  12   0    0.66    0.24
   4 -12   0    0.92    0.25
  -4 -12   0    0.59    0.23
  -4 -12   0    0.51    0.24
   4  12   0    0.31    0.24
  -4  12   0    0.50    0.24
   0 -13   0   -0.06    0.19
   0  13   0   -0.06    0.19
   0  13   0   -0.14    0.15
  -1 -13   0    2.19    0.31
   1 -13   0    2.64    0.36
   1 -13   0    2.88    0.35
  -1 -13   0    2.49    0.35
  -1  13   0    2.74    0.36
   1  13   0    1.95    0.28
  -2 -13   0    0.36    0.24
   2 -13   0    0.30    0.21
  -2 -13   0    0.10    0.20
  -2  13   0    0.36    0.23
   2  13   0    0.06    0.18
   3 -13   0    1.62    0.29
  -3 -13   0    1.09    0.26
  -3 -13   0    1.20    0.29
   3  13   0    1.28    0.28
  -3  13   0    1.68    0.34
  -4 -13   0    0.34    0.22
   4 -13   0    0.70    0.26
  -4 -13   0    0.53    0.25
   4  13   0    0.70    0.26
  -4  13   0    0.50    0.28
   0 -14   0    0.02    0.21
   0  14   0   -0.17    0.16
   0  14   0    0.08    0.22
   1 -14   0    2.68    0.35
  -1 -14   0    2.93    0.39
   1 -14   0    2.69    0.34
  -1  14   0    2.73    0.38
   1  14   0    2.19    0.31
   2 -14   0    0.65    0.26
  -2 -14   0    0.28    0.22
   2  14   0    0.16    0.21
  -2  14   0    0.59    0.27
   3 -14   0    0.30    0.25
  -3 -14   0    0.58    0.25
   3  14   0    0.30    0.25
  -3  14   0   -0.20    0.21
   0 -15   0   -0.03    0.23
   0  15   0   -0.20    0.26
   1 -15   0    1.22    0.31
  -1 -15   0    1.22    0.31
   1  15   0    0.81    0.24
  -1  15   0    1.09    0.32
   2 -15   0    1.87    0.35
  -2 -15   0    1.84    0.35
   2  15   0    1.29    0.31
  -2  15   0    2.26    0.39
   0 -16   0    0.47    0.27
  -7   0   1   -0.06    0.23
  -6   0   1   -0.21    0.18
   6   0  -1    0.01    0.06
  -5   0   1   -0.11    0.17
  -4   0   1    0.03    0.04
  -4   0   1    0.07    0.14
  -4   0   1   -0.01    0.04
  -4   0   1   -0.04    0.13
  -3   0   1    0.12    0.11
  -3   0   1   -0.05    0.11
  -2   0   1    0.15    0.09
   2   0  -1    0.03    0.08
  -2   0   1   -0.05    0.08
   1   0  -1    0.04    0.07
  -1   0   1    0.03    0.06
  -1   0   1    0.05    0.07
   0   0  -1   -0.04    0.01
   0   0   1   -0.05    0.00
   0   0   1   -0.05    0.00
   0   0   1   -0.06    0.01
   0   0   1   -0.05    0.01
   0   0   1   -0.05    0.01
   0   0  -1   -0.04    0.01
   0   0  -1   -0.04    0.01
   0   0  -1   -0.05    0.00
   0   0  -1   -0.05    0.01
   1   0   1   -0.08    0.06
  -1   0  -1    0.03    0.06
  -1   0  -1   -0.02    0.02
  -1   0  -1    0.02    0.04
   1   0   1    0.03    0.03
  -2   0  -1    0.06    0.10
   2   0   1   -0.12    0.07
  -2   0  -1    0.06    0.09
  -2   0  -1    0.02    0.04
  -2   0  -1   -0.02    0.04
  -3   0  -1   -0.11    0.04
  -3   0  -1    0.07    0.10
  -3   0  -1    0.02    0.12
  -3   0  -1    0.06    0.05
  -4   0  -1   -0.06    0.14
   4   0   1   -0.04    0.04
  -4   0  -1   -0.03    0.06
   4   0   1   -0.06    0.03
  -4   0  -1    0.05    0.06
   5   0   1    0.06    0.06
  -5   0  -1   -0.04    0.06
  -5   0  -1    0.04    0.18
  -6   0  -1   -0.32    0.19
   6   0   1    0.20    0.09
  -6   0  -1    0.03    0.10
  -7   0  -1   -0.21    0.24
   7   0   1    0.03    0.09
  -7  -1   1    0.33    0.26
   7  -1  -1    0.10    0.09
  -7   1   1   -0.06    0.22
  -6  -1   1    0.13    0.21
   6  -1  -1    0.04    0.07
  -6   1   1    0.16    0.21
   5  -1  -1    0.25    0.06
  -5  -1   1    0.22    0.19
  -5   1   1    0.17    0.18
  -5   1   1    0.26    0.07
  -5   1   1    0.32    0.19
  -4  -1   1    1.23    0.23
  -4   1   1    1.13    0.20
  -4   1   1    1.01    0.09
  -4   1   1    0.49    0.16
  -4   1   1    0.78    0.08
  -4   1   1    0.83    0.08
  -3  -1   1   49.42    1.00
  -3   1   1   49.03    0.78
  -3   1   1   48.82    0.98
  -3   1   1   49.69    0.78
  -3   1   1   49.71    0.99
  -2  -1   1   88.05    1.46
   2   1  -1   87.33    1.46
  -2   1   1   88.85    1.46
  -2   1   1   87.94    1.31
  -2   1   1   89.80    1.31
   1  -1  -1    5.33    0.11
   1  -1  -1    5.19    0.13
  -1  -1   1    5.50    0.19
  -1  -1   1    5.36    0.12
  -1  -1   1    5.42    0.12
   1  -1  -1    5.27    0.11
  -1   1   1    5.49    0.14
   1   1  -1    5.05    0.18
   1   1  -1    5.27    0.10
   0  -1  -1   68.47    1.00
   0  -1   1   69.28    1.00
   0  -1  -1   64.71    0.99
   0  -1   1   66.65    0.99
   0   1   1   66.20    0.99
   0   1  -1   68.01    1.00
   0   1   1   66.88    0.99
   1  -1   1   19.51    0.35
   1  -1   1   20.10    0.34
  -1  -1  -1   20.18    0.34
   1  -1   1   19.72    0.33
  -1  -1  -1   20.08    0.42
  -1   1  -1   19.80    0.35
  -1   1  -1   19.76    0.31
   1   1   1   19.70    0.33
   1   1   1   20.06    0.34
   1   1   1   19.87    0.31
   1   1   1   19.93    0.31
   2  -1   1   14.03    0.25
   2  -1   1   13.70    0.25
  -2  -1  -1   14.28    0.40
  -2  -1  -1   13.70    0.27
  -2  -1  -1   14.26    0.27
  -2   1  -1   14.28    0.29
   2   1   1   13.90    0.36
  -2   1  -1   13.68    0.36
  -2   1  -1   14.03    0.28
   3  -1   1    0.16    0.04
   3  -1   1    0.12    0.04
  -3  -1  -1    0.16    0.05
  -3  -1  -1    0.09    0.05
  -3  -1  -1    0.24    0.12
  -3   1  -1    0.18    0.10
  -3   1  -1    0.15    0.06
  -3   1  -1    0.24    0.06
  -3   1  -1    0.15    0.12
  -4  -1  -1    1.79    0.11
   4  -1   1    1.79    0.11
  -4  -1  -1    1.97    0.27
  -4  -1  -1    1.89    0.12
   4  -1   1    1.82    0.11
   4   1   1    2.21    0.12
  -4   1  -1    2.12    0.13
  -4   1  -1    1.52    0.23
  -4   1  -1    2.03    0.14
  -4   1  -1    1.49    0.21
  -5  -1  -1    0.98    0.25
   5  -1   1    0.89    0.11
  -5  -1  -1    0.92    0.09
  -5   1  -1    0.86    0.11
  -5   1  -1    0.79    0.25
   5   1   1    0.82    0.08
  -6  -1  -1    0.16    0.23
   6  -1   1    0.13    0.09
   6   1   1    0.09    0.08
  -6   1  -1    0.05    0.08
  -6   1  -1    0.45    0.23
  -7  -1  -1    2.50    0.42
   7  -1   1    2.96    0.21
   7   1   1    2.82    0.20
  -7   1  -1    2.01    0.40
  -7  -2   1    3.07    0.44
   7  -2  -1    2.54    0.20
  -7   2   1    2.83    0.44
  -6  -2   1    4.48    0.45
   6  -2  -1    4.58    0.21
  -6   2   1    4.14    0.43
  -6   2   1    4.24    0.18
   5  -2  -1   14.98    0.35
  -5  -2   1   15.36    0.64
  -5   2   1   15.18    0.62
  -5   2   1   15.90    0.61
  -5   2   1   14.95    0.36
  -4  -2   1    0.04    0.05
   4  -2  -1   -0.07    0.05
  -4  -2   1    0.03    0.05
   4  -2  -1    0.06    0.05
  -4  -2   1   -0.05    0.14
  -4   2   1    0.14    0.15
  -4   2   1   -0.09    0.13
  -4   2   1    0.09    0.07
  -4   2   1   -0.02    0.06
  -3  -2   1    0.65    0.16
   3  -2  -1    0.64    0.06
  -3  -2   1    0.63    0.06
  -3  -2   1    0.58    0.06
   3  -2  -1    0.70    0.06
  -3   2   1    0.55    0.14
  -3   2   1    0.52    0.08
  -3   2   1    0.55    0.08
   2  -2  -1    9.11    0.20
  -2  -2   1    9.00    0.20
   2  -2  -1    9.12    0.20
  -2  -2   1    8.98    0.20
  -2  -2   1    8.95    0.31
   2  -2  -1    8.84    0.20
  -2   2   1    8.94    0.23
   1  -2  -1    0.19    0.07
   1  -2  -1    0.31    0.07
  -1  -2   1    0.15    0.06
   1  -2  -1    0.25    0.06
   1  -2  -1    0.25    0.06
  -1  -2   1    0.30    0.06
  -1  -2   1    0.28    0.04
  -1   2   1    0.25    0.07
  -1   2   1    0.27    0.07
   1   2  -1    0.24    0.05
   1   2  -1    0.21    0.06
   1   2  -1    0.25    0.05
   0  -2  -1  372.50    5.32
   0  -2   1  370.47    5.34
   0  -2  -1  352.80    5.14
   0  -2   1  351.96    5.31
   0  -2   1  355.06    5.35
   0   2  -1  364.75    5.19
   0   2   1  362.89    5.34
   0   2   1  347.68    5.19
   0   2  -1  362.68    5.34
  -1  -2  -1   46.12    0.74
   1  -2   1   45.39    0.74
  -1  -2  -1   44.84    0.80
   1  -2   1   44.80    0.74
  -1  -2  -1   46.10    0.74
  -1  -2  -1   46.77    0.70
   1  -2   1   46.80    0.75
   1   2   1   46.09    0.72
  -1   2  -1   44.84    0.75
   1   2   1   45.92    0.72
  -1   2  -1   46.93    0.76
   1   2   1   45.87    0.73
  -2  -2  -1   29.24    0.51
  -2  -2  -1   29.08    0.51
   2  -2   1   29.53    0.51
   2  -2   1   28.99    0.51
  -2  -2  -1   28.94    0.64
   2  -2   1   28.67    0.51
  -2   2  -1   29.77    0.54
   2   2   1   29.72    0.47
   2   2   1   28.86    0.47
   2   2   1   28.76    0.61
   3  -2   1   59.64    0.95
   3  -2   1   58.78    0.95
  -3  -2  -1   58.98    0.95
  -3  -2  -1   57.78    1.17
  -3  -2  -1   58.69    0.95
  -3   2  -1   59.67    0.99
   3   2   1   60.41    0.89
   3   2   1   60.13    0.95
   3   2   1   59.37    0.89
  -3   2  -1   59.42    1.12
  -3   2  -1   60.40    0.99
  -4  -2  -1    8.48    0.24
  -4  -2  -1    9.15    0.25
  -4  -2  -1    9.21    0.46
   4  -2   1    8.61    0.25
   4  -2   1    8.73    0.25
  -4   2  -1    9.02    0.28
  -4   2  -1    8.65    0.42
  -4   2  -1    8.79    0.39
  -4   2  -1    9.22    0.31
   4   2   1    9.10    0.20
   4   2   1    8.78    0.20
   5  -2   1    4.36    0.21
  -5  -2  -1    4.30    0.41
  -5  -2  -1    4.68    0.18
   5   2   1    4.68    0.17
  -5   2  -1    4.23    0.34
  -5   2  -1    5.24    0.42
  -5   2  -1    4.22    0.21
  -6  -2  -1    0.10    0.24
   6  -2   1    0.33    0.11
  -6   2  -1    0.52    0.25
  -6   2  -1    0.23    0.10
   6   2   1    0.21    0.08
   7  -2   1    1.79    0.19
  -7  -2  -1    1.37    0.34
  -7   2  -1    1.62    0.38
   7   2   1    1.76    0.17
  -7  -3   1    3.34    0.47
   7  -3  -1    2.72    0.23
  -7   3   1    2.72    0.42
  -6  -3   1    2.06    0.36
   6  -3  -1    1.95    0.18
  -6   3   1    2.39    0.33
  -6   3   1    2.41    0.37
   6   3  -1    2.05    0.15
  -6   3   1    1.93    0.17
   5  -3  -1    9.63    0.31
  -5  -3   1    9.80    0.53
  -5  -3   1   10.17    0.25
   5   3  -1   10.19    0.24
  -5   3   1   10.03    0.50
  -5   3   1   10.17    0.52
  -5   3   1    9.93    0.32
   4  -3  -1   14.82    0.36
  -4  -3   1   14.93    0.32
  -4  -3   1   14.61    0.33
  -4  -3   1   14.91    0.57
   4  -3  -1   14.94    0.36
   4   3  -1   15.30    0.28
   4   3  -1   15.42    0.28
  -4   3   1   14.75    0.54
  -4   3   1   14.52    0.38
  -3  -3   1    1.21    0.18
   3  -3  -1    1.26    0.11
   3  -3  -1    1.16    0.10
  -3  -3   1    1.17    0.10
  -3  -3   1    1.22    0.10
   3   3  -1    1.27    0.08
   3   3  -1    1.32    0.08
  -3   3   1    1.30    0.13
  -3   3   1    1.49    0.19
   2  -3  -1   29.88    0.55
   2  -3  -1   29.82    0.54
  -2  -3   1   28.95    0.66
  -2  -3   1   30.12    0.54
   2  -3  -1   29.51    0.55
   2   3  -1   29.44    0.50
  -2   3   1   29.60    0.57
   2   3  -1   30.84    0.51
  -2   3   1   29.97    0.57
   2   3  -1   30.11    0.50
  -1  -3   1   24.12    0.46
   1  -3  -1   24.10    0.46
   1  -3  -1   23.78    0.47
  -1  -3   1   23.76    0.46
   1  -3  -1   23.91    0.47
   1   3  -1   23.58    0.44
   1   3  -1   24.18    0.45
  -1   3   1   23.95    0.45
  -1   3   1   24.50    0.48
   1   3  -1   24.44    0.45
   0  -3   1    8.62    0.25
   0  -3  -1    8.63    0.25
   0  -3   1    8.97    0.24
   0  -3   1    8.92    0.26
   0  -3  -1    9.34    0.24
   0   3  -1    9.52    0.25
   0   3   1    9.08    0.25
   0   3   1    8.88    0.26
   0   3  -1    8.62    0.25
  -1  -3  -1  115.74    1.81
   1  -3   1  119.29    1.83
   1  -3   1  119.81    1.82
  -1  -3  -1  126.55    1.87
   1   3   1  118.18    1.80
  -1   3  -1  119.40    1.80
   1   3   1  120.45    1.81
   1   3   1  117.51    1.79
  -1   3  -1  118.19    1.83
   2  -3   1   75.38    1.20
   2  -3   1   74.31    1.20
  -2  -3  -1   74.00    1.33
  -2  -3  -1   74.53    1.20
   2  -3   1   74.69    1.20
  -2   3  -1   75.45    1.23
   2   3   1   74.11    1.16
   2   3   1   76.53    1.16
   2   3   1   74.29    1.16
  -2   3  -1   76.38    1.23
  -3  -3  -1   30.92    0.57
  -3  -3  -1   30.16    0.57
  -3  -3  -1   29.68    0.75
   3  -3   1   29.81    0.58
   3  -3   1   30.80    0.58
  -3   3  -1   31.46    0.62
   3   3   1   30.75    0.54
  -3   3  -1   29.77    0.60
  -3   3  -1   29.85    0.70
   3   3   1   30.48    0.53
   4  -3   1    5.14    0.22
  -4  -3  -1    4.89    0.22
  -4  -3  -1    4.58    0.20
  -4  -3  -1    4.84    0.38
   4   3   1    4.78    0.17
   4   3   1    4.81    0.18
  -4   3  -1    4.77    0.23
  -4   3  -1    4.71    0.31
   5  -3   1    0.46    0.12
  -5  -3  -1    0.44    0.09
  -5  -3  -1    0.30    0.22
  -5   3  -1    0.35    0.19
  -5   3  -1    0.37    0.11
  -5   3  -1    0.12    0.20
   5   3   1    0.45    0.09
  -6  -3  -1    3.34    0.41
   6  -3   1    4.12    0.26
  -6   3  -1    4.81    0.44
  -6   3  -1    4.06    0.45
   6   3   1    4.07    0.21
  -6   3  -1    3.80    0.24
  -7  -3  -1    4.51    0.52
   7  -3   1    3.76    0.27
   7   3   1    4.14    0.24
  -7   3  -1    4.55    0.52
   7  -4  -1    0.84    0.17
  -7  -4   1    1.10    0.33
   7   4  -1    0.46    0.12
  -7   4   1    0.46    0.28
  -6  -4   1    6.07    0.52
   6  -4  -1    6.34    0.31
  -6   4   1    6.68    0.49
  -6   4   1    6.05    0.28
  -6   4   1    5.77    0.48
   6   4  -1    5.98    0.25
   5  -4  -1   15.92    0.44
  -5  -4   1   16.07    0.37
  -5  -4   1   17.38    0.70
   5   4  -1   16.30    0.38
  -5   4   1   16.29    0.46
  -5   4   1   16.76    0.64
  -5   4   1   15.92    0.65
  -4  -4   1    6.05    0.38
  -4  -4   1    5.73    0.22
   4  -4  -1    5.76    0.25
  -4   4   1    6.59    0.38
  -4   4   1    6.05    0.27
   4   4  -1    6.05    0.21
   4   4  -1    5.94    0.20
  -3  -4   1    6.30    0.22
   3  -4  -1    6.97    0.25
  -3  -4   1    6.96    0.36
   3  -4  -1    6.78    0.22
  -3  -4   1    6.93    0.24
   3  -4  -1    6.80    0.24
   3   4  -1    6.55    0.21
  -3   4   1    7.11    0.27
   3   4  -1    7.10    0.21
  -3   4   1    7.31    0.26
  -2  -4   1   68.81    1.14
  -2  -4   1   70.24    1.15
   2  -4  -1   69.90    1.15
   2  -4  -1   69.16    1.15
   2  -4  -1   67.82    1.21
   2   4  -1   70.14    1.11
   2   4  -1   68.46    1.12
  -2   4   1   69.79    1.18
  -2   4   1   68.92    1.08
   2   4  -1   68.60    1.10
  -1  -4   1   39.62    0.72
   1  -4  -1   38.53    0.70
  -1  -4   1   38.27    0.66
   1  -4  -1   38.25    0.72
   1   4  -1   38.40    0.70
  -1   4   1   38.44    0.72
  -1   4   1   38.65    0.69
   1   4  -1   36.72    0.69
   0  -4   1    2.00    0.15
   0  -4   1    1.83    0.15
   0  -4  -1    1.85    0.14
   0  -4   1    1.88    0.16
   0  -4  -1    1.57    0.13
   0   4  -1    1.74    0.14
   0   4  -1    1.84    0.16
   0   4   1    1.78    0.14
   0   4   1    1.88    0.15
  -1  -4  -1  134.22    2.08
  -1  -4  -1  134.79    2.03
   1  -4   1  135.57    2.09
   1  -4   1  135.29    2.08
  -1   4  -1  136.11    2.10
   1   4   1  132.47    2.07
  -1   4  -1  136.74    2.06
   1   4   1  135.40    2.07
   2  -4   1    1.07    0.12
  -2  -4  -1    1.30    0.13
  -2  -4  -1    1.36    0.13
   2  -4   1    1.24    0.13
  -2  -4  -1    1.22    0.16
   2   4   1    1.36    0.11
   2   4   1    1.25    0.11
   2   4   1    1.19    0.11
  -2   4  -1    1.24    0.14
  -2   4  -1    1.27    0.10
  -3  -4  -1    7.61    0.26
   3  -4   1    7.23    0.26
   3  -4   1    7.13    0.24
  -3  -4  -1    7.09    0.37
   3  -4   1    7.14    0.26
   3   4   1    7.04    0.23
  -3   4  -1    7.19    0.27
  -3   4  -1    7.38    0.27
  -3   4  -1    7.00    0.28
   3   4   1    7.39    0.23
  -4  -4  -1   21.62    0.49
  -4  -4  -1   22.36    0.73
   4  -4   1   21.39    0.52
  -4   4  -1   21.78    0.65
   4   4   1   22.28    0.47
  -4   4  -1   21.64    0.54
   5  -4   1   -0.04    0.10
  -5  -4  -1   -0.06    0.09
  -5  -4  -1   -0.14    0.17
  -5   4  -1    0.05    0.18
  -5   4  -1    0.02    0.10
   5   4   1   -0.03    0.09
  -5   4  -1   -0.18    0.14
  -6  -4  -1    0.38    0.10
  -6  -4  -1    0.12    0.25
   6  -4   1    0.28    0.14
  -6   4  -1    0.50    0.25
   6   4   1    0.37    0.12
  -6   4  -1    0.08    0.19
  -6   4  -1    0.28    0.13
  -6  -5   1    1.42    0.16
   6  -5  -1    1.22    0.19
  -6   5   1    1.26    0.29
  -6   5   1    1.41    0.19
  -6   5   1    1.73    0.34
   6   5  -1    1.37    0.17
   5  -5  -1   -0.07    0.10
  -5  -5   1    0.11    0.19
  -5  -5   1    0.15    0.09
  -5   5   1   -0.09    0.16
  -5   5   1   -0.16    0.11
   5   5  -1    0.06    0.09
   4  -5  -1    0.20    0.11
  -4  -5   1    0.06    0.09
  -4   5   1    0.07    0.15
   4   5  -1    0.09    0.09
  -4   5   1    0.03    0.12
   3  -5  -1    0.63    0.12
  -3  -5   1    0.88    0.11
  -3  -5   1    0.93    0.13
   3  -5  -1    0.68    0.11
   3   5  -1    0.60    0.10
  -3   5   1    0.64    0.13
   3   5  -1    0.80    0.11
   2  -5  -1   30.96    0.64
   2  -5  -1   31.08    0.64
  -2  -5   1   31.10    0.64
  -2   5   1   30.80    0.67
   2   5  -1   30.38    0.61
   2   5  -1   31.09    0.62
   2   5  -1   30.89    0.61
   1  -5  -1    0.63    0.12
   1  -5  -1    0.42    0.11
  -1  -5   1    0.36    0.11
  -1  -5   1    0.58    0.09
   1  -5  -1    0.48    0.11
  -1   5   1    0.38    0.11
   1   5  -1    0.51    0.11
   1   5  -1    0.32    0.10
  -1   5   1    0.68    0.11
   0  -5  -1   -0.03    0.08
   0  -5   1   -0.02    0.08
   0  -5   1   -0.02    0.08
   0  -5   1    0.00    0.08
   0  -5  -1    0.04    0.08
   0   5   1   -0.07    0.08
   0   5   1    0.05    0.09
   0   5  -1    0.05    0.08
   0   5  -1   -0.05    0.08
   1  -5   1   85.55    1.44
  -1  -5  -1   84.28    1.37
  -1  -5  -1   87.05    1.44
   1  -5   1   86.36    1.42
  -1   5  -1   85.03    1.40
  -1   5  -1   84.49    1.44
   1   5   1   86.54    1.41
   1   5   1   86.35    1.42
   2  -5   1   16.38    0.43
  -2  -5  -1   16.98    0.44
   2  -5   1   17.09    0.44
   2   5   1   16.67    0.40
   2   5   1   17.09    0.42
  -2   5  -1   17.25    0.46
  -3  -5  -1    5.26    0.25
   3  -5   1    5.33    0.26
   3  -5   1    5.28    0.23
  -3  -5  -1    5.10    0.23
   3   5   1    5.07    0.23
  -3   5  -1    5.15    0.27
   3   5   1    5.29    0.22
   4  -5   1    1.60    0.17
  -4  -5  -1    1.32    0.16
  -4  -5  -1    1.97    0.30
   4   5   1    1.63    0.16
  -4   5  -1    1.49    0.18
  -4   5  -1    1.45    0.22
  -5  -5  -1    0.97    0.15
  -5  -5  -1    0.76    0.27
   5  -5   1    1.11    0.17
   5   5   1    1.10    0.15
  -5   5  -1    1.19    0.18
  -5   5  -1    0.87    0.21
  -6  -5  -1    0.70    0.32
   6  -5   1    0.64    0.17
  -6  -5  -1    0.69    0.13
   6   5   1    0.56    0.15
  -6   5  -1    1.00    0.29
  -6   5  -1    0.91    0.26
  -6   5  -1    0.46    0.16
  -6  -6   1    0.05    0.10
   6  -6  -1   -0.07    0.13
  -6   6   1    0.04    0.14
  -6   6   1    0.34    0.21
   6   6  -1   -0.13    0.12
  -6   6   1   -0.10    0.21
   5  -6  -1    2.63    0.25
  -5  -6   1    2.33    0.20
  -5   6   1    2.78    0.34
   5   6  -1    2.67    0.22
  -5   6   1    2.34    0.24
  -4  -6   1    0.79    0.15
   4  -6  -1    0.38    0.13
   4   6  -1    0.55    0.13
  -4   6   1    0.86    0.17
   3  -6  -1    1.27    0.15
   3  -6  -1    1.14    0.16
  -3  -6   1    1.38    0.17
   3   6  -1    1.10    0.14
  -3   6   1    0.86    0.16
   2  -6  -1    0.92    0.14
  -2  -6   1    1.34    0.16
   2  -6  -1    0.93    0.15
   2   6  -1    1.17    0.14
  -2   6   1    1.03    0.16
   2   6  -1    1.12    0.14
  -2   6   1    1.17    0.12
  -1  -6   1    7.58    0.26
   1  -6  -1    7.54    0.31
  -1  -6   1    7.69    0.31
   1  -6  -1    7.79    0.31
   1  -6  -1    7.77    0.30
  -1   6   1    7.28    0.28
   1   6  -1    8.01    0.30
  -1   6   1    7.85    0.31
   1   6  -1    7.67    0.29
   0  -6   1    4.66    0.25
   0  -6   1    4.70    0.24
   0  -6  -1    4.23    0.24
   0  -6  -1    4.42    0.23
   0  -6   1    4.74    0.26
   0   6   1    4.74    0.25
   0   6  -1    4.85    0.26
   0   6   1    4.68    0.24
   0   6  -1    5.20    0.25
  -1  -6  -1    1.75    0.15
   1  -6   1    1.47    0.17
  -1  -6  -1    1.51    0.17
   1  -6   1    1.37    0.16
  -1   6  -1    1.72    0.19
   1   6   1    1.36    0.16
  -1   6  -1    1.35    0.15
   1   6   1    1.50    0.16
   2  -6   1    1.22    0.16
   2  -6   1    1.04    0.15
  -2  -6  -1    0.81    0.14
  -2   6  -1    0.93    0.12
   2   6   1    0.70    0.12
  -2   6  -1    0.91    0.16
   2   6   1    1.24    0.14
   3  -6   1    0.43    0.12
  -3  -6  -1    0.47    0.13
   3  -6   1    0.32    0.13
  -3   6  -1    0.49    0.15
   3   6   1    0.54    0.12
   4  -6   1    1.33    0.19
  -4  -6  -1    1.43    0.18
   4   6   1    1.08    0.16
  -4   6  -1    1.17    0.19
  -5  -6  -1    1.77    0.19
   5  -6   1    1.69    0.22
   5   6   1    1.78    0.20
  -5   6  -1    1.40    0.26
  -5   6  -1    1.81    0.22
   6  -6   1    1.24    0.21
  -6  -6  -1    1.28    0.17
  -6   6  -1    1.17    0.32
   6   6   1    1.46    0.21
  -6   6  -1    1.03    0.26
  -6   6  -1    1.34    0.22
   6  -7  -1    1.80    0.25
  -6  -7   1    1.29    0.17
  -6   7   1    1.35    0.30
  -6   7   1    1.71    0.24
   6   7  -1    1.78    0.23
  -6   7   1    1.34    0.33
   5  -7  -1    3.15    0.28
  -5  -7   1    3.09    0.25
  -5  -7   1    2.82    0.24
   5   7  -1    3.04    0.25
  -5   7   1    3.76    0.40
  -5   7   1    3.37    0.30
  -4  -7   1    9.47    0.38
   4  -7  -1    8.93    0.40
   4   7  -1    9.76    0.38
  -4   7   1   10.29    0.44
   3  -7  -1    4.02    0.28
  -3  -7   1    4.06    0.27
  -3   7   1    4.69    0.30
   3   7  -1    3.99    0.25
  -2  -7   1    7.86    0.25
  -2  -7   1    8.28    0.34
   2  -7  -1    8.27    0.35
   2  -7  -1    7.57    0.33
  -2   7   1    7.87    0.36
   2   7  -1    8.05    0.32
   2   7  -1    8.04    0.33
  -2   7   1    7.84    0.29
   1  -7  -1    4.42    0.27
   1  -7  -1    5.19    0.27
  -1  -7   1    4.86    0.28
  -1  -7   1    4.65    0.23
   1  -7  -1    4.52    0.27
   1   7  -1    4.54    0.26
  -1   7   1    4.94    0.26
  -1   7   1    4.32    0.26
   1   7  -1    5.09    0.27
   0  -7   1   52.87    1.06
   0  -7  -1   54.38    1.02
   0  -7  -1   52.42    1.05
   0  -7   1   53.16    1.01
   0  -7   1   52.61    1.06
   0   7  -1   53.50    1.03
   0   7   1   53.88    1.06
   0   7  -1   53.92    1.05
   0   7   1   52.86    1.02
  -1  -7  -1    0.12    0.11
   1  -7   1    0.05    0.10
   1  -7   1   -0.06    0.09
  -1  -7  -1    0.06    0.08
   1   7   1    0.00    0.10
  -1   7  -1   -0.04    0.12
  -1   7  -1    0.06    0.09
   1   7   1    0.16    0.10
   2  -7   1    1.59    0.19
  -2  -7  -1    1.51    0.13
  -2  -7  -1    1.46    0.19
   2  -7   1    0.90    0.16
  -2   7  -1    1.69    0.21
  -2   7  -1    1.25    0.15
   2   7   1    1.37    0.17
   2   7   1    1.41    0.17
  -3  -7  -1    2.28    0.23
   3  -7   1    2.04    0.22
  -3   7  -1    2.62    0.25
   3   7   1    2.20    0.21
  -4  -7  -1   11.22    0.42
   4  -7   1   10.76    0.44
  -4   7  -1   11.16    0.46
   4   7   1    9.93    0.40
  -5  -7  -1    2.81    0.25
   5  -7   1    3.23    0.30
   5   7   1    3.64    0.30
  -5   7  -1    3.32    0.30
  -5   7  -1    3.32    0.36
   6  -7   1    2.50    0.29
  -6  -7  -1    2.52    0.24
  -6   7  -1    2.86    0.29
  -6   7  -1    2.70    0.43
   6   7   1    2.99    0.30
  -6  -8   1    0.74    0.17
   6  -8  -1    0.58    0.20
  -6   8   1    0.55    0.26
  -6   8   1    0.51    0.20
   6   8  -1    0.73    0.20
   5  -8  -1    0.34    0.16
  -5  -8   1    0.18    0.14
  -5  -8   1    0.50    0.16
  -5   8   1    0.30    0.18
  -5   8   1    0.64    0.23
   5   8  -1    0.30    0.15
  -4  -8   1   11.96    0.45
   4  -8  -1   10.97    0.46
   4   8  -1   11.25    0.44
  -4   8   1   11.91    0.50
   3  -8  -1   -0.16    0.13
  -3  -8   1   -0.01    0.13
  -3   8   1    0.09    0.15
   3   8  -1    0.15    0.12
  -2  -8   1    7.76    0.37
   2  -8  -1    8.11    0.37
   2  -8  -1    8.56    0.38
  -2   8   1    7.63    0.39
   2   8  -1    7.59    0.35
  -2   8   1    7.89    0.32
   2   8  -1    7.64    0.33
  -1  -8   1   25.15    0.60
  -1  -8   1   25.67    0.68
   1  -8  -1   25.09    0.68
   1  -8  -1   26.69    0.67
   1  -8  -1   25.88    0.68
   1   8  -1   26.10    0.66
   1   8  -1   26.83    0.67
  -1   8   1   25.37    0.68
  -1   8   1   26.39    0.65
   0  -8  -1   50.70    1.06
   0  -8   1   49.84    1.06
   0  -8   1   49.00    1.05
   0  -8  -1   48.60    1.00
   0  -8   1   50.80    1.01
   0   8  -1   50.15    1.03
   0   8  -1   49.89    1.05
   0   8   1   50.82    1.02
   0   8   1   50.94    1.06
   1  -8   1    5.55    0.32
  -1  -8  -1    4.70    0.25
   1  -8   1    4.32    0.28
  -1  -8  -1    5.57    0.33
  -1   8  -1    4.81    0.28
   1   8   1    5.16    0.30
  -1   8  -1    4.75    0.30
   1   8   1    4.83    0.29
   2  -8   1   11.42    0.44
  -2  -8  -1   11.78    0.45
   2  -8   1   11.83    0.45
   2   8   1   11.59    0.42
  -2   8  -1   11.44    0.46
  -2   8  -1   12.16    0.40
   2   8   1   12.86    0.45
   3  -8   1    9.06    0.41
  -3  -8  -1    8.49    0.39
   3   8   1    8.77    0.39
  -3   8  -1    8.31    0.42
  -4  -8  -1    0.46    0.16
   4  -8   1    0.35    0.16
  -4   8  -1    0.32    0.18
   4   8   1    0.56    0.16
  -5  -8  -1    0.42    0.16
   5  -8   1    0.58    0.19
  -5   8  -1    0.76    0.24
   5   8   1    0.42    0.18
  -5   8  -1    0.65    0.20
   6  -8   1    2.46    0.31
  -6  -8  -1    2.76    0.26
  -6  -8  -1    2.73    0.27
  -6   8  -1    2.46    0.31
   6   8   1    3.19    0.32
   6  -9  -1    0.03    0.17
  -6  -9   1   -0.21    0.12
   6   9  -1    0.07    0.18
  -6   9   1   -0.29    0.20
  -6   9   1   -0.07    0.18
  -5  -9   1    5.09    0.35
   5  -9  -1    5.69    0.41
  -5  -9   1    5.97    0.37
   5   9  -1    5.48    0.41
  -5   9   1    5.68    0.41
  -4  -9   1    4.11    0.32
  -4  -9   1    4.37    0.33
   4  -9  -1    3.61    0.33
  -4   9   1    3.99    0.36
   4   9  -1    3.85    0.32
  -3  -9   1    0.12    0.15
   3  -9  -1    0.14    0.16
  -3   9   1    0.02    0.16
   3   9  -1    0.00    0.13
   2  -9  -1    6.07    0.35
  -2  -9   1    6.05    0.37
   2  -9  -1    6.40    0.37
  -2   9   1    6.45    0.39
   2   9  -1    6.80    0.35
   2   9  -1    6.00    0.35
   1  -9  -1    0.16    0.15
   1  -9  -1    0.06    0.16
   1  -9  -1    0.16    0.16
  -1  -9   1    0.20    0.11
  -1  -9   1    0.05    0.14
  -1  -9   1    0.16    0.15
   1   9  -1    0.21    0.14
  -1   9   1    0.21    0.17
   1   9  -1    0.11    0.13
  -1   9   1    0.18    0.13
   0  -9   1    1.67    0.23
   0  -9  -1    1.87    0.23
   0  -9   1    1.95    0.23
   0  -9  -1    2.10    0.22
   0  -9   1    1.81    0.22
   0   9   1    2.27    0.26
   0   9  -1    1.73    0.21
   0   9   1    1.50    0.19
   0   9  -1    2.12    0.24
   1  -9   1   12.86    0.49
  -1  -9  -1   13.21    0.43
   1  -9   1   12.37    0.48
  -1  -9  -1   12.72    0.50
   1   9   1   12.73    0.48
  -1   9  -1   12.73    0.49
   1   9   1   12.48    0.47
  -1   9  -1   12.52    0.46
  -2  -9  -1   11.83    0.49
   2  -9   1   12.34    0.49
   2  -9   1   12.67    0.50
   2   9   1   11.98    0.45
  -2   9  -1   12.58    0.51
   2   9   1   12.60    0.48
  -3  -9  -1    6.71    0.38
   3  -9   1    7.23    0.40
  -3   9  -1    8.11    0.43
   3   9   1    7.07    0.39
   4  -9   1    0.03    0.15
  -4  -9  -1    0.00    0.15
  -4   9  -1   -0.06    0.16
   4   9   1    0.06    0.15
  -5  -9  -1    2.90    0.30
   5  -9   1    3.75    0.35
  -5   9  -1    3.86    0.40
  -5   9  -1    3.18    0.34
   5   9   1    3.26    0.33
   5 -10  -1    2.82    0.34
  -5 -10   1    2.86    0.31
  -5 -10   1    2.23    0.28
  -5  10   1    1.96    0.31
   5  10  -1    2.59    0.32
  -4 -10   1    0.06    0.15
  -4 -10   1   -0.26    0.14
   4 -10  -1    0.25    0.17
  -4  10   1   -0.22    0.17
   4  10  -1   -0.24    0.14
  -3 -10   1    0.06    0.16
  -3 -10   1    0.05    0.15
   3 -10  -1    0.12    0.16
   3  10  -1    0.29    0.17
  -3  10   1    0.55    0.20
   2 -10  -1    0.40    0.17
  -2 -10   1    0.31    0.17
  -2 -10   1    0.34    0.17
   2 -10  -1    0.22    0.16
  -2  10   1    0.66    0.21
   2  10  -1    0.47    0.17
  -1 -10   1    0.18    0.15
   1 -10  -1    0.31    0.19
  -1 -10   1    0.19    0.16
   1 -10  -1    0.41    0.17
   1 -10  -1    0.26    0.18
  -1 -10   1    0.21    0.13
  -1  10   1    0.11    0.17
   1  10  -1    0.16    0.14
   1  10  -1    0.19    0.15
  -1  10   1    0.18    0.14
   0 -10   1   54.10    1.22
   0 -10  -1   55.88    1.17
   0 -10  -1   54.37    1.22
   0 -10   1   57.72    1.17
   0 -10  -1   55.69    1.23
   0  10   1   54.38    1.18
   0  10  -1   54.53    1.18
   0  10  -1   54.39    1.21
   0  10   1   55.93    1.22
  -1 -10  -1    0.13    0.12
  -1 -10  -1    0.04    0.16
   1 -10   1    0.05    0.14
   1 -10   1    0.19    0.16
   1  10   1    0.19    0.15
   1  10   1    0.05    0.14
  -1  10  -1    0.16    0.14
  -1  10  -1    0.05    0.16
  -2 -10  -1    2.03    0.27
   2 -10   1    2.49    0.29
   2 -10   1    1.91    0.26
   2  10   1    2.28    0.27
  -2  10  -1    1.98    0.28
  -3 -10  -1    7.90    0.43
   3 -10   1    7.63    0.45
   3  10   1    8.06    0.43
  -3  10  -1    7.41    0.45
   4 -10   1    0.16    0.18
  -4 -10  -1    0.07    0.17
  -4  10  -1    0.14    0.20
   4  10   1    0.25    0.16
   5 -10   1    2.12    0.32
  -5 -10  -1    2.08    0.28
  -5  10  -1    1.87    0.30
   5  10   1    2.22    0.31
   5 -11  -1    0.32    0.22
  -5 -11   1    0.40    0.19
   5  11  -1    0.37    0.22
  -5  11   1    0.37    0.22
  -4 -11   1    1.88    0.29
  -4 -11   1    2.41    0.31
   4 -11  -1    2.19    0.31
  -4  11   1    2.50    0.34
   4  11  -1    2.73    0.33
  -3 -11   1    1.11    0.23
   3 -11  -1    1.25    0.25
  -3 -11   1    1.68    0.27
  -3  11   1    1.46    0.27
   3  11  -1    1.62    0.26
  -2 -11   1    0.14    0.16
  -2 -11   1   -0.28    0.15
   2 -11  -1    0.15    0.16
   2 -11  -1    0.06    0.16
  -2  11   1   -0.25    0.16
   2  11  -1    0.15    0.16
   1 -11  -1    3.41    0.32
   1 -11  -1    3.64    0.35
  -1 -11   1    3.38    0.33
  -1 -11   1    4.04    0.36
  -1  11   1    2.86    0.28
   1  11  -1    4.52    0.35
  -1  11   1    3.59    0.36
   1  11  -1    3.98    0.36
   0 -11  -1   -0.04    0.12
   0 -11  -1    0.10    0.17
   0 -11   1    0.21    0.19
   0 -11  -1   -0.31    0.15
   0 -11   1    0.05    0.14
   0  11   1    0.19    0.16
   0  11  -1   -0.03    0.17
   0  11   1    0.02    0.15
   0  11  -1    0.00    0.14
   1 -11   1   -0.16    0.16
   1 -11   1   -0.19    0.14
  -1 -11  -1   -0.25    0.17
   1  11   1   -0.04    0.14
   1  11   1   -0.07    0.14
  -1  11  -1   -0.04    0.13
  -1  11  -1    0.15    0.19
  -2 -11  -1    2.59    0.31
   2 -11   1    2.29    0.29
   2 -11   1    2.44    0.30
  -2  11  -1    2.20    0.31
   2  11   1    2.45    0.29
  -3 -11  -1    0.22    0.20
   3 -11   1    0.17    0.18
  -3  11  -1    0.52    0.23
   3  11   1    0.45    0.19
  -4 -11  -1    1.14    0.25
   4 -11   1    1.11    0.26
  -4  11  -1    0.84    0.25
   4  11   1    0.52    0.22
   5 -11   1    0.20    0.22
  -5 -11  -1   -0.10    0.16
  -5 -11  -1    0.09    0.19
   5  11   1   -0.09    0.19
  -5  11  -1    0.47    0.24
   4 -12  -1    0.28    0.22
  -4 -12   1   -0.20    0.17
  -4  12   1   -0.19    0.19
   4  12  -1   -0.10    0.20
  -3 -12   1    0.19    0.20
  -3 -12   1    0.12    0.18
   3 -12  -1    0.71    0.22
   3  12  -1   -0.03    0.18
  -3  12   1    0.33    0.22
   2 -12  -1    0.14    0.29
  -2 -12   1    0.35    0.21
  -2 -12   1    0.09    0.20
   2 -12  -1    0.52    0.21
  -2  12   1    0.42    0.20
   2  12  -1    0.60    0.22
  -1 -12   1    0.05    0.18
   1 -12  -1    0.22    0.20
   1 -12  -1    0.03    0.17
  -1  12   1    0.23    0.18
  -1  12   1    0.16    0.15
   1  12  -1    0.04    0.16
   1  12  -1    0.21    0.18
   0 -12  -1    0.44    0.21
   0 -12  -1    0.96    0.26
   0 -12   1    0.74    0.21
   0 -12  -1    0.55    0.18
   0 -12   1    0.76    0.21
   0  12  -1    1.13    0.24
   0  12  -1    0.60    0.19
   0  12   1    0.66    0.23
   0  12   1    0.72    0.20
   1 -12   1    0.46    0.20
   1 -12   1    0.30    0.19
  -1 -12  -1    0.00    0.20
  -1 -12  -1    0.17    0.20
  -1  12  -1    0.32    0.22
  -1  12  -1    0.27    0.16
   1  12   1    0.35    0.19
   1  12   1    0.12    0.17
   2 -12   1   -0.14    0.27
  -2 -12  -1   -0.11    0.16
   2 -12   1   -0.01    0.16
  -2 -12  -1   -0.11    0.17
   2  12   1   -0.14    0.16
  -2  12  -1   -0.30    0.19
  -3 -12  -1    0.44    0.21
   3 -12   1    0.19    0.19
  -3 -12  -1    0.48    0.21
  -3  12  -1    0.02    0.20
   3  12   1    0.40    0.21
  -4 -12  -1    0.07    0.20
   4 -12   1    0.17    0.21
  -4 -12  -1    0.00    0.19
  -4  12  -1    0.30    0.23
   4  12   1    0.34    0.23
  -4 -13   1    1.52    0.30
   4 -13  -1    1.67    0.32
  -4  13   1    1.30    0.33
   4  13  -1    2.44    0.37
   3 -13  -1    4.05    0.42
  -3 -13   1    3.04    0.38
   3  13  -1    3.38    0.37
  -3  13   1    3.59    0.43
  -2 -13   1    3.60    0.39
   2 -13  -1    4.19    0.41
  -2  13   1    4.35    0.42
   2  13  -1    3.73    0.38
  -1 -13   1    0.15    0.21
   1 -13  -1    0.56    0.21
   1 -13  -1    0.55    0.23
   1  13  -1    0.55    0.21
  -1  13   1    0.85    0.27
   0 -13   1    1.33    0.29
   0 -13  -1    1.62    0.28
   0  13  -1    1.22    0.26
   0  13   1    1.09    0.25
   0  13   1    1.55    0.26
   0  13  -1    1.32    0.28
   1 -13   1    0.30    0.22
   1 -13   1    0.08    0.18
  -1 -13  -1    0.09    0.22
  -1 -13  -1    0.27    0.22
  -1  13  -1    0.07    0.21
   1  13   1    0.11    0.18
  -2 -13  -1    0.19    0.21
   2 -13   1    0.39    0.21
  -2 -13  -1   -0.39    0.17
  -2  13  -1    0.13    0.23
   2  13   1   -0.01    0.19
   3 -13   1    1.11    0.29
  -3 -13  -1    0.86    0.26
  -3 -13  -1    0.39    0.23
  -3  13  -1    0.72    0.27
   3  13   1    0.68    0.26
  -4 -13  -1   -0.22    0.18
   4 -13   1    0.15    0.22
  -4 -13  -1    0.03    0.22
   4  13   1    0.06    0.22
  -4  13  -1    0.05    0.23
  -3 -14   1    0.03    0.20
   3 -14  -1   -0.13    0.19
  -3  14   1   -0.03    0.23
   3  14  -1   -0.18    0.21
  -2 -14   1    1.28    0.29
   2 -14  -1    1.28    0.29
  -2  14   1    1.32    0.32
   2  14  -1    1.28    0.28
   1 -14  -1    0.29    0.21
  -1 -14   1    0.11    0.23
   1 -14  -1    0.28    0.21
   1  14  -1    0.12    0.19
  -1  14   1    0.30    0.23
   0 -14   1    0.07    0.21
   0 -14  -1    0.23    0.22
   0  14   1    0.28    0.23
   0  14   1    0.14    0.18
   0  14  -1    0.23    0.20
   0  14  -1    0.10    0.23
   1 -14   1    0.61    0.25
   1 -14   1    0.96    0.27
  -1 -14  -1    0.78    0.29
  -1 -14  -1    1.13    0.30
   1  14   1    0.67    0.22
  -1  14  -1    0.50    0.26
  -2 -14  -1    0.03    0.23
  -2 -14  -1   -0.14    0.18
   2 -14   1    0.17    0.21
   2  14   1   -0.26    0.17
  -2  14  -1    0.00    0.23
  -3 -14  -1    2.73    0.40
  -3 -14  -1    3.03    0.39
   3 -14   1    2.62    0.37
  -3  14  -1    2.61    0.38
   3  14   1    2.59    0.39
   2 -15  -1    0.89    0.27
  -2 -15   1    0.90    0.28
   2  15  -1    1.13    0.29
  -2  15   1    0.76    0.31
   1 -15  -1    0.35    0.24
  -1 -15   1    0.14    0.23
   1  15  -1    0.10    0.19
  -1  15   1   -0.23    0.23
   0 -15  -1    0.46    0.24
   0 -15   1    0.37    0.25
   0  15   1    0.53    0.30
   0  15  -1    0.44    0.41
   1 -15   1    0.81    0.29
  -1 -15  -1    0.95    0.30
   1  15   1    0.88    0.25
  -1  15  -1    0.26    0.27
   2 -15   1    0.05    0.23
  -2 -15  -1    0.69    0.27
  -2  15  -1    0.49    0.28
   2  15   1    0.02    0.21
   0 -16  -1    0.90    0.30
   0 -16   1    0.98    0.30
  -7   0   2    2.68    0.41
  -6   0   2   11.27    0.60
  -5   0   2    6.45    0.43
  -4   0   2    0.34    0.16
  -4   0   2    0.26    0.16
  -3   0   2    4.75    0.27
  -3   0   2    4.86    0.27
  -2   0   2    1.85    0.17
   2   0  -2    1.71    0.15
  -2   0   2    1.81    0.16
   1   0  -2   20.24    0.31
  -1   0   2   20.85    0.38
  -1   0   2   20.56    0.32
   1   0  -2   20.48    0.41
  -1   0   2   19.87    0.41
  -1   0   2   20.50    0.33
   0   0   2   34.30    0.52
   0   0   2   30.88    0.52
   0   0  -2   31.57    0.52
   0   0  -2   35.39    0.52
   0   0   2   34.48    0.53
   0   0  -2   35.40    0.53
   0   0  -2   32.05    0.52
   0   0   2   32.17    0.52
   0   0   2   35.47    0.53
   1   0   2   18.24    0.33
   1   0   2   18.13    0.34
  -1   0  -2   18.05    0.29
  -1   0  -2   18.29    0.34
   1   0   2   18.27    0.32
   1   0   2   18.43    0.32
   2   0   2    0.74    0.10
  -2   0  -2    0.76    0.11
  -2   0  -2    0.73    0.08
   2   0   2    0.64    0.05
   2   0   2    0.77    0.06
  -2   0  -2    0.72    0.07
  -2   0  -2    0.61    0.12
  -3   0  -2   55.98    0.91
  -3   0  -2   55.28    1.12
   3   0   2   55.79    0.86
  -3   0  -2   55.82    0.90
   3   0   2   55.29    0.85
   4   0   2   10.67    0.25
  -4   0  -2   11.00    0.29
  -4   0  -2   10.89    0.49
   4   0   2   10.87    0.25
  -4   0  -2   10.80    0.28
   5   0   2    0.08    0.07
  -5   0  -2   -0.05    0.07
  -5   0  -2   -0.08    0.19
  -6   0  -2    1.18    0.31
   6   0   2    1.50    0.15
  -6   0  -2    1.58    0.13
   7   0   2    5.22    0.27
  -7   0  -2    4.34    0.52
   7  -1  -2    0.05    0.08
  -7  -1   2   -0.16    0.21
  -7   1   2   -0.48    0.21
  -6  -1   2    0.27    0.23
   6  -1  -2    0.22    0.07
  -6   1   2    0.35    0.23
  -5  -1   2   19.51    0.69
  -5   1   2   18.99    0.35
  -5   1   2   17.78    0.66
  -5   1   2   19.00    0.67
  -4  -1   2   63.42    1.29
  -4   1   2   61.26    1.28
  -4   1   2   61.41    0.96
  -4   1   2   62.19    0.96
  -4   1   2   61.35    1.26
  -3  -1   2    0.29    0.13
  -3   1   2    0.21    0.11
  -3   1   2    0.26    0.05
  -3   1   2    0.31    0.13
  -3   1   2    0.24    0.05
  -2  -1   2    0.26    0.03
  -2  -1   2    0.25    0.03
  -2  -1   2    0.22    0.10
  -2  -1   2    0.40    0.13
  -2   1   2    0.38    0.12
   2   1  -2    0.20    0.09
  -2   1   2    0.29    0.05
  -2   1   2    0.33    0.05
   1  -1  -2  175.18    2.53
  -1  -1   2  173.85    2.53
   1  -1  -2  175.20    2.54
   1  -1  -2  180.09    2.52
  -1  -1   2  178.70    2.59
   1   1  -2  175.02    2.61
   1   1  -2  176.40    2.51
  -1   1   2  175.98    2.54
   0  -1   2  136.51    1.98
   0  -1   2  137.70    1.98
   0  -1  -2  137.42    1.99
   0  -1  -2  139.52    2.01
   0  -1   2  134.86    1.99
   0  -1  -2  136.35    1.98
   0   1   2  135.04    1.99
   0   1   2  135.25    2.01
   0   1  -2  135.82    1.98
   0   1  -2  137.53    1.99
   0   1  -2  134.94    1.98
   0   1   2  135.17    1.98
   1  -1   2  582.62    8.54
   1  -1   2  589.56    8.64
  -1  -1  -2  598.14    8.59
  -1  -1  -2  590.27    8.49
  -1  -1  -2  592.35    8.67
   1  -1   2  598.34    8.65
  -1  -1  -2  587.25    8.84
   1   1   2  594.88    8.57
   1   1   2  593.39    8.67
   1   1   2  589.21    8.58
  -1   1  -2  600.17    8.65
   1   1   2  605.31    8.62
  -1   1  -2  597.18    8.58
   2  -1   2    3.81    0.13
   2  -1   2    3.76    0.13
   2  -1   2    3.60    0.12
  -2  -1  -2    3.70    0.14
  -2  -1  -2    3.44    0.21
  -2  -1  -2    4.01    0.14
   2   1   2    3.65    0.14
   2   1   2    3.72    0.11
  -2   1  -2    3.78    0.19
  -2   1  -2    3.88    0.15
   2   1   2    3.78    0.11
   2   1   2    3.49    0.19
   3  -1   2    7.90    0.20
  -3  -1  -2    8.19    0.37
  -3  -1  -2    7.68    0.22
  -3  -1  -2    7.62    0.21
   3  -1   2    7.89    0.20
   3   1   2    7.70    0.17
  -3   1  -2    7.82    0.31
   3   1   2    7.58    0.17
  -3   1  -2    7.61    0.23
   3   1   2    7.90    0.22
  -3   1  -2    7.85    0.23
   4  -1   2    0.43    0.08
  -4  -1  -2    0.16    0.15
  -4  -1  -2    0.48    0.09
  -4  -1  -2    0.38    0.08
   4  -1   2    0.48    0.08
   4   1   2    0.32    0.07
  -4   1  -2    0.43    0.15
   4   1   2    0.40    0.07
   4   1   2    0.48    0.07
  -4   1  -2    0.25    0.08
  -4   1  -2    0.47    0.09
   4   1   2    0.53    0.09
  -4   1  -2    0.35    0.17
  -5  -1  -2    8.95    0.26
   5  -1   2    9.53    0.29
  -5  -1  -2    8.81    0.52
  -5   1  -2    9.40    0.51
  -5   1  -2    9.04    0.29
   5   1   2    8.86    0.25
   6  -1   2    5.64    0.26
  -6  -1  -2    6.35    0.52
  -6  -1  -2    5.66    0.20
   6   1   2    6.27    0.25
  -6   1  -2    5.34    0.23
  -6   1  -2    5.44    0.52
  -7  -1  -2    0.46    0.29
   7  -1   2    0.43    0.13
  -7   1  -2    0.71    0.32
   7   1   2    0.38    0.12
  -7  -2   2    1.30    0.34
   7  -2  -2    1.02    0.14
  -7   2   2    0.92    0.29
   6  -2  -2    1.92    0.16
  -6  -2   2    1.25    0.29
  -6   2   2    1.92    0.13
  -6   2   2    1.61    0.31
  -6   2   2    2.02    0.33
  -5  -2   2    0.90    0.25
   5  -2  -2    1.29    0.11
  -5   2   2    0.84    0.23
  -5   2   2    1.08    0.25
  -5   2   2    1.15    0.12
   4  -2  -2    0.33    0.06
  -4  -2   2    0.35    0.17
  -4  -2   2    0.27    0.05
   4  -2  -2    0.27    0.06
  -4   2   2    0.31    0.08
  -4   2   2    0.34    0.08
  -4   2   2    0.42    0.16
  -4   2   2    0.34    0.16
  -3  -2   2   10.41    0.39
  -3  -2   2   10.67    0.22
   3  -2  -2   10.54    0.22
  -3  -2   2   10.75    0.22
  -3   2   2   10.89    0.26
  -3   2   2   10.56    0.40
  -3   2   2   10.67    0.26
  -2  -2   2    1.41    0.09
  -2  -2   2    1.16    0.14
   2  -2  -2    1.30    0.09
   2  -2  -2    1.34    0.09
   2  -2  -2    1.15    0.09
  -2  -2   2    1.18    0.09
  -2   2   2    1.22    0.10
  -1  -2   2   33.12    0.51
   1  -2  -2   33.23    0.57
   1  -2  -2   33.10    0.56
   1  -2  -2   33.74    0.56
  -1  -2   2   33.10    0.56
  -1  -2   2   34.48    0.56
  -1  -2   2   33.61    0.56
   1   2  -2   33.37    0.54
   1   2  -2   33.68    0.55
  -1   2   2   33.72    0.58
   1   2  -2   33.65    0.54
  -1   2   2   33.63    0.58
   0  -2   2    5.58    0.18
   0  -2  -2    6.17    0.19
   0  -2   2    6.13    0.18
   0  -2  -2    5.69    0.18
   0   2  -2    6.03    0.19
   0   2  -2    6.05    0.18
   0   2   2    5.88    0.18
   0   2   2    5.76    0.18
  -1  -2  -2    0.51    0.10
   1  -2   2    0.51    0.07
   1  -2   2    0.72    0.09
   1  -2   2    0.49    0.07
  -1  -2  -2    0.48    0.08
  -1  -2  -2    0.60    0.08
   1   2   2    0.49    0.07
  -1   2  -2    0.57    0.09
   1   2   2    0.45    0.07
  -1   2  -2    0.63    0.07
   1   2   2    0.53    0.07
  -1   2  -2    0.49    0.09
   2  -2   2    0.27    0.07
   2  -2   2    0.21    0.07
   2  -2   2    0.26    0.06
  -2  -2  -2    0.37    0.08
  -2  -2  -2    0.34    0.11
  -2   2  -2    0.31    0.08
  -2   2  -2    0.17    0.07
   2   2   2    0.32    0.06
  -2   2  -2    0.32    0.09
   2   2   2    0.28    0.06
   2   2   2    0.30    0.07
   2   2   2    0.33    0.06
  -3  -2  -2   12.63    0.30
  -3  -2  -2   13.01    0.31
  -3  -2  -2   13.31    0.47
   3  -2   2   12.80    0.30
   3  -2   2   13.14    0.31
   3   2   2   12.80    0.27
   3   2   2   12.78    0.30
   3   2   2   12.80    0.27
  -3   2  -2   12.38    0.39
  -3   2  -2   12.89    0.33
   4  -2   2    3.20    0.17
  -4  -2  -2    2.83    0.30
  -4  -2  -2    3.01    0.16
   4  -2   2    3.18    0.18
  -4  -2  -2    3.16    0.16
   4   2   2    3.12    0.14
  -4   2  -2    3.03    0.19
  -4   2  -2    2.94    0.26
   4   2   2    3.02    0.14
   4   2   2    3.04    0.17
  -4   2  -2    3.37    0.33
  -5  -2  -2    5.67    0.42
   5  -2   2    6.12    0.25
  -5  -2  -2    6.32    0.23
   5   2   2    6.22    0.22
  -5   2  -2    6.35    0.40
  -5   2  -2    5.62    0.25
  -5   2  -2    6.97    0.46
  -6  -2  -2    0.25    0.08
  -6  -2  -2    0.19    0.25
   6  -2   2    0.41    0.12
  -6   2  -2    0.12    0.10
  -6   2  -2    0.43    0.27
   6   2   2    0.26    0.10
  -7  -2  -2    0.74    0.32
   7  -2   2    0.90    0.16
   7   2   2    0.62    0.13
  -7   2  -2    0.65    0.32
  -7  -3   2    0.38    0.28
   7  -3  -2    0.32    0.12
  -7   3   2    0.22    0.25
  -6  -3   2    4.28    0.45
   6  -3  -2    3.96    0.23
  -6   3   2    3.63    0.21
  -6   3   2    3.44    0.42
   6   3  -2    3.94    0.16
  -6   3   2    4.42    0.45
   5  -3  -2   12.26    0.34
  -5  -3   2   12.46    0.58
  -5  -3   2   12.81    0.26
  -5   3   2   13.68    0.57
  -5   3   2   12.14    0.35
  -5   3   2   11.90    0.55
   5   3  -2   12.26    0.25
  -4  -3   2   14.46    0.31
   4  -3  -2   14.92    0.35
  -4  -3   2   14.34    0.31
  -4  -3   2   14.59    0.56
   4  -3  -2   14.01    0.34
  -4   3   2   13.97    0.53
  -4   3   2   15.10    0.54
  -4   3   2   14.34    0.37
  -3  -3   2    5.19    0.17
  -3  -3   2    5.19    0.29
   3  -3  -2    4.93    0.18
  -3  -3   2    5.22    0.17
   3  -3  -2    5.04    0.18
  -3   3   2    5.08    0.21
   3   3  -2    5.43    0.13
   3   3  -2    5.19    0.13
   2  -3  -2   22.25    0.43
   2  -3  -2   22.15    0.43
   2  -3  -2   21.64    0.43
  -2  -3   2   21.94    0.43
   2   3  -2   21.78    0.39
   2   3  -2   21.51    0.39
  -2   3   2   22.13    0.46
  -2   3   2   22.12    0.46
   2   3  -2   22.03    0.40
   1  -3  -2   11.71    0.29
  -1  -3   2   11.90    0.28
   1  -3  -2   11.42    0.28
  -1  -3   2   11.20    0.28
  -1  -3   2   11.72    0.29
  -1   3   2   11.82    0.27
  -1   3   2   11.57    0.27
   1   3  -2   11.45    0.27
   1   3  -2   11.80    0.27
   1   3  -2   11.38    0.26
  -1   3   2   11.02    0.29
   0  -3   2   21.37    0.42
   0  -3  -2   21.10    0.44
   0  -3  -2   21.24    0.42
   0   3  -2   21.54    0.43
   0   3  -2   21.47    0.44
   0   3   2   21.40    0.43
   0   3   2   20.69    0.43
   1  -3   2    7.58    0.24
  -1  -3  -2    7.58    0.20
  -1  -3  -2    7.30    0.23
   1  -3   2    7.37    0.23
  -1   3  -2    7.15    0.24
   1   3   2    7.36    0.22
  -1   3  -2    7.33    0.22
   1   3   2    7.10    0.23
   1   3   2    7.91    0.23
   2  -3   2    2.05    0.15
  -2  -3  -2    1.93    0.19
   2  -3   2    2.41    0.14
  -2  -3  -2    2.01    0.13
  -2  -3  -2    2.23    0.15
   2  -3   2    2.25    0.14
   2   3   2    2.26    0.13
   2   3   2    2.18    0.12
  -2   3  -2    2.30    0.17
  -2   3  -2    2.50    0.25
   2   3   2    2.10    0.13
   3  -3   2    1.97    0.19
  -3  -3  -2    2.10    0.25
  -3  -3  -2    1.80    0.14
   3  -3   2    2.01    0.15
  -3  -3  -2    1.82    0.13
   3  -3   2    1.93    0.14
   3   3   2    1.93    0.12
  -3   3  -2    1.81    0.19
   3   3   2    1.76    0.12
  -3   3  -2    1.83    0.15
  -3   3  -2    1.90    0.15
  -4  -3  -2   10.84    0.31
  -4  -3  -2   10.19    0.48
   4  -3   2   10.50    0.33
   4   3   2   11.86    0.30
  -4   3  -2   10.36    0.34
  -4   3  -2   11.59    0.44
   4   3   2   10.71    0.29
  -5  -3  -2    6.34    0.24
  -5  -3  -2    6.23    0.45
   5  -3   2    5.68    0.27
  -5   3  -2    6.70    0.46
  -5   3  -2    6.53    0.29
  -5   3  -2    6.77    0.40
   5   3   2    6.21    0.24
  -6  -3  -2    3.03    0.18
   6  -3   2    3.30    0.24
  -6  -3  -2    3.42    0.42
  -6   3  -2    2.74    0.22
  -6   3  -2    4.07    0.47
   6   3   2    3.22    0.21
   7  -3   2    0.06    0.13
  -7  -3  -2    0.21    0.28
   7   3   2   -0.08    0.10
  -7   3  -2    0.20    0.26
   7  -4  -2    1.05    0.18
  -7   4   2    0.64    0.28
  -7   4   2    1.64    0.35
   7   4  -2    1.30    0.24
  -6  -4   2    0.61    0.28
   6  -4  -2    0.59    0.14
  -6   4   2    0.47    0.24
   6   4  -2    0.52    0.10
  -6   4   2    0.50    0.13
  -6   4   2    0.69    0.25
  -5  -4   2    3.33    0.16
  -5  -4   2    3.90    0.41
   5  -4  -2    3.27    0.22
  -5   4   2    2.38    0.30
  -5   4   2    3.16    0.36
   5   4  -2    3.10    0.16
  -5   4   2    2.98    0.22
  -4  -4   2    0.48    0.19
   4  -4  -2    0.39    0.10
  -4  -4   2    0.34    0.09
  -4   4   2    0.20    0.11
   4   4  -2    0.35    0.08
  -4   4   2    0.29    0.18
   4   4  -2    0.32    0.07
  -3  -4   2    1.73    0.14
   3  -4  -2    1.60    0.14
   3  -4  -2    1.68    0.14
   3  -4  -2    1.64    0.13
  -3  -4   2    1.63    0.12
  -3   4   2    2.12    0.17
  -3   4   2    1.74    0.15
   3   4  -2    1.90    0.12
   3   4  -2    1.74    0.11
   2  -4  -2   41.43    0.76
   2  -4  -2   41.63    0.76
  -2  -4   2   41.07    0.74
  -2  -4   2   42.06    0.75
   2  -4  -2   41.93    0.81
  -2   4   2   40.87    0.72
   2   4  -2   41.54    0.72
   2   4  -2   41.17    0.72
   2   4  -2   41.97    0.72
  -2   4   2   42.05    0.79
   1  -4  -2    4.65    0.20
  -1  -4   2    4.42    0.17
  -1  -4   2    4.36    0.20
  -1  -4   2    4.36    0.20
   1  -4  -2    4.02    0.20
  -1   4   2    4.56    0.21
   1   4  -2    4.18    0.19
  -1   4   2    4.42    0.19
   1   4  -2    4.11    0.19
   0  -4   2    5.35    0.21
   0  -4   2    4.92    0.22
   0  -4  -2    5.41    0.22
   0  -4  -2    4.97    0.20
   0   4   2    4.97    0.21
   0   4   2    4.81    0.21
   0   4  -2    5.01    0.22
   0   4  -2    5.22    0.21
   1  -4   2    5.51    0.22
   1  -4   2    5.00    0.22
  -1  -4  -2    5.44    0.19
  -1  -4  -2    5.65    0.23
   1   4   2    5.18    0.21
   1   4   2    5.45    0.22
  -1   4  -2    5.45    0.21
  -1   4  -2    5.28    0.22
  -2  -4  -2    3.86    0.25
   2  -4   2    4.18    0.20
   2  -4   2    4.44    0.21
  -2  -4  -2    4.05    0.19
  -2  -4  -2    4.17    0.20
  -2   4  -2    3.96    0.16
   2   4   2    4.13    0.18
  -2   4  -2    4.14    0.22
   2   4   2    4.18    0.19
   2   4   2    4.20    0.18
   3  -4   2   12.85    0.37
   3  -4   2   12.66    0.34
   3  -4   2   12.82    0.36
  -3  -4  -2   14.07    0.51
  -3  -4  -2   12.65    0.35
   3   4   2   13.90    0.34
   3   4   2   13.34    0.33
  -3   4  -2   13.01    0.39
  -4  -4  -2    5.46    0.41
   4  -4   2    4.95    0.26
  -4  -4  -2    5.32    0.24
   4   4   2    5.11    0.23
  -4   4  -2    5.07    0.33
  -4   4  -2    4.96    0.27
  -5  -4  -2    1.79    0.17
  -5  -4  -2    1.43    0.30
   5  -4   2    1.45    0.18
  -5   4  -2    1.34    0.24
   5   4   2    1.88    0.17
  -5   4  -2    1.55    0.18
  -5   4  -2    1.70    0.29
  -6  -4  -2    0.24    0.26
  -6  -4  -2    0.08    0.09
   6  -4   2   -0.01    0.12
  -6   4  -2   -0.07    0.17
  -6   4  -2   -0.05    0.23
  -6   4  -2    0.08    0.12
   6   4   2    0.09    0.10
   6  -5  -2    0.41    0.15
  -6   5   2    0.79    0.25
   6   5  -2    0.30    0.11
  -6   5   2    0.31    0.14
  -6   5   2    0.40    0.23
   5  -5  -2    9.90    0.37
  -5  -5   2   10.15    0.32
  -5  -5   2    9.92    0.31
   5   5  -2   10.01    0.31
  -5   5   2    9.26    0.52
  -5   5   2   10.04    0.39
  -4  -5   2   27.73    0.59
   4  -5  -2   26.90    0.62
  -4   5   2   26.26    0.78
  -4   5   2   27.26    0.65
   4   5  -2   27.66    0.57
  -3  -5   2   11.39    0.34
   3  -5  -2   10.54    0.32
   3  -5  -2   10.47    0.38
   3  -5  -2   10.78    0.34
  -3   5   2   10.92    0.36
   3   5  -2   11.18    0.31
   3   5  -2   10.94    0.30
   2  -5  -2   38.38    0.75
  -2  -5   2   37.65    0.74
   2  -5  -2   37.56    0.74
  -2   5   2   37.83    0.77
   2   5  -2   37.18    0.70
   2   5  -2   37.13    0.71
   2   5  -2   38.29    0.70
   1  -5  -2    2.53    0.18
  -1  -5   2    2.39    0.15
  -1  -5   2    2.28    0.18
   1  -5  -2    2.44    0.17
  -1  -5   2    2.31    0.18
  -1   5   2    2.38    0.17
  -1   5   2    2.54    0.20
   1   5  -2    2.24    0.17
   1   5  -2    2.46    0.17
   0  -5   2    0.05    0.10
   0  -5  -2    0.06    0.09
   0  -5   2    0.02    0.08
   0  -5  -2    0.03    0.08
   0   5   2    0.08    0.09
   0   5   2    0.00    0.09
   0   5  -2    0.03    0.09
   0   5  -2   -0.04    0.08
   1  -5   2   33.75    0.70
  -1  -5  -2   34.76    0.66
   1  -5   2   35.32    0.70
  -1  -5  -2   34.00    0.70
   1   5   2   33.76    0.68
  -1   5  -2   35.02    0.68
  -1   5  -2   34.19    0.71
   1   5   2   34.51    0.69
  -2  -5  -2   27.71    0.61
   2  -5   2   28.09    0.62
   2  -5   2   28.62    0.62
  -2   5  -2   28.11    0.64
  -2   5  -2   28.15    0.56
   2   5   2   28.21    0.58
   2   5   2   27.54    0.59
  -3  -5  -2    0.30    0.17
   3  -5   2    0.20    0.10
   3  -5   2    0.21    0.10
  -3  -5  -2    0.18    0.10
   3   5   2    0.16    0.09
   3   5   2    0.22    0.08
  -3   5  -2    0.17    0.12
  -4  -5  -2    6.08    0.44
   4  -5   2    5.71    0.29
  -4  -5  -2    6.07    0.28
  -4   5  -2    5.96    0.31
   4   5   2    6.34    0.27
  -4   5  -2    5.57    0.36
  -5  -5  -2    3.07    0.23
  -5  -5  -2    4.03    0.43
   5  -5   2    3.16    0.26
   5   5   2    3.36    0.24
  -5   5  -2    4.12    0.28
  -5   5  -2    3.59    0.35
   6  -5   2    2.70    0.26
  -6  -5  -2    2.79    0.22
  -6  -5  -2    2.75    0.44
  -6   5  -2    2.90    0.42
   6   5   2    2.70    0.23
   6   5   2    2.84    0.25
  -6   5  -2    2.70    0.25
  -6   5  -2    2.86    0.49
  -6  -6   2    0.97    0.13
   6  -6  -2    1.14    0.20
  -6   6   2    1.09    0.29
  -6   6   2    1.06    0.28
   6   6  -2    1.37    0.18
  -6   6   2    1.01    0.19
  -5  -6   2    2.21    0.19
   5  -6  -2    2.37    0.23
  -5  -6   2    2.29    0.20
  -5   6   2    2.17    0.24
  -5   6   2    2.56    0.34
   5   6  -2    2.40    0.20
  -4  -6   2    2.83    0.22
   4  -6  -2    2.98    0.24
  -4   6   2    2.68    0.24
   4   6  -2    2.54    0.21
  -3  -6   2    5.94    0.28
   3  -6  -2    5.26    0.28
   3  -6  -2    5.65    0.26
  -3   6   2    5.25    0.29
   3   6  -2    5.25    0.25
   2  -6  -2   55.65    1.05
   2  -6  -2   55.27    1.05
  -2  -6   2   54.92    1.05
  -2   6   2   55.80    0.99
   2   6  -2   55.55    1.02
  -2   6   2   56.71    0.99
  -2   6   2   56.68    1.08
   2   6  -2   54.86    1.00
  -1  -6   2    0.13    0.10
   1  -6  -2    0.07    0.09
   1  -6  -2    0.15    0.10
  -1  -6   2    0.05    0.10
  -1  -6   2   -0.06    0.07
   1   6  -2   -0.06    0.09
  -1   6   2   -0.09    0.08
   1   6  -2    0.03    0.09
  -1   6   2    0.08    0.09
   0  -6   2    8.07    0.30
   0  -6  -2    7.91    0.31
   0  -6   2    8.08    0.31
   0  -6  -2    7.88    0.29
   0   6   2    7.75    0.30
   0   6   2    7.76    0.30
   0   6  -2    7.87    0.30
   0   6  -2    7.91    0.31
   1  -6   2   73.48    1.31
  -1  -6  -2   77.42    1.27
   1  -6   2   75.93    1.34
  -1  -6  -2   73.58    1.33
  -1   6  -2   75.27    1.30
   1   6   2   73.62    1.31
   1   6   2   75.14    1.31
  -1   6  -2   73.49    1.34
  -2  -6  -2    0.32    0.08
  -2  -6  -2    0.02    0.10
   2  -6   2    0.18    0.10
   2  -6   2    0.11    0.10
  -2   6  -2    0.30    0.09
   2   6   2    0.22    0.10
  -2   6  -2    0.26    0.11
   2   6   2    0.32    0.10
   3  -6   2   37.68    0.80
  -3  -6  -2   37.88    0.81
   3  -6   2   38.45    0.83
  -3   6  -2   39.22    0.86
   3   6   2   38.22    0.80
   4  -6   2   21.40    0.60
  -4  -6  -2   21.25    0.57
  -4   6  -2   21.69    0.67
  -4   6  -2   20.68    0.61
   4   6   2   21.67    0.55
   5  -6   2    3.62    0.30
  -5  -6  -2    4.26    0.27
  -5   6  -2    3.71    0.30
   5   6   2    4.33    0.29
  -5   6  -2    3.54    0.35
  -6  -6  -2    0.39    0.14
   6  -6   2    0.58    0.18
  -6   6  -2    0.40    0.18
   6   6   2    0.59    0.17
  -6   6  -2    0.53    0.29
  -6  -7   2    0.44    0.13
   6  -7  -2    0.26    0.16
  -6   7   2    0.63    0.28
  -6   7   2    0.50    0.17
   6   7  -2    0.38    0.16
  -6   7   2    0.72    0.25
   5  -7  -2    5.71    0.35
  -5  -7   2    6.18    0.31
  -5  -7   2    6.23    0.32
   5   7  -2    6.16    0.32
  -5   7   2    6.39    0.47
  -5   7   2    6.38    0.38
  -4  -7   2   22.60    0.59
   4  -7  -2   21.94    0.62
  -4  -7   2   22.33    0.59
   4   7  -2   20.91    0.57
  -4   7   2   21.54    0.64
   3  -7  -2   17.51    0.52
  -3  -7   2   17.05    0.51
  -3   7   2   17.08    0.54
   3   7  -2   16.66    0.49
   2  -7  -2    2.80    0.23
   2  -7  -2    3.27    0.24
  -2  -7   2    2.96    0.24
  -2  -7   2    2.69    0.16
  -2   7   2    2.93    0.19
   2   7  -2    3.19    0.23
  -2   7   2    2.80    0.25
   2   7  -2    2.51    0.20
  -2   7   2    2.76    0.20
  -1  -7   2   25.78    0.58
  -1  -7   2   25.42    0.64
   1  -7  -2   23.95    0.62
  -1  -7   2   26.53    0.65
   1  -7  -2   26.93    0.63
  -1   7   2   25.67    0.61
  -1   7   2   25.33    0.65
   1   7  -2   25.14    0.62
   1   7  -2   25.56    0.62
   0  -7   2    3.01    0.22
   0  -7  -2    2.84    0.21
   0  -7   2    3.21    0.25
   0  -7  -2    3.06    0.23
   0   7  -2    2.70    0.22
   0   7  -2    3.08    0.24
   0   7   2    2.93    0.22
   0   7   2    2.92    0.22
  -1  -7  -2   31.97    0.68
   1  -7   2   31.90    0.73
   1  -7   2   33.23    0.76
  -1  -7  -2   33.01    0.76
   1   7   2   32.48    0.72
  -1   7  -2   32.13    0.71
   1   7   2   30.89    0.72
  -1   7  -2   32.42    0.76
  -2  -7  -2   13.15    0.34
   2  -7   2   13.08    0.45
   2  -7   2   14.10    0.45
  -2  -7  -2   14.45    0.46
  -2   7  -2   13.26    0.40
   2   7   2   13.17    0.41
  -2   7  -2   13.42    0.47
   2   7   2   13.87    0.44
   3  -7   2    0.25    0.13
  -3  -7  -2    0.04    0.13
   3   7   2    0.18    0.13
  -3   7  -2    0.18    0.15
   4  -7   2    3.60    0.30
  -4  -7  -2    3.88    0.28
  -4   7  -2    3.44    0.31
   4   7   2    4.50    0.29
   5  -7   2    1.79    0.25
  -5  -7  -2    1.67    0.22
   5   7   2    1.90    0.23
  -5   7  -2    1.76    0.25
  -5   7  -2    1.88    0.28
  -6  -7  -2    1.47    0.20
   6  -7   2    1.37    0.24
   6   7   2    1.87    0.25
  -6   7  -2    1.54    0.25
   6  -8  -2    0.42    0.20
  -6  -8   2    0.29    0.14
   6   8  -2    0.44    0.19
  -6   8   2    0.27    0.18
  -6   8   2    0.13    0.24
  -5  -8   2    0.66    0.16
   5  -8  -2    0.61    0.19
  -5   8   2    0.57    0.20
  -5   8   2    0.90    0.26
   5   8  -2    0.96    0.19
   4  -8  -2    2.18    0.25
  -4  -8   2    2.40    0.25
  -4  -8   2    2.45    0.24
   4   8  -2    2.84    0.26
  -4   8   2    2.30    0.27
  -3  -8   2    4.90    0.30
   3  -8  -2    5.09    0.33
  -3  -8   2    5.26    0.32
  -3   8   2    4.52    0.33
   3   8  -2    4.92    0.30
  -2  -8   2    0.96    0.19
  -2  -8   2    1.51    0.21
   2  -8  -2    1.04    0.18
   2  -8  -2    0.94    0.18
  -2   8   2    1.03    0.15
   2   8  -2    1.08    0.17
   2   8  -2    0.94    0.16
  -2   8   2    1.00    0.20
   1  -8  -2    0.70    0.16
  -1  -8   2    0.78    0.18
  -1  -8   2    0.66    0.16
   1  -8  -2    0.67    0.16
   1  -8  -2    1.02    0.18
  -1  -8   2    0.54    0.12
  -1   8   2    0.61    0.14
   1   8  -2    0.60    0.14
   1   8  -2    0.84    0.17
  -1   8   2    0.91    0.19
   0  -8  -2    7.76    0.36
   0  -8   2    7.34    0.33
   0  -8  -2    8.37    0.35
   0  -8   2    7.92    0.36
   0   8   2    7.73    0.35
   0   8   2    8.19    0.37
   0   8  -2    7.23    0.35
   0   8  -2    7.71    0.35
   1  -8   2    0.20    0.13
  -1  -8  -2    0.45    0.16
   1  -8   2    0.34    0.13
  -1  -8  -2    0.20    0.10
   1   8   2    0.51    0.15
  -1   8  -2    0.34    0.13
   1   8   2    0.54    0.14
  -1   8  -2    0.15    0.14
   2  -8   2    4.52    0.30
  -2  -8  -2    4.64    0.31
   2  -8   2    4.11    0.29
   2   8   2    4.57    0.30
   2   8   2    4.47    0.28
  -2   8  -2    4.58    0.27
  -2   8  -2    4.11    0.32
  -3  -8  -2    3.54    0.29
   3  -8   2    3.38    0.30
  -3   8  -2    3.25    0.31
   3   8   2    3.05    0.27
  -4  -8  -2    1.74    0.23
   4  -8   2    1.67    0.24
   4   8   2    1.61    0.22
  -4   8  -2    1.97    0.27
  -5  -8  -2    1.25    0.22
   5  -8   2    1.20    0.24
  -5   8  -2    1.43    0.25
   5   8   2    1.22    0.22
  -5   8  -2    1.16    0.27
  -6  -8  -2   -0.05    0.14
   6  -8   2   -0.25    0.16
   6   8   2   -0.07    0.17
  -6   8  -2    0.10    0.18
  -6  -9   2    0.13    0.14
   6  -9  -2    0.09    0.17
  -6   9   2    0.05    0.18
  -6   9   2   -0.02    0.22
   6   9  -2    0.03    0.16
   5  -9  -2    0.08    0.17
  -5  -9   2    0.11    0.16
  -5   9   2    0.05    0.18
   5   9  -2   -0.01    0.16
   4  -9  -2    0.15    0.16
  -4  -9   2    0.26    0.16
  -4  -9   2    0.11    0.16
   4   9  -2   -0.02    0.13
  -4   9   2    0.15    0.17
  -3  -9   2    0.04    0.14
   3  -9  -2    0.19    0.15
  -3  -9   2   -0.04    0.14
   3   9  -2   -0.11    0.13
  -3   9   2    0.04    0.15
  -2  -9   2    0.19    0.15
   2  -9  -2    0.27    0.16
  -2  -9   2    0.20    0.16
   2  -9  -2    0.41    0.17
   2   9  -2    0.24    0.14
   2   9  -2    0.45    0.16
  -2   9   2    0.09    0.16
   1  -9  -2   20.28    0.63
  -1  -9   2   20.62    0.65
  -1  -9   2   21.25    0.65
   1  -9  -2   20.69    0.62
   1  -9  -2   20.74    0.63
  -1  -9   2   20.60    0.56
  -1   9   2   20.83    0.60
   1   9  -2   20.90    0.61
  -1   9   2   20.93    0.66
   1   9  -2   20.63    0.62
   0  -9   2    1.53    0.21
   0  -9  -2    1.40    0.19
   0  -9   2    1.02    0.19
   0  -9  -2    1.40    0.22
   0   9  -2    1.51    0.21
   0   9   2    1.30    0.20
   0   9  -2    1.31    0.20
   0   9   2    1.57    0.22
  -1  -9  -2    5.44    0.29
  -1  -9  -2    4.63    0.34
   1  -9   2    4.69    0.34
   1  -9   2    4.69    0.32
  -1   9  -2    4.76    0.31
   1   9   2    4.99    0.33
  -1   9  -2    5.03    0.36
   1   9   2    5.28    0.32
   2  -9   2    8.91    0.42
  -2  -9  -2    9.55    0.44
   2  -9   2    8.91    0.42
   2   9   2    9.43    0.41
  -2   9  -2    8.95    0.44
   2   9   2    8.32    0.40
  -3  -9  -2    4.49    0.34
   3  -9   2    5.12    0.36
  -3   9  -2    5.33    0.38
   3   9   2    4.00    0.32
  -4  -9  -2    0.58    0.19
   4  -9   2    0.57    0.19
   4   9   2    0.37    0.18
  -4   9  -2    0.66    0.21
   5  -9   2    0.02    0.17
  -5  -9  -2    0.31    0.18
   5   9   2    0.29    0.19
  -5   9  -2    0.20    0.20
  -5   9  -2    0.03    0.19
   5 -10  -2    0.30    0.19
  -5 -10   2    0.01    0.15
  -5  10   2    0.01    0.20
   5  10  -2    0.04    0.17
   4 -10  -2    0.00    0.16
  -4 -10   2    0.14    0.16
  -4 -10   2    0.06    0.15
   4  10  -2    0.10    0.17
  -4  10   2   -0.10    0.17
  -3 -10   2   -0.19    0.13
   3 -10  -2    0.08    0.16
  -3 -10   2   -0.04    0.15
  -3  10   2    0.01    0.16
   3  10  -2    0.10    0.14
  -2 -10   2    7.15    0.40
   2 -10  -2    5.66    0.37
   2 -10  -2    6.09    0.38
  -2 -10   2    5.89    0.39
  -2  10   2    7.11    0.43
   2  10  -2    6.20    0.37
   1 -10  -2   58.67    1.26
  -1 -10   2   56.98    1.25
  -1 -10   2   54.57    1.18
  -1 -10   2   57.07    1.26
   1 -10  -2   57.02    1.22
   1 -10  -2   57.44    1.26
  -1  10   2   61.44    1.29
  -1  10   2   56.26    1.19
   1  10  -2   57.46    1.23
   1  10  -2   57.78    1.23
   0 -10   2   12.45    0.54
   0 -10   2   13.69    0.50
   0 -10  -2   13.35    0.53
   0 -10  -2   13.34    0.49
   0  10   2   12.73    0.53
   0  10  -2   13.48    0.51
   0  10  -2   14.05    0.55
   0  10   2   11.77    0.49
  -1 -10  -2    5.14    0.37
   1 -10   2    4.86    0.34
   1 -10   2    4.06    0.34
  -1 -10  -2    5.63    0.32
  -1  10  -2    4.72    0.32
  -1  10  -2    4.59    0.35
   1  10   2    4.61    0.34
   1  10   2    4.92    0.35
   2 -10   2   16.74    0.59
   2 -10   2   16.11    0.59
  -2 -10  -2   14.49    0.58
  -2  10  -2   14.81    0.60
   2  10   2   15.12    0.56
  -3 -10  -2    1.67    0.25
   3 -10   2    1.42    0.25
  -3  10  -2    1.56    0.27
   3  10   2    1.16    0.22
  -4 -10  -2    0.13    0.18
   4 -10   2    0.42    0.20
  -4  10  -2    0.10    0.19
   4  10   2    0.25    0.18
  -5 -10  -2    1.40    0.25
   5 -10   2    1.76    0.30
   5  10   2    1.40    0.27
  -5  10  -2    2.03    0.32
   5 -11  -2    0.61    0.23
  -5 -11   2    1.05    0.24
   5  11  -2    1.15    0.28
  -5  11   2    1.08    0.27
   4 -11  -2    1.60    0.27
  -4 -11   2    1.44    0.26
  -4  11   2    1.29    0.28
   4  11  -2    1.86    0.28
  -3 -11   2    0.92    0.23
  -3 -11   2    0.79    0.21
   3 -11  -2    0.32    0.20
  -3  11   2    0.77    0.24
   3  11  -2    0.74    0.21
   2 -11  -2    0.38    0.18
  -2 -11   2    0.29    0.18
  -2 -11   2   -0.15    0.16
   2 -11  -2    0.36    0.19
  -2  11   2    0.24    0.19
   2  11  -2    0.22    0.16
  -1 -11   2    1.14    0.25
   1 -11  -2    1.40    0.25
   1 -11  -2    1.22    0.24
   1 -11  -2    1.34    0.23
   1  11  -2    1.38    0.23
  -1  11   2    1.33    0.27
   1  11  -2    1.40    0.25
  -1  11   2    1.18    0.21
   0 -11   2    4.59    0.36
   0 -11   2    4.51    0.33
   0 -11  -2    3.85    0.36
   0 -11  -2    4.90    0.39
   0 -11  -2    4.43    0.33
   0  11   2    4.00    0.33
   0  11   2    4.67    0.38
   0  11  -2    4.27    0.34
   0  11  -2    4.01    0.34
  -1 -11  -2    0.68    0.23
   1 -11   2    0.69    0.20
   1 -11   2    0.62    0.21
  -1  11  -2    0.38    0.22
   1  11   2    0.64    0.20
  -1  11  -2    0.62    0.17
   1  11   2    0.56    0.18
   2 -11   2   -0.14    0.16
   2 -11   2    0.03    0.16
  -2 -11  -2    0.02    0.17
   2  11   2   -0.13    0.15
  -2  11  -2   -0.06    0.19
   3 -11   2    0.50    0.21
  -3 -11  -2    0.49    0.21
   3  11   2    0.04    0.18
  -3  11  -2    0.21    0.20
   4 -11   2    0.97    0.25
  -4 -11  -2    1.43    0.27
  -4  11  -2    0.98    0.26
   4  11   2    1.06    0.25
   5 -11   2    0.23    0.22
  -5 -11  -2    0.39    0.21
   5  11   2    0.29    0.23
  -5  11  -2    0.58    0.24
   4 -12  -2    1.14    0.29
  -4 -12   2    1.13    0.26
   4  12  -2    1.46    0.30
  -4  12   2    1.72    0.31
   3 -12  -2    1.57    0.28
  -3 -12   2    1.86    0.29
  -3  12   2    1.50    0.29
   3  12  -2    1.67    0.28
  -2 -12   2    3.75    0.38
   2 -12  -2    3.96    0.38
  -2  12   2    3.85    0.40
   2  12  -2    4.25    0.39
   1 -12  -2    0.33    0.20
  -1 -12   2    0.54    0.20
   1 -12  -2    0.49    0.20
   1  12  -2    0.32    0.18
  -1  12   2    0.60    0.21
  -1  12   2    0.59    0.23
   1  12  -2    0.17    0.18
   0 -12  -2    1.52    0.28
   0 -12   2    1.79    0.29
   0 -12  -2    1.47    0.28
   0 -12   2    1.27    0.23
   0 -12  -2    1.17    0.22
   0  12  -2    1.24    0.25
   0  12   2    1.57    0.25
   0  12   2    1.59    0.28
   0  12  -2    1.13    0.22
  -1 -12  -2    0.03    0.19
   1 -12   2    0.00    0.17
   1 -12   2    0.07    0.19
  -1  12  -2    0.17    0.21
   1  12   2    0.11    0.17
  -1  12  -2    0.02    0.14
   1  12   2    0.43    0.19
  -2 -12  -2    1.04    0.26
   2 -12   2    0.62    0.20
   2  12   2    0.84    0.23
  -2  12  -2    0.50    0.24
   3 -12   2    3.62    0.38
  -3 -12  -2    3.68    0.39
   3  12   2    3.59    0.38
  -3  12  -2    2.91    0.38
   4 -12   2    8.73    0.56
  -4 -12  -2    8.27    0.51
   4  12   2    9.26    0.56
  -4  12  -2    8.80    0.58
  -4 -13   2    0.30    0.22
   4 -13  -2    0.51    0.26
  -4  13   2    0.30    0.28
   4  13  -2    0.38    0.23
  -3 -13   2    0.31    0.21
   3 -13  -2    0.20    0.22
  -3  13   2    0.07    0.23
   3  13  -2    0.31    0.22
   2 -13  -2    0.33    0.21
  -2 -13   2    0.26    0.22
  -2  13   2    0.17    0.19
   2  13  -2   -0.05    0.19
   1 -13  -2    0.23    0.22
  -1 -13   2    0.10    0.21
   1 -13  -2    0.44    0.20
  -1  13   2    0.52    0.25
   1  13  -2    0.33    0.19
   0 -13   2    5.42    0.42
   0 -13  -2    5.13    0.42
   0 -13  -2    5.52    0.44
   0  13  -2    5.61    0.45
   0  13   2    4.73    0.43
   0  13   2    4.66    0.38
   0  13  -2    4.94    0.39
  -1 -13  -2    5.28    0.47
   1 -13   2    4.91    0.41
  -1 -13  -2    5.11    0.46
   1 -13   2    4.67    0.41
  -1  13  -2    5.05    0.47
   1  13   2    4.94    0.40
  -2 -13  -2    0.57    0.23
  -2 -13  -2    0.63    0.24
   2 -13   2    0.30    0.20
   2  13   2    0.55    0.22
  -2  13  -2    0.31    0.22
   3 -13   2    0.17    0.21
  -3 -13  -2    0.10    0.21
  -3 -13  -2    0.07    0.19
  -3  13  -2    0.00    0.21
   3  13   2    0.07    0.21
  -4 -13  -2    0.90    0.26
  -4 -13  -2    0.63    0.27
   4 -13   2    1.14    0.30
  -4  13  -2    0.49    0.27
   4  13   2    1.06    0.30
   3 -14  -2    0.32    0.24
  -3 -14   2    0.24    0.22
  -3  14   2    0.58    0.28
   3  14  -2    0.08    0.23
   2 -14  -2    0.21    0.22
  -2 -14   2    0.79    0.27
   2  14  -2    0.59    0.25
  -2  14   2    0.83    0.30
  -1 -14   2    0.59    0.25
   1 -14  -2    0.25    0.21
   1 -14  -2    0.63    0.25
  -1  14   2    0.56    0.26
   1  14  -2    0.36    0.20
   0 -14   2    0.41    0.23
   0 -14  -2    0.13    0.20
   0  14   2    0.14    0.18
   0  14  -2    0.30    0.24
   0  14  -2   -0.02    0.18
   0  14   2    0.17    0.22
  -1 -14  -2    0.23    0.22
   1 -14   2    0.44    0.27
  -1 -14  -2    0.29    0.21
   1 -14   2    0.29    0.23
   1  14   2    0.52    0.21
  -1  14  -2    0.16    0.21
   2 -14   2    0.87    0.26
  -2 -14  -2    0.56    0.26
  -2 -14  -2    0.68    0.25
  -2  14  -2    0.53    0.27
   2  14   2    0.44    0.23
   3 -14   2    0.55    0.25
  -3 -14  -2   -0.11    0.24
  -3 -14  -2    0.27    0.22
  -3  14  -2   -0.20    0.22
   3  14   2   -0.05    0.23
   2 -15  -2   -0.14    0.21
  -2 -15   2    0.04    0.22
   2  15  -2   -0.23    0.20
  -2  15   2    0.20    0.25
  -1 -15   2    0.10    0.24
   1 -15  -2    0.29    0.24
   1  15  -2    0.32    0.22
  -1  15   2    0.09    0.22
   0 -15  -2    0.15    0.24
   0 -15   2    0.44    0.26
   0  15   2    0.01    0.26
   1 -15   2    0.30    0.25
  -1 -15  -2    0.00    0.23
   1  15   2   -0.27    0.16
  -1  15  -2   -0.19    0.23
   2 -15   2    0.24    0.23
  -2 -15  -2   -0.13    0.24
  -2 -15  -2   -0.21    0.21
   2  15   2   -0.04    0.20
  -2  15  -2   -0.24    0.23
   0 -16   2    0.19    0.26
   0 -16  -2    0.00    0.25
  -7   0   3   -0.11    0.22
  -6   0   3    0.12    0.20
  -5   0   3    0.02    0.16
  -4   0   3    0.06    0.13
  -4   0   3   -0.22    0.14
  -3   0   3    0.03    0.11
  -3   0   3   -0.06    0.09
  -2   0   3   -0.05    0.07
  -2   0   3   -0.02    0.04
  -2   0   3   -0.01    0.03
  -2   0   3   -0.05    0.09
  -1   0   3   -0.06    0.05
  -1   0   3    0.01    0.09
   1   0  -3   -0.05    0.04
   1   0  -3   -0.12    0.03
  -1   0   3   -0.02    0.06
   1   0  -3   -0.08    0.04
   0   0   3   -0.06    0.05
   0   0   3   -0.06    0.04
   0   0  -3    0.04    0.05
   0   0  -3   -0.04    0.04
   0   0   3    0.00    0.05
   1   0   3   -0.13    0.06
  -1   0  -3   -0.01    0.06
   1   0   3    0.09    0.05
  -1   0  -3    0.00    0.01
   1   0   3   -0.02    0.05
  -1   0  -3    0.08    0.07
   1   0   3   -0.01    0.05
  -2   0  -3   -0.01    0.02
  -2   0  -3   -0.08    0.09
   2   0   3    0.08    0.05
  -2   0  -3   -0.08    0.06
   2   0   3    0.03    0.05
   2   0   3    0.00    0.05
   2   0   3    0.07    0.07
   3   0   3    0.02    0.05
  -3   0  -3    0.00    0.12
  -3   0  -3   -0.05    0.05
  -3   0  -3   -0.02    0.06
   3   0   3    0.01    0.04
   4   0   3    0.00    0.07
  -4   0  -3   -0.20    0.13
   4   0   3   -0.01    0.06
  -4   0  -3    0.02    0.13
  -4   0  -3    0.04    0.08
  -5   0  -3    0.02    0.08
   5   0   3    0.02    0.09
  -5   0  -3    0.23    0.18
   5   0   3   -0.02    0.07
   6   0   3   -0.07    0.09
  -6   0  -3    0.03    0.09
  -6   0  -3    0.20    0.24
  -7   0  -3    0.19    0.28
   7   0   3    0.00    0.10
  -7  -1   3    0.59    0.28
  -7   1   3    0.51    0.27
   6  -1  -3    8.69    0.23
  -6  -1   3    9.43    0.56
  -6   1   3    8.24    0.52
  -5  -1   3    0.51    0.20
  -5   1   3    0.10    0.16
  -5   1   3    0.23    0.18
  -4  -1   3    0.43    0.16
  -4   1   3    0.33    0.06
  -4   1   3    0.50    0.16
  -4   1   3    0.33    0.06
  -4   1   3    0.48    0.16
  -3  -1   3    1.28    0.18
  -3  -1   3    1.10    0.16
  -3   1   3    0.90    0.15
  -3   1   3    0.90    0.07
  -3   1   3    0.96    0.14
  -3   1   3    0.97    0.08
  -2  -1   3   17.88    0.30
  -2  -1   3   17.85    0.30
  -2  -1   3   17.47    0.42
  -2   1   3   18.03    0.33
   2   1  -3   18.03    0.29
  -2   1   3   17.88    0.33
  -2   1   3   17.20    0.40
   1  -1  -3  108.84    1.59
  -1  -1   3  109.92    1.67
  -1  -1   3  110.14    1.58
  -1  -1   3  107.71    1.60
   1  -1  -3  108.58    1.59
   1  -1  -3  108.35    1.60
   1   1  -3  108.65    1.59
   1   1  -3  106.65    1.67
   1   1  -3  109.11    1.58
  -1   1   3  108.97    1.57
  -1   1   3  108.35    1.61
  -1   1   3  108.86    1.61
   1   1  -3  107.99    1.58
   0  -1  -3   10.48    0.24
   0  -1   3   10.28    0.24
   0  -1   3   10.46    0.23
   0  -1  -3   10.37    0.20
   0   1  -3   10.75    0.24
   0   1  -3   10.47    0.23
   0   1   3   10.89    0.24
   1  -1   3   71.91    1.12
   1  -1   3   71.75    1.12
  -1  -1  -3   72.21    1.13
   1  -1   3   74.70    1.13
  -1  -1  -3   72.46    1.13
  -1  -1  -3   73.72    1.18
  -1   1  -3   71.27    1.13
   1   1   3   72.39    1.11
  -1   1  -3   72.68    1.09
  -1   1  -3   71.13    1.14
   1   1   3   73.59    1.11
   1   1   3   73.39    1.13
   1   1   3   73.60    1.12
  -2  -1  -3    0.15    0.11
   2  -1   3    0.16    0.06
   2  -1   3    0.16    0.06
  -2  -1  -3    0.12    0.07
   2  -1   3    0.19    0.06
   2   1   3    0.08    0.05
   2   1   3    0.17    0.05
   2   1   3    0.20    0.09
   2   1   3    0.12    0.07
  -2   1  -3    0.21    0.08
   2   1   3    0.15    0.05
  -2   1  -3    0.17    0.08
   2   1   3    0.10    0.05
  -2   1  -3    0.14    0.07
   3  -1   3    2.77    0.14
  -3  -1  -3    2.66    0.15
  -3  -1  -3    2.60    0.14
   3  -1   3    2.56    0.13
  -3   1  -3    3.08    0.16
   3   1   3    2.74    0.13
   3   1   3    2.89    0.15
  -3   1  -3    2.74    0.20
   3   1   3    2.73    0.13
   3   1   3    2.93    0.12
   4  -1   3   23.57    0.49
  -4  -1  -3   22.93    0.71
   4  -1   3   23.36    0.48
  -4  -1  -3   22.85    0.49
   4   1   3   23.29    0.46
  -4   1  -3   23.12    0.51
   4   1   3   23.33    0.46
  -4   1  -3   22.21    0.71
   4   1   3   23.52    0.50
  -5  -1  -3    0.41    0.23
   5  -1   3    0.60    0.11
  -5  -1  -3    0.17    0.09
  -5   1  -3    0.33    0.22
  -5   1  -3    0.35    0.11
   5   1   3    0.37    0.09
  -6  -1  -3    0.17    0.23
  -6  -1  -3    0.18    0.09
   6  -1   3   -0.12    0.09
  -6   1  -3    0.05    0.10
  -6   1  -3    0.03    0.20
   6   1   3    0.21    0.10
   7  -1   3    0.06    0.12
  -7  -1  -3    0.24    0.29
  -7   1  -3   -0.01    0.27
   7   1   3    0.10    0.11
  -7  -2   3   -0.14    0.24
   7  -2  -3    0.07    0.09
  -7   2   3    0.03    0.21
   6  -2  -3    0.04    0.08
  -6  -2   3    0.02    0.21
  -6   2   3    0.19    0.21
  -6   2   3    0.04    0.21
   5  -2  -3    7.84    0.22
  -5  -2   3    7.54    0.46
  -5   2   3    8.05    0.47
  -5   2   3    7.88    0.24
  -5   2   3    7.96    0.45
   4  -2  -3    1.57    0.10
   4  -2  -3    1.59    0.10
  -4  -2   3    1.96    0.26
  -4   2   3    1.64    0.13
  -4   2   3    1.63    0.13
  -4   2   3    1.65    0.24
  -4   2   3    1.81    0.22
  -3  -2   3   10.08    0.21
   3  -2  -3    9.79    0.21
  -3  -2   3   10.05    0.21
   3  -2  -3    9.90    0.21
  -3  -2   3   10.01    0.37
  -3   2   3    9.35    0.38
  -3   2   3    9.80    0.25
  -3   2   3   10.09    0.36
  -3   2   3    9.69    0.25
  -2  -2   3  117.18    1.74
   2  -2  -3  117.86    1.74
   2  -2  -3  117.43    1.73
  -2  -2   3  116.15    1.88
   2  -2  -3  116.90    1.74
  -2  -2   3  119.17    1.74
  -2   2   3  117.68    1.77
   2   2  -3  116.41    1.68
   2   2  -3  116.64    1.68
  -1  -2   3   21.24    0.36
   1  -2  -3   21.11    0.40
   1  -2  -3   21.37    0.40
  -1  -2   3   21.51    0.40
  -1  -2   3   20.92    0.40
   1  -2  -3   21.83    0.41
  -1   2   3   21.52    0.41
  -1   2   3   20.62    0.41
   1   2  -3   21.58    0.38
   1   2  -3   21.99    0.39
   1   2  -3   21.06    0.38
   0  -2   3    0.12    0.09
   0  -2  -3    0.26    0.07
   0  -2  -3    0.31    0.09
   0  -2   3    0.27    0.08
   0   2   3    0.24    0.08
   0   2   3    0.17    0.08
   0   2  -3    0.27    0.08
   0   2  -3    0.18    0.08
   0   2   3    0.19    0.08
  -1  -2  -3   18.01    0.38
  -1  -2  -3   17.85    0.41
   1  -2   3   17.83    0.38
   1  -2   3   17.67    0.37
  -1  -2  -3   17.60    0.37
   1   2   3   18.29    0.36
  -1   2  -3   17.68    0.35
  -1   2  -3   17.64    0.38
   1   2   3   17.83    0.37
   1   2   3   17.49    0.35
  -2  -2  -3    9.10    0.25
  -2  -2  -3    8.96    0.25
   2  -2   3    8.89    0.24
   2  -2   3    9.10    0.25
   2  -2   3    8.97    0.25
  -2  -2  -3    8.83    0.34
  -2   2  -3    8.77    0.27
   2   2   3    8.97    0.22
  -2   2  -3    9.16    0.27
   2   2   3    8.94    0.25
   2   2   3    9.11    0.23
   2   2   3    8.99    0.23
  -2   2  -3    8.85    0.26
  -3  -2  -3    1.22    0.20
  -3  -2  -3    1.62    0.12
   3  -2   3    1.64    0.12
   3  -2   3    1.58    0.13
  -3  -2  -3    1.66    0.13
   3   2   3    1.54    0.11
  -3   2  -3    1.58    0.16
   3   2   3    1.71    0.14
   3   2   3    1.74    0.11
  -3   2  -3    1.85    0.15
  -3   2  -3    1.39    0.13
  -4  -2  -3    9.29    0.29
  -4  -2  -3    9.46    0.47
   4  -2   3    9.47    0.30
  -4   2  -3    9.18    0.31
   4   2   3    9.95    0.27
   4   2   3    9.50    0.27
  -4   2  -3    9.33    0.47
   4   2   3    9.53    0.27
  -4   2  -3    9.98    0.41
   4   2   3    9.62    0.30
  -5  -2  -3   -0.04    0.19
  -5  -2  -3    0.08    0.09
   5  -2   3    0.10    0.10
   5   2   3    0.04    0.08
  -5   2  -3   -0.12    0.17
  -5   2  -3   -0.10    0.10
  -6  -2  -3    1.68    0.32
   6  -2   3    1.88    0.19
  -6  -2  -3    2.32    0.17
  -6   2  -3    2.04    0.19
   6   2   3    1.95    0.18
  -6   2  -3    2.43    0.39
   7  -2   3    4.40    0.30
  -7  -2  -3    4.76    0.55
   7   2   3    4.50    0.27
  -7   2  -3    4.29    0.54
  -7  -3   3    0.10    0.27
   7  -3  -3    0.76    0.14
  -7   3   3    0.76    0.29
  -6  -3   3   10.22    0.60
   6  -3  -3   10.58    0.33
  -6   3   3   11.15    0.58
  -6   3   3    9.59    0.58
  -6   3   3    9.85    0.30
  -5  -3   3   21.91    0.76
   5  -3  -3   22.20    0.49
  -5   3   3   21.35    0.75
  -5   3   3   22.51    0.51
  -5   3   3   22.34    0.73
  -4  -3   3   41.86    0.71
   4  -3  -3   44.07    0.76
  -4  -3   3   41.79    1.00
   4  -3  -3   41.54    0.74
  -4  -3   3   41.71    0.70
  -4   3   3   43.87    1.02
  -4   3   3   41.66    0.78
  -4   3   3   42.01    0.96
  -3  -3   3    8.04    0.22
  -3  -3   3    8.32    0.23
  -3  -3   3    8.40    0.22
  -3  -3   3    8.00    0.36
   3  -3  -3    8.27    0.23
   3  -3  -3    8.25    0.23
  -3   3   3    8.55    0.26
   3   3  -3    8.29    0.18
   3   3  -3    8.21    0.18
  -2  -3   3   66.70    0.99
   2  -3  -3   65.43    1.07
   2  -3  -3   67.09    1.08
  -2  -3   3   66.51    1.07
  -2  -3   3   66.11    1.07
   2  -3  -3   68.34    1.08
   2  -3  -3   66.65    1.08
   2   3  -3   66.34    1.02
   2   3  -3   66.06    1.03
   2   3  -3   66.56    1.04
  -2   3   3   66.90    1.10
  -2   3   3   67.62    1.11
  -1  -3   3  205.18    3.18
   1  -3  -3  209.06    3.09
  -1  -3   3  208.84    3.08
   1  -3  -3  211.79    3.08
  -1   3   3  213.12    3.06
   1   3  -3  212.63    3.07
   1   3  -3  205.83    3.06
  -1   3   3  204.45    3.09
   1   3  -3  208.00    3.05
   0  -3  -3   25.09    0.50
   0  -3   3   25.21    0.51
   0  -3  -3   24.85    0.48
   0  -3   3   25.43    0.49
   0   3  -3   24.45    0.50
   0   3  -3   24.48    0.48
   0   3   3   25.49    0.49
   0   3   3   25.04    0.50
   1  -3   3   -0.05    0.07
  -1  -3  -3   -0.10    0.06
  -1  -3  -3   -0.02    0.05
   1  -3   3    0.10    0.08
  -1  -3  -3   -0.06    0.08
  -1   3  -3    0.09    0.07
   1   3   3    0.09    0.07
   1   3   3   -0.02    0.06
  -1   3  -3   -0.06    0.08
  -2  -3  -3    3.42    0.17
  -2  -3  -3    3.88    0.19
   2  -3   3    3.43    0.18
   2  -3   3    3.71    0.18
  -2  -3  -3    3.38    0.24
   2  -3   3    3.31    0.18
   2   3   3    3.58    0.16
  -2   3  -3    3.72    0.14
   2   3   3    4.02    0.17
  -2   3  -3    3.72    0.19
   2   3   3    3.64    0.17
   3  -3   3    0.11    0.08
  -3  -3  -3    0.00    0.02
   3  -3   3    0.05    0.07
  -3  -3  -3    0.10    0.14
  -3  -3  -3    0.19    0.08
   3  -3   3    0.25    0.08
  -3   3  -3    0.04    0.09
  -3   3  -3    0.13    0.10
   3   3   3    0.12    0.07
  -3   3  -3    0.23    0.09
   3   3   3    0.08    0.06
  -4  -3  -3   11.81    0.53
   4  -3   3   11.35    0.35
  -4  -3  -3   11.36    0.34
   4   3   3   11.76    0.32
  -4   3  -3   11.08    0.44
  -4   3  -3   11.40    0.37
   5  -3   3    6.27    0.29
  -5  -3  -3    6.24    0.26
  -5  -3  -3    6.29    0.46
  -5   3  -3    6.31    0.29
  -5   3  -3    5.86    0.44
   5   3   3    6.17    0.26
  -5   3  -3    6.22    0.39
  -6  -3  -3    0.25    0.11
  -6  -3  -3    0.06    0.25
   6  -3   3    0.56    0.15
   6   3   3    0.39    0.12
  -6   3  -3    0.51    0.28
  -6   3  -3    0.13    0.13
   7  -4  -3    1.32    0.18
  -7   4   3    1.29    0.33
  -7   4   3    1.88    0.36
  -6  -4   3    0.69    0.27
   6  -4  -3    0.28    0.13
   6   4  -3    0.45    0.09
  -6   4   3    0.15    0.21
  -6   4   3    0.30    0.11
  -6   4   3    0.17    0.21
  -5  -4   3    4.60    0.40
   5  -4  -3    3.79    0.23
  -5  -4   3    3.70    0.17
  -5   4   3    3.96    0.37
  -5   4   3    3.28    0.35
   5   4  -3    4.04    0.17
  -5   4   3    3.76    0.24
   4  -4  -3    0.23    0.10
  -4  -4   3    0.12    0.08
  -4  -4   3    0.29    0.09
  -4  -4   3    0.31    0.17
  -4   4   3    0.07    0.14
  -4   4   3    0.06    0.11
   4   4  -3    0.20    0.06
   4   4  -3    0.27    0.07
   3  -4  -3    0.56    0.10
  -3  -4   3    0.54    0.09
   3  -4  -3    0.40    0.09
  -3  -4   3    0.44    0.09
   3  -4  -3    0.53    0.09
  -3  -4   3    0.45    0.09
  -3   4   3    0.52    0.11
  -3   4   3    0.53    0.10
   3   4  -3    0.53    0.08
   3   4  -3    0.54    0.08
   2  -4  -3   16.34    0.39
   2  -4  -3   15.87    0.39
  -2  -4   3   16.18    0.39
   2  -4  -3   16.60    0.39
  -2  -4   3   16.76    0.39
  -2  -4   3   15.94    0.38
   2   4  -3   16.65    0.35
  -2   4   3   16.07    0.34
   2   4  -3   15.62    0.36
   2   4  -3   15.70    0.36
  -2   4   3   16.14    0.41
  -1  -4   3   48.06    0.80
   1  -4  -3   47.72    0.85
   1  -4  -3   46.91    0.86
  -1  -4   3   47.17    0.85
   1   4  -3   47.57    0.84
  -1   4   3   47.76    0.83
  -1   4   3   48.76    0.87
   1   4  -3   47.43    0.83
  -1   4   3   48.52    0.84
   0  -4  -3   87.45    1.41
   0  -4   3   86.03    1.38
   0  -4  -3   87.78    1.38
   0  -4   3   81.98    1.39
   0   4   3   83.72    1.38
   0   4   3   86.44    1.41
   0   4  -3   86.90    1.39
   0   4  -3   85.95    1.40
  -1  -4  -3   35.08    0.69
   1  -4   3   35.00    0.68
  -1  -4  -3   35.29    0.64
   1  -4   3   35.01    0.69
   1   4   3   36.06    0.67
  -1   4  -3   35.17    0.70
  -1   4  -3   35.39    0.67
   1   4   3   34.90    0.68
   2  -4   3   18.51    0.45
  -2  -4  -3   19.14    0.45
  -2  -4  -3   17.87    0.52
   2  -4   3   18.14    0.45
  -2   4  -3   18.07    0.46
   2   4   3   18.08    0.41
   2   4   3   18.56    0.42
   2   4   3   18.72    0.43
  -3  -4  -3   53.45    0.97
   3  -4   3   52.82    0.94
  -3  -4  -3   52.67    0.95
   3  -4   3   52.35    0.97
   3  -4   3   52.23    0.99
  -3  -4  -3   53.63    1.15
   3   4   3   52.51    0.93
  -3   4  -3   53.78    1.00
   3   4   3   53.37    0.94
  -4  -4  -3   60.82    1.35
   4  -4   3   59.77    1.11
  -4  -4  -3   58.60    1.08
   4   4   3   60.54    1.06
  -4   4  -3   60.48    1.13
  -4   4  -3   59.77    1.21
  -5  -4  -3    2.60    0.21
   5  -4   3    3.00    0.24
  -5  -4  -3    3.07    0.38
  -5   4  -3    3.06    0.25
  -5   4  -3    2.79    0.38
   5   4   3    2.98    0.22
  -5   4  -3    3.19    0.32
  -6  -4  -3    3.06    0.22
  -6  -4  -3    3.14    0.43
   6  -4   3    2.85    0.26
   6   4   3    3.02    0.24
  -6   4  -3    2.16    0.38
  -6   4  -3    3.19    0.27
   6  -5  -3    1.97    0.21
  -6   5   3    1.82    0.32
   6   5  -3    2.36    0.19
  -6   5   3    1.81    0.20
  -6   5   3    1.78    0.33
  -5  -5   3    8.92    0.29
   5  -5  -3    9.09    0.35
  -5   5   3    8.97    0.36
  -5   5   3    8.92    0.51
  -5   5   3    9.11    0.49
   5   5  -3    8.74    0.29
  -4  -5   3    8.30    0.30
   4  -5  -3    8.93    0.33
  -4  -5   3    8.79    0.30
  -4   5   3    8.83    0.35
   4   5  -3    8.96    0.29
  -3  -5   3    1.90    0.14
  -3  -5   3    2.37    0.18
  -3  -5   3    2.13    0.18
   3  -5  -3    2.48    0.22
   3  -5  -3    2.28    0.17
   3  -5  -3    2.91    0.20
  -3   5   3    2.38    0.20
   3   5  -3    2.58    0.16
   3   5  -3    2.43    0.17
  -2  -5   3    7.06    0.27
  -2  -5   3    7.12    0.27
   2  -5  -3    6.67    0.27
   2  -5  -3    6.50    0.27
   2  -5  -3    7.41    0.28
   2   5  -3    6.99    0.24
   2   5  -3    6.64    0.24
  -2   5   3    7.34    0.29
   2   5  -3    7.02    0.25
  -1  -5   3   11.14    0.35
   1  -5  -3   10.92    0.35
   1  -5  -3   10.91    0.34
  -1  -5   3   11.01    0.30
   1   5  -3   11.29    0.33
   1   5  -3   10.87    0.33
  -1   5   3   11.51    0.33
  -1   5   3   11.38    0.36
   0  -5   3   52.13    0.94
   0  -5   3   51.22    0.97
   0  -5  -3   52.24    0.98
   0  -5  -3   53.82    0.95
   0   5  -3   51.70    0.97
   0   5   3   51.74    0.97
   0   5  -3   53.95    0.96
   0   5   3   53.56    0.95
  -1  -5  -3    2.38    0.16
   1  -5   3    2.41    0.18
   1  -5   3    2.62    0.19
  -1  -5  -3    2.69    0.20
  -1   5  -3    2.38    0.19
   1   5   3    2.52    0.19
  -1   5  -3    2.24    0.17
   1   5   3    2.51    0.19
  -2  -5  -3    0.08    0.10
   2  -5   3    0.16    0.10
   2  -5   3    0.23    0.10
  -2   5  -3    0.39    0.12
  -2   5  -3    0.23    0.08
   2   5   3    0.34    0.10
   2   5   3    0.18    0.08
  -3  -5  -3    2.02    0.19
   3  -5   3    2.15    0.18
   3  -5   3    2.07    0.19
  -3  -5  -3    2.25    0.27
  -3   5  -3    1.80    0.19
   3   5   3    2.10    0.18
   4  -5   3    2.35    0.22
  -4  -5  -3    2.67    0.34
  -4  -5  -3    2.47    0.21
   4   5   3    2.19    0.19
  -4   5  -3    2.06    0.22
  -4   5  -3    2.63    0.26
   5  -5   3   -0.07    0.12
  -5  -5  -3    0.07    0.11
  -5  -5  -3    0.06    0.22
   5   5   3    0.00    0.12
  -5   5  -3   -0.04    0.13
  -5   5  -3    0.07    0.15
  -6  -5  -3    1.52    0.18
   6  -5   3    1.62    0.22
  -6  -5  -3    1.40    0.34
  -6   5  -3    1.27    0.21
  -6   5  -3    1.08    0.33
   6   5   3    1.48    0.19
   6  -6  -3    1.50    0.21
  -6  -6   3    1.69    0.16
  -6   6   3    1.76    0.32
  -6   6   3    1.77    0.23
   6   6  -3    2.16    0.21
  -6   6   3    1.13    0.28
  -5  -6   3    5.79    0.27
   5  -6  -3    5.72    0.32
  -5   6   3    5.79    0.45
   5   6  -3    5.63    0.28
  -5   6   3    5.95    0.33
  -4  -6   3    7.07    0.30
  -4  -6   3    7.39    0.31
   4  -6  -3    7.12    0.33
  -4   6   3    7.85    0.35
   4   6  -3    7.10    0.29
   3  -6  -3    2.10    0.19
  -3  -6   3    1.92    0.18
  -3  -6   3    2.14    0.19
   3  -6  -3    2.12    0.20
  -3   6   3    1.63    0.19
   3   6  -3    2.22    0.19
   2  -6  -3    5.28    0.26
   2  -6  -3    5.49    0.27
  -2  -6   3    5.01    0.26
   2  -6  -3    4.72    0.25
  -2  -6   3    5.45    0.26
   2   6  -3    5.22    0.23
  -2   6   3    4.68    0.28
   2   6  -3    4.82    0.24
  -2   6   3    5.25    0.22
  -1  -6   3   24.18    0.59
  -1  -6   3   25.50    0.54
   1  -6  -3   24.45    0.58
   1  -6  -3   25.24    0.60
  -1   6   3   23.70    0.56
  -1   6   3   25.31    0.61
   1   6  -3   24.11    0.57
   1   6  -3   23.48    0.57
   0  -6  -3    6.14    0.26
   0  -6  -3    5.99    0.28
   0  -6   3    6.41    0.28
   0  -6   3    5.85    0.26
   0   6  -3    6.02    0.29
   0   6   3    6.20    0.27
   0   6  -3    6.19    0.28
   0   6   3    6.06    0.29
   1  -6   3   10.94    0.36
  -1  -6  -3   10.30    0.32
   1  -6   3   10.49    0.37
  -1   6  -3    9.41    0.33
   1   6   3    9.99    0.35
   1   6   3    9.70    0.34
  -1   6  -3   10.03    0.37
  -2  -6  -3    2.65    0.15
   2  -6   3    2.58    0.22
   2  -6   3    2.77    0.22
  -2  -6  -3    2.29    0.21
  -2   6  -3    2.61    0.18
   2   6   3    2.72    0.20
  -2   6  -3    3.15    0.24
   2   6   3    2.91    0.21
   3  -6   3    0.16    0.11
  -3  -6  -3   -0.05    0.11
   3  -6   3    0.07    0.11
   3   6   3   -0.06    0.10
  -3   6  -3    0.04    0.13
   4  -6   3    0.87    0.18
  -4  -6  -3    0.74    0.15
  -4   6  -3    1.03    0.20
  -4   6  -3    0.51    0.17
   4   6   3    0.74    0.15
  -5  -6  -3    0.27    0.24
   5  -6   3    0.44    0.15
  -5  -6  -3    0.09    0.12
  -5   6  -3    0.37    0.17
   5   6   3    0.07    0.13
  -5   6  -3    0.32    0.16
   6  -6   3    0.09    0.16
  -6  -6  -3    0.21    0.14
  -6   6  -3    0.15    0.15
  -6   6  -3   -0.01    0.23
   6   6   3    0.12    0.14
   6   6   3    0.24    0.16
   6  -7  -3   -0.05    0.14
  -6  -7   3   -0.04    0.10
  -6   7   3    0.13    0.22
  -6   7   3   -0.09    0.20
  -6   7   3   -0.01    0.15
   6   7  -3    0.03    0.13
  -5  -7   3    4.17    0.26
   5  -7  -3    3.96    0.31
   5   7  -3    4.40    0.28
  -5   7   3    2.88    0.36
  -5   7   3    3.45    0.30
  -4  -7   3    1.08    0.19
  -4  -7   3    1.57    0.19
   4  -7  -3    1.41    0.20
   4   7  -3    1.13    0.17
  -4   7   3    1.05    0.20
  -3  -7   3    0.28    0.13
  -3  -7   3    0.19    0.12
   3  -7  -3    0.15    0.13
   3   7  -3    0.15    0.11
  -3   7   3    0.11    0.14
  -2  -7   3    9.32    0.37
  -2  -7   3    8.79    0.27
   2  -7  -3    8.51    0.35
   2  -7  -3    8.86    0.36
  -2  -7   3    9.05    0.36
   2  -7  -3    9.55    0.37
   2   7  -3    9.03    0.33
  -2   7   3    8.43    0.37
  -2   7   3    8.94    0.32
   2   7  -3    8.58    0.34
   1  -7  -3    0.34    0.13
   1  -7  -3    0.42    0.13
  -1  -7   3    0.18    0.12
  -1  -7   3    0.26    0.09
   1   7  -3    0.29    0.12
  -1   7   3    0.15    0.12
   1   7  -3    0.40    0.12
  -1   7   3    0.25    0.10
   0  -7  -3    0.24    0.13
   0  -7   3    0.10    0.11
   0  -7  -3    0.07    0.10
   0  -7   3    0.05    0.10
   0   7  -3   -0.13    0.09
   0   7   3    0.04    0.10
   0   7  -3    0.10    0.12
   0   7   3    0.13    0.11
   1  -7   3   22.00    0.57
  -1  -7  -3   22.29    0.53
  -1  -7  -3   21.02    0.58
   1  -7   3   21.85    0.60
  -1   7  -3   21.08    0.55
   1   7   3   21.93    0.57
  -1   7  -3   21.28    0.59
   1   7   3   21.91    0.57
  -2  -7  -3    4.32    0.28
   2  -7   3    4.28    0.27
   2  -7   3    4.38    0.28
  -2   7  -3    4.12    0.24
   2   7   3    4.23    0.26
   2   7   3    4.53    0.27
  -2   7  -3    4.56    0.30
  -3  -7  -3   11.63    0.44
   3  -7   3   11.70    0.45
  -3   7  -3   12.56    0.47
   3   7   3   12.19    0.43
   4  -7   3   -0.08    0.13
  -4  -7  -3    0.00    0.13
   4   7   3    0.10    0.12
  -4   7  -3    0.09    0.15
  -5  -7  -3    2.09    0.24
   5  -7   3    2.16    0.26
  -5   7  -3    2.16    0.30
   5   7   3    1.90    0.24
  -5   7  -3    2.01    0.27
   6  -7   3    1.53    0.25
  -6  -7  -3    1.48    0.21
   6   7   3    1.43    0.25
   6   7   3    1.06    0.20
  -6   7  -3    1.29    0.24
   6  -8  -3    1.13    0.24
  -6  -8   3    0.98    0.18
   6   8  -3    1.20    0.21
  -6   8   3    1.41    0.33
  -6   8   3    1.24    0.32
  -6   8   3    1.59    0.25
   5  -8  -3    1.88    0.25
  -5  -8   3    2.28    0.24
  -5   8   3    1.94    0.35
   5   8  -3    2.24    0.24
  -5   8   3    1.96    0.27
   4  -8  -3    1.97    0.24
  -4  -8   3    1.94    0.22
   4   8  -3    2.09    0.22
  -4   8   3    2.58    0.28
  -3  -8   3   -0.01    0.13
  -3  -8   3   -0.24    0.11
   3  -8  -3   -0.04    0.13
  -3   8   3    0.07    0.15
   3   8  -3   -0.02    0.11
  -2  -8   3    0.01    0.12
  -2  -8   3    0.00    0.12
   2  -8  -3   -0.14    0.12
   2  -8  -3   -0.13    0.12
   2  -8  -3   -0.08    0.12
  -2   8   3   -0.02    0.13
  -2   8   3    0.09    0.11
  -2   8   3    0.01    0.11
   2   8  -3    0.04    0.12
   2   8  -3    0.09    0.11
  -1  -8   3   33.22    0.80
   1  -8  -3   32.87    0.80
   1  -8  -3   32.64    0.77
  -1  -8   3   32.03    0.72
  -1   8   3   32.50    0.75
   1   8  -3   32.50    0.77
  -1   8   3   32.13    0.80
   1   8  -3   33.43    0.78
   0  -8  -3    0.08    0.11
   0  -8  -3    0.34    0.15
   0  -8   3    0.08    0.14
   0  -8   3    0.11    0.12
   0   8   3    0.33    0.14
   0   8   3    0.24    0.12
   0   8  -3    0.15    0.13
   0   8  -3    0.16    0.13
   1  -8   3   33.84    0.79
  -1  -8  -3   33.10    0.81
   1  -8   3   34.15    0.82
  -1  -8  -3   33.04    0.73
  -1   8  -3   33.99    0.83
  -1   8  -3   33.46    0.77
   1   8   3   33.54    0.79
   1   8   3   31.96    0.78
  -2  -8  -3   16.64    0.55
   2  -8   3   17.98    0.55
   2  -8   3   16.17    0.53
   2   8   3   16.77    0.54
  -2   8  -3   17.51    0.57
  -2   8  -3   16.80    0.49
   2   8   3   17.45    0.53
  -3  -8  -3   14.25    0.52
   3  -8   3   14.24    0.52
   3   8   3   13.22    0.49
  -3   8  -3   13.83    0.53
  -4  -8  -3    3.20    0.29
   4  -8   3    3.43    0.32
  -4   8  -3    3.38    0.32
   4   8   3    3.04    0.29
  -5  -8  -3    0.43    0.18
   5  -8   3    0.62    0.20
  -5   8  -3    1.06    0.29
  -5   8  -3    1.19    0.24
   5   8   3    1.14    0.22
   6  -8   3    1.52    0.27
  -6  -8  -3    1.61    0.24
  -6   8  -3    1.37    0.26
   6   8   3    1.64    0.25
   6   8   3    2.14    0.29
  -6  -9   3    0.82    0.19
   6  -9  -3    0.55    0.21
   6   9  -3    0.60    0.20
  -6   9   3    0.88    0.23
  -6   9   3    0.60    0.30
  -5  -9   3    1.57    0.23
   5  -9  -3    1.35    0.24
  -5   9   3    1.79    0.27
   5   9  -3    1.99    0.26
  -4  -9   3   13.31    0.51
   4  -9  -3   13.62    0.55
  -4   9   3   13.90    0.57
   4   9  -3   14.31    0.52
  -3  -9   3   12.06    0.50
  -3  -9   3   12.71    0.50
   3  -9  -3   12.56    0.50
  -3   9   3   12.14    0.51
   3   9  -3   11.97    0.47
  -2  -9   3    1.74    0.24
   2  -9  -3    2.04    0.24
  -2  -9   3    1.42    0.23
   2  -9  -3    2.07    0.25
   2  -9  -3    2.14    0.26
  -2   9   3    1.52    0.24
   2   9  -3    1.68    0.21
   2   9  -3    2.11    0.25
   1  -9  -3   96.18    1.77
  -1  -9   3   96.21    1.67
  -1  -9   3   94.47    1.77
   1  -9  -3   96.36    1.75
  -1   9   3   94.96    1.71
   1   9  -3   93.84    1.73
  -1   9   3   96.55    1.78
   1   9  -3   95.56    1.74
   0  -9   3    7.81    0.37
   0  -9   3    8.13    0.41
   0  -9  -3    7.23    0.39
   0  -9  -3    7.72    0.37
   0   9   3    7.92    0.39
   0   9  -3    7.59    0.39
   0   9   3    7.47    0.37
   0   9  -3    7.40    0.37
   1  -9   3    0.22    0.15
   1  -9   3    0.20    0.15
  -1  -9  -3    0.50    0.18
  -1  -9  -3    0.20    0.11
   1   9   3    0.28    0.15
  -1   9  -3    0.49    0.19
  -1   9  -3    0.14    0.14
   1   9   3    0.20    0.14
   2  -9   3    3.85    0.31
  -2  -9  -3    3.00    0.29
   2  -9   3    3.68    0.31
  -2   9  -3    3.47    0.33
   2   9   3    3.48    0.28
   2   9   3    3.49    0.31
   3  -9   3    0.11    0.15
  -3  -9  -3    0.34    0.17
   3   9   3    0.35    0.17
  -3   9  -3    0.33    0.17
  -4  -9  -3   -0.07    0.15
   4  -9   3   -0.01    0.15
  -4   9  -3   -0.06    0.17
   4   9   3   -0.14    0.14
   5  -9   3    0.92    0.23
  -5  -9  -3    0.61    0.20
   5   9   3    0.58    0.21
  -5   9  -3    0.90    0.25
   5 -10  -3   -0.13    0.16
  -5 -10   3    0.06    0.16
  -5  10   3   -0.06    0.19
   5  10  -3    0.03    0.18
  -4 -10   3    2.53    0.29
   4 -10  -3    2.43    0.30
  -4  10   3    2.35    0.31
   4  10  -3    1.96    0.26
  -3 -10   3    0.09    0.16
   3 -10  -3    0.15    0.16
  -3  10   3    0.01    0.16
   3  10  -3    0.22    0.16
   2 -10  -3    0.00    0.16
   2 -10  -3    0.18    0.16
  -2 -10   3   -0.07    0.15
   2  10  -3    0.08    0.14
  -2  10   3   -0.01    0.17
   1 -10  -3    5.47    0.37
   1 -10  -3    5.61    0.38
   1 -10  -3    5.93    0.39
  -1 -10   3    6.02    0.40
  -1 -10   3    7.46    0.54
  -1  10   3    5.37    0.38
   1  10  -3    5.83    0.37
  -1  10   3    5.70    0.34
   1  10  -3    5.63    0.36
   0 -10   3    4.51    0.32
   0 -10  -3    4.90    0.37
   0 -10  -3    4.37    0.31
   0 -10   3    4.29    0.36
   0  10  -3    3.98    0.33
   0  10   3    4.66    0.34
   0  10  -3    5.05    0.40
   0  10   3    4.78    0.33
  -1 -10  -3    5.29    0.38
   1 -10   3    4.64    0.34
   1 -10   3    4.64    0.37
  -1 -10  -3    5.12    0.31
  -1  10  -3    5.44    0.38
   1  10   3    4.77    0.34
  -1  10  -3    4.27    0.32
   1  10   3    4.77    0.34
   2 -10   3    2.44    0.29
   2 -10   3    2.54    0.30
  -2 -10  -3    3.19    0.33
  -2  10  -3    2.65    0.30
   2  10   3    2.53    0.28
  -3 -10  -3    2.41    0.29
   3 -10   3    2.54    0.31
  -3  10  -3    2.82    0.33
   3  10   3    2.78    0.29
   4 -10   3    1.35    0.26
  -4 -10  -3    1.64    0.27
   4  10   3    1.31    0.25
  -4  10  -3    1.64    0.29
   5 -10   3   -0.04    0.20
  -5 -10  -3    0.31    0.19
  -5  10  -3   -0.13    0.19
   5  10   3    0.24    0.20
  -5 -11   3    2.51    0.31
   5 -11  -3    2.98    0.36
  -5  11   3    2.97    0.37
   5  11  -3    3.28    0.36
   4 -11  -3    0.91    0.24
  -4 -11   3    0.65    0.21
   4  11  -3    0.90    0.22
  -4  11   3    0.71    0.25
  -3 -11   3    0.77    0.22
   3 -11  -3    0.89    0.23
  -3  11   3    0.75    0.24
   3  11  -3    0.55    0.20
   2 -11  -3   -0.22    0.14
  -2 -11   3   -0.08    0.15
   2 -11  -3   -0.13    0.14
   2  11  -3   -0.04    0.15
  -2  11   3   -0.04    0.15
   1 -11  -3    5.42    0.38
  -1 -11   3    5.61    0.39
   1 -11  -3    5.36    0.40
   1 -11  -3    4.58    0.40
   1  11  -3    5.22    0.37
  -1  11   3    4.81    0.41
  -1  11   3    4.51    0.34
   1  11  -3    5.47    0.38
   0 -11   3    0.96    0.24
   0 -11   3    0.68    0.19
   0 -11  -3    1.10    0.25
   0 -11  -3    0.69    0.19
   0  11   3    0.54    0.19
   0  11  -3    0.85    0.20
   0  11   3    0.66    0.18
   0  11  -3    0.83    0.22
   1 -11   3    2.06    0.27
   1 -11   3    1.90    0.29
  -1 -11  -3    1.93    0.28
   1  11   3    2.59    0.30
   1  11   3    1.86    0.26
  -1  11  -3    2.39    0.28
  -1  11  -3    1.84    0.28
   2 -11   3    0.05    0.16
   2 -11   3    0.10    0.17
  -2 -11  -3    0.09    0.18
  -2  11  -3    0.01    0.18
   2  11   3   -0.05    0.16
  -3 -11  -3   -0.14    0.17
   3 -11   3    0.12    0.18
  -3  11  -3    0.49    0.22
   3  11   3    0.19    0.18
  -4 -11  -3    1.00    0.25
   4 -11   3    0.71    0.24
  -4  11  -3    1.19    0.28
   4  11   3    1.33    0.27
  -5 -11  -3    0.65    0.23
   5 -11   3    0.49    0.24
  -5  11  -3    0.53    0.26
   5  11   3    1.44    0.29
   4 -12  -3    1.05    0.28
  -4 -12   3    0.88    0.24
   4  12  -3    0.75    0.25
  -4  12   3    0.65    0.25
   3 -12  -3    1.91    0.30
  -3 -12   3    1.05    0.25
   3  12  -3    1.43    0.28
  -3  12   3    2.22    0.32
  -2 -12   3    0.20    0.19
   2 -12  -3    0.06    0.19
   2  12  -3    0.22    0.19
  -2  12   3    0.30    0.19
  -1 -12   3   -0.12    0.15
   1 -12  -3    0.02    0.16
   1 -12  -3   -0.10    0.15
   1 -12  -3   -0.12    0.15
   1  12  -3    0.13    0.18
   1  12  -3    0.01    0.15
  -1  12   3    0.25    0.19
   0 -12   3    0.61    0.22
   0 -12  -3    0.46    0.18
   0 -12   3    0.50    0.19
   0 -12  -3    0.24    0.18
   0 -12  -3    0.39    0.19
   0  12   3    0.39    0.22
   0  12  -3    0.70    0.20
   0  12   3    0.61    0.19
   0  12  -3    0.70    0.23
   1 -12   3    1.19    0.25
   1 -12   3    1.19    0.27
  -1 -12  -3    1.18    0.26
   1  12   3    0.49    0.19
  -1  12  -3    1.62    0.28
   1  12   3    0.87    0.23
  -1  12  -3    1.01    0.26
  -2 -12  -3    0.25    0.19
   2 -12   3    0.50    0.21
  -2  12  -3    0.34    0.21
   2  12   3    0.34    0.18
  -3 -12  -3   -0.18    0.17
   3 -12   3    0.05    0.18
   3  12   3    0.14    0.19
  -3  12  -3   -0.20    0.19
   4 -12   3    0.71    0.25
  -4 -12  -3    0.81    0.25
   4  12   3    0.45    0.23
  -4  12  -3    0.54    0.26
   4 -13  -3    0.01    0.22
  -4 -13   3   -0.11    0.19
   4  13  -3   -0.14    0.21
  -4  13   3   -0.16    0.22
  -3 -13   3   -0.19    0.17
   3 -13  -3    0.21    0.21
   3  13  -3    0.14    0.21
  -3  13   3    0.23    0.23
  -2 -13   3   -0.19    0.18
   2 -13  -3   -0.23    0.17
  -2  13   3   -0.12    0.18
   2  13  -3   -0.07    0.18
  -1 -13   3    0.15    0.21
   1 -13  -3   -0.10    0.19
   1 -13  -3   -0.03    0.16
  -1  13   3    0.24    0.23
   1  13  -3    0.08    0.17
   0 -13  -3    0.01    0.20
   0 -13   3    0.15    0.21
   0 -13  -3    0.21    0.22
   0  13   3    0.14    0.20
   0  13  -3   -0.10    0.14
   0  13   3   -0.02    0.14
   0  13  -3    0.01    0.18
  -1 -13  -3    2.89    0.37
   1 -13   3    2.73    0.36
   1 -13   3    2.54    0.32
  -1  13  -3    2.44    0.35
   1  13   3    2.14    0.31
   2 -13   3    1.37    0.28
  -2 -13  -3    1.51    0.30
  -2  13  -3    1.28    0.30
   2  13   3    1.18    0.26
   3 -13   3    0.62    0.25
  -3 -13  -3    0.61    0.25
  -3  13  -3    0.02    0.23
   3  13   3    0.31    0.23
   4 -13   3    3.85    0.45
  -4 -13  -3    3.33    0.40
   4  13   3    4.37    0.47
  -4  13  -3    4.06    0.46
  -3 -14   3    4.59    0.47
   3 -14  -3    5.54    0.52
   3  14  -3    5.03    0.47
  -3  14   3    5.43    0.52
   2 -14  -3    3.65    0.41
  -2 -14   3    4.00    0.43
  -2  14   3    3.40    0.43
   2  14  -3    3.73    0.42
   1 -14  -3    1.73    0.31
  -1 -14   3    1.88    0.33
   1 -14  -3    2.50    0.35
   1  14  -3    1.58    0.27
  -1  14   3    1.63    0.34
   0 -14  -3    0.52    0.26
   0 -14   3    0.37    0.24
   0 -14  -3   -0.04    0.24
   0  14   3    0.01    0.19
   0  14  -3    0.28    0.19
   0  14   3    0.21    0.19
   0  14  -3   -0.21    0.18
   1 -14   3    0.05    0.23
  -1 -14  -3    0.36    0.27
  -1 -14  -3    0.16    0.23
   1  14   3    0.03    0.17
  -1  14  -3   -0.08    0.22
   2 -14   3    0.17    0.21
  -2 -14  -3    0.21    0.23
  -2 -14  -3   -0.30    0.21
  -2  14  -3    0.04    0.24
   2  14   3   -0.06    0.19
  -3 -14  -3    0.63    0.24
  -3 -14  -3    0.77    0.30
   3 -14   3    1.42    0.31
  -3  14  -3    1.24    0.33
   3  14   3    0.77    0.30
  -2 -15   3    0.93    0.28
   2 -15  -3    0.85    0.27
   2  15  -3    1.59    0.34
  -2  15   3    0.61    0.30
  -1 -15   3    0.02    0.22
   1 -15  -3    0.78    0.29
  -1  15   3    0.99    0.32
   1  15  -3    0.44    0.21
   0 -15  -3    1.22    0.32
   0 -15   3    1.35    0.33
   0  15   3    1.21    0.39
   1 -15   3    1.36    0.32
  -1 -15  -3    0.90    0.31
  -1 -15  -3    1.34    0.31
  -1  15  -3    1.25    0.34
   1  15   3    1.35    0.28
   2 -15   3    0.15    0.23
  -2 -15  -3    0.01    0.24
  -2 -15  -3    0.03    0.21
   2  15   3   -0.09    0.20
  -2  15  -3   -0.23    0.24
   0 -16  -3    0.17    0.26
   0 -16   3    0.32    0.25
  -7   0   4    0.07    0.23
  -6   0   4    3.94    0.40
  -5   0   4    2.09    0.28
  -5   0   4    1.51    0.25
  -4   0   4    3.84    0.29
  -4   0   4    3.48    0.32
  -3   0   4   13.63    0.26
  -3   0   4   13.80    0.41
  -3   0   4   14.43    0.47
  -3   0   4   14.24    0.26
  -2   0   4   35.89    0.74
  -2   0   4   36.06    0.67
  -2   0   4   36.86    0.58
  -2   0   4   35.61    0.59
  -1   0   4  343.55    4.91
   1   0  -4  338.79    4.99
  -1   0   4  341.87    4.90
  -1   0   4  344.67    4.91
   1   0  -4  342.16    4.92
  -1   0   4  340.49    4.96
   1   0  -4  340.05    4.90
  -1   0   4  342.10    4.99
   0   0   4   63.87    1.02
   0   0  -4   64.38    1.01
   0   0  -4   63.62    1.02
   0   0   4   66.37    1.01
   0   0   4   65.22    1.02
  -1   0  -4  994.13   14.34
   1   0   4  984.70   14.26
   1   0   4  992.47   14.42
   1   0   4 1000.00   14.54
  -1   0  -4  992.17   14.61
   1   0   4  990.94   14.38
  -1   0  -4  999.41   14.40
  -2   0  -4  228.07    3.34
  -2   0  -4  220.42    3.46
   2   0   4  227.81    3.30
   2   0   4  228.63    3.34
   2   0   4  229.55    3.30
   2   0   4  224.04    3.31
  -2   0  -4  224.56    3.33
   3   0   4    1.28    0.11
   3   0   4    1.31    0.11
  -3   0  -4    1.41    0.13
  -3   0  -4    1.16    0.18
  -4   0  -4    1.60    0.15
   4   0   4    1.42    0.13
  -4   0  -4    2.14    0.29
  -5   0  -4    2.12    0.33
   5   0   4    2.16    0.19
   5   0   4    2.21    0.18
  -5   0  -4    1.69    0.16
   6   0   4    6.41    0.30
  -6   0  -4    6.23    0.27
  -6   0  -4    6.88    0.55
  -7   0  -4    4.93    0.58
   7   0   4    4.98    0.30
  -7  -1   4    0.25    0.24
  -7   1   4    0.43    0.24
  -6  -1   4   12.79    0.62
   6  -1  -4   12.80    0.28
  -6   1   4   12.66    0.61
  -5  -1   4   10.87    0.51
  -5   1   4   10.21    0.51
  -5   1   4   10.89    0.51
  -4  -1   4    0.70    0.17
  -4   1   4    0.93    0.18
  -4   1   4    0.94    0.08
  -4   1   4    0.56    0.17
  -4   1   4    0.78    0.08
  -3  -1   4   13.35    0.25
  -3  -1   4   13.17    0.25
  -3  -1   4   13.45    0.41
  -3  -1   4   13.09    0.45
  -3   1   4   14.37    0.46
   3   1  -4   13.15    0.24
  -3   1   4   12.81    0.27
  -3   1   4   13.19    0.40
  -3   1   4   13.23    0.28
   2  -1  -4   48.88    0.73
  -2  -1   4   46.78    0.75
  -2  -1   4   49.05    0.92
  -2  -1   4   48.17    0.75
   2  -1  -4   46.71    0.72
  -2  -1   4   48.10    0.86
  -2   1   4   47.95    0.83
   2   1  -4   47.72    0.74
  -2   1   4   48.19    0.92
  -2   1   4   48.25    0.77
  -2   1   4   47.49    0.77
  -1  -1   4  697.96   10.14
   1  -1  -4  700.76   10.32
  -1  -1   4  710.19   10.35
   1  -1  -4  713.46   10.32
  -1  -1   4  692.54   10.38
  -1  -1   4  705.80   10.30
  -1  -1   4  717.47   10.28
   1  -1  -4  711.78   10.31
   1   1  -4  692.34   10.28
  -1   1   4  714.01   10.37
   1   1  -4  697.76   10.20
   1   1  -4  721.88   10.44
   1   1  -4  714.91   10.25
  -1   1   4  714.49   10.33
  -1   1   4  714.91   10.15
   0  -1   4   15.56    0.33
   0  -1   4   15.91    0.34
   0  -1  -4   15.47    0.34
   0  -1  -4   15.16    0.33
   0  -1  -4   16.20    0.29
   0   1  -4   15.77    0.34
   0   1   4   16.15    0.34
   0   1  -4   15.57    0.28
   0   1  -4   15.85    0.33
   1  -1   4  267.77    3.82
   1  -1   4  260.91    3.81
  -1  -1  -4  265.28    3.86
  -1  -1  -4  263.39    3.79
  -1  -1  -4  258.36    3.82
   1   1   4  266.29    3.81
  -1   1  -4  262.02    3.76
   1   1   4  260.78    3.81
   1   1   4  262.09    3.81
  -1   1  -4  263.79    3.79
   1   1   4  262.72    3.83
  -1   1  -4  256.80    3.83
  -2  -1  -4  106.41    1.64
   2  -1   4  105.24    1.62
   2  -1   4  104.46    1.63
  -2  -1  -4  106.40    1.77
  -2  -1  -4  105.85    1.65
   2  -1   4  107.77    1.63
   2   1   4  104.34    1.67
   2   1   4  105.65    1.64
  -2   1  -4  107.16    1.66
   2   1   4  104.39    1.62
   2   1   4  108.01    1.61
   2   1   4  105.23    1.61
  -2   1  -4  105.43    1.64
  -2   1  -4  105.44    1.65
  -3  -1  -4   13.43    0.35
   3  -1   4   13.36    0.32
   3  -1   4   12.86    0.33
  -3   1  -4   13.28    0.35
  -3   1  -4   13.29    0.39
   3   1   4   13.37    0.32
   3   1   4   13.91    0.35
   3   1   4   13.34    0.31
   4  -1   4    3.54    0.20
  -4  -1  -4    4.42    0.34
  -4  -1  -4    3.87    0.20
  -4   1  -4    3.92    0.22
   4   1   4    3.57    0.18
  -4   1  -4    3.84    0.32
   4   1   4    3.87    0.21
   5  -1   4    8.31    0.31
  -5  -1  -4    8.69    0.31
  -5  -1  -4    7.95    0.49
  -5   1  -4    9.08    0.54
  -5   1  -4    8.17    0.31
   5   1   4    7.56    0.29
   5   1   4    7.89    0.31
   6  -1   4    1.32    0.17
  -6  -1  -4    1.49    0.16
  -6  -1  -4    1.40    0.34
   6   1   4    1.44    0.17
  -6   1  -4    0.65    0.26
  -6   1  -4    1.11    0.16
  -7  -1  -4    0.81    0.34
   7  -1   4    0.81    0.18
  -7   1  -4    1.42    0.39
   7   1   4    0.71    0.16
   7  -2  -4    2.79    0.19
  -7  -2   4    2.95    0.43
  -7   2   4    3.26    0.42
  -6  -2   4   -0.24    0.18
   6  -2  -4    0.03    0.08
  -6   2   4   -0.03    0.19
  -6   2   4    0.03    0.20
  -5  -2   4    9.19    0.48
   5  -2  -4    9.02    0.24
  -5   2   4    9.25    0.26
  -5   2   4    8.86    0.46
  -5   2   4    9.64    0.51
  -4  -2   4   21.88    0.37
  -4  -2   4   21.36    0.37
   4  -2  -4   21.37    0.40
   4  -2  -4   21.73    0.40
  -4  -2   4   22.17    0.65
  -4   2   4   20.80    0.66
  -4   2   4   20.70    0.61
  -4   2   4   21.73    0.44
  -4   2   4   21.58    0.44
  -3  -2   4    1.37    0.18
   3  -2  -4    0.98    0.08
   3  -2  -4    1.11    0.09
  -3  -2   4    1.06    0.09
  -3  -2   4    1.01    0.08
  -3   2   4    1.02    0.14
  -3   2   4    1.04    0.10
  -3   2   4    0.99    0.09
  -3   2   4    0.83    0.15
  -2  -2   4   20.93    0.40
  -2  -2   4   21.35    0.40
   2  -2  -4   21.29    0.40
   2  -2  -4   21.43    0.40
   2  -2  -4   21.59    0.40
   2   2  -4   21.39    0.36
  -2   2   4   21.57    0.43
   2   2  -4   21.20    0.36
   1  -2  -4   29.31    0.53
  -1  -2   4   28.65    0.52
   1  -2  -4   29.18    0.52
   1  -2  -4   28.88    0.52
  -1  -2   4   29.02    0.53
  -1   2   4   29.06    0.54
  -1   2   4   29.75    0.51
   1   2  -4   29.10    0.57
   1   2  -4   28.91    0.52
   1   2  -4   28.38    0.51
   1   2  -4   29.16    0.51
   0  -2  -4    0.20    0.08
   0  -2   4    0.31    0.09
   0  -2   4    0.06    0.07
   0  -2  -4    0.17    0.08
   0   2   4    0.22    0.09
   0   2   4    0.29    0.09
   0   2  -4    0.24    0.08
   0   2  -4    0.19    0.08
  -1  -2  -4    8.03    0.22
  -1  -2  -4    7.87    0.24
   1  -2   4    8.48    0.25
  -1  -2  -4    8.13    0.26
   1  -2   4    8.32    0.24
   1   2   4    7.97    0.23
   1   2   4    8.16    0.23
  -1   2  -4    8.20    0.25
   1   2   4    7.83    0.23
  -1   2  -4    8.22    0.23
   2  -2   4    6.14    0.21
  -2  -2  -4    5.77    0.28
   2  -2   4    6.39    0.22
  -2  -2  -4    5.81    0.21
   2  -2   4    5.94    0.21
  -2  -2  -4    5.97    0.22
   2   2   4    6.24    0.20
   2   2   4    5.84    0.20
   2   2   4    5.79    0.22
   2   2   4    5.72    0.20
   2   2   4    5.61    0.19
  -2   2  -4    6.25    0.23
  -2   2  -4    5.97    0.21
  -3  -2  -4   23.68    0.51
   3  -2   4   23.54    0.51
   3  -2   4   23.75    0.50
   3  -2   4   24.00    0.48
  -3  -2  -4   23.25    0.66
  -3   2  -4   24.33    0.56
  -3   2  -4   23.36    0.53
   3   2   4   24.33    0.51
   3   2   4   23.94    0.49
  -3   2  -4   23.52    0.52
   3   2   4   23.95    0.48
   3   2   4   24.30    0.49
  -4  -2  -4   16.44    0.62
   4  -2   4   15.92    0.43
  -4  -2  -4   17.19    0.43
  -4   2  -4   17.27    0.46
   4   2   4   16.89    0.43
  -4   2  -4   17.48    0.52
   4   2   4   17.11    0.41
  -4   2  -4   17.11    0.64
   5  -2   4    0.94    0.15
  -5  -2  -4    1.11    0.14
  -5  -2  -4    0.62    0.26
   5   2   4    1.22    0.14
  -5   2  -4    1.00    0.15
  -5   2  -4    1.56    0.30
   6  -2   4    9.53    0.38
  -6  -2  -4    9.32    0.62
  -6  -2  -4    9.84    0.33
   6   2   4    8.93    0.35
  -6   2  -4    8.63    0.35
  -6   2  -4    9.94    0.64
   7  -3  -4    0.01    0.10
  -7  -3   4   -0.01    0.24
  -7   3   4    0.03    0.23
  -6  -3   4    0.51    0.26
   6  -3  -4    0.87    0.13
  -6   3   4    0.90    0.27
  -6   3   4    0.83    0.12
  -6   3   4    0.65    0.24
   5  -3  -4    0.26    0.09
  -5  -3   4   -0.03    0.18
  -5   3   4    0.47    0.20
  -5   3   4    0.00    0.16
  -5   3   4    0.52    0.11
   4  -3  -4    5.22    0.21
   4  -3  -4    5.81    0.21
  -4  -3   4    5.19    0.18
  -4  -3   4    5.28    0.18
  -4  -3   4    5.85    0.37
  -4   3   4    5.75    0.23
  -4   3   4    5.66    0.36
  -4   3   4    6.47    0.34
   3  -3  -4    0.91    0.10
  -3  -3   4    0.96    0.09
   3  -3  -4    0.85    0.09
   3  -3  -4    0.90    0.10
  -3  -3   4    0.93    0.09
   3   3  -4    0.88    0.07
  -3   3   4    0.99    0.12
   3   3  -4    0.90    0.07
   2  -3  -4    2.69    0.15
  -2  -3   4    2.49    0.10
  -2  -3   4    2.79    0.15
   2  -3  -4    2.70    0.15
   2  -3  -4    2.86    0.15
   2  -3  -4    2.85    0.15
   2   3  -4    2.76    0.12
   2   3  -4    2.63    0.12
  -2   3   4    2.75    0.17
  -2   3   4    3.14    0.17
   2   3  -4    2.83    0.13
  -1  -3   4    0.39    0.09
   1  -3  -4    0.41    0.09
   1  -3  -4    0.37    0.09
  -1  -3   4    0.35    0.07
   1   3  -4    0.43    0.09
   1   3  -4    0.38    0.09
  -1   3   4    0.31    0.07
   1   3  -4    0.35    0.08
  -1   3   4    0.33    0.09
   0  -3   4   10.65    0.30
   0  -3  -4   11.22    0.31
   0  -3   4   11.79    0.30
   0  -3  -4   10.89    0.29
   0   3   4   10.84    0.30
   0   3   4   10.71    0.29
   0   3  -4   10.61    0.29
   0   3   4   11.00    0.29
   0   3  -4   10.88    0.30
   1  -3   4    4.08    0.20
  -1  -3  -4    3.82    0.17
  -1  -3  -4    3.84    0.20
   1  -3   4    4.29    0.19
  -1  -3  -4    3.97    0.19
   1   3   4    3.78    0.18
  -1   3  -4    3.88    0.20
   1   3   4    4.01    0.19
  -1   3  -4    3.86    0.17
   2  -3   4    0.02    0.07
  -2  -3  -4    0.15    0.11
  -2  -3  -4   -0.04    0.08
   2  -3   4    0.03    0.07
  -2  -3  -4    0.05    0.08
  -2   3  -4    0.05    0.08
  -2   3  -4    0.03    0.05
   2   3   4    0.00    0.07
   2   3   4    0.06    0.07
   2   3   4    0.02    0.06
   3  -3   4    4.77    0.20
   3  -3   4    4.36    0.22
  -3  -3  -4    4.76    0.21
  -3  -3  -4    4.55    0.30
   3  -3   4    4.66    0.22
  -3  -3  -4    4.07    0.22
   3   3   4    4.67    0.20
  -3   3  -4    4.53    0.24
  -3   3  -4    4.75    0.24
   3   3   4    4.33    0.20
  -4  -3  -4    6.14    0.42
  -4  -3  -4    6.54    0.27
   4  -3   4    6.48    0.28
  -4   3  -4    6.96    0.31
   4   3   4    6.46    0.26
   4   3   4    6.43    0.26
  -4   3  -4    6.11    0.32
  -5  -3  -4    0.43    0.24
   5  -3   4    0.42    0.13
  -5  -3  -4    0.54    0.12
  -5   3  -4    0.67    0.19
  -5   3  -4    0.65    0.15
  -5   3  -4    0.54    0.24
   5   3   4    0.65    0.13
  -6  -3  -4    1.73    0.18
  -6  -3  -4    1.96    0.35
   6  -3   4    1.89    0.22
   6   3   4    1.63    0.19
  -6   3  -4    1.60    0.37
  -6   3  -4    1.79    0.21
   7  -4  -4    0.20    0.13
  -7   4   4   -0.14    0.21
   6  -4  -4    0.31    0.12
  -6   4   4    0.46    0.23
  -6   4   4   -0.07    0.21
  -6   4   4    0.08    0.11
   6   4  -4    0.17    0.08
   5  -4  -4    0.08    0.10
  -5  -4   4   -0.02    0.07
   5   4  -4   -0.05    0.06
  -5   4   4    0.14    0.18
  -5   4   4   -0.15    0.09
  -5   4   4   -0.05    0.15
  -4  -4   4    4.43    0.19
   4  -4  -4    4.22    0.22
   4   4  -4    4.31    0.17
   4   4  -4    4.77    0.18
  -4   4   4    4.70    0.35
  -4   4   4    4.78    0.25
  -3  -4   4   13.14    0.34
   3  -4  -4   12.78    0.32
   3  -4  -4   13.39    0.35
   3  -4  -4   12.64    0.35
  -3  -4   4   13.37    0.33
   3   4  -4   13.10    0.31
  -3   4   4   13.51    0.38
   3   4  -4   13.66    0.31
  -3   4   4   12.76    0.37
   2  -4  -4    0.19    0.08
   2  -4  -4    0.34    0.09
  -2  -4   4    0.34    0.09
  -2  -4   4    0.19    0.08
   2   4  -4    0.26    0.07
   2   4  -4    0.28    0.07
   2   4  -4    0.15    0.06
  -2   4   4    0.28    0.10
  -2   4   4    0.35    0.07
  -1  -4   4   58.51    1.03
   1  -4  -4   59.09    1.04
  -1  -4   4   58.92    0.98
   1  -4  -4   60.34    1.03
   1   4  -4   58.89    1.01
  -1   4   4   59.76    1.05
   1   4  -4   58.60    1.01
  -1   4   4   60.31    1.01
   0  -4  -4    4.48    0.20
   0  -4   4    4.63    0.21
   0  -4  -4    4.43    0.22
   0  -4   4    4.77    0.22
   0   4  -4    5.01    0.22
   0   4  -4    4.68    0.22
   0   4   4    4.46    0.22
   0   4   4    4.48    0.21
   1  -4   4    7.95    0.28
  -1  -4  -4    8.26    0.29
   1  -4   4    8.49    0.29
  -1  -4  -4    8.25    0.25
   1   4   4    8.46    0.28
   1   4   4    7.99    0.27
  -1   4  -4    8.23    0.27
  -1   4  -4    8.03    0.30
   2  -4   4   23.08    0.53
  -2  -4  -4   21.92    0.59
  -2  -4  -4   22.65    0.53
   2  -4   4   22.16    0.52
   2   4   4   22.98    0.50
  -2   4  -4   23.11    0.55
   2   4   4   23.09    0.50
  -3  -4  -4    9.44    0.33
  -3  -4  -4    9.98    0.43
   3  -4   4    9.77    0.34
  -3  -4  -4    9.90    0.32
   3  -4   4    9.57    0.31
   3   4   4    9.89    0.31
  -3   4  -4    9.51    0.35
   3   4   4    9.97    0.32
  -3   4  -4    9.90    0.35
   4  -4   4    0.33    0.12
  -4  -4  -4    0.30    0.12
  -4  -4  -4    0.10    0.17
   4   4   4    0.07    0.10
  -4   4  -4    0.30    0.14
  -4   4  -4    0.13    0.13
   5  -4   4    1.69    0.20
  -5  -4  -4    1.69    0.18
  -5  -4  -4    1.61    0.29
   5   4   4    1.31    0.16
  -5   4  -4    1.37    0.20
  -5   4  -4    1.35    0.23
  -6  -4  -4    0.92    0.31
   6  -4   4    0.43    0.16
  -6  -4  -4    0.54    0.14
  -6   4  -4    0.79    0.18
  -6   4  -4    0.80    0.27
   6   4   4    0.78    0.16
   6  -5  -4    3.99    0.28
  -6   5   4    3.88    0.42
  -6   5   4    3.99    0.27
   6   5  -4    4.45    0.23
  -6   5   4    4.16    0.46
   5  -5  -4    8.82    0.35
  -5  -5   4    8.21    0.28
  -5   5   4    9.33    0.48
  -5   5   4    7.75    0.49
   5   5  -4    9.06    0.30
  -5   5   4    9.04    0.36
  -4  -5   4    2.93    0.19
   4  -5  -4    3.12    0.22
   4   5  -4    2.78    0.18
  -4   5   4    2.57    0.22
  -3  -5   4    6.50    0.25
   3  -5  -4    6.77    0.28
   3  -5  -4    6.41    0.25
  -3  -5   4    6.76    0.27
   3   5  -4    6.38    0.23
   3   5  -4    6.73    0.25
  -3   5   4    7.23    0.30
  -2  -5   4   33.90    0.69
   2  -5  -4   34.55    0.70
   2  -5  -4   33.57    0.69
  -2   5   4   33.86    0.72
   2   5  -4   33.96    0.65
   2   5  -4   32.88    0.67
   2   5  -4   33.61    0.67
   1  -5  -4    4.90    0.24
  -1  -5   4    4.37    0.20
  -1  -5   4    4.59    0.23
   1  -5  -4    4.61    0.23
  -1   5   4    4.36    0.23
  -1   5   4    4.28    0.21
   1   5  -4    4.27    0.22
   1   5  -4    4.53    0.22
  -1   5   4    4.31    0.21
   0  -5   4   11.09    0.36
   0  -5  -4   10.78    0.33
   0  -5   4   11.08    0.33
   0  -5  -4   10.47    0.35
   0   5  -4   11.52    0.34
   0   5   4   11.10    0.34
   0   5   4   10.84    0.35
   0   5  -4   11.01    0.35
   1  -5   4    6.39    0.27
  -1  -5  -4    6.10    0.27
   1  -5   4    5.73    0.26
  -1  -5  -4    6.52    0.24
  -1   5  -4    6.06    0.25
  -1   5  -4    6.19    0.28
   1   5   4    6.69    0.27
   1   5   4    6.39    0.26
  -2  -5  -4    1.21    0.11
   2  -5   4    0.87    0.14
   2  -5   4    1.04    0.15
  -2  -5  -4    0.89    0.14
  -2   5  -4    1.09    0.13
  -2   5  -4    1.08    0.16
   2   5   4    0.83    0.13
   2   5   4    0.97    0.13
   3  -5   4   27.66    0.64
   3  -5   4   29.92    0.68
  -3  -5  -4   27.94    0.65
  -3  -5  -4   28.10    0.79
   3   5   4   28.30    0.63
  -3   5  -4   29.61    0.70
  -4  -5  -4    7.81    0.34
   4  -5   4    8.57    0.37
  -4  -5  -4    7.91    0.48
  -4   5  -4    8.59    0.39
   4   5   4    7.66    0.33
  -4   5  -4    8.49    0.37
   5  -5   4    1.13    0.19
  -5  -5  -4    1.01    0.29
  -5  -5  -4    1.03    0.17
  -5   5  -4    0.94    0.18
   5   5   4    0.73    0.15
  -5   5  -4    0.95    0.21
   5   5   4    1.08    0.17
  -6  -5  -4   -0.07    0.27
   6  -5   4    0.22    0.16
  -6  -5  -4    0.11    0.13
  -6   5  -4    0.10    0.15
  -6   5  -4    0.28    0.25
   6   5   4    0.01    0.13
  -6  -6   4    0.89    0.13
   6  -6  -4    1.20    0.20
  -6   6   4    1.10    0.28
  -6   6   4    0.76    0.17
   6   6  -4    0.96    0.16
  -6   6   4    0.75    0.28
   5  -6  -4    0.75    0.16
  -5  -6   4    0.63    0.13
   5   6  -4    0.73    0.14
  -5   6   4    0.69    0.22
  -5   6   4    0.67    0.16
   4  -6  -4    7.08    0.33
  -4  -6   4    6.61    0.29
  -4   6   4    7.07    0.34
   4   6  -4    6.81    0.29
  -3  -6   4   25.14    0.60
   3  -6  -4   25.20    0.62
   3  -6  -4   25.24    0.59
  -3   6   4   24.91    0.64
   3   6  -4   26.04    0.59
   2  -6  -4   30.93    0.69
   2  -6  -4   30.58    0.69
  -2  -6   4   30.68    0.69
   2   6  -4   31.30    0.65
  -2   6   4   31.70    0.64
  -2   6   4   31.07    0.72
   2   6  -4   30.97    0.67
   1  -6  -4    0.10    0.09
  -1  -6   4    0.01    0.09
   1  -6  -4    0.07    0.09
  -1  -6   4    0.05    0.08
  -1   6   4   -0.02    0.08
  -1   6   4   -0.03    0.09
  -1   6   4    0.02    0.08
   1   6  -4    0.04    0.09
   1   6  -4    0.07    0.09
   0  -6  -4   18.97    0.51
   0  -6   4   18.87    0.51
   0  -6  -4   19.53    0.49
   0  -6   4   19.76    0.49
   0   6  -4   19.17    0.51
   0   6  -4   19.16    0.50
   0   6   4   19.05    0.49
   0   6   4   18.94    0.51
   1  -6   4    6.94    0.31
   1  -6   4    6.83    0.30
  -1  -6  -4    7.28    0.27
  -1  -6  -4    7.03    0.31
  -1   6  -4    6.66    0.31
   1   6   4    7.44    0.31
   1   6   4    7.22    0.30
  -1   6  -4    7.23    0.29
  -2  -6  -4   33.93    0.76
   2  -6   4   32.56    0.74
   2  -6   4   34.31    0.77
  -2  -6  -4   32.51    0.63
  -2   6  -4   32.03    0.76
  -2   6  -4   32.83    0.68
   2   6   4   32.82    0.71
   2   6   4   32.85    0.72
  -3  -6  -4    3.65    0.27
   3  -6   4    3.25    0.24
   3  -6   4    3.62    0.26
  -3   6  -4    3.43    0.27
   3   6   4    3.42    0.25
   4  -6   4    2.16    0.23
  -4  -6  -4    1.95    0.29
  -4  -6  -4    2.44    0.23
  -4   6  -4    2.01    0.24
  -4   6  -4    1.70    0.23
   4   6   4    2.23    0.22
  -5  -6  -4    1.78    0.32
   5  -6   4    1.56    0.22
  -5  -6  -4    1.84    0.22
   5   6   4    1.69    0.22
  -5   6  -4    2.03    0.26
  -5   6  -4    1.84    0.26
  -6  -6  -4    4.16    0.52
   6  -6   4    3.47    0.32
  -6  -6  -4    3.23    0.27
  -6   6  -4    3.20    0.31
  -6   6  -4    3.13    0.46
   6   6   4    3.77    0.30
  -6  -7   4    0.78    0.14
   6  -7  -4    0.80    0.20
  -6   7   4    0.65    0.28
  -6   7   4    0.38    0.24
  -6   7   4    0.65    0.19
   6   7  -4    0.83    0.17
   5  -7  -4    0.18    0.15
  -5  -7   4    0.14    0.11
  -5   7   4   -0.02    0.14
  -5   7   4    0.30    0.20
   5   7  -4    0.14    0.12
  -4  -7   4    4.20    0.28
   4  -7  -4    4.38    0.30
  -4   7   4    4.19    0.30
   4   7  -4    4.51    0.27
  -3  -7   4    4.15    0.28
   3  -7  -4    4.40    0.29
   3   7  -4    3.53    0.24
  -3   7   4    4.14    0.30
   2  -7  -4    1.18    0.18
   2  -7  -4    1.12    0.17
   2  -7  -4    1.17    0.18
  -2  -7   4    1.17    0.13
  -2  -7   4    1.32    0.18
   2   7  -4    1.02    0.15
   2   7  -4    0.94    0.15
  -2   7   4    1.23    0.19
  -2   7   4    1.48    0.16
   1  -7  -4   67.63    1.26
   1  -7  -4   67.27    1.28
  -1  -7   4   68.55    1.28
  -1  -7   4   68.21    1.20
   1   7  -4   67.97    1.25
   1   7  -4   68.27    1.25
  -1   7   4   65.30    1.28
  -1   7   4   68.76    1.24
   0  -7   4   13.94    0.45
   0  -7   4   14.46    0.44
   0  -7  -4   14.02    0.46
   0  -7  -4   14.80    0.44
   0   7   4   13.80    0.46
   0   7  -4   13.96    0.44
   0   7  -4   13.69    0.45
   0   7   4   13.41    0.43
  -1  -7  -4    0.65    0.13
  -1  -7  -4    0.35    0.14
   1  -7   4    0.56    0.15
   1  -7   4    0.53    0.13
  -1   7  -4    0.50    0.12
   1   7   4    0.72    0.14
  -1   7  -4    1.03    0.18
   1   7   4    0.78    0.14
   2  -7   4   11.79    0.44
  -2  -7  -4   12.78    0.45
   2  -7   4   12.13    0.44
   2   7   4   12.16    0.43
   2   7   4   12.88    0.42
  -2   7  -4   12.86    0.47
  -2   7  -4   11.99    0.39
  -3  -7  -4   11.57    0.44
   3  -7   4   12.12    0.46
  -3   7  -4   11.72    0.47
   3   7   4   11.38    0.43
  -4  -7  -4    0.26    0.15
   4  -7   4    0.06    0.14
   4   7   4    0.09    0.13
  -4   7  -4    0.12    0.16
   5  -7   4    0.68    0.19
  -5  -7  -4    0.46    0.17
  -5   7  -4    0.35    0.18
   5   7   4    0.61    0.18
   6  -7   4    1.61    0.26
  -6  -7  -4    1.68    0.23
  -6   7  -4    1.26    0.24
   6   7   4    1.41    0.23
   6  -8  -4    0.37    0.18
  -6  -8   4    0.53    0.15
  -6   8   4    0.30    0.19
   6   8  -4    0.38    0.17
  -6   8   4    0.80    0.28
  -6   8   4    0.50    0.28
  -5  -8   4    0.20    0.14
   5  -8  -4    0.09    0.15
  -5   8   4   -0.20    0.14
   5   8  -4   -0.07    0.12
  -5   8   4   -0.27    0.18
   4  -8  -4    2.43    0.26
  -4  -8   4    2.39    0.24
   4   8  -4    2.27    0.23
  -4   8   4    3.15    0.30
  -3  -8   4    8.75    0.39
   3  -8  -4    8.76    0.41
  -3   8   4    8.76    0.42
   3   8  -4    8.75    0.38
   2  -8  -4    0.19    0.13
   2  -8  -4    0.46    0.15
   2  -8  -4   -0.07    0.12
  -2  -8   4    0.14    0.14
   2   8  -4    0.16    0.12
   2   8  -4   -0.01    0.12
  -2   8   4    0.35    0.11
  -2   8   4    0.13    0.14
   1  -8  -4    0.36    0.14
  -1  -8   4    0.55    0.13
  -1  -8   4    0.53    0.16
   1  -8  -4    0.73    0.17
   1   8  -4    0.61    0.15
  -1   8   4    0.72    0.15
  -1   8   4    0.90    0.18
   1   8  -4    0.31    0.15
   0  -8  -4    2.79    0.24
   0  -8   4    3.27    0.26
   0  -8   4    3.18    0.25
   0  -8  -4    3.51    0.27
   0   8  -4    3.48    0.28
   0   8  -4    3.06    0.26
   0   8   4    3.45    0.28
   0   8   4    3.17    0.25
  -1  -8  -4    4.59    0.31
   1  -8   4    4.45    0.29
  -1  -8  -4    4.39    0.26
   1  -8   4    4.29    0.31
  -1   8  -4    4.42    0.30
   1   8   4    3.95    0.28
   1   8   4    4.19    0.29
  -1   8  -4    4.23    0.28
   2  -8   4   11.20    0.45
   2  -8   4   11.28    0.45
  -2  -8  -4   11.02    0.45
  -2   8  -4   11.37    0.47
  -2   8  -4   10.79    0.40
   2   8   4   11.02    0.42
   2   8   4   11.56    0.44
  -3  -8  -4    2.15    0.25
   3  -8   4    2.68    0.27
   3   8   4    2.35    0.25
  -3   8  -4    2.08    0.26
   4  -8   4    2.08    0.27
  -4  -8  -4    2.75    0.28
  -4   8  -4    2.02    0.27
   4   8   4    1.98    0.25
  -5  -8  -4    0.58    0.19
   5  -8   4    0.75    0.21
   5   8   4    0.51    0.19
  -5   8  -4    0.74    0.21
   6  -8   4    0.91    0.24
  -6  -8  -4    1.22    0.22
   6   8   4    0.53    0.19
  -6   8  -4    0.77    0.23
   6   8   4    1.26    0.26
   6  -9  -4    0.25    0.18
  -6  -9   4    0.12    0.14
  -6   9   4    0.38    0.20
   6   9  -4    0.12    0.17
  -5  -9   4    0.19    0.15
   5  -9  -4    0.35    0.18
  -5   9   4    0.85    0.21
   5   9  -4    0.69    0.19
  -4  -9   4    0.79    0.20
   4  -9  -4    0.78    0.19
  -4   9   4    0.94    0.22
   4   9  -4    0.91    0.19
   3  -9  -4    0.77    0.19
  -3  -9   4    0.73    0.18
   3   9  -4    0.70    0.17
  -3   9   4    0.74    0.21
   2  -9  -4    7.71    0.40
  -2  -9   4    6.55    0.38
   2  -9  -4    7.33    0.39
   2  -9  -4    6.94    0.38
   2   9  -4    7.26    0.37
  -2   9   4    7.34    0.41
   2   9  -4    7.38    0.38
  -1  -9   4    0.12    0.12
   1  -9  -4    0.22    0.16
   1  -9  -4   -0.17    0.13
  -1  -9   4    0.02    0.15
   1   9  -4    0.02    0.14
  -1   9   4    0.30    0.17
   1   9  -4    0.27    0.15
  -1   9   4   -0.07    0.11
   0  -9  -4   33.50    0.86
   0  -9  -4   32.46    0.80
   0  -9   4   34.30    0.81
   0  -9   4   33.20    0.85
   0   9   4   32.70    0.81
   0   9  -4   32.70    0.81
   0   9  -4   32.88    0.83
   0   9   4   33.30    0.84
   1  -9   4    3.75    0.33
  -1  -9  -4    3.55    0.26
  -1  -9  -4    3.53    0.29
   1  -9   4    3.53    0.29
  -1   9  -4    2.73    0.25
  -1   9  -4    2.99    0.28
   1   9   4    3.83    0.29
   1   9   4    2.87    0.28
  -2  -9  -4    0.74    0.20
   2  -9   4    0.49    0.17
   2  -9   4    0.61    0.18
   2   9   4    0.68    0.18
  -2   9  -4    0.81    0.21
   2   9   4    0.49    0.16
   3  -9   4    2.75    0.28
  -3  -9  -4    2.79    0.30
  -3   9  -4    2.67    0.31
   3   9   4    2.73    0.27
  -4  -9  -4   -0.08    0.15
   4  -9   4    0.14    0.17
  -4   9  -4    0.05    0.18
   4   9   4    0.32    0.17
  -5  -9  -4    0.36    0.18
   5  -9   4   -0.23    0.17
  -5   9  -4   -0.24    0.18
   5   9   4    0.07    0.18
   5 -10  -4    0.31    0.19
  -5 -10   4    0.15    0.16
  -5  10   4    0.41    0.21
   5  10  -4    0.21    0.19
  -4 -10   4    2.73    0.29
   4 -10  -4    2.53    0.30
  -4  10   4    2.62    0.33
   4  10  -4    2.95    0.31
  -3 -10   4    1.75    0.25
   3 -10  -4    2.41    0.29
  -3  10   4    2.18    0.29
   3  10  -4    1.50    0.23
  -2 -10   4   -0.03    0.15
   2 -10  -4   -0.01    0.14
   2 -10  -4   -0.25    0.15
   2 -10  -4   -0.06    0.16
   2  10  -4   -0.06    0.13
  -2  10   4   -0.11    0.17
   1 -10  -4    1.94    0.25
   1 -10  -4    2.58    0.29
  -1 -10   4    1.98    0.27
  -1  10   4    1.97    0.23
   1  10  -4    2.56    0.29
   1  10  -4    1.76    0.24
  -1  10   4    1.66    0.25
   0 -10   4    0.09    0.17
   0 -10  -4    0.17    0.15
   0 -10  -4    0.36    0.18
   0 -10   4    0.49    0.18
   0  10  -4    0.04    0.14
   0  10   4    0.38    0.16
   0  10  -4    0.31    0.18
   0  10   4    0.38    0.17
  -1 -10  -4    0.63    0.20
   1 -10   4    0.79    0.20
   1 -10   4    0.65    0.21
  -1 -10  -4    0.73    0.21
  -1  10  -4    0.72    0.17
   1  10   4    0.74    0.18
   1  10   4    0.92    0.21
  -1  10  -4    0.49    0.18
   2 -10   4    0.82    0.22
   2 -10   4    0.35    0.19
  -2 -10  -4    0.62    0.21
  -2  10  -4    0.97    0.21
   2  10   4    0.62    0.18
  -3 -10  -4    0.16    0.17
   3 -10   4    0.11    0.16
  -3  10  -4    0.13    0.17
   3  10   4    0.13    0.16
  -4 -10  -4   -0.01    0.17
   4 -10   4   -0.04    0.17
  -4  10  -4   -0.05    0.19
   4  10   4   -0.12    0.16
   5 -10   4    0.20    0.21
  -5 -10  -4    0.58    0.21
  -5  10  -4    0.02    0.19
   5  10   4    0.78    0.24
   5 -11  -4    1.19    0.28
  -5 -11   4    0.85    0.22
  -5  11   4    0.92    0.25
   5  11  -4    1.29    0.27
  -4 -11   4    0.11    0.17
   4 -11  -4    0.09    0.19
   4  11  -4    0.23    0.19
  -4  11   4    0.02    0.20
   3 -11  -4    1.35    0.26
  -3 -11   4    1.01    0.23
  -3  11   4    1.00    0.25
   3  11  -4    1.11    0.23
  -2 -11   4    0.52    0.20
   2 -11  -4    0.86    0.21
   2 -11  -4    0.79    0.22
  -2  11   4    0.70    0.23
   2  11  -4    0.55    0.18
   1 -11  -4   16.76    0.63
   1 -11  -4   16.42    0.63
   1 -11  -4   16.29    0.60
  -1 -11   4   16.65    0.64
  -1  11   4   16.04    0.63
  -1  11   4   16.04    0.57
   1  11  -4   15.32    0.59
   1  11  -4   15.92    0.60
   0 -11   4   14.64    0.61
   0 -11   4   15.90    0.57
   0 -11  -4   15.69    0.61
   0 -11  -4   14.94    0.56
   0  11  -4   15.28    0.57
   0  11   4   15.51    0.57
   0  11   4   14.55    0.60
   0  11  -4   15.09    0.60
  -1 -11  -4    0.39    0.22
   1 -11   4    0.55    0.19
   1 -11   4    0.48    0.19
   1  11   4    0.50    0.18
   1  11   4    0.59    0.20
  -1  11  -4    0.23    0.16
  -1  11  -4    0.77    0.23
   2 -11   4    1.27    0.24
  -2 -11  -4    0.74    0.23
   2 -11   4    1.11    0.23
  -2  11  -4    0.84    0.24
   2  11   4    1.09    0.23
   3 -11   4    2.02    0.30
  -3 -11  -4    2.44    0.32
   3  11   4    2.20    0.30
  -3  11  -4    1.85    0.31
  -4 -11  -4   10.20    0.55
   4 -11   4    8.33    0.53
   4  11   4    9.87    0.55
  -4  11  -4    8.87    0.55
  -5 -11  -4    0.69    0.24
   5 -11   4    0.65    0.26
   5  11   4    0.83    0.26
  -5  11  -4    0.60    0.27
  -4 -12   4    1.64    0.28
   4 -12  -4    1.84    0.32
  -4  12   4    1.43    0.31
   4  12  -4    0.97    0.26
   3 -12  -4    0.00    0.18
  -3 -12   4    0.14    0.19
   3  12  -4    0.22    0.20
  -3  12   4    0.34    0.22
   2 -12  -4    1.27    0.25
  -2 -12   4    1.75    0.29
  -2  12   4    1.54    0.30
   2  12  -4    1.28    0.24
   1 -12  -4    0.10    0.18
   1 -12  -4   -0.05    0.18
  -1 -12   4    0.41    0.20
   1 -12  -4   -0.29    0.13
   1  12  -4    0.03    0.15
   1  12  -4    0.06    0.18
  -1  12   4   -0.09    0.16
   0 -12   4    1.21    0.27
   0 -12   4    1.15    0.25
   0 -12  -4    1.28    0.23
   0 -12  -4    0.77    0.24
   0  12   4    0.95    0.24
   0  12  -4    0.92    0.20
   0  12  -4    1.23    0.25
   0  12   4    1.25    0.23
   1 -12   4    2.57    0.31
  -1 -12  -4    2.56    0.33
   1 -12   4    1.90    0.29
  -1  12  -4    2.76    0.42
   1  12   4    2.42    0.30
  -1  12  -4    2.67    0.35
   1  12   4    2.17    0.31
   2 -12   4    3.02    0.33
  -2 -12  -4    3.84    0.39
  -2  12  -4    3.44    0.39
   2  12   4    3.15    0.36
   3 -12   4    0.11    0.20
  -3 -12  -4    0.24    0.22
  -3  12  -4    0.40    0.22
   3  12   4   -0.05    0.19
   4 -12   4    0.97    0.28
  -4 -12  -4    0.76    0.25
  -4  12  -4    0.65    0.26
   4  12   4    1.07    0.27
   4 -13  -4    2.17    0.36
  -4 -13   4    2.49    0.34
   4  13  -4    1.89    0.34
  -4  13   4    2.01    0.35
   3 -13  -4    0.91    0.26
  -3 -13   4    1.02    0.27
   3  13  -4    1.10    0.29
  -3  13   4    1.47    0.33
   2 -13  -4    1.12    0.26
  -2 -13   4    0.61    0.25
  -2  13   4    0.98    0.27
   2  13  -4    1.01    0.25
   1 -13  -4    0.00    0.21
  -1 -13   4    0.09    0.20
   1 -13  -4   -0.21    0.15
   1 -13  -4    0.04    0.19
  -1  13   4   -0.25    0.20
   1  13  -4    0.08    0.17
   0 -13  -4    2.01    0.34
   0 -13  -4    2.33    0.35
   0 -13   4    1.91    0.31
   0  13  -4    2.11    0.33
   0  13   4    1.84    0.31
   0  13   4    2.35    0.31
   0  13  -4    1.32    0.25
   1 -13   4    0.08    0.20
  -1 -13  -4   -0.18    0.20
   1 -13   4    0.15    0.18
  -1  13  -4    0.10    0.21
   1  13   4    0.14    0.17
   2 -13   4    0.62    0.24
  -2 -13  -4    1.14    0.28
  -2  13  -4    0.58    0.25
   2  13   4    0.97    0.25
   3 -13   4    2.83    0.36
  -3 -13  -4    4.04    0.43
  -3  13  -4    2.83    0.39
   3  13   4    2.99    0.38
   4 -13   4    0.88    0.28
  -4 -13  -4    1.46    0.31
   4  13   4    1.03    0.31
  -4  13  -4    1.02    0.31
   3 -14  -4    0.20    0.23
  -3 -14   4    0.07    0.21
  -3  14   4    0.26    0.25
   3  14  -4    0.32    0.23
   2 -14  -4    2.45    0.36
  -2 -14   4    2.32    0.34
  -2  14   4    3.10    0.42
   2  14  -4    3.00    0.38
   1 -14  -4    0.09    0.22
  -1 -14   4    0.05    0.21
   1 -14  -4    0.09    0.19
  -1  14   4   -0.01    0.20
   1  14  -4   -0.03    0.18
   0 -14   4    2.36    0.37
   0 -14  -4    2.74    0.38
   0 -14  -4    2.89    0.38
   0  14   4    3.08    0.40
   0  14  -4    2.81    0.38
   0  14   4    2.32    0.33
   0  14  -4    2.99    0.36
  -1 -14  -4    0.50    0.24
   1 -14   4    0.14    0.23
  -1 -14  -4    0.08    0.23
   1  14   4   -0.06    0.18
  -1  14  -4    0.37    0.26
   2 -14   4    0.34    0.22
  -2 -14  -4    0.21    0.23
  -2  14  -4    0.27    0.25
   2  14   4    0.07    0.20
   3 -14   4    0.00    0.21
  -3 -14  -4    0.22    0.25
  -3  14  -4    0.09    0.25
   3  14   4    0.66    0.27
  -2 -15   4    0.20    0.24
   2 -15  -4    0.40    0.25
   2  15  -4    0.27    0.24
  -2  15   4    0.41    0.28
  -1 -15   4    0.77    0.29
   1 -15  -4    0.54    0.30
   1  15  -4    1.35    0.30
  -1  15   4    0.88    0.32
   0 -15   4    0.40    0.25
   0 -15  -4    0.16    0.27
   0 -15  -4    0.48    0.27
   0  15   4    0.64    0.40
  -1 -15  -4   -0.16    0.23
  -1 -15  -4   -0.09    0.21
   1 -15   4    0.11    0.23
  -1  15  -4   -0.28    0.22
   1  15   4    0.40    0.21
   2 -15   4    0.02    0.22
  -2 -15  -4   -0.07    0.23
  -2 -15  -4    0.04    0.22
   2  15   4    0.02    0.23
  -2  15  -4   -0.04    0.24
  -7   0   5    0.20    0.24
  -6   0   5   -0.09    0.17
  -5   0   5   -0.17    0.16
  -5   0   5   -0.04    0.16
  -4   0   5    0.01    0.12
  -4   0   5   -0.01    0.04
  -4   0   5    0.05    0.05
  -4   0   5   -0.20    0.14
  -3   0   5    0.02    0.12
  -3   0   5    0.01    0.04
  -3   0   5   -0.03    0.09
  -3   0   5    0.01    0.05
  -2   0   5    0.09    0.12
  -2   0   5   -0.09    0.07
  -2   0   5   -0.06    0.06
   2   0  -5   -0.04    0.04
  -2   0   5   -0.02    0.05
   2   0  -5   -0.03    0.04
   1   0  -5   -0.08    0.05
  -1   0   5   -0.07    0.06
   1   0  -5    0.00    0.05
  -1   0   5   -0.02    0.06
   1   0  -5   -0.02    0.06
  -1   0   5   -0.01    0.01
  -1   0   5   -0.02    0.08
   0   0  -5    0.12    0.09
   0   0   5    0.03    0.09
   0   0   5    0.05    0.08
   0   0   5    0.02    0.09
   0   0  -5    0.09    0.10
   1   0   5    0.01    0.07
   1   0   5   -0.04    0.07
  -1   0  -5    0.04    0.07
  -1   0  -5   -0.01    0.05
  -2   0  -5    0.03    0.07
   2   0   5    0.05    0.07
   2   0   5   -0.02    0.06
  -2   0  -5    0.04    0.11
   2   0   5    0.01    0.07
  -2   0  -5   -0.03    0.08
   2   0   5    0.00    0.06
  -3   0  -5    0.09    0.07
   3   0   5    0.00    0.06
  -3   0  -5   -0.05    0.12
  -3   0  -5   -0.07    0.08
   3   0   5    0.01    0.07
   4   0   5    0.02    0.08
  -4   0  -5    0.02    0.09
  -4   0  -5    0.09    0.18
  -5   0  -5    0.11    0.21
  -5   0  -5   -0.07    0.09
   5   0   5   -0.04    0.10
   5   0   5    0.07    0.10
   6   0   5    0.11    0.12
  -6   0  -5    0.04    0.11
  -6   0  -5    0.07    0.25
  -7  -1   5    0.11    0.23
  -7   1   5    0.02    0.22
   6  -1  -5    0.54    0.08
  -6  -1   5    0.54    0.23
  -6   1   5    1.00    0.25
  -5  -1   5    0.27    0.19
  -5   1   5    0.00    0.19
  -5   1   5    0.18    0.17
  -5   1   5    0.28    0.06
  -4  -1   5   11.47    0.44
  -4  -1   5   11.01    0.22
  -4  -1   5   11.24    0.48
  -4   1   5   11.86    0.50
  -4   1   5   11.07    0.26
  -4   1   5   11.30    0.42
  -4   1   5   10.46    0.25
  -3  -1   5    2.08    0.10
  -3  -1   5    1.86    0.18
   3  -1  -5    1.90    0.08
  -3  -1   5    1.84    0.22
  -3  -1   5    1.95    0.10
   3  -1  -5    1.75    0.08
   3   1  -5    1.85    0.10
  -3   1   5    1.92    0.12
  -3   1   5    1.61    0.20
  -3   1   5    1.83    0.11
  -3   1   5    2.15    0.19
  -2  -1   5   23.34    0.56
   2  -1  -5   22.41    0.40
  -2  -1   5   22.61    0.43
  -2  -1   5   22.72    0.42
   2  -1  -5   22.89    0.40
   2  -1  -5   22.91    0.41
  -2  -1   5   23.36    0.49
  -2   1   5   22.57    0.55
  -2   1   5   22.43    0.46
   2   1  -5   22.64    0.38
   2   1  -5   23.38    0.39
  -2   1   5   23.19    0.44
  -1  -1   5  330.76    4.84
   1  -1  -5  339.32    4.86
   1  -1  -5  333.55    4.91
  -1  -1   5  332.07    4.90
  -1  -1   5  336.07    4.86
  -1  -1   5  334.73    4.86
   1  -1  -5  334.78    4.85
  -1   1   5  339.56    4.87
   1   1  -5  332.57    4.84
  -1   1   5  339.85    4.78
   1   1  -5  343.42    4.90
   1   1  -5  343.40    4.90
  -1   1   5  338.03    4.87
   1   1  -5  339.88    4.85
   0  -1  -5    1.64    0.13
   0  -1  -5    1.34    0.12
   0  -1   5    1.67    0.14
   0  -1  -5    1.64    0.10
   0   1  -5    1.63    0.13
   0   1   5    1.81    0.14
   0   1  -5    1.62    0.10
   0   1   5    1.49    0.12
   0   1   5    1.15    0.11
   0   1  -5    1.38    0.13
  -1  -1  -5   75.46    1.22
   1  -1   5   77.74    1.23
   1  -1   5   75.47    1.21
  -1  -1  -5   74.24    1.24
  -1  -1  -5   76.33    1.18
  -1   1  -5   74.05    1.22
   1   1   5   74.52    1.21
   1   1   5   75.83    1.21
  -1   1  -5   76.58    1.19
   1   1   5   73.09    1.22
   2  -1   5   25.74    0.53
  -2  -1  -5   24.81    0.61
   2  -1   5   25.11    0.51
  -2  -1  -5   26.65    0.54
  -2  -1  -5   26.55    0.53
   2  -1   5   25.41    0.52
   2   1   5   26.13    0.52
  -2   1  -5   26.77    0.55
   2   1   5   26.19    0.54
   2   1   5   25.70    0.51
   2   1   5   25.83    0.51
   2   1   5   25.89    0.51
  -3  -1  -5    5.77    0.23
   3  -1   5    6.19    0.24
   3  -1   5    6.03    0.22
  -3  -1  -5    6.10    0.25
  -3  -1  -5    5.97    0.34
   3  -1   5    6.37    0.21
   3   1   5    6.11    0.22
  -3   1  -5    6.43    0.25
  -3   1  -5    6.04    0.24
   3   1   5    5.87    0.22
   3   1   5    6.33    0.25
  -4  -1  -5    0.11    0.09
   4  -1   5    0.24    0.10
  -4  -1  -5   -0.07    0.14
  -4   1  -5    0.08    0.17
   4   1   5    0.14    0.10
  -4   1  -5    0.05    0.10
   4   1   5    0.10    0.08
  -5  -1  -5    0.18    0.11
   5  -1   5    0.18    0.11
  -5  -1  -5    0.21    0.20
   5   1   5    0.08    0.11
  -5   1  -5    0.08    0.11
   5   1   5    0.07    0.10
  -5   1  -5   -0.09    0.21
  -6  -1  -5    0.24    0.27
   6  -1   5    0.07    0.12
  -6  -1  -5   -0.02    0.11
  -6   1  -5    0.12    0.12
  -6   1  -5    0.13    0.24
   6   1   5    0.18    0.11
   7  -2  -5    0.07    0.09
  -7  -2   5   -0.11    0.23
  -7   2   5    0.49    0.24
  -6  -2   5    4.23    0.43
   6  -2  -5    4.50    0.20
  -6   2   5    5.24    0.44
  -6   2   5    4.57    0.46
  -5  -2   5   13.32    0.56
   5  -2  -5   13.05    0.31
  -5   2   5   14.42    0.61
  -5   2   5   13.53    0.33
  -5   2   5   13.38    0.54
  -4  -2   5   10.28    0.23
   4  -2  -5   10.40    0.25
  -4  -2   5   10.50    0.23
   4  -2  -5   10.64    0.25
  -4  -2   5   10.25    0.44
  -4   2   5   10.51    0.29
  -4   2   5   10.30    0.41
  -4   2   5   10.39    0.28
  -4   2   5   10.49    0.48
   3  -2  -5    4.57    0.16
   3  -2  -5    4.37    0.15
  -3  -2   5    4.05    0.15
  -3  -2   5    4.16    0.15
  -3  -2   5    4.69    0.26
   3   2  -5    4.42    0.11
  -3   2   5    4.54    0.18
  -3   2   5    4.37    0.18
   3   2  -5    4.41    0.10
  -3   2   5    4.89    0.24
  -3   2   5    4.49    0.28
   2  -2  -5    0.38    0.07
  -2  -2   5    0.44    0.08
   2  -2  -5    0.35    0.07
   2  -2  -5    0.25    0.07
  -2   2   5    0.35    0.08
   2   2  -5    0.43    0.06
   2   2  -5    0.48    0.06
  -2   2   5    0.45    0.09
   2   2  -5    0.33    0.06
   1  -2  -5    4.08    0.17
   1  -2  -5    3.98    0.17
  -1  -2   5    4.35    0.18
   1   2  -5    4.00    0.17
  -1   2   5    4.07    0.18
   1   2  -5    3.97    0.19
   1   2  -5    3.93    0.16
   1   2  -5    4.26    0.16
  -1   2   5    4.05    0.16
   0  -2  -5   73.19    1.17
   0  -2   5   73.06    1.17
   0  -2   5   71.87    1.18
   0  -2  -5   73.23    1.18
   0   2   5   71.64    1.18
   0   2  -5   72.44    1.16
   0   2  -5   72.24    1.18
   0   2   5   73.32    1.17
  -1  -2  -5   58.52    0.95
  -1  -2  -5   57.08    1.00
  -1  -2  -5   56.47    0.98
   1  -2   5   57.15    0.99
   1  -2   5   58.76    0.98
  -1   2  -5   58.51    0.96
   1   2   5   56.45    0.98
   1   2   5   56.53    0.97
   1   2   5   57.91    0.97
  -1   2  -5   57.85    0.99
  -2  -2  -5   52.25    0.91
   2  -2   5   49.70    0.90
  -2  -2  -5   50.49    1.00
   2  -2   5   50.02    0.90
   2   2   5   50.99    0.90
   2   2   5   49.77    0.88
  -2   2  -5   51.29    0.83
   2   2   5   50.54    0.88
  -2   2  -5   50.95    0.92
  -2   2  -5   51.31    0.85
   2   2   5   51.04    0.88
   3  -2   5    4.83    0.21
  -3  -2  -5    4.77    0.31
  -3  -2  -5    4.82    0.22
   3  -2   5    4.71    0.20
   3  -2   5    4.77    0.22
  -3  -2  -5    4.77    0.23
  -3   2  -5    4.66    0.23
  -3   2  -5    5.05    0.23
   3   2   5    5.27    0.21
   3   2   5    4.91    0.23
   3   2   5    4.68    0.21
  -3   2  -5    4.83    0.23
  -4  -2  -5    0.81    0.13
  -4  -2  -5    0.49    0.20
   4  -2   5    0.71    0.13
   4   2   5    1.10    0.15
  -4   2  -5    0.93    0.22
  -4   2  -5    0.71    0.14
   4   2   5    0.92    0.13
   5  -2   5    2.59    0.22
  -5  -2  -5    2.32    0.35
  -5  -2  -5    2.76    0.22
   5   2   5    2.65    0.21
   5   2   5    2.06    0.20
  -5   2  -5    2.56    0.33
  -5   2  -5    2.65    0.23
   6  -2   5    2.61    0.25
  -6  -2  -5    2.93    0.23
  -6  -2  -5    2.51    0.41
  -6   2  -5    2.75    0.24
   6   2   5    2.91    0.24
  -6   2  -5    2.41    0.40
   7  -3  -5    1.31    0.16
  -7   3   5    1.17    0.31
  -6  -3   5    7.13    0.51
   6  -3  -5    6.74    0.27
  -6   3   5    7.19    0.25
  -6   3   5    7.06    0.46
  -6   3   5    7.03    0.52
   5  -3  -5    1.53    0.14
  -5  -3   5    1.70    0.28
   5   3  -5    1.36    0.09
  -5   3   5    1.72    0.26
  -5   3   5    1.31    0.26
  -5   3   5    1.56    0.15
   4  -3  -5    0.02    0.07
   4  -3  -5   -0.05    0.07
  -4  -3   5    0.02    0.15
  -4  -3   5   -0.05    0.06
  -4  -3   5    0.02    0.06
   4  -3  -5    0.03    0.07
   4   3  -5   -0.05    0.05
  -4   3   5    0.16    0.13
  -4   3   5    0.08    0.15
   4   3  -5   -0.04    0.04
  -4   3   5    0.04    0.08
  -3  -3   5   24.53    0.47
   3  -3  -5   23.04    0.48
   3  -3  -5   23.69    0.48
  -3  -3   5   23.92    0.47
   3   3  -5   24.02    0.44
  -3   3   5   23.03    0.51
   3   3  -5   23.85    0.43
  -2  -3   5    3.77    0.17
   2  -3  -5    3.78    0.18
   2  -3  -5    3.61    0.17
  -2  -3   5    3.66    0.13
  -2  -3   5    3.78    0.18
   2  -3  -5    3.96    0.17
  -2   3   5    3.71    0.21
  -2   3   5    3.77    0.19
   2   3  -5    3.84    0.15
   2   3  -5    3.83    0.16
   2   3  -5    3.80    0.15
  -1  -3   5    0.26    0.07
  -1  -3   5    0.19    0.08
   1  -3  -5    0.13    0.08
   1  -3  -5    0.21    0.09
   1   3  -5    0.16    0.07
  -1   3   5    0.18    0.09
  -1   3   5    0.24    0.07
   1   3  -5    0.18    0.08
   0  -3  -5  134.81    2.05
   0  -3  -5  133.05    2.07
   0  -3   5  134.58    2.05
   0  -3   5  133.96    2.07
   0   3   5  133.38    2.07
   0   3  -5  131.33    2.04
   0   3  -5  131.04    2.06
   0   3   5  134.08    2.05
  -1  -3  -5    0.45    0.11
   1  -3   5    0.51    0.10
   1  -3   5    0.42    0.10
  -1  -3  -5    0.43    0.10
  -1  -3  -5    0.47    0.09
   1   3   5    0.63    0.11
   1   3   5    0.56    0.11
  -1   3  -5    0.36    0.09
  -1   3  -5    0.57    0.11
   1   3   5    0.52    0.10
  -2  -3  -5   60.38    1.05
   2  -3   5   59.39    1.04
   2  -3   5   59.11    1.04
  -2  -3  -5   58.48    1.13
  -2   3  -5   59.72    1.07
   2   3   5   59.24    1.02
   2   3   5   57.13    1.02
   2   3   5   58.60    1.01
   3  -3   5   89.96    1.45
  -3  -3  -5   86.37    1.66
   3  -3   5   85.92    1.48
   3  -3   5   89.02    1.76
  -3  -3  -5   87.06    1.47
  -3  -3  -5   90.07    1.49
   3   3   5   85.72    1.45
  -3   3  -5   88.63    1.48
   3   3   5   85.98    1.45
   3   3   5   91.70    1.58
   3   3   5   89.73    1.45
  -3   3  -5   88.32    1.51
  -4  -3  -5    3.48    0.34
   4  -3   5    4.60    0.26
  -4  -3  -5    4.44    0.25
  -4   3  -5    3.85    0.26
  -4   3  -5    4.13    0.27
   4   3   5    4.32    0.23
  -5  -3  -5    0.42    0.12
   5  -3   5   -0.01    0.11
  -5  -3  -5    0.00    0.18
  -5   3  -5   -0.11    0.17
  -5   3  -5    0.06    0.13
   5   3   5    0.10    0.11
  -6  -3  -5    1.26    0.17
  -6  -3  -5    0.99    0.33
   6  -3   5    1.38    0.21
   6   3   5    1.26    0.18
  -6   3  -5    1.38    0.20
  -6   3  -5    1.35    0.32
   7  -4  -5   -0.09    0.11
  -7   4   5   -0.04    0.23
   6  -4  -5    4.64    0.26
   6   4  -5    4.40    0.19
  -6   4   5    4.57    0.44
  -6   4   5    4.41    0.45
  -6   4   5    4.67    0.25
   5  -4  -5   23.76    0.55
  -5  -4   5   23.44    0.47
  -5   4   5   23.31    0.73
  -5   4   5   23.01    0.56
  -5   4   5   25.32    0.84
   5   4  -5   23.18    0.47
  -4  -4   5   30.05    0.59
   4  -4  -5   29.11    0.62
  -4   4   5   31.76    0.87
   4   4  -5   29.40    0.56
  -4   4   5   28.82    0.64
   4   4  -5   29.83    0.56
  -3  -4   5    0.83    0.11
   3  -4  -5    0.90    0.12
   3  -4  -5    0.94    0.12
   3  -4  -5    0.96    0.11
   3   4  -5    1.08    0.11
  -3   4   5    1.23    0.15
  -3   4   5    0.96    0.13
   3   4  -5    0.73    0.09
   2  -4  -5    6.29    0.24
   2  -4  -5    6.33    0.24
  -2  -4   5    6.75    0.25
  -2  -4   5    6.36    0.24
  -2   4   5    6.41    0.20
   2   4  -5    6.43    0.22
   2   4  -5    6.10    0.22
   2   4  -5    5.88    0.21
  -2   4   5    6.59    0.27
  -1  -4   5    0.39    0.10
   1  -4  -5    0.38    0.11
  -1  -4   5    0.48    0.09
   1  -4  -5    0.34    0.10
  -1   4   5    0.30    0.11
  -1   4   5    0.33    0.09
   1   4  -5    0.48    0.10
   1   4  -5    0.53    0.10
   0  -4   5   42.10    0.82
   0  -4  -5   42.89    0.80
   0  -4   5   43.57    0.80
   0  -4  -5   41.77    0.81
   0   4   5   42.33    0.80
   0   4  -5   43.71    0.82
   0   4   5   44.04    0.81
   0   4  -5   43.22    0.80
   0   4   5   42.59    0.82
   1  -4   5   10.97    0.35
  -1  -4  -5   10.38    0.30
  -1  -4  -5   10.29    0.33
   1  -4   5   10.99    0.34
  -1   4  -5   11.04    0.32
  -1   4  -5   10.66    0.35
   1   4   5   10.82    0.33
   1   4   5   10.81    0.33
   2  -4   5    7.03    0.28
  -2  -4  -5    6.53    0.27
  -2  -4  -5    6.25    0.31
  -2  -4  -5    6.47    0.22
   2  -4   5    6.40    0.27
  -2   4  -5    6.30    0.28
   2   4   5    6.68    0.26
  -2   4  -5    6.66    0.23
   2   4   5    6.08    0.25
  -3  -4  -5    1.04    0.15
  -3  -4  -5    1.31    0.22
   3  -4   5    0.99    0.14
   3  -4   5    0.72    0.14
   3   4   5    1.29    0.13
   3   4   5    0.96    0.14
  -3   4  -5    0.83    0.14
  -3   4  -5    1.08    0.16
  -4  -4  -5    0.03    0.18
  -4  -4  -5    0.09    0.11
   4  -4   5    0.06    0.11
  -4   4  -5    0.00    0.11
  -4   4  -5    0.24    0.14
   4   4   5   -0.06    0.10
   4   4   5    0.07    0.10
  -5  -4  -5    4.73    0.46
  -5  -4  -5    5.01    0.28
   5  -4   5    4.40    0.31
   5   4   5    4.53    0.28
  -5   4  -5    4.44    0.31
  -5   4  -5    5.14    0.34
  -6  -4  -5    2.02    0.21
  -6  -4  -5    1.50    0.35
   6  -4   5    1.90    0.24
  -6   4  -5    2.24    0.41
   6   4   5    1.79    0.22
  -6   4  -5    1.81    0.24
   6  -5  -5    0.85    0.16
  -6   5   5    0.89    0.28
   6   5  -5    0.94    0.14
  -6   5   5    0.75    0.25
  -6   5   5    0.66    0.16
   5  -5  -5    0.60    0.15
  -5  -5   5    0.53    0.12
  -5   5   5    0.72    0.20
  -5   5   5    0.63    0.15
  -5   5   5    0.65    0.22
   5   5  -5    0.44    0.11
   4  -5  -5    4.76    0.26
  -4  -5   5    5.35    0.25
   4   5  -5    4.83    0.22
  -4   5   5    5.20    0.28
  -3  -5   5    1.06    0.14
  -3  -5   5    1.10    0.14
   3  -5  -5    0.90    0.14
   3  -5  -5    1.15    0.13
   3   5  -5    0.88    0.12
   3   5  -5    1.18    0.12
  -3   5   5    0.92    0.16
  -2  -5   5    0.33    0.10
   2  -5  -5    0.26    0.10
   2  -5  -5    0.15    0.10
   2   5  -5    0.17    0.08
   2   5  -5    0.17    0.09
  -2   5   5    0.33    0.12
  -1  -5   5    8.75    0.28
   1  -5  -5    8.69    0.32
  -1  -5   5    9.46    0.33
   1  -5  -5    9.58    0.32
  -1   5   5    9.43    0.30
   1   5  -5    8.34    0.30
  -1   5   5    8.67    0.32
   1   5  -5    8.93    0.31
   0  -5   5    0.84    0.13
   0  -5  -5    0.95    0.13
   0  -5   5    0.53    0.12
   0  -5  -5    0.83    0.14
   0   5   5    0.91    0.14
   0   5  -5    0.96    0.14
   0   5   5    0.90    0.13
   0   5  -5    0.80    0.12
   0   5   5    0.70    0.12
   1  -5   5   10.48    0.36
  -1  -5  -5    9.38    0.34
  -1  -5  -5    9.81    0.31
   1  -5   5   10.31    0.34
  -1   5  -5   10.22    0.33
  -1   5  -5    9.84    0.36
   1   5   5    9.49    0.33
   1   5   5   10.01    0.34
  -2  -5  -5    8.08    0.32
   2  -5   5    7.95    0.31
  -2  -5  -5    7.13    0.23
  -2  -5  -5    7.57    0.36
   2  -5   5    7.34    0.31
   2   5   5    7.19    0.28
  -2   5  -5    7.57    0.27
  -2   5  -5    7.10    0.32
   2   5   5    7.18    0.29
  -3  -5  -5   41.92    0.88
  -3  -5  -5   40.43    1.01
   3  -5   5   42.20    0.89
   3  -5   5   41.84    0.86
  -3   5  -5   43.06    0.92
   3   5   5   43.62    0.87
  -4  -5  -5    0.19    0.20
   4  -5   5    0.08    0.13
  -4  -5  -5    0.02    0.12
  -4   5  -5    0.05    0.12
   4   5   5    0.22    0.12
   4   5   5    0.12    0.11
  -4   5  -5    0.36    0.15
  -5  -5  -5    0.44    0.24
   5  -5   5    0.94    0.19
  -5  -5  -5    0.32    0.14
  -5   5  -5    0.66    0.17
   5   5   5    0.45    0.14
  -6  -5  -5   -0.06    0.12
   6  -5   5   -0.01    0.15
  -6  -5  -5    0.17    0.29
   6   5   5   -0.01    0.13
  -6   5  -5   -0.04    0.25
  -6   5  -5    0.18    0.16
   6  -6  -5    0.12    0.14
  -6  -6   5    0.10    0.10
  -6   6   5    0.00    0.14
  -6   6   5   -0.03    0.21
   6   6  -5    0.29    0.13
  -6   6   5    0.17    0.20
  -5  -6   5    0.15    0.11
   5  -6  -5    0.14    0.13
  -5   6   5   -0.06    0.18
  -5   6   5    0.31    0.14
   5   6  -5    0.23    0.11
  -4  -6   5    2.87    0.22
   4  -6  -5    2.85    0.24
  -4   6   5    2.69    0.25
   4   6  -5    2.63    0.21
  -3  -6   5    2.24    0.20
   3  -6  -5    2.70    0.22
   3  -6  -5    2.55    0.22
   3   6  -5    2.78    0.21
  -3   6   5    2.14    0.22
   2  -6  -5    4.55    0.25
   2  -6  -5    4.59    0.26
  -2  -6   5    4.46    0.26
   2   6  -5    4.86    0.25
  -2   6   5    4.28    0.27
   2   6  -5    4.57    0.23
  -2   6   5    4.48    0.21
   1  -6  -5    0.99    0.14
  -1  -6   5    1.29    0.17
   1  -6  -5    0.90    0.15
  -1  -6   5    1.55    0.15
  -1   6   5    1.11    0.15
   1   6  -5    1.16    0.15
   1   6  -5    1.29    0.16
  -1   6   5    1.15    0.16
   0  -6   5   14.98    0.46
   0  -6  -5   15.99    0.48
   0  -6  -5   15.49    0.44
   0  -6   5   15.86    0.44
   0   6  -5   16.39    0.47
   0   6   5   15.33    0.44
   0   6   5   16.22    0.47
   0   6  -5   16.27    0.45
  -1  -6  -5    8.14    0.29
  -1  -6  -5    8.80    0.35
   1  -6   5    8.02    0.32
   1  -6   5    7.90    0.33
  -1   6  -5    7.54    0.34
   1   6   5    8.59    0.33
  -1   6  -5    8.34    0.32
   1   6   5    7.94    0.32
  -2  -6  -5    4.18    0.27
   2  -6   5    4.03    0.26
   2  -6   5    4.21    0.26
  -2   6  -5    4.12    0.23
   2   6   5    4.68    0.27
   2   6   5    4.19    0.24
  -2   6  -5    4.07    0.28
   3  -6   5   18.13    0.61
   3  -6   5   17.13    0.53
  -3  -6  -5   16.69    0.52
  -3   6  -5   16.91    0.54
   3   6   5   16.39    0.50
  -4  -6  -5    3.79    0.38
   4  -6   5    3.53    0.30
  -4  -6  -5    3.24    0.27
   4   6   5    3.31    0.27
  -4   6  -5    2.60    0.27
  -4   6  -5    3.34    0.29
  -5  -6  -5    2.29    0.24
   5  -6   5    2.36    0.27
  -5  -6  -5    3.14    0.43
   5   6   5    2.48    0.25
   5   6   5    2.30    0.25
  -5   6  -5    2.08    0.26
  -6  -6  -5    0.67    0.32
   6  -6   5    0.44    0.18
  -6  -6  -5    0.25    0.15
   6   6   5    0.18    0.15
  -6   6  -5    0.35    0.18
  -6   6  -5    0.20    0.28
   6  -7  -5    0.00    0.15
  -6  -7   5    0.04    0.11
   6   7  -5    0.24    0.14
  -6   7   5    0.06    0.16
  -6   7   5   -0.07    0.21
  -6   7   5    0.02    0.21
   5  -7  -5    9.52    0.43
  -5  -7   5   10.68    0.39
  -5   7   5    9.73    0.58
   5   7  -5    9.61    0.38
  -5   7   5   11.00    0.46
   4  -7  -5    0.52    0.15
  -4  -7   5    0.20    0.13
  -4   7   5    0.15    0.14
   4   7  -5    0.24    0.13
  -3  -7   5    6.42    0.32
   3  -7  -5    6.59    0.34
   3   7  -5    6.15    0.31
  -3   7   5    6.63    0.35
  -2  -7   5   28.30    0.69
   2  -7  -5   28.59    0.70
   2  -7  -5   27.37    0.69
  -2   7   5   28.30    0.63
   2   7  -5   28.54    0.66
  -2   7   5   29.75    0.74
   2   7  -5   28.09    0.68
   1  -7  -5    1.23    0.18
   1  -7  -5    1.80    0.20
  -1  -7   5    1.91    0.21
  -1  -7   5    2.05    0.18
  -1   7   5    1.72    0.21
   1   7  -5    1.72    0.19
   1   7  -5    1.55    0.19
  -1   7   5    1.79    0.18
  -1   7   5    1.66    0.18
   0  -7  -5    0.66    0.16
   0  -7  -5    0.43    0.12
   0  -7   5    0.40    0.14
   0  -7   5    0.78    0.14
   0   7  -5    0.64    0.14
   0   7   5    0.50    0.15
   0   7   5    1.05    0.17
   0   7  -5    0.42    0.13
  -1  -7  -5    9.03    0.34
  -1  -7  -5    9.64    0.40
   1  -7   5   10.23    0.40
   1  -7   5    9.16    0.37
  -1   7  -5    9.56    0.40
   1   7   5   10.92    0.40
  -1   7  -5    9.51    0.36
   1   7   5    8.69    0.36
   2  -7   5    6.91    0.35
  -2  -7  -5    6.99    0.35
   2  -7   5    6.37    0.34
   2   7   5    6.77    0.32
   2   7   5    7.31    0.34
  -2   7  -5    6.48    0.34
  -2   7  -5    7.29    0.31
   3  -7   5    0.35    0.15
  -3  -7  -5    0.09    0.14
  -3   7  -5    0.02    0.15
   3   7   5    0.02    0.13
   4  -7   5    0.49    0.17
  -4  -7  -5    0.31    0.15
  -4   7  -5    0.21    0.18
  -4   7  -5    0.32    0.16
   4   7   5    0.35    0.16
  -5  -7  -5    4.02    0.32
   5  -7   5    4.46    0.36
  -5   7  -5    4.32    0.36
   5   7   5    4.58    0.36
   5   7   5    4.06    0.32
   6  -7   5    0.96    0.24
  -6  -7  -5    0.64    0.18
   6   7   5    0.51    0.19
  -6   7  -5    0.60    0.21
   6  -8  -5    1.43    0.25
  -6  -8   5    1.50    0.20
  -6   8   5    1.53    0.26
  -6   8   5    2.19    0.55
  -6   8   5    1.81    0.36
   6   8  -5    1.79    0.24
   5  -8  -5    3.13    0.31
  -5  -8   5    2.73    0.26
   5   8  -5    3.05    0.27
  -5   8   5    3.57    0.43
  -5   8   5    3.47    0.32
  -4  -8   5    1.28    0.19
   4  -8  -5    1.78    0.23
   4   8  -5    1.72    0.21
  -4   8   5    1.05    0.21
   3  -8  -5    8.92    0.42
  -3  -8   5    9.51    0.41
  -3   8   5    9.65    0.44
   3   8  -5    9.02    0.39
   2  -8  -5    2.18    0.24
  -2  -8   5    2.09    0.24
   2  -8  -5    1.73    0.22
   2   8  -5    2.12    0.22
  -2   8   5    1.57    0.19
  -2   8   5    1.88    0.25
   2   8  -5    1.70    0.20
  -1  -8   5    3.16    0.23
   1  -8  -5    3.70    0.29
  -1  -8   5    3.06    0.28
   1  -8  -5    3.53    0.27
   1   8  -5    3.53    0.27
  -1   8   5    2.68    0.26
  -1   8   5    3.84    0.27
   1   8  -5    3.60    0.27
  -1   8   5    3.28    0.25
   0  -8  -5   19.54    0.60
   0  -8   5   20.99    0.62
   0  -8   5   19.28    0.56
   0  -8  -5   19.24    0.55
   0   8  -5   19.20    0.57
   0   8   5   18.80    0.56
   0   8   5   20.52    0.60
   0   8  -5   20.41    0.60
  -1  -8  -5    3.65    0.25
   1  -8   5    2.92    0.28
   1  -8   5    3.10    0.26
  -1  -8  -5    2.72    0.26
  -1   8  -5    3.27    0.26
   1   8   5    3.33    0.26
  -1   8  -5    3.51    0.28
   1   8   5    3.19    0.27
   2  -8   5    1.32    0.20
  -2  -8  -5    1.40    0.22
   2  -8   5    1.48    0.22
   2   8   5    1.12    0.18
  -2   8  -5    1.22    0.21
   2   8   5    0.99    0.17
  -2   8  -5    1.54    0.19
   3  -8   5    0.08    0.15
  -3  -8  -5    0.33    0.16
  -3   8  -5    0.28    0.16
   3   8   5    0.14    0.14
   4  -8   5    4.12    0.35
  -4  -8  -5    4.36    0.34
  -4   8  -5    4.60    0.37
   4   8   5    4.29    0.34
  -5  -8  -5    0.34    0.18
   5  -8   5    0.21    0.18
  -5   8  -5    0.12    0.19
   5   8   5    0.37    0.17
   5   8   5    0.33    0.18
  -6  -9   5    2.55    0.26
   6  -9  -5    2.41    0.31
  -6   9   5    2.60    0.32
   6   9  -5    2.80    0.31
  -5  -9   5    1.00    0.21
   5  -9  -5    1.51    0.25
  -5   9   5    1.32    0.25
   5   9  -5    1.22    0.22
   4  -9  -5    0.47    0.18
  -4  -9   5    0.27    0.16
  -4   9   5    0.16    0.17
   4   9  -5    0.25    0.16
   3  -9  -5    1.09    0.22
  -3  -9   5    1.05    0.21
  -3   9   5    0.94    0.21
   3   9  -5    1.11    0.19
   2  -9  -5    0.35    0.16
   2  -9  -5    0.08    0.15
   2  -9  -5    0.20    0.15
  -2  -9   5    0.45    0.17
   2   9  -5    0.40    0.15
   2   9  -5    0.37    0.18
  -2   9   5    0.14    0.15
   1  -9  -5   33.84    0.86
   1  -9  -5   34.59    0.83
  -1  -9   5   32.95    0.77
  -1  -9   5   32.95    0.85
   1   9  -5   33.26    0.82
  -1   9   5   33.35    0.81
   1   9  -5   32.46    0.83
  -1   9   5   32.68    0.85
  -1   9   5   32.62    0.80
   0  -9   5    7.77    0.40
   0  -9  -5    7.82    0.40
   0  -9   5    7.93    0.38
   0  -9  -5    7.26    0.37
   0   9   5    7.82    0.41
   0   9  -5    7.39    0.38
   0   9   5    7.71    0.38
   0   9  -5    7.56    0.40
   1  -9   5    3.48    0.29
   1  -9   5    4.54    0.34
  -1  -9  -5    4.06    0.28
  -1  -9  -5    3.31    0.31
  -1   9  -5    4.31    0.34
  -1   9  -5    4.05    0.29
   1   9   5    3.49    0.30
   1   9   5    3.74    0.30
   2  -9   5   32.15    0.84
  -2  -9  -5   32.15    0.85
   2  -9   5   32.23    0.84
   2   9   5   31.24    0.82
  -2   9  -5   29.88    0.85
   2   9   5   31.71    0.82
   3  -9   5    3.53    0.34
  -3  -9  -5    2.34    0.29
  -3   9  -5    2.26    0.29
   3   9   5    2.57    0.29
   4  -9   5    3.36    0.35
  -4  -9  -5    3.21    0.32
   4   9   5    3.36    0.33
  -4   9  -5    3.34    0.36
  -5  -9  -5    1.40    0.24
   5  -9   5    0.77    0.24
   5   9   5    1.23    0.24
   5   9   5    1.31    0.26
  -5   9  -5    1.12    0.26
   5 -10  -5    4.35    0.41
  -5 -10   5    4.23    0.36
   5  10  -5    4.30    0.37
  -5  10   5    3.70    0.37
  -4 -10   5    0.47    0.18
   4 -10  -5    0.72    0.22
   4  10  -5    0.69    0.20
  -4  10   5    0.94    0.24
  -3 -10   5    0.57    0.19
   3 -10  -5    0.70    0.20
   3  10  -5    1.10    0.21
  -3  10   5    0.64    0.21
   2 -10  -5    3.40    0.33
   2 -10  -5    3.52    0.34
  -2 -10   5    2.70    0.31
   2 -10  -5    2.48    0.28
   2  10  -5    3.18    0.31
  -2  10   5    3.13    0.34
   1 -10  -5    1.23    0.21
  -1 -10   5    0.74    0.20
   1 -10  -5    1.02    0.20
  -1  10   5    1.04    0.19
  -1  10   5    0.71    0.20
   1  10  -5    1.40    0.23
  -1  10   5    0.93    0.19
   1  10  -5    0.55    0.18
   0 -10  -5    2.49    0.30
   0 -10   5    2.55    0.26
   0 -10  -5    2.33    0.25
   0 -10   5    2.16    0.28
   0  10   5    3.06    0.30
   0  10  -5    2.18    0.25
   0  10  -5    2.75    0.29
   0  10   5    2.20    0.25
   1 -10   5    2.78    0.30
   1 -10   5    3.01    0.30
  -1 -10  -5    2.55    0.30
  -1  10  -5    2.42    0.29
   1  10   5    2.96    0.29
   1  10   5    3.08    0.31
  -1  10  -5    3.03    0.28
  -2 -10  -5    7.71    0.46
   2 -10   5    9.13    0.46
   2 -10   5    9.37    0.47
  -2  10  -5    9.11    0.49
   2  10   5   10.13    0.47
  -3 -10  -5    0.23    0.18
   3 -10   5    0.19    0.18
  -3  10  -5   -0.02    0.19
   3  10   5    0.12    0.17
   4 -10   5    0.52    0.21
  -4 -10  -5    0.59    0.22
   4  10   5    0.80    0.24
  -4  10  -5    0.49    0.23
   5 -10   5   -0.08    0.19
  -5 -10  -5    0.40    0.20
   5  10   5    0.19    0.21
   5  10   5    0.23    0.19
  -5  10  -5    0.26    0.21
  -5 -11   5    0.55    0.21
   5 -11  -5    0.40    0.22
  -5  11   5    0.84    0.25
   5  11  -5    0.59    0.23
   4 -11  -5    0.62    0.22
  -4 -11   5    1.07    0.23
   4  11  -5    0.68    0.21
  -4  11   5    0.77    0.25
   3 -11  -5    0.51    0.20
  -3 -11   5    0.61    0.21
   3  11  -5    0.43    0.19
  -3  11   5    0.71    0.24
   2 -11  -5    0.68    0.20
  -2 -11   5    0.76    0.22
   2 -11  -5    0.94    0.23
   2 -11  -5    1.06    0.23
  -2  11   5    0.53    0.22
   2  11  -5    0.74    0.19
   1 -11  -5    8.73    0.46
   1 -11  -5    9.86    0.51
  -1 -11   5    8.70    0.49
  -1  11   5    9.89    0.52
   1  11  -5   10.14    0.48
  -1  11   5   10.26    0.47
  -1  11   5    9.63    0.45
   1  11  -5   10.07    0.48
   0 -11   5    0.19    0.16
   0 -11   5   -0.06    0.17
   0 -11  -5   -0.09    0.18
   0 -11  -5    0.05    0.14
   0  11   5    0.16    0.16
   0  11   5   -0.01    0.18
   0  11  -5    0.24    0.15
   0  11  -5    0.12    0.18
   1 -11   5    1.96    0.28
  -1 -11  -5    1.04    0.26
   1 -11   5    1.04    0.22
  -1  11  -5    1.28    0.22
  -1  11  -5    1.44    0.25
   1  11   5    1.44    0.25
   1  11   5    1.12    0.24
   2 -11   5    1.66    0.28
  -2 -11  -5    1.51    0.27
   2 -11   5    1.62    0.26
  -2  11  -5    2.11    0.32
   2  11   5    1.70    0.27
  -3 -11  -5    0.57    0.23
   3 -11   5    0.68    0.23
  -3  11  -5    0.60    0.23
   3  11   5    1.36    0.25
   4 -11   5    0.05    0.21
  -4 -11  -5   -0.03    0.18
   4  11   5    0.20    0.20
  -4  11  -5   -0.01    0.21
   4 -12  -5    0.12    0.21
  -4 -12   5    0.06    0.20
   4  12  -5    0.12    0.21
  -4  12   5    0.21    0.23
   3 -12  -5    2.06    0.32
  -3 -12   5    1.72    0.29
   3  12  -5    1.93    0.29
  -3  12   5    2.06    0.33
  -2 -12   5    0.40    0.20
   2 -12  -5    0.12    0.18
   2  12  -5    0.35    0.19
  -2  12   5    0.09    0.21
   1 -12  -5    3.35    0.35
  -1 -12   5    2.94    0.35
   1 -12  -5    3.29    0.34
   1 -12  -5    3.41    0.33
   1  12  -5    3.14    0.32
  -1  12   5    3.46    0.37
   1  12  -5    4.27    0.39
   0 -12  -5   -0.04    0.14
   0 -12   5   -0.07    0.19
   0 -12  -5   -0.07    0.16
   0  12   5    0.08    0.18
   0  12  -5    0.11    0.20
   0  12  -5    0.09    0.15
   0  12   5   -0.05    0.14
  -1 -12  -5   -0.06    0.19
   1 -12   5    0.22    0.19
   1 -12   5    0.14    0.18
   1  12   5   -0.12    0.14
  -1  12  -5   -0.04    0.19
   1  12   5    0.13    0.19
   2 -12   5    0.31    0.20
  -2 -12  -5    0.02    0.21
  -2  12  -5    0.24    0.22
   2  12   5    0.08    0.18
   3 -12   5    0.53    0.23
  -3 -12  -5    0.23    0.22
  -3  12  -5    0.38    0.23
   3  12   5    0.04    0.20
  -4 -12  -5    0.17    0.22
   4 -12   5   -0.14    0.20
  -4  12  -5   -0.01    0.22
   4  12   5   -0.05    0.21
   4 -13  -5    0.77    0.27
  -4 -13   5    0.66    0.25
   4  13  -5    0.47    0.25
  -4  13   5    0.39    0.26
   3 -13  -5    4.31    0.45
  -3 -13   5    3.55    0.39
  -3  13   5    3.32    0.41
   3  13  -5    4.46    0.44
  -2 -13   5    2.60    0.36
   2 -13  -5    3.11    0.36
  -2  13   5    3.24    0.40
   2  13  -5    2.62    0.33
   1 -13  -5    3.26    0.37
   1 -13  -5    3.42    0.40
   1 -13  -5    2.63    0.36
  -1 -13   5    2.77    0.38
   1  13  -5    2.22    0.30
  -1  13   5    2.49    0.36
   0 -13   5   -0.25    0.18
   0 -13  -5   -0.04    0.19
   0  13   5   -0.10    0.15
   0  13   5   -0.02    0.20
   0  13  -5    0.04    0.17
   0  13  -5   -0.13    0.18
   1 -13   5    0.03    0.20
   1 -13   5    0.02    0.18
  -1 -13  -5   -0.31    0.19
  -1  13  -5    0.53    0.25
   1  13   5    0.27    0.20
   2 -13   5   -0.16    0.19
  -2 -13  -5   -0.07    0.21
  -2  13  -5   -0.04    0.23
   2  13   5    0.01    0.20
  -3 -13  -5   -0.07    0.21
   3 -13   5    0.10    0.23
  -3  13  -5    0.31    0.24
   3  13   5    0.19    0.23
  -3 -14   5    0.34    0.24
   3 -14  -5    0.37    0.24
  -3  14   5    0.45    0.25
   3  14  -5   -0.05    0.22
  -2 -14   5    0.33    0.24
   2 -14  -5    0.03    0.21
  -2  14   5    0.23    0.23
   2  14  -5    0.24    0.22
  -1 -14   5    2.00    0.34
   1 -14  -5    2.41    0.37
   1 -14  -5    2.52    0.37
   1 -14  -5    2.59    0.39
   1  14  -5    1.77    0.29
  -1  14   5    1.85    0.35
   0 -14  -5    0.32    0.24
   0 -14  -5    0.57    0.26
   0 -14   5   -0.01    0.21
   0  14  -5    0.38    0.25
   0  14   5    0.70    0.26
   0  14   5    0.41    0.24
   0  14   5    0.69    0.28
   0  14  -5    0.45    0.19
  -1 -14  -5    0.04    0.20
   1 -14   5   -0.02    0.21
  -1  14  -5    0.10    0.24
   1  14   5    0.11    0.17
   2 -14   5    0.85    0.27
  -2 -14  -5    1.15    0.31
  -2  14  -5    1.31    0.34
   2  14   5    0.85    0.28
   3 -14   5    0.89    0.27
  -3 -14  -5    0.71    0.29
   3  14   5    0.13    0.24
  -3  14  -5    0.52    0.27
   2 -15  -5    5.04    0.49
  -2 -15   5    5.29    0.53
  -2  15   5    5.75    0.56
   2  15  -5    4.72    0.47
  -1 -15   5    1.17    0.29
   1  15  -5    1.69    0.33
  -1  15   5    1.83    0.37
   0 -15  -5    2.43    0.39
   0 -15   5    2.45    0.38
   0 -15  -5    2.94    0.44
  -1 -15  -5    0.12    0.22
   1 -15   5   -0.20    0.20
  -1 -15  -5    0.01    0.22
  -1  15  -5   -0.35    0.22
   1  15   5   -0.28    0.15
  -2 -15  -5    1.38    0.34
  -2 -15  -5    1.96    0.36
   2  15   5    1.39    0.30
  -2  15  -5    1.81    0.38
  -7   0   6    0.50    0.25
  -6   0   6    6.59    0.46
  -5   0   6   55.64    1.22
  -5   0   6   54.77    1.32
  -4   0   6   10.84    0.41
  -4   0   6   10.23    0.24
  -4   0   6   10.64    0.25
  -4   0   6   10.97    0.48
  -3   0   6    1.77    0.11
  -3   0   6    1.82    0.17
   3   0  -6    1.78    0.08
  -3   0   6    1.71    0.12
  -3   0   6    1.49    0.20
   3   0  -6    1.68    0.08
  -2   0   6   61.23    1.00
  -2   0   6   60.24    1.12
   2   0  -6   60.56    0.95
   2   0  -6   61.33    0.96
   2   0  -6   61.09    0.96
  -2   0   6   61.83    1.00
  -1   0   6  157.56    2.34
   1   0  -6  159.17    2.33
   1   0  -6  154.52    2.32
  -1   0   6  152.81    2.29
  -1   0   6  152.88    2.37
   1   0  -6  158.24    2.32
   0   0   6   15.53    0.38
   0   0   6   16.58    0.37
   0   0  -6   16.08    0.39
   0   0  -6   16.63    0.38
   0   0   6   15.92    0.39
   1   0   6  190.26    2.83
   1   0   6  191.71    2.84
  -1   0  -6  191.42    2.85
   1   0   6  183.88    2.84
  -1   0  -6  188.18    2.80
  -2   0  -6    2.16    0.15
   2   0   6    2.05    0.17
   2   0   6    1.94    0.13
  -2   0  -6    2.04    0.17
   2   0   6    2.01    0.15
   2   0   6    1.88    0.16
   3   0   6    4.89    0.20
  -3   0  -6    4.59    0.22
   3   0   6    5.13    0.23
   3   0   6    5.17    0.22
  -3   0  -6    5.14    0.31
  -3   0  -6    4.67    0.23
   4   0   6    9.48    0.33
  -4   0  -6    9.02    0.48
  -4   0  -6   10.01    0.35
   4   0   6    9.59    0.35
   5   0   6    7.04    0.32
  -5   0  -6    7.27    0.32
  -5   0  -6    6.34    0.47
   5   0   6    7.01    0.32
  -6   0  -6    0.85    0.17
  -6   0  -6    0.73    0.28
   6   0   6    1.25    0.19
  -7  -1   6    0.71    0.28
  -7   1   6    0.43    0.24
  -6  -1   6    0.71    0.24
   6  -1  -6    0.93    0.09
  -6   1   6    0.78    0.23
  -6   1   6    0.57    0.23
   5  -1  -6    0.05    0.05
  -5  -1   6    0.02    0.16
  -5   1   6    0.01    0.15
  -5   1   6    0.01    0.06
  -5   1   6    0.15    0.17
  -4  -1   6    2.31    0.11
   4  -1  -6    2.47    0.11
  -4  -1   6    2.49    0.29
  -4  -1   6    2.24    0.23
   4  -1  -6    2.22    0.10
  -4  -1   6    2.36    0.12
  -4   1   6    2.25    0.13
  -4   1   6    2.71    0.25
  -4   1   6    2.39    0.14
  -4   1   6    2.01    0.26
   3  -1  -6   27.67    0.48
  -3  -1   6   27.62    0.51
  -3  -1   6   27.80    0.50
  -3  -1   6   28.48    0.71
   3  -1  -6   27.40    0.48
  -3  -1   6   28.29    0.63
   3   1  -6   27.65    0.45
   3   1  -6   27.92    0.45
  -3   1   6   27.25    0.52
  -3   1   6   27.43    0.71
  -3   1   6   27.30    0.52
  -3   1   6   27.68    0.60
   2  -1  -6  101.63    1.55
  -2  -1   6   99.95    1.72
   2  -1  -6  102.54    1.56
  -2  -1   6  105.33    1.58
   2  -1  -6  100.71    1.56
   2   1  -6  102.38    1.54
   2   1  -6  102.94    1.54
  -2   1   6  105.08    1.58
  -2   1   6  102.33    1.59
  -2   1   6  100.91    1.72
   2   1  -6  103.45    1.54
  -2   1   6  105.09    1.60
   1  -1  -6  110.33    1.69
  -1  -1   6  108.40    1.73
  -1  -1   6  112.03    1.71
  -1  -1   6  110.54    1.70
   1  -1  -6  110.81    1.71
   1   1  -6  110.38    1.69
   1   1  -6  110.96    1.69
   1   1  -6  110.02    1.73
  -1   1   6  110.31    1.67
  -1   1   6  111.39    1.72
   1   1  -6  113.75    1.70
   0  -1   6    8.49    0.27
   0  -1  -6    8.70    0.25
   0  -1  -6    8.12    0.26
   0  -1   6    8.53    0.25
   0  -1  -6    8.54    0.20
   0   1  -6    8.61    0.26
   0   1   6    8.52    0.27
   0   1   6    8.12    0.27
   0   1  -6    8.71    0.25
   0   1   6    8.36    0.25
  -1  -1  -6   62.87    1.08
   1  -1   6   64.16    1.07
  -1  -1  -6   63.11    1.08
  -1  -1  -6   61.85    1.03
   1  -1   6   64.11    1.06
   1   1   6   63.52    1.06
   1   1   6   63.08    1.08
  -1   1  -6   62.17    1.08
   1   1   6   62.43    1.06
  -1   1  -6   63.23    1.04
   2  -1   6  219.04    3.26
  -2  -1  -6  215.55    3.27
  -2  -1  -6  212.89    3.37
   2  -1   6  218.96    3.25
   2   1   6  218.64    3.30
   2   1   6  218.54    3.25
   2   1   6  217.97    3.27
   2   1   6  214.05    3.22
  -2   1  -6  218.37    3.18
  -2   1  -6  218.90    3.28
   2   1   6  216.54    3.24
  -3  -1  -6   35.14    0.72
   3  -1   6   34.50    0.67
   3  -1   6   35.14    0.72
   3  -1   6   36.02    0.70
  -3  -1  -6   34.83    0.86
  -3  -1  -6   36.73    0.72
   3   1   6   35.21    0.65
   3   1   6   35.49    0.70
  -3   1  -6   37.92    0.81
   3   1   6   36.26    0.73
   3   1   6   35.48    0.69
  -3   1  -6   34.95    0.73
   4  -1   6    1.56    0.17
  -4  -1  -6    0.96    0.22
  -4  -1  -6    1.23    0.16
  -4   1  -6    0.95    0.22
   4   1   6    1.38    0.16
   4   1   6    1.29    0.17
  -4   1  -6    1.22    0.16
  -5  -1  -6    0.22    0.21
  -5  -1  -6    0.02    0.11
   5  -1   6    0.26    0.12
   5   1   6    0.02    0.11
   5   1   6    0.21    0.12
  -5   1  -6    0.20    0.13
  -5   1  -6   -0.17    0.17
  -6  -1  -6    1.33    0.35
   6  -1   6    1.21    0.19
  -6  -1  -6    1.60    0.19
  -6   1  -6    1.67    0.20
  -6   1  -6    1.80    0.37
   6   1   6    1.32    0.20
   7  -2  -6    1.09    0.13
  -7  -2   6    0.94    0.30
  -7   2   6    0.91    0.27
  -6  -2   6    6.35    0.48
   6  -2  -6    5.96    0.23
  -6   2   6    6.59    0.45
  -6   2   6    5.75    0.49
  -5  -2   6   14.10    0.57
   5  -2  -6   14.16    0.33
  -5   2   6   14.40    0.62
  -5   2   6   13.73    0.34
  -5   2   6   12.64    0.52
   4  -2  -6    2.77    0.14
  -4  -2   6    2.56    0.13
  -4  -2   6    2.37    0.13
  -4  -2   6    2.69    0.27
   4  -2  -6    2.97    0.14
  -4   2   6    2.30    0.28
  -4   2   6    2.70    0.17
  -4   2   6    2.98    0.25
  -4   2   6    2.49    0.23
  -3  -2   6   25.75    0.49
   3  -2  -6   25.75    0.49
  -3  -2   6   25.71    0.49
   3  -2  -6   25.58    0.49
  -3   2   6   25.47    0.69
   3   2  -6   25.74    0.45
   3   2  -6   25.95    0.44
  -3   2   6   25.50    0.52
  -3   2   6   25.44    0.57
   2  -2  -6    9.84    0.26
   2  -2  -6    9.59    0.26
  -2  -2   6    9.67    0.26
   2  -2  -6    9.29    0.26
  -2  -2   6    9.43    0.27
  -2   2   6    9.79    0.28
  -2   2   6   10.13    0.29
   2   2  -6    9.66    0.25
   2   2  -6    9.71    0.24
  -2   2   6    9.58    0.25
   2   2  -6   10.07    0.24
   1  -2  -6   87.31    1.38
  -1  -2   6   88.57    1.35
  -1  -2   6   86.31    1.39
  -1  -2   6   85.82    1.38
   1  -2  -6   87.39    1.40
  -1   2   6   86.96    1.41
   1   2  -6   86.75    1.41
   1   2  -6   88.08    1.39
   1   2  -6   86.54    1.37
  -1   2   6   87.99    1.37
   0  -2  -6   78.90    1.31
   0  -2   6   81.05    1.29
   0  -2  -6   81.21    1.22
   0  -2   6   79.42    1.30
   0  -2  -6   79.63    1.29
   0   2   6   79.23    1.29
   0   2  -6   79.81    1.21
   0   2  -6   78.88    1.29
   0   2   6   78.69    1.30
   0   2  -6   79.57    1.31
   1  -2   6    0.27    0.09
   1  -2   6    0.15    0.09
  -1  -2  -6    0.15    0.08
  -1  -2  -6    0.22    0.08
  -1  -2  -6    0.08    0.09
  -1   2  -6    0.15    0.10
   1   2   6    0.23    0.10
  -1   2  -6    0.24    0.08
   1   2   6    0.19    0.08
   1   2   6    0.17    0.09
   2  -2   6    3.55    0.19
  -2  -2  -6    3.17    0.21
  -2  -2  -6    3.32    0.23
   2  -2   6    3.10    0.19
   2   2   6    3.36    0.21
  -2   2  -6    3.52    0.15
   2   2   6    3.34    0.18
  -2   2  -6    3.26    0.21
   2   2   6    3.39    0.19
  -3  -2  -6    0.12    0.10
   3  -2   6    0.02    0.08
  -3  -2  -6   -0.05    0.08
   3  -2   6   -0.07    0.07
   3  -2   6   -0.04    0.09
  -3  -2  -6   -0.05    0.14
   3   2   6    0.01    0.07
   3   2   6    0.04    0.07
  -3   2  -6   -0.06    0.08
   3   2   6   -0.14    0.08
   3   2   6    0.04    0.08
  -3   2  -6   -0.11    0.09
  -4  -2  -6    4.48    0.38
   4  -2   6    4.14    0.25
  -4  -2  -6    4.04    0.25
   4   2   6    4.00    0.23
  -4   2  -6    3.75    0.25
   4   2   6    4.46    0.25
  -4   2  -6    4.03    0.38
   5  -2   6    0.79    0.16
  -5  -2  -6    1.08    0.16
  -5  -2  -6    1.30    0.31
   5   2   6    1.02    0.16
  -5   2  -6    0.95    0.17
  -5   2  -6    1.12    0.28
   5   2   6    0.79    0.15
   6  -2   6    0.07    0.13
  -6  -2  -6   -0.17    0.11
  -6  -2  -6    0.11    0.26
  -6   2  -6   -0.04    0.13
   6   2   6    0.00    0.12
  -6   2  -6   -0.01    0.26
   7  -3  -6    0.04    0.10
  -7   3   6    0.03    0.23
   6  -3  -6    0.35    0.11
   6   3  -6    0.08    0.06
  -6   3   6    0.26    0.23
  -6   3   6    0.15    0.10
  -6   3   6    0.32    0.21
   5  -3  -6    1.81    0.16
  -5  -3   6    1.83    0.12
  -5   3   6    1.70    0.16
  -5   3   6    1.57    0.29
   5   3  -6    1.81    0.11
  -5   3   6    1.89    0.26
  -4  -3   6    2.72    0.17
  -4  -3   6    2.84    0.16
   4  -3  -6    2.81    0.18
  -4   3   6    2.89    0.32
   4   3  -6    2.73    0.13
   4   3  -6    2.82    0.13
  -4   3   6    2.87    0.19
  -4   3   6    2.83    0.25
   3  -3  -6    0.52    0.09
  -3  -3   6    0.50    0.09
   3  -3  -6    0.64    0.10
  -3  -3   6    0.49    0.09
  -3   3   6    0.43    0.11
   3   3  -6    0.54    0.08
   3   3  -6    0.53    0.07
  -3   3   6    0.64    0.10
   2  -3  -6    0.80    0.10
  -2  -3   6    0.76    0.10
  -2  -3   6    0.72    0.08
  -2  -3   6    0.56    0.10
   2  -3  -6    0.49    0.09
   2  -3  -6    0.62    0.10
  -2   3   6    0.68    0.11
   2   3  -6    0.71    0.09
   2   3  -6    0.67    0.09
   2   3  -6    0.66    0.09
  -1  -3   6   19.95    0.45
   1  -3  -6   19.08    0.43
   1  -3  -6   18.79    0.44
  -1  -3   6   18.38    0.40
  -1   3   6   19.05    0.46
   1   3  -6   18.57    0.43
   1   3  -6   18.94    0.45
  -1   3   6   19.32    0.42
   1   3  -6   19.11    0.43
   0  -3   6    7.89    0.29
   0  -3   6    9.11    0.28
   0  -3  -6    8.77    0.29
   0  -3  -6    8.51    0.27
   0   3  -6    8.97    0.28
   0   3   6    8.46    0.28
   0   3  -6    8.88    0.29
   0   3   6    9.20    0.30
  -1  -3  -6    1.09    0.13
   1  -3   6    1.25    0.14
  -1  -3  -6    1.32    0.13
   1  -3   6    1.51    0.16
  -1  -3  -6    1.11    0.14
  -1   3  -6    1.14    0.15
  -1   3  -6    1.19    0.13
   1   3   6    1.29    0.14
   1   3   6    1.10    0.13
  -2  -3  -6   -0.02    0.11
  -2  -3  -6    0.23    0.10
  -2  -3  -6    0.03    0.05
   2  -3   6    0.05    0.08
   2  -3   6   -0.04    0.08
  -2   3  -6    0.08    0.06
   2   3   6    0.12    0.08
   2   3   6    0.05    0.08
  -2   3  -6    0.06    0.06
  -2   3  -6    0.08    0.10
  -3  -3  -6    1.79    0.18
   3  -3   6    2.04    0.18
  -3  -3  -6    1.66    0.22
   3  -3   6    1.85    0.18
   3   3   6    1.83    0.17
  -3   3  -6    1.99    0.19
   3   3   6    2.01    0.15
   3   3   6    2.12    0.19
  -3   3  -6    1.86    0.17
   4  -3   6    0.15    0.11
  -4  -3  -6    0.04    0.11
  -4  -3  -6   -0.02    0.18
  -4   3  -6    0.09    0.11
  -4   3  -6   -0.04    0.12
   4   3   6    0.09    0.10
   5  -3   6    1.95    0.22
  -5  -3  -6    2.17    0.21
  -5  -3  -6    1.99    0.32
  -5   3  -6    2.21    0.23
   5   3   6    1.83    0.20
  -5   3  -6    1.25    0.30
  -6  -3  -6    0.26    0.25
   6  -3   6    0.03    0.14
  -6  -3  -6   -0.06    0.12
   6   3   6    0.15    0.13
  -6   3  -6    0.18    0.15
  -6   3  -6   -0.02    0.26
   7  -4  -6    1.51    0.19
   6  -4  -6    0.69    0.14
  -6   4   6    0.43    0.21
  -6   4   6    0.25    0.24
  -6   4   6    0.64    0.13
   6   4  -6    0.61    0.10
  -5  -4   6    1.20    0.12
   5  -4  -6    1.35    0.16
   5   4  -6    1.30    0.12
  -5   4   6    1.60    0.25
  -5   4   6    1.16    0.16
  -5   4   6    1.09    0.27
  -4  -4   6    5.49    0.23
   4  -4  -6    5.36    0.25
  -4   4   6    5.34    0.27
  -4   4   6    5.69    0.41
  -4   4   6    6.21    0.33
   4   4  -6    5.80    0.21
   3  -4  -6    6.40    0.23
   3  -4  -6    6.50    0.24
   3  -4  -6    6.61    0.25
   3  -4  -6    5.94    0.25
  -3  -4   6    6.87    0.25
   3   4  -6    6.36    0.23
  -3   4   6    6.72    0.31
  -3   4   6    6.65    0.28
   3   4  -6    6.65    0.22
   2  -4  -6    3.32    0.19
  -2  -4   6    3.31    0.20
   2  -4  -6    3.47    0.20
  -2   4   6    3.26    0.21
   2   4  -6    3.50    0.17
   2   4  -6    3.40    0.17
  -2   4   6    3.39    0.15
   2   4  -6    3.49    0.18
   1  -4  -6   12.53    0.36
  -1  -4   6   12.14    0.32
  -1  -4   6   12.16    0.36
   1  -4  -6   12.10    0.36
  -1   4   6   12.15    0.37
   1   4  -6   12.00    0.35
   1   4  -6   11.95    0.34
  -1   4   6   11.92    0.33
   0  -4   6    1.33    0.14
   0  -4  -6    1.24    0.15
   0  -4   6    1.28    0.16
   0  -4  -6    1.16    0.14
   0   4  -6    1.17    0.15
   0   4  -6    0.74    0.11
   0   4   6    1.05    0.14
   0   4   6    1.15    0.14
  -1  -4  -6    1.42    0.14
   1  -4   6    1.40    0.16
   1  -4   6    1.53    0.16
  -1  -4  -6    1.23    0.14
  -1  -4  -6    1.37    0.16
  -1   4  -6    1.30    0.16
   1   4   6    1.22    0.14
   1   4   6    1.60    0.16
  -1   4  -6    1.10    0.13
   1   4   6    1.12    0.14
   2  -4   6   -0.01    0.09
  -2  -4  -6   -0.01    0.06
  -2  -4  -6    0.00    0.10
   2  -4   6   -0.07    0.08
  -2  -4  -6    0.00    0.10
  -2   4  -6   -0.01    0.10
   2   4   6   -0.02    0.07
   2   4   6    0.01    0.09
   2   4   6   -0.03    0.08
  -2   4  -6    0.06    0.07
   3  -4   6    8.06    0.32
   3  -4   6    7.90    0.34
  -3  -4  -6    8.26    0.33
  -3  -4  -6    7.73    0.42
  -3   4  -6    8.52    0.31
   3   4   6    8.59    0.33
   3   4   6    8.56    0.32
  -3   4  -6    8.60    0.36
   4  -4   6    0.66    0.15
  -4  -4  -6    0.62    0.15
  -4  -4  -6    0.36    0.19
   4   4   6    0.48    0.13
  -4   4  -6    0.64    0.16
  -4   4  -6    0.62    0.15
   5  -4   6    0.70    0.18
  -5  -4  -6    0.92    0.17
  -5  -4  -6    1.08    0.29
  -5   4  -6    0.93    0.18
   5   4   6    0.97    0.17
  -6  -4  -6    1.12    0.19
  -6  -4  -6    1.22    0.34
   6  -4   6    0.99    0.20
  -6   4  -6    1.47    0.37
   6   4   6    1.21    0.20
  -6   4  -6    1.13    0.21
   6  -5  -6    0.47    0.14
  -6   5   6    0.53    0.24
  -6   5   6    0.66    0.15
  -6   5   6    0.67    0.28
   6   5  -6    0.61    0.13
  -5  -5   6    0.01    0.09
   5  -5  -6   -0.01    0.11
  -5   5   6   -0.06    0.18
  -5   5   6   -0.03    0.11
   5   5  -6   -0.10    0.08
  -5   5   6   -0.26    0.14
  -4  -5   6    1.51    0.16
   4  -5  -6    1.70    0.18
  -4   5   6    1.49    0.19
   4   5  -6    1.52    0.15
   3  -5  -6   49.99    0.91
  -3  -5   6   48.60    0.93
   3  -5  -6   49.17    0.91
   3  -5  -6   47.88    0.94
  -3   5   6   48.28    0.97
   3   5  -6   49.67    0.90
   3   5  -6   48.50    0.92
   2  -5  -6   23.69    0.57
   2  -5  -6   24.04    0.56
  -2  -5   6   23.86    0.57
  -2   5   6   24.25    0.59
   2   5  -6   24.16    0.54
   2   5  -6   24.63    0.53
  -1  -5   6   20.11    0.52
   1  -5  -6   20.73    0.52
   1  -5  -6   20.45    0.50
  -1  -5   6   20.81    0.47
   1   5  -6   19.95    0.50
  -1   5   6   19.91    0.52
  -1   5   6   20.08    0.49
   1   5  -6   19.93    0.50
   0  -5  -6   15.98    0.46
   0  -5   6   15.99    0.45
   0  -5  -6   14.76    0.42
   0  -5   6   16.32    0.43
   0   5   6   15.90    0.46
   0   5  -6   15.21    0.43
   0   5  -6   15.63    0.45
   0   5   6   16.43    0.44
  -1  -5  -6    2.01    0.19
   1  -5   6    2.34    0.20
  -1  -5  -6    2.55    0.18
   1  -5   6    2.27    0.21
  -1   5  -6    2.25    0.18
   1   5   6    2.52    0.20
   1   5   6    2.36    0.19
  -1   5  -6    2.46    0.20
   1   5   6    2.65    0.20
   2  -5   6   33.41    0.74
  -2  -5  -6   34.52    0.76
   2  -5   6   33.60    0.74
  -2  -5  -6   32.60    0.80
   2   5   6   33.85    0.73
   2   5   6   34.08    0.74
   2   5   6   33.97    0.72
  -2   5  -6   33.54    0.69
  -2   5  -6   33.05    0.77
  -3  -5  -6   80.71    1.62
  -3  -5  -6   83.34    1.49
   3  -5   6   83.52    1.50
   3  -5   6   82.33    1.46
   3   5   6   82.01    1.45
  -3   5  -6   81.68    1.51
   3   5   6   80.75    1.46
  -4  -5  -6    0.13    0.17
  -4  -5  -6   -0.06    0.12
   4  -5   6    0.04    0.13
  -4   5  -6    0.05    0.14
  -4   5  -6    0.07    0.11
   4   5   6    0.14    0.12
  -5  -5  -6    0.92    0.27
   5  -5   6    1.04    0.20
  -5  -5  -6    1.19    0.19
   5   5   6    1.16    0.19
  -5   5  -6    1.35    0.22
  -6  -5  -6    1.77    0.40
   6  -5   6    1.89    0.26
  -6  -5  -6    2.17    0.24
   6   5   6    1.99    0.25
  -6   5  -6    2.58    0.44
  -6   5  -6    2.42    0.28
  -6  -6   6    2.78    0.19
   6  -6  -6    2.73    0.26
  -6   6   6    2.42    0.25
  -6   6   6    3.33    0.44
   6   6  -6    2.92    0.24
  -6   6   6    3.07    0.37
   5  -6  -6    7.87    0.36
  -5  -6   6    7.62    0.31
  -5   6   6    7.34    0.44
  -5   6   6    8.92    0.55
   5   6  -6    7.41    0.32
  -5   6   6    7.19    0.37
   4  -6  -6    6.26    0.32
  -4  -6   6    7.41    0.31
  -4   6   6    6.60    0.34
   4   6  -6    6.91    0.30
  -3  -6   6    3.59    0.25
   3  -6  -6    3.89    0.27
   3   6  -6    3.88    0.24
  -3   6   6    3.78    0.27
  -2  -6   6   20.40    0.54
   2  -6  -6   18.59    0.52
   2  -6  -6   19.44    0.53
  -2   6   6   20.12    0.56
  -2   6   6   18.54    0.47
   2   6  -6   20.23    0.50
   2   6  -6   20.74    0.52
   1  -6  -6    5.84    0.28
   1  -6  -6    5.73    0.28
  -1  -6   6    5.78    0.25
  -1  -6   6    6.10    0.30
   1   6  -6    5.89    0.28
   1   6  -6    6.52    0.29
  -1   6   6    5.88    0.27
  -1   6   6    6.16    0.30
   0  -6   6    1.82    0.20
   0  -6  -6    1.95    0.18
   0  -6   6    2.55    0.21
   0  -6  -6    1.50    0.18
   0   6  -6    1.75    0.19
   0   6   6    1.74    0.20
   0   6   6    2.15    0.20
   0   6  -6    1.78    0.18
   0   6   6    1.80    0.18
  -1  -6  -6    4.58    0.27
   1  -6   6    4.91    0.27
   1  -6   6    4.79    0.27
  -1  -6  -6    4.66    0.24
  -1   6  -6    4.77    0.26
   1   6   6    4.44    0.26
  -1   6  -6    4.95    0.29
   1   6   6    5.21    0.27
   2  -6   6    4.30    0.27
  -2  -6  -6    4.72    0.29
   2  -6   6    4.48    0.28
  -2   6  -6    4.81    0.30
   2   6   6    4.90    0.27
  -2   6  -6    5.25    0.26
   2   6   6    4.85    0.28
   3  -6   6    0.67    0.17
  -3  -6  -6    0.68    0.17
  -3  -6  -6    0.63    0.19
  -3   6  -6    0.77    0.19
   3   6   6    0.83    0.16
  -4  -6  -6    9.19    0.54
   4  -6   6    7.46    0.39
  -4  -6  -6    7.65    0.37
   4   6   6    7.70    0.37
   4   6   6    8.19    0.38
  -4   6  -6    8.00    0.42
  -4   6  -6    7.18    0.35
  -5  -6  -6    0.80    0.29
   5  -6   6    1.38    0.23
  -5  -6  -6    1.26    0.21
  -5   6  -6    1.59    0.25
   5   6   6    1.44    0.21
   6  -6   6   -0.02    0.16
  -6  -6  -6    0.25    0.15
  -6  -6  -6   -0.27    0.27
   6   6   6    0.21    0.16
  -6   6  -6    0.39    0.30
  -6   6  -6    0.20    0.17
  -6  -7   6    0.86    0.15
   6  -7  -6    1.05    0.21
   6   7  -6    0.70    0.16
  -6   7   6    0.87    0.30
  -6   7   6    0.71    0.19
   5  -7  -6    0.62    0.17
  -5  -7   6    0.62    0.15
  -5   7   6    0.68    0.24
  -5   7   6    0.68    0.19
   5   7  -6    0.79    0.16
  -4  -7   6    0.14    0.13
   4  -7  -6    0.04    0.12
   4   7  -6    0.10    0.12
  -4   7   6   -0.09    0.12
  -3  -7   6   35.49    0.80
   3  -7  -6   32.87    0.80
   3   7  -6   33.09    0.77
  -3   7   6   34.35    0.83
   2  -7  -6   31.39    0.75
  -2  -7   6   32.67    0.76
   2  -7  -6   30.91    0.75
  -2   7   6   30.83    0.68
  -2   7   6   32.04    0.78
   2   7  -6   30.45    0.70
   2   7  -6   31.08    0.73
  -1  -7   6    0.32    0.11
   1  -7  -6    0.34    0.13
  -1  -7   6    0.34    0.13
   1  -7  -6    0.50    0.15
   1   7  -6    0.55    0.14
   1   7  -6    0.49    0.13
  -1   7   6    0.33    0.12
  -1   7   6    0.34    0.13
   0  -7   6    0.74    0.17
   0  -7  -6    1.20    0.18
   0  -7  -6    1.18    0.17
   0  -7   6    1.18    0.16
   0   7  -6    1.13    0.17
   0   7  -6    1.22    0.17
   0   7   6    0.94    0.15
   0   7   6    1.17    0.19
   0   7   6    0.85    0.14
  -1  -7  -6    4.42    0.24
   1  -7   6    4.09    0.29
   1  -7   6    4.33    0.28
  -1  -7  -6    4.27    0.29
   1   7   6    3.86    0.27
   1   7   6    3.85    0.27
  -1   7  -6    4.19    0.26
  -1   7  -6    3.84    0.29
   2  -7   6   29.02    0.74
  -2  -7  -6   28.67    0.74
   2  -7   6   28.33    0.73
   2   7   6   28.56    0.70
  -2   7  -6   28.01    0.76
   2   7   6   28.44    0.72
  -2   7  -6   28.45    0.67
  -3  -7  -6   32.28    0.81
   3  -7   6   31.76    0.81
  -3   7  -6   31.44    0.83
   3   7   6   31.15    0.78
   4  -7   6    0.11    0.14
  -4  -7  -6   -0.17    0.13
   4   7   6    0.00    0.13
  -4   7  -6    0.10    0.16
   4   7   6    0.11    0.13
  -4   7  -6   -0.04    0.13
   5  -7   6    0.23    0.17
  -5  -7  -6    0.25    0.16
   5   7   6   -0.05    0.13
  -5   7  -6    0.03    0.17
   6  -7   6    0.33    0.20
  -6  -7  -6    0.31    0.17
  -6   7  -6    0.60    0.22
   6   7   6    0.64    0.20
   6  -8  -6    0.35    0.19
  -6  -8   6    0.42    0.15
   6   8  -6    0.26    0.16
  -6   8   6    0.47    0.20
  -6   8   6   -0.27    0.25
   5  -8  -6   -0.06    0.14
  -5  -8   6    0.08    0.14
   5   8  -6    0.10    0.14
  -5   8   6    0.07    0.19
  -5   8   6    0.12    0.16
   4  -8  -6   -0.08    0.13
  -4  -8   6   -0.18    0.13
   4   8  -6    0.05    0.13
  -4   8   6    0.01    0.15
  -3  -8   6    6.22    0.34
   3  -8  -6    6.13    0.36
   3   8  -6    6.16    0.33
  -3   8   6    6.26    0.38
   2  -8  -6    2.46    0.25
   2  -8  -6    2.14    0.23
  -2  -8   6    2.94    0.28
   2   8  -6    2.59    0.23
   2   8  -6    3.63    0.28
  -2   8   6    2.47    0.26
   1  -8  -6    2.85    0.27
  -1  -8   6    2.77    0.23
   1  -8  -6    2.39    0.24
  -1  -8   6    3.34    0.29
  -1   8   6    3.16    0.26
   1   8  -6    2.22    0.23
  -1   8   6    3.45    0.31
   1   8  -6    2.88    0.26
   0  -8   6    0.12    0.12
   0  -8  -6    0.21    0.12
   0  -8   6    0.17    0.14
   0  -8  -6    0.15    0.13
   0   8  -6    0.04    0.12
   0   8   6    0.03    0.12
   0   8   6    0.04    0.11
   0   8  -6   -0.06    0.13
   0   8   6    0.04    0.12
   1  -8   6   -0.13    0.11
   1  -8   6   -0.03    0.12
  -1  -8  -6    0.30    0.15
  -1  -8  -6    0.07    0.11
  -1   8  -6   -0.07    0.11
   1   8   6   -0.12    0.12
   1   8   6   -0.02    0.13
  -1   8  -6    0.14    0.15
   2  -8   6    0.31    0.16
  -2  -8  -6    0.08    0.15
   2  -8   6    0.39    0.16
   2   8   6    0.35    0.14
   2   8   6    0.18    0.14
  -2   8  -6    0.14    0.14
  -2   8  -6    0.16    0.19
  -3  -8  -6   13.62    0.52
   3  -8   6   12.72    0.52
   3   8   6   12.65    0.50
  -3   8  -6   12.73    0.53
  -4  -8  -6    0.98    0.21
   4  -8   6    0.74    0.20
  -4   8  -6    0.55    0.20
   4   8   6    0.73    0.19
   4   8   6    0.51    0.18
  -5  -8  -6    2.33    0.28
   5  -8   6    3.10    0.34
   5   8   6    2.95    0.32
  -5   8  -6    2.26    0.31
   5   8   6    2.31    0.29
   6  -9  -6    0.19    0.19
  -6  -9   6   -0.03    0.14
  -6   9   6    0.17    0.18
   6   9  -6    0.14    0.17
  -5  -9   6    0.26    0.16
   5  -9  -6   -0.04    0.16
  -5   9   6    0.47    0.20
   5   9  -6    0.11    0.16
  -4  -9   6    0.06    0.15
   4  -9  -6    0.04    0.15
  -4   9   6   -0.04    0.16
   4   9  -6   -0.13    0.13
  -3  -9   6    0.42    0.16
   3  -9  -6    0.23    0.17
  -3   9   6    0.57    0.20
   3   9  -6    0.39    0.16
   2  -9  -6    0.43    0.17
   2  -9  -6    0.52    0.17
  -2  -9   6    0.57    0.19
   2   9  -6    0.49    0.16
  -2   9   6    0.80    0.22
  -1  -9   6    1.06    0.22
   1  -9  -6    1.31    0.21
   1  -9  -6    1.15    0.20
  -1  -9   6    1.10    0.18
  -1   9   6    1.09    0.19
  -1   9   6    0.96    0.18
   1   9  -6    1.05    0.19
  -1   9   6    1.17    0.23
   1   9  -6    1.03    0.20
   0  -9  -6    1.62    0.25
   0  -9   6    1.61    0.22
   0  -9   6    2.18    0.27
   0  -9  -6    1.70    0.22
   0   9   6    1.58    0.22
   0   9   6    2.09    0.26
   0   9  -6    1.31    0.21
   0   9  -6    1.41    0.23
   0   9   6    1.45    0.22
   1  -9   6    0.90    0.19
  -1  -9  -6    1.11    0.18
   1  -9   6    0.52    0.18
  -1  -9  -6    0.95    0.22
  -1   9  -6    0.77    0.19
   1   9   6    0.72    0.17
  -1   9  -6    1.00    0.19
   1   9   6    0.88    0.20
   2  -9   6    6.56    0.39
   2  -9   6    5.59    0.37
  -2  -9  -6    5.72    0.38
   2   9   6    6.15    0.57
   2   9   6    5.80    0.37
  -2   9  -6    5.43    0.39
   3  -9   6    3.32    0.33
  -3  -9  -6    4.18    0.36
   3   9   6    3.07    0.30
  -3   9  -6    2.82    0.32
   4  -9   6    0.89    0.23
  -4  -9  -6    0.39    0.19
   4   9   6    0.83    0.21
  -4   9  -6    0.70    0.23
   5  -9   6    0.13    0.19
  -5  -9  -6    0.22    0.18
   5   9   6   -0.17    0.16
   5   9   6   -0.18    0.17
  -5   9  -6   -0.16    0.19
   5 -10  -6    0.02    0.17
  -5 -10   6    0.12    0.16
  -5  10   6    0.34    0.20
   5  10  -6   -0.02    0.17
  -4 -10   6   -0.09    0.15
   4 -10  -6    0.08    0.17
  -4  10   6    0.17    0.19
   4  10  -6    0.06    0.16
  -3 -10   6    0.07    0.16
   3 -10  -6    0.19    0.18
  -3  10   6    0.05    0.17
   3  10  -6    0.44    0.17
   2 -10  -6    1.11    0.21
   2 -10  -6    1.78    0.25
  -2 -10   6    1.92    0.26
   2  10  -6    1.33    0.23
  -2  10   6    1.58    0.25
   1 -10  -6   19.39    0.66
  -1 -10   6   18.13    0.64
   1 -10  -6   17.58    0.61
   1  10  -6   17.82    0.61
  -1  10   6   18.77    0.66
  -1  10   6   18.34    0.59
  -1  10   6   18.29    0.60
   1  10  -6   17.79    0.61
   0 -10   6   36.42    0.96
   0 -10   6   36.42    0.90
   0 -10  -6   36.16    0.90
   0 -10  -6   35.80    0.95
   0  10  -6   37.03    0.94
   0  10   6   36.71    0.92
   0  10   6   37.66    0.96
   0  10  -6   38.06    0.93
   0  10   6   36.70    0.92
   1 -10   6   15.05    0.60
   1 -10   6   15.91    0.58
  -1 -10  -6   16.30    0.63
   1  10   6   15.57    0.58
  -1  10  -6   16.31    0.57
   1  10   6   16.25    0.59
  -1  10  -6   16.13    0.60
   2 -10   6    0.66    0.19
   2 -10   6    0.57    0.19
  -2 -10  -6    1.05    0.24
  -2  10  -6    0.64    0.22
   2  10   6    0.35    0.18
   3 -10   6    0.53    0.21
  -3 -10  -6    0.37    0.20
  -3  10  -6    0.49    0.21
   3  10   6    0.52    0.20
   4 -10   6    0.06    0.19
  -4 -10  -6    0.04    0.18
  -4  10  -6    0.16    0.20
   4  10   6    0.05    0.17
   5 -10   6    0.53    0.23
  -5 -10  -6    0.35    0.21
   5  10   6    0.72    0.26
  -5  10  -6    0.16    0.23
   5  10   6    0.51    0.23
   5 -11  -6    0.56    0.24
  -5 -11   6    0.39    0.20
   5  11  -6    0.39    0.22
  -5  11   6    0.14    0.20
  -4 -11   6    0.70    0.22
   4 -11  -6    0.27    0.21
   4  11  -6    0.98    0.25
  -4  11   6    0.63    0.25
  -3 -11   6    1.88    0.29
   3 -11  -6    2.26    0.31
   3  11  -6    2.30    0.30
  -3  11   6    1.45    0.28
  -2 -11   6    1.43    0.27
   2 -11  -6    1.45    0.26
   2 -11  -6    0.77    0.21
   2 -11  -6    0.75    0.23
  -2  11   6    1.25    0.26
   2  11  -6    1.30    0.24
   1 -11  -6    5.05    0.40
   1 -11  -6    5.31    0.39
  -1 -11   6    4.95    0.38
   1  11  -6    5.12    0.37
  -1  11   6    5.56    0.37
  -1  11   6    5.71    0.43
   1  11  -6    5.73    0.39
  -1  11   6    6.08    0.39
   0 -11   6    1.46    0.24
   0 -11  -6    1.74    0.24
   0 -11  -6    1.52    0.26
   0 -11   6    1.55    0.27
   0  11   6    1.62    0.25
   0  11  -6    1.18    0.21
   0  11   6    1.16    0.22
   0  11   6    1.49    0.27
   0  11  -6    1.54    0.27
   1 -11   6    4.77    0.38
  -1 -11  -6    4.83    0.43
   1 -11   6    4.39    0.39
  -1  11  -6    4.89    0.36
   1  11   6    4.57    0.39
   1  11   6    4.53    0.40
  -1  11  -6    4.32    0.40
   2 -11   6    0.37    0.20
  -2 -11  -6    0.36    0.22
   2 -11   6    0.55    0.20
  -2  11  -6    0.46    0.22
   2  11   6    0.40    0.20
   3 -11   6    0.29    0.20
  -3 -11  -6    0.15    0.20
   3  11   6    0.21    0.19
  -3  11  -6    0.07    0.20
   4 -11   6    1.58    0.30
  -4 -11  -6    1.43    0.29
   4  11   6    1.80    0.31
   4  11   6    1.33    0.28
  -4  11  -6    0.73    0.27
  -4 -12   6    2.10    0.32
   4 -12  -6    1.82    0.31
   4  12  -6    2.59    0.36
  -4  12   6    2.51    0.37
  -3 -12   6   -0.08    0.19
   3 -12  -6    0.01    0.18
  -3  12   6    0.10    0.21
   3  12  -6    0.07    0.19
  -2 -12   6    3.13    0.36
   2 -12  -6    2.51    0.32
  -2  12   6    2.98    0.36
   2  12  -6    3.13    0.35
  -1 -12   6    2.20    0.32
   1 -12  -6    1.58    0.26
   1 -12  -6    1.68    0.29
   1  12  -6    2.50    0.48
  -1  12   6    1.72    0.29
   1  12  -6    2.04    0.28
   0 -12  -6    0.55    0.23
   0 -12   6    0.36    0.21
   0 -12  -6    0.19    0.15
   0  12  -6    0.14    0.20
   0  12   6    0.23    0.18
   0  12   6    0.13    0.16
   0  12  -6    0.07    0.15
   0  12   6   -0.16    0.18
  -1 -12  -6   -0.17    0.19
   1 -12   6    0.28    0.18
   1 -12   6    0.28    0.21
   1  12   6    0.15    0.19
   1  12   6    0.16    0.16
  -1  12  -6    0.22    0.22
   2 -12   6    0.16    0.20
  -2 -12  -6    0.56    0.23
   2  12   6    0.09    0.19
  -2  12  -6    0.64    0.25
  -3 -12  -6    0.38    0.23
   3 -12   6    0.40    0.23
  -3  12  -6    0.09    0.23
   3  12   6    0.18    0.21
  -4 -12  -6    0.43    0.24
   4 -12   6    0.11    0.22
   4  12   6    0.33    0.23
  -4  12  -6    0.19    0.25
   4  12   6    0.39    0.24
   4 -13  -6    0.37    0.24
  -4 -13   6    0.09    0.20
  -4  13   6    0.13    0.25
   4  13  -6    0.02    0.22
  -3 -13   6    1.67    0.31
   3 -13  -6    1.61    0.29
   3  13  -6    1.82    0.33
  -3  13   6    2.25    0.37
   2 -13  -6    0.33    0.21
  -2 -13   6    0.08    0.21
  -2  13   6    0.13    0.21
   2  13  -6    0.03    0.19
   1 -13  -6    1.16    0.25
  -1 -13   6    1.01    0.27
   1 -13  -6    1.07    0.26
   1 -13  -6    1.59    0.31
  -1  13   6    1.05    0.29
   1  13  -6    1.50    0.27
   0 -13   6    1.06    0.25
   0 -13  -6    0.88    0.27
   0  13  -6    0.57    0.25
   0  13   6    0.95    0.23
   0  13  -6    1.42    0.25
   0  13   6    0.90    0.27
   0  13   6    0.96    0.26
  -1 -13  -6    1.33    0.31
   1 -13   6    1.60    0.28
   1 -13   6    1.58    0.31
  -1  13  -6    1.68    0.31
   1  13   6    1.51    0.27
   2 -13   6    1.54    0.29
  -2 -13  -6    2.13    0.35
   2  13   6    1.17    0.27
  -2  13  -6    1.32    0.31
  -3 -13  -6    7.94    0.56
   3 -13   6    7.19    0.56
  -3  13  -6    7.32    0.56
   3  13   6    7.13    0.54
  -3 -14   6    0.11    0.22
   3 -14  -6    0.14    0.23
   3  14  -6    0.35    0.24
  -3  14   6    0.04    0.24
   2 -14  -6    0.37    0.24
  -2 -14   6    0.70    0.26
  -2  14   6   -0.04    0.22
   2  14  -6    0.12    0.21
   1 -14  -6    0.96    0.28
  -1 -14   6    1.15    0.31
   1 -14  -6    0.54    0.37
   1 -14  -6    0.74    0.29
   1  14  -6    1.03    0.26
  -1  14   6    0.64    0.27
   0 -14   6    0.09    0.22
   0 -14  -6    0.38    0.25
   0  14  -6    0.06    0.17
   0  14   6    0.33    0.22
   0  14  -6    0.22    0.23
   1 -14   6    0.03    0.21
  -1 -14  -6    0.27    0.22
   1  14   6    0.13    0.21
   1  14   6    0.01    0.18
  -1  14  -6   -0.06    0.23
  -2 -14  -6    1.98    0.35
   2 -14   6    1.68    0.31
   2  14   6    1.23    0.29
  -2  14  -6    1.76    0.36
   3 -14   6   -0.08    0.21
  -3 -14  -6    0.35    0.25
   3  14   6   -0.18    0.22
   3  14   6    0.49    0.26
  -3  14  -6   -0.10    0.22
   2 -15  -6    0.22    0.23
  -2 -15   6   -0.13    0.22
   2  15  -6    0.36    0.24
  -2  15   6    0.18    0.26
  -1 -15   6    0.24    0.22
  -1  15   6   -0.25    0.24
   1  15  -6    0.08    0.21
   0 -15   6    1.16    0.30
   0 -15  -6    0.71    0.28
   0 -15  -6    0.91    0.31
  -1 -15  -6    0.45    0.28
   1 -15   6    0.62    0.28
  -1  15  -6    0.38    0.28
   1  15   6    0.88    0.30
   1  15   6    0.24    0.21
  -7   0   7   -0.04    0.21
   6   0  -7    0.07    0.06
  -6   0   7   -0.09    0.16
  -5   0   7    0.18    0.16
  -5   0   7    0.04    0.19
   5   0  -7    0.04    0.05
  -5   0   7    0.03    0.05
  -4   0   7    0.04    0.06
  -4   0   7   -0.06    0.12
  -4   0   7   -0.10    0.06
   4   0  -7    0.05    0.05
   4   0  -7   -0.02    0.05
  -4   0   7   -0.08    0.13
  -3   0   7   -0.08    0.08
   3   0  -7    0.03    0.05
   3   0  -7   -0.07    0.04
  -3   0   7   -0.01    0.11
  -3   0   7    0.01    0.06
  -3   0   7    0.00    0.06
  -2   0   7    0.03    0.11
   2   0  -7    0.01    0.05
   2   0  -7    0.07    0.06
   2   0  -7    0.00    0.05
  -2   0   7   -0.07    0.08
  -2   0   7   -0.02    0.07
   1   0  -7   -0.10    0.07
  -1   0   7   -0.03    0.08
  -1   0   7   -0.03    0.06
   1   0  -7   -0.19    0.07
  -1   0   7   -0.05    0.08
  -1   0   7    0.05    0.07
   0   0  -7   -0.01    0.07
   0   0   7    0.42    0.09
   0   0   7    0.06    0.09
   0   0   7   -0.02    0.08
   0   0  -7    0.00    0.07
   1   0   7   -0.01    0.09
  -1   0  -7   -0.02    0.06
  -1   0  -7   -0.04    0.08
   1   0   7   -0.09    0.08
   1   0   7   -0.15    0.08
   2   0   7   -0.01    0.05
   2   0   7    0.03    0.07
   2   0   7    0.07    0.08
  -2   0  -7   -0.04    0.08
   2   0   7    0.00    0.09
  -2   0  -7    0.00    0.05
   3   0   7   -0.03    0.07
   3   0   7   -0.02    0.10
   3   0   7   -0.03    0.07
  -3   0  -7   -0.06    0.13
   3   0   7   -0.01    0.08
  -3   0  -7    0.01    0.10
  -4   0  -7   -0.02    0.11
   4   0   7   -0.15    0.09
   4   0   7    0.03    0.11
  -4   0  -7   -0.35    0.15
   5   0   7   -0.02    0.11
  -5   0  -7    0.10    0.12
   5   0   7    0.03    0.11
  -5   0  -7   -0.14    0.20
   6   0   7   -0.06    0.13
  -6   0  -7   -0.01    0.13
  -6   0  -7   -0.19    0.26
  -7  -1   7   -0.03    0.23
  -7   1   7   -0.02    0.21
   6  -1  -7    0.34    0.08
  -6  -1   7    0.53    0.22
  -6   1   7    0.23    0.19
  -6   1   7    0.29    0.24
   5  -1  -7    4.41    0.17
  -5  -1   7    4.25    0.35
  -5   1   7    4.33    0.33
  -5   1   7    4.21    0.17
  -5   1   7    5.03    0.43
  -4  -1   7    2.11    0.27
  -4  -1   7    2.02    0.23
  -4  -1   7    2.26    0.14
   4  -1  -7    2.42    0.13
   4  -1  -7    2.49    0.13
  -4  -1   7    2.33    0.13
  -4   1   7    2.36    0.28
   4   1  -7    2.51    0.10
  -4   1   7    2.33    0.15
  -4   1   7    2.32    0.14
   4   1  -7    2.28    0.10
  -4   1   7    2.65    0.24
  -3  -1   7    0.93    0.19
  -3  -1   7    0.74    0.10
   3  -1  -7    0.92    0.09
   3  -1  -7    0.89    0.09
  -3  -1   7    1.12    0.15
  -3  -1   7    0.93    0.10
  -3   1   7    0.86    0.18
   3   1  -7    0.92    0.08
   3   1  -7    1.00    0.08
  -3   1   7    0.94    0.13
  -3   1   7    0.98    0.10
  -3   1   7    0.76    0.10
   2  -1  -7    0.29    0.07
  -2  -1   7    0.43    0.13
  -2  -1   7    0.34    0.09
   2  -1  -7    0.32    0.07
  -2  -1   7    0.28    0.08
   2  -1  -7    0.22    0.07
   2   1  -7    0.36    0.07
  -2   1   7    0.16    0.08
  -2   1   7    0.34    0.07
   2   1  -7    0.32    0.07
  -2   1   7    0.10    0.08
  -2   1   7    0.23    0.12
   2   1  -7    0.23    0.07
  -1  -1   7   25.05    0.48
  -1  -1   7   24.90    0.52
   1  -1  -7   24.95    0.50
   1  -1  -7   24.76    0.51
  -1  -1   7   24.39    0.50
  -1  -1   7   24.33    0.51
   1   1  -7   24.18    0.51
   1   1  -7   24.45    0.50
  -1   1   7   24.38    0.48
  -1   1   7   26.04    0.53
   1   1  -7   25.10    0.52
   0  -1   7    8.31    0.26
   0  -1   7    7.98    0.27
   0  -1   7    7.97    0.27
   0  -1  -7    8.49    0.26
   0  -1  -7    8.56    0.21
   0  -1  -7    8.10    0.27
   0  -1   7    8.27    0.20
   0   1   7    8.92    0.27
   0   1   7    7.81    0.28
   0   1  -7    7.78    0.26
   0   1  -7    8.19    0.27
   0   1   7    8.09    0.28
  -1  -1  -7   45.46    0.81
   1  -1   7   44.57    0.84
  -1  -1  -7   45.78    0.84
   1  -1   7   45.96    0.84
  -1  -1  -7   46.25    0.86
  -1   1  -7   45.83    0.81
   1   1   7   46.09    0.84
   1   1   7   44.62    0.85
  -1   1  -7   45.01    0.85
   1   1   7   45.95    0.83
  -2  -1  -7   29.69    0.69
  -2  -1  -7   28.86    0.63
   2  -1   7   28.38    0.61
   2  -1   7   28.38    0.60
  -2  -1  -7   29.63    0.54
  -2   1  -7   29.70    0.64
   2   1   7   28.44    0.60
   2   1   7   29.30    0.61
   2   1   7   29.22    0.56
   2   1   7   28.55    0.63
   3  -1   7   11.22    0.33
  -3  -1  -7   11.86    0.48
   3  -1   7   10.62    0.36
  -3  -1  -7   10.90    0.37
  -3   1  -7   11.24    0.38
   3   1   7   11.05    0.34
   3   1   7   10.94    0.32
   3   1   7   11.45    0.38
   3   1   7   11.82    0.36
  -4  -1  -7   -0.09    0.15
  -4  -1  -7   -0.05    0.10
   4  -1   7    0.07    0.10
   4   1   7   -0.04    0.11
   4   1   7    0.02    0.10
  -4   1  -7   -0.05    0.11
  -4   1  -7    0.12    0.18
  -5  -1  -7    3.29    0.26
  -5  -1  -7    4.36    0.46
   5  -1   7    3.75    0.29
   5  -1   7    3.71    0.27
   5   1   7    3.38    0.26
  -5   1  -7    3.51    0.41
  -5   1  -7    3.43    0.27
   5   1   7    3.84    0.27
  -6  -1  -7    1.51    0.36
   6  -1   7    1.71    0.22
  -6  -1  -7    1.99    0.22
  -6   1  -7    1.78    0.23
   6   1   7    1.73    0.23
  -6   1  -7    1.89    0.39
   7  -2  -7    2.72    0.20
  -6  -2   7    0.07    0.20
   6  -2  -7    0.20    0.09
  -6   2   7   -0.04    0.19
  -6   2   7    0.09    0.08
  -6   2   7   -0.08    0.17
  -5  -2   7    2.39    0.30
   5  -2  -7    2.76    0.16
  -5  -2   7    2.71    0.12
   5   2  -7    2.68    0.12
  -5   2   7    2.57    0.28
  -5   2   7    2.59    0.17
  -5   2   7    3.26    0.37
  -4  -2   7    6.07    0.35
   4  -2  -7    6.23    0.22
  -4  -2   7    5.56    0.20
   4  -2  -7    5.46    0.21
  -4  -2   7    5.73    0.20
   4   2  -7    6.15    0.17
  -4   2   7    5.73    0.23
  -4   2   7    5.33    0.29
   4   2  -7    5.64    0.17
  -4   2   7    6.31    0.39
   3  -2  -7    7.72    0.23
  -3  -2   7    7.44    0.24
   3  -2  -7    7.45    0.24
  -3  -2   7    7.40    0.23
  -3   2   7    7.16    0.27
  -3   2   7    7.24    0.26
   3   2  -7    7.33    0.20
  -3   2   7    7.58    0.38
   3   2  -7    7.28    0.21
  -2  -2   7  132.05    2.03
   2  -2  -7  132.92    2.01
  -2  -2   7  131.65    2.02
   2  -2  -7  131.58    2.02
  -2  -2   7  129.53    1.96
   2  -2  -7  131.73    2.02
   2   2  -7  131.69    1.99
  -2   2   7  130.61    2.10
   2   2  -7  133.72    2.00
   2   2  -7  129.22    2.00
  -2   2   7  129.65    2.04
  -2   2   7  131.79    1.96
  -1  -2   7   51.26    0.92
   1  -2  -7   51.74    0.92
   1  -2  -7   50.74    0.90
  -1  -2   7   53.08    0.87
  -1  -2   7   52.23    0.91
   1   2  -7   52.07    0.92
  -1   2   7   52.29    0.88
   1   2  -7   51.79    0.90
   1   2  -7   52.00    0.91
  -1   2   7   52.06    0.93
   0  -2   7    2.21    0.18
   0  -2  -7    1.89    0.16
   0  -2   7    1.45    0.13
   0  -2  -7    1.78    0.11
   0  -2  -7    1.54    0.14
   0   2   7    2.11    0.16
   0   2   7    1.67    0.14
   0   2  -7    1.82    0.15
   0   2  -7    2.01    0.11
   0   2  -7    1.75    0.16
  -1  -2  -7    5.49    0.25
  -1  -2  -7    5.46    0.22
   1  -2   7    5.36    0.24
   1  -2   7    5.68    0.24
  -1  -2  -7    5.21    0.24
   1   2   7    5.63    0.24
  -1   2  -7    5.61    0.23
  -1   2  -7    5.43    0.25
   1   2   7    5.75    0.24
   1   2   7    5.36    0.25
   2  -2   7    2.72    0.19
   2  -2   7    2.71    0.19
  -2  -2  -7    2.36    0.13
  -2  -2  -7    2.67    0.24
  -2  -2  -7    1.96    0.18
   2   2   7    2.67    0.18
  -2   2  -7    2.94    0.21
   2   2   7    2.67    0.18
   2   2   7    2.55    0.20
  -3  -2  -7   13.47    0.51
  -3  -2  -7   12.86    0.40
   3  -2   7   12.92    0.37
   3  -2   7   13.08    0.40
   3   2   7   12.37    0.38
   3   2   7   12.80    0.35
   3   2   7   12.67    0.40
  -3   2  -7   13.02    0.42
  -4  -2  -7    2.04    0.21
   4  -2   7    2.31    0.21
  -4  -2  -7    2.10    0.31
  -4   2  -7    2.04    0.21
   4   2   7    2.16    0.21
   4   2   7    2.12    0.20
  -4   2  -7    2.09    0.30
   5  -2   7    0.11    0.13
  -5  -2  -7    0.19    0.22
  -5  -2  -7    0.03    0.12
   5   2   7    0.14    0.14
  -5   2  -7    0.66    0.26
  -5   2  -7   -0.09    0.12
   5   2   7    0.18    0.13
  -6  -2  -7    0.22    0.13
  -6  -2  -7    0.48    0.29
   6  -2   7    0.43    0.16
  -6   2  -7    0.23    0.15
  -6   2  -7    0.32    0.27
   6   2   7    0.25    0.15
   7  -3  -7    0.10    0.11
   6  -3  -7    0.54    0.12
  -6   3   7    0.82    0.23
   6   3  -7    0.50    0.09
  -6   3   7    0.45    0.11
  -6   3   7    0.57    0.26
   5  -3  -7    5.39    0.24
  -5  -3   7    5.39    0.19
  -5   3   7    5.18    0.41
   5   3  -7    4.92    0.18
  -5   3   7    5.57    0.25
  -5   3   7    4.98    0.34
   4  -3  -7   21.91    0.49
  -4  -3   7   21.70    0.47
   4   3  -7   22.36    0.44
  -4   3   7   22.10    0.52
  -4   3   7   21.60    0.59
   4   3  -7   22.70    0.44
  -4   3   7   22.46    0.72
  -3  -3   7   87.39    1.41
   3  -3  -7   87.78    1.42
   3  -3  -7   85.36    1.41
  -3   3   7   87.24    1.45
   3   3  -7   86.69    1.37
  -3   3   7   85.78    1.44
   3   3  -7   87.79    1.37
  -3   3   7   86.33    1.44
  -2  -3   7   17.34    0.42
   2  -3  -7   16.43    0.41
  -2  -3   7   16.92    0.41
   2  -3  -7   16.89    0.41
  -2  -3   7   17.21    0.37
  -2   3   7   16.98    0.43
   2   3  -7   16.42    0.39
   2   3  -7   17.06    0.39
   2   3  -7   17.22    0.39
  -1  -3   7   14.32    0.34
   1  -3  -7   14.10    0.38
   1  -3  -7   14.02    0.38
  -1  -3   7   13.99    0.39
  -1   3   7   14.60    0.36
   1   3  -7   14.62    0.38
   1   3  -7   14.18    0.38
   1   3  -7   13.71    0.37
  -1   3   7   14.11    0.39
   0  -3   7    6.47    0.25
   0  -3  -7    6.43    0.25
   0  -3  -7    7.02    0.28
   0  -3   7    6.17    0.26
   0   3  -7    6.82    0.27
   0   3   7    6.60    0.26
   0   3   7    6.87    0.28
   0   3  -7    6.79    0.26
  -1  -3  -7    3.96    0.20
  -1  -3  -7    3.82    0.22
   1  -3   7    3.77    0.22
  -1  -3  -7    3.53    0.22
   1  -3   7    4.02    0.23
   1   3   7    3.73    0.21
  -1   3  -7    3.85    0.20
  -1   3  -7    3.88    0.23
   1   3   7    3.78    0.21
   2  -3   7    7.82    0.30
  -2  -3  -7    7.38    0.23
  -2  -3  -7    7.54    0.34
  -2  -3  -7    8.01    0.31
   2  -3   7    7.55    0.29
   2   3   7    7.95    0.30
  -2   3  -7    7.91    0.26
  -2   3  -7    7.94    0.21
  -2   3  -7    7.71    0.31
   2   3   7    7.51    0.28
  -3  -3  -7   67.42    1.39
  -3  -3  -7   67.79    1.24
   3  -3   7   67.76    1.24
   3  -3   7   66.52    1.20
  -3   3  -7   67.93    1.15
  -3   3  -7   66.33    1.25
   3   3   7   65.08    1.21
   3   3   7   68.87    1.21
  -4  -3  -7    0.27    0.20
  -4  -3  -7    0.27    0.14
   4  -3   7    0.50    0.15
   4   3   7    0.32    0.12
  -4   3  -7    0.45    0.15
  -5  -3  -7    8.91    0.38
  -5  -3  -7    8.81    0.56
   5  -3   7    8.70    0.40
  -5   3  -7    8.69    0.40
  -5   3  -7    8.41    0.57
   5   3   7    9.13    0.38
   6  -3   7    8.88    0.43
  -6  -3  -7    8.38    0.64
  -6  -3  -7    9.10    0.39
  -6   3  -7    8.63    0.42
  -6   3  -7    8.76    0.66
   6   3   7    8.80    0.41
   7  -4  -7    0.27    0.13
   6  -4  -7    3.21    0.24
  -6   4   7    3.01    0.35
   6   4  -7    3.31    0.19
  -6   4   7    3.22    0.23
  -6   4   7    4.08    0.46
  -5  -4   7    5.32    0.22
   5  -4  -7    5.59    0.27
   5   4  -7    5.73    0.22
  -5   4   7    5.57    0.43
  -5   4   7    5.94    0.28
  -5   4   7    5.36    0.36
  -4  -4   7    0.04    0.09
   4  -4  -7    0.05    0.09
  -4   4   7   -0.22    0.16
   4   4  -7    0.05    0.08
  -4   4   7    0.14    0.11
  -4   4   7    0.08    0.12
  -3  -4   7    6.09    0.24
   3  -4  -7    7.34    0.25
   3  -4  -7    7.08    0.27
   3  -4  -7    7.71    0.28
  -3  -4   7    7.93    0.28
   3  -4  -7    6.99    0.28
  -3   4   7    7.06    0.30
   3   4  -7    7.29    0.25
   3   4  -7    7.70    0.25
   2  -4  -7   12.62    0.37
   2  -4  -7   13.62    0.38
  -2  -4   7   13.25    0.38
   2   4  -7   13.36    0.35
   2   4  -7   13.56    0.40
   2   4  -7   13.58    0.36
  -2   4   7   12.49    0.31
  -2   4   7   12.93    0.39
   1  -4  -7    1.58    0.16
  -1  -4   7    1.40    0.13
  -1  -4   7    1.76    0.17
   1  -4  -7    1.28    0.14
   1   4  -7    1.65    0.16
  -1   4   7    1.41    0.16
  -1   4   7    1.94    0.16
   1   4  -7    1.30    0.13
   0  -4  -7   41.72    0.84
   0  -4   7   41.10    0.84
   0  -4   7   41.77    0.81
   0  -4  -7   42.25    0.81
   0   4  -7   42.22    0.82
   0   4   7   42.30    0.84
   0   4  -7   43.46    0.84
   0   4   7   42.60    0.82
   1  -4   7    0.10    0.10
  -1  -4  -7   -0.02    0.09
  -1  -4  -7    0.04    0.08
   1  -4   7   -0.16    0.09
  -1  -4  -7    0.22    0.11
  -1   4  -7    0.23    0.12
  -1   4  -7    0.06    0.08
   1   4   7    0.06    0.09
   1   4   7    0.03    0.09
   2  -4   7    1.02    0.15
  -2  -4  -7    1.18    0.18
   2  -4   7    1.27    0.16
  -2  -4  -7    1.31    0.17
   2   4   7    1.32    0.16
   2   4   7    1.13    0.14
  -2   4  -7    1.15    0.13
  -2   4  -7    1.28    0.18
   3  -4   7    2.61    0.23
  -3  -4  -7    3.60    0.27
   3  -4   7    2.97    0.23
  -3  -4  -7    2.98    0.30
  -3   4  -7    2.90    0.19
   3   4   7    2.65    0.22
  -3   4  -7    2.62    0.25
  -4  -4  -7   25.73    0.84
   4  -4   7   26.01    0.68
  -4  -4  -7   24.65    0.65
   4   4   7   24.43    0.64
  -4   4  -7   26.54    0.64
  -4   4  -7   26.59    0.70
  -5  -4  -7    3.58    0.44
   5  -4   7    3.73    0.32
  -5  -4  -7    3.18    0.27
   5   4   7    3.80    0.28
  -5   4  -7    3.23    0.30
   6  -4   7    0.25    0.16
  -6  -4  -7    0.08    0.26
  -6  -4  -7    0.03    0.14
  -6   4  -7    0.06    0.27
   6   4   7   -0.04    0.13
  -6   4  -7    0.13    0.17
   6  -5  -7   -0.07    0.11
  -6   5   7   -0.27    0.21
  -6   5   7    0.14    0.32
   6   5  -7   -0.08    0.09
  -6   5   7    0.13    0.12
  -5  -5   7    0.68    0.12
   5  -5  -7    0.98    0.16
  -5   5   7    0.67    0.24
  -5   5   7    0.55    0.18
   5   5  -7    1.01    0.14
  -5   5   7    1.07    0.17
  -4  -5   7    9.24    0.33
   4  -5  -7    9.45    0.36
   4   5  -7    8.65    0.31
  -4   5   7   10.18    0.38
   3  -5  -7   46.74    0.93
  -3  -5   7   49.35    0.93
   3  -5  -7   48.65    0.92
  -3   5   7   46.52    0.96
   3   5  -7   48.06    0.90
   2  -5  -7    4.79    0.25
  -2  -5   7    5.29    0.26
   2  -5  -7    5.35    0.26
   2   5  -7    5.18    0.25
  -2   5   7    5.29    0.28
  -2   5   7    4.99    0.21
   2   5  -7    5.24    0.24
  -1  -5   7    0.25    0.09
   1  -5  -7   -0.04    0.09
   1  -5  -7    0.07    0.10
  -1  -5   7    0.11    0.10
   1   5  -7    0.12    0.10
   1   5  -7    0.12    0.09
  -1   5   7    0.13    0.10
  -1   5   7    0.09    0.08
   0  -5  -7   25.88    0.60
   0  -5   7   25.58    0.62
   0  -5   7   25.72    0.60
   0  -5  -7   26.33    0.63
   0   5   7   26.34    0.61
   0   5   7   25.42    0.62
   0   5  -7   26.40    0.60
   0   5  -7   26.08    0.62
   1  -5   7    4.96    0.27
  -1  -5  -7    4.83    0.23
   1  -5   7    4.78    0.26
  -1  -5  -7    4.77    0.26
  -1   5  -7    4.55    0.24
   1   5   7    4.77    0.26
  -1   5  -7    4.81    0.27
   1   5   7    4.74    0.26
   2  -5   7    5.36    0.28
  -2  -5  -7    4.82    0.31
   2  -5   7    5.60    0.30
  -2  -5  -7    5.84    0.31
  -2   5  -7    5.77    0.31
  -2   5  -7    5.73    0.25
   2   5   7    5.61    0.28
   2   5   7    5.00    0.26
   2   5   7    5.05    0.28
  -3  -5  -7   18.95    0.65
   3  -5   7   19.61    0.58
   3  -5   7   20.05    0.68
  -3  -5  -7   19.51    0.57
   3   5   7   18.93    0.54
  -3   5  -7   20.26    0.50
  -3   5  -7   19.63    0.59
   4  -5   7    9.48    0.42
  -4  -5  -7    9.80    0.54
  -4  -5  -7    9.81    0.41
   4   5   7    8.92    0.39
  -4   5  -7    9.17    0.37
  -4   5  -7    9.48    0.43
  -5  -5  -7    2.24    0.24
  -5  -5  -7    2.15    0.35
   5  -5   7    2.39    0.28
   5   5   7    2.26    0.25
  -5   5  -7    2.56    0.29
  -6  -5  -7    0.66    0.34
  -6  -5  -7    0.59    0.18
   6  -5   7    0.55    0.20
   6   5   7    0.84    0.19
  -6   5  -7    0.87    0.35
  -6   5  -7    0.86    0.22
  -6  -6   7    2.33    0.19
   6  -6  -7    2.09    0.25
  -6   6   7    2.06    0.24
  -6   6   7    1.74    0.35
   6   6  -7    2.33    0.22
  -5  -6   7    0.89    0.15
   5  -6  -7    1.10    0.18
   5   6  -7    1.04    0.16
  -5   6   7    0.82    0.21
  -5   6   7    1.17    0.30
  -5   6   7    1.17    0.19
  -4  -6   7    0.12    0.11
   4  -6  -7   -0.07    0.11
  -4   6   7    0.08    0.13
   4   6  -7    0.04    0.10
   3  -6  -7   15.75    0.48
  -3  -6   7   14.70    0.46
   3   6  -7   15.03    0.44
  -3   6   7   15.58    0.50
   2  -6  -7    0.07    0.11
  -2  -6   7    0.02    0.11
   2  -6  -7    0.20    0.12
  -2   6   7    0.06    0.12
  -2   6   7    0.09    0.08
   2   6  -7    0.12    0.09
   2   6  -7    0.05    0.10
   1  -6  -7    2.04    0.21
   1  -6  -7    1.76    0.19
  -1  -6   7    1.78    0.20
  -1  -6   7    1.55    0.16
   1   6  -7    1.58    0.17
  -1   6   7    1.36    0.18
   1   6  -7    1.76    0.18
  -1   6   7    1.63    0.18
   0  -6  -7   24.69    0.63
   0  -6   7   23.93    0.62
   0  -6   7   22.56    0.58
   0  -6  -7   23.48    0.58
   0   6   7   23.23    0.61
   0   6  -7   23.16    0.61
   0   6  -7   24.26    0.60
   0   6   7   23.16    0.59
  -1  -6  -7    6.29    0.31
   1  -6   7    6.08    0.31
   1  -6   7    6.38    0.32
  -1  -6  -7    6.73    0.29
   1   6   7    6.15    0.30
   1   6   7    6.35    0.31
   1   6   7    6.30    0.31
  -1   6  -7    6.53    0.30
  -1   6  -7    6.69    0.34
  -2  -6  -7    1.75    0.18
  -2  -6  -7    1.30    0.21
   2  -6   7    1.42    0.20
   2  -6   7    1.28    0.18
   2   6   7    1.39    0.19
  -2   6  -7    1.63    0.18
   2   6   7    1.37    0.19
   2   6   7    1.36    0.18
  -2   6  -7    1.43    0.19
  -3  -6  -7   -0.08    0.13
  -3  -6  -7   -0.08    0.16
   3  -6   7    0.13    0.14
  -3   6  -7   -0.08    0.14
   3   6   7    0.04    0.12
   3   6   7   -0.18    0.11
   4  -6   7    0.34    0.17
  -4  -6  -7    0.50    0.16
  -4  -6  -7    0.54    0.24
  -4   6  -7    0.37    0.18
   4   6   7    0.44    0.15
   5  -6   7    0.04    0.16
  -5  -6  -7    0.13    0.16
  -5  -6  -7    0.25    0.26
  -5   6  -7    0.13    0.17
   5   6   7    0.26    0.16
   6  -6   7   -0.23    0.16
  -6  -6  -7    0.18    0.30
  -6  -6  -7   -0.20    0.13
  -6   6  -7    0.29    0.30
  -6   6  -7   -0.19    0.17
   6   6   7   -0.01    0.15
   6  -7  -7    0.18    0.16
  -6  -7   7    0.27    0.12
  -6   7   7    0.32    0.17
  -6   7   7    0.45    0.28
   6   7  -7    0.33    0.14
   5  -7  -7    1.09    0.20
  -5  -7   7    1.21    0.18
   5   7  -7    0.88    0.17
  -5   7   7    1.10    0.20
  -5   7   7    1.16    0.29
  -4  -7   7    0.08    0.12
   4  -7  -7    0.20    0.14
  -4   7   7    0.32    0.16
   4   7  -7    0.10    0.12
   3  -7  -7    2.65    0.26
  -3  -7   7    2.63    0.24
   3   7  -7    2.48    0.22
  -3   7   7    1.99    0.25
  -2  -7   7   13.24    0.46
   2  -7  -7   12.47    0.45
   2  -7  -7   13.22    0.45
  -2   7   7   12.06    0.47
   2   7  -7   12.72    0.42
   2   7  -7   12.97    0.44
  -2   7   7   12.77    0.40
  -1  -7   7    1.04    0.15
  -1  -7   7    1.03    0.18
   1  -7  -7    1.26    0.19
   1  -7  -7    1.12    0.18
   1   7  -7    1.12    0.17
  -1   7   7    1.19    0.20
  -1   7   7    0.99    0.15
   1   7  -7    1.09    0.16
   0  -7   7    0.44    0.15
   0  -7  -7    0.49    0.14
   0  -7  -7    0.58    0.16
   0  -7   7    0.68    0.15
   0   7   7    0.57    0.14
   0   7   7    0.44    0.14
   0   7  -7    0.55    0.15
   0   7   7    0.56    0.14
   0   7  -7    0.49    0.13
  -1  -7  -7    1.31    0.19
   1  -7   7    1.49    0.20
   1  -7   7    1.29    0.20
  -1  -7  -7    1.35    0.17
   1   7   7    1.80    0.22
  -1   7  -7    1.71    0.20
  -1   7  -7    1.23    0.19
   1   7   7    1.62    0.21
   1   7   7    1.41    0.20
   2  -7   7    6.98    0.37
  -2  -7  -7    6.63    0.37
   2  -7   7    6.99    0.36
   2   7   7    6.42    0.34
  -2   7  -7    6.68    0.32
   2   7   7    6.45    0.33
  -2   7  -7    6.51    0.38
   2   7   7    6.62    0.36
  -3  -7  -7    0.89    0.19
   3  -7   7    0.52    0.17
  -3   7  -7    1.02    0.21
   3   7   7    0.97    0.19
   3   7   7    0.54    0.16
   4  -7   7    1.25    0.22
  -4  -7  -7    1.60    0.24
   4   7   7    1.12    0.21
   4   7   7    1.22    0.22
  -4   7  -7    1.59    0.26
   5  -7   7    1.42    0.25
  -5  -7  -7    1.51    0.24
  -5   7  -7    1.80    0.28
   5   7   7    1.33    0.23
   6  -7   7    0.09    0.19
  -6  -7  -7    0.05    0.16
   6   7   7    0.24    0.18
  -6   7  -7    0.23    0.21
   6  -8  -7    5.93    0.41
  -6  -8   7    6.12    0.33
  -6   8   7    5.48    0.39
   6   8  -7    5.93    0.37
   5  -8  -7    4.91    0.36
  -5  -8   7    4.62    0.31
  -5   8   7    4.81    0.37
   5   8  -7    4.28    0.32
  -5   8   7    3.97    0.44
  -4  -8   7    1.67    0.22
   4  -8  -7    1.65    0.24
  -4   8   7    1.47    0.24
   4   8  -7    1.61    0.21
   3  -8  -7   11.02    0.47
  -3  -8   7   11.11    0.45
  -3   8   7   11.21    0.48
   3   8  -7   10.54    0.43
  -2  -8   7   12.42    0.48
   2  -8  -7   11.43    0.45
   2  -8  -7   10.66    0.45
   2   8  -7   11.82    0.45
  -2   8   7   11.90    0.50
   2   8  -7   11.22    0.43
   1  -8  -7    0.34    0.15
   1  -8  -7    0.48    0.16
  -1  -8   7    0.85    0.15
  -1  -8   7    0.63    0.18
   1   8  -7    0.74    0.16
  -1   8   7    0.63    0.16
   1   8  -7    0.50    0.16
  -1   8   7    0.55    0.18
   0  -8  -7   11.17    0.46
   0  -8   7   10.50    0.41
   0  -8   7   10.17    0.45
   0  -8  -7   10.35    0.41
   0   8  -7   10.41    0.44
   0   8   7   10.28    0.42
   0   8   7   11.01    0.44
   0   8   7   10.08    0.43
   0   8  -7   10.38    0.42
  -1  -8  -7    0.67    0.18
  -1  -8  -7    0.60    0.14
   1  -8   7    0.43    0.15
   1  -8   7    0.44    0.17
  -1   8  -7    0.58    0.17
   1   8   7    0.51    0.16
  -1   8  -7    0.56    0.15
   1   8   7    0.35    0.14
   1   8   7    0.49    0.15
   2  -8   7    7.30    0.40
   2  -8   7    8.08    0.41
  -2  -8  -7    7.82    0.42
   2   8   7    8.72    0.39
  -2   8  -7    7.39    0.42
   2   8   7    8.75    0.41
   2   8   7    8.19    0.41
   3  -8   7    4.33    0.35
  -3  -8  -7    4.27    0.35
   3   8   7    4.76    0.35
   3   8   7    4.99    0.35
  -3   8  -7    5.00    0.38
  -4  -8  -7    4.24    0.34
   4  -8   7    3.83    0.36
  -4   8  -7    4.15    0.38
   4   8   7    4.80    0.36
   4   8   7    4.51    0.37
   5  -8   7    1.18    0.26
  -5  -8  -7    1.46    0.25
   5   8   7    1.56    0.25
  -5   8  -7    1.58    0.28
   5  -9  -7    0.43    0.19
  -5  -9   7    0.36    0.17
  -5   9   7    0.01    0.17
   5   9  -7    0.43    0.18
   4  -9  -7    0.64    0.20
  -4  -9   7    0.45    0.17
  -4   9   7    0.35    0.19
   4   9  -7    0.66    0.18
  -3  -9   7    3.83    0.32
   3  -9  -7    3.94    0.33
   3   9  -7    3.34    0.29
  -3   9   7    3.74    0.35
  -2  -9   7   44.27    1.05
   2  -9  -7   46.48    1.04
   2  -9  -7   44.47    1.03
  -2   9   7   43.39    1.05
   2   9  -7   44.50    1.02
   1  -9  -7    3.34    0.33
  -1  -9   7    2.80    0.30
  -1  -9   7    3.15    0.26
   1  -9  -7    2.35    0.25
  -1   9   7    3.02    0.30
   1   9  -7    3.07    0.30
   1   9  -7    3.05    0.30
  -1   9   7    2.99    0.26
   0  -9   7   28.36    0.80
   0  -9  -7   28.68    0.81
   0  -9   7   29.92    0.77
   0  -9  -7   30.20    0.77
   0   9   7   30.09    0.81
   0   9   7   30.09    0.79
   0   9  -7   31.97    0.83
   0   9   7   30.20    0.79
   0   9  -7   29.72    0.79
  -1  -9  -7   19.44    0.65
   1  -9   7   19.02    0.65
   1  -9   7   19.74    0.62
  -1  -9  -7   19.15    0.57
  -1   9  -7   20.03    0.67
   1   9   7   18.75    0.62
   1   9   7   17.61    0.61
  -1   9  -7   18.86    0.60
   1   9   7   19.68    0.63
   2  -9   7    0.44    0.18
  -2  -9  -7    0.46    0.19
   2  -9   7    0.29    0.18
   2   9   7    0.48    0.17
  -2   9  -7    0.55    0.20
  -3  -9  -7    0.11    0.18
   3  -9   7   -0.14    0.15
   3   9   7    0.08    0.16
  -3   9  -7    0.11    0.19
   3   9   7    0.13    0.15
  -4  -9  -7    0.61    0.21
   4  -9   7    0.12    0.18
   4   9   7    0.04    0.18
  -4   9  -7    0.23    0.20
   4   9   7    0.52    0.19
   5  -9   7    0.21    0.22
  -5  -9  -7    0.81    0.23
   5   9   7    0.29    0.19
  -5   9  -7    0.46    0.24
   5 -10  -7    2.05    0.31
  -5 -10   7    2.36    0.29
  -5  10   7    1.91    0.30
   5  10  -7    2.27    0.30
   4 -10  -7   -0.08    0.17
  -4 -10   7    0.02    0.15
   4  10  -7    0.02    0.16
  -4  10   7   -0.03    0.18
   3 -10  -7    0.68    0.21
  -3 -10   7    0.59    0.20
  -3  10   7    0.63    0.22
   3  10  -7    0.89    0.20
   2 -10  -7   18.40    0.65
   2 -10  -7   19.58    0.66
  -2 -10   7   20.09    0.68
   2  10  -7   19.82    0.65
  -2  10   7   19.37    0.69
   1 -10  -7   -0.08    0.15
  -1 -10   7    0.31    0.17
   1 -10  -7    0.19    0.18
   1  10  -7    0.11    0.14
  -1  10   7    0.56    0.17
   1  10  -7    0.29    0.16
  -1  10   7    0.36    0.18
   0 -10  -7    0.94    0.21
   0 -10   7    1.19    0.23
   0 -10   7    1.21    0.21
   0 -10  -7    1.34    0.22
   0  10  -7    1.53    0.23
   0  10   7    1.36    0.24
   0  10  -7    1.31    0.25
   0  10   7    1.15    0.22
   0  10   7    1.10    0.21
   1 -10   7    0.25    0.16
   1 -10   7    0.20    0.16
  -1 -10  -7    0.35    0.18
  -1  10  -7    0.37    0.16
  -1  10  -7    0.55    0.21
   1  10   7    0.42    0.17
   1  10   7    0.36    0.18
   1  10   7    0.30    0.18
   2 -10   7    0.38    0.18
   2 -10   7    0.22    0.17
  -2 -10  -7    0.27    0.19
   2  10   7    0.29    0.16
  -2  10  -7    0.28    0.18
  -3 -10  -7    2.51    0.31
   3 -10   7    2.51    0.31
   3  10   7    2.74    0.32
  -3  10  -7    2.73    0.35
   3  10   7    2.54    0.30
  -4 -10  -7    1.24    0.26
   4 -10   7    1.44    0.28
   4  10   7    1.30    0.26
   4  10   7    1.30    0.26
  -4  10  -7    1.90    0.31
  -5 -10  -7    0.64    0.23
   5 -10   7    0.32    0.23
  -5  10  -7    0.25    0.24
   5  10   7    0.37    0.22
   5 -11  -7    1.65    0.31
  -5 -11   7    1.33    0.25
  -5  11   7    2.09    0.33
   5  11  -7    1.67    0.30
   4 -11  -7    0.00    0.19
  -4 -11   7    0.24    0.19
  -4  11   7    0.37    0.23
   4  11  -7    0.38    0.21
   3 -11  -7    0.14    0.19
  -3 -11   7    0.30    0.18
   3  11  -7   -0.02    0.16
  -3  11   7    0.08    0.18
   2 -11  -7   -0.38    0.25
  -2 -11   7    0.33    0.17
   2 -11  -7    0.38    0.19
   2  11  -7    0.14    0.18
  -2  11   7    0.34    0.22
  -1 -11   7    0.19    0.19
   1 -11  -7   -0.02    0.15
   1 -11  -7    0.12    0.19
   1  11  -7    0.24    0.18
   1  11  -7    0.11    0.17
  -1  11   7    0.18    0.19
  -1  11   7    0.21    0.17
   0 -11  -7    0.40    0.17
   0 -11   7    0.30    0.18
   0 -11   7    0.49    0.18
   0 -11  -7    0.52    0.21
   0  11   7    0.56    0.22
   0  11  -7    0.30    0.16
   0  11   7    0.40    0.17
   0  11   7    0.15    0.16
   0  11  -7    0.05    0.18
  -1 -11  -7    1.73    0.28
   1 -11   7    1.67    0.25
   1 -11   7    1.55    0.28
  -1  11  -7    1.71    0.25
   1  11   7    1.72    0.26
   1  11   7    1.73    0.28
   1  11   7    1.95    0.29
  -1  11  -7    2.03    0.31
   2 -11   7    3.84    0.37
  -2 -11  -7    4.08    0.40
   2 -11   7    4.75    0.42
   2  11   7    4.96    0.41
   2  11   7    4.58    0.42
  -2  11  -7    4.23    0.41
  -3 -11  -7    4.68    0.44
   3 -11   7    4.09    0.41
   3  11   7    4.53    0.41
   3  11   7    4.67    0.44
  -3  11  -7    3.64    0.40
  -4 -11  -7   -0.12    0.19
   4 -11   7    0.21    0.22
   4  11   7   -0.16    0.19
   4  11   7   -0.17    0.18
  -4  11  -7   -0.14    0.20
   4 -12  -7   -0.02    0.21
  -4 -12   7   -0.07    0.19
   4  12  -7    0.01    0.21
  -4  12   7   -0.15    0.23
   3 -12  -7    0.03    0.19
  -3 -12   7    0.09    0.19
   3  12  -7    0.09    0.19
  -3  12   7   -0.05    0.21
   2 -12  -7    0.26    0.20
  -2 -12   7    0.80    0.23
  -2  12   7    0.62    0.25
   2  12  -7    0.62    0.20
   1 -12  -7    1.19    0.27
   1 -12  -7    1.35    0.25
  -1 -12   7    1.02    0.26
  -1  12   7    1.06    0.27
   1  12  -7    0.91    0.23
   0 -12  -7   -0.04    0.19
   0 -12  -7    0.07    0.28
   0 -12   7    0.36    0.21
   0  12   7    0.03    0.15
   0  12   7    0.31    0.21
   0  12   7   -0.06    0.17
   0  12  -7    0.15    0.16
   0  12  -7    0.18    0.21
  -1 -12  -7    0.62    0.24
   1 -12   7    0.91    0.24
   1 -12   7    1.24    0.27
   1  12   7    0.81    0.25
  -1  12  -7    0.75    0.26
   1  12   7    0.76    0.22
   1  12   7    0.85    0.24
   2 -12   7   -0.11    0.18
  -2 -12  -7   -0.09    0.19
  -2  12  -7    0.00    0.21
   2  12   7   -0.21    0.15
   2  12   7    0.03    0.19
  -3 -12  -7    0.82    0.27
   3 -12   7    1.33    0.29
   3  12   7    1.47    0.29
  -3  12  -7    0.72    0.27
   3  12   7    1.58    0.31
  -4 -12  -7   -0.20    0.20
   4 -12   7   -0.28    0.21
   4  12   7    0.16    0.23
  -4  12  -7   -0.20    0.22
   4  12   7    0.18    0.22
  -4 -13   7    0.10    0.21
   4 -13  -7    0.33    0.24
  -4  13   7    0.24    0.24
   4  13  -7    0.16    0.24
  -3 -13   7    0.61    0.24
   3 -13  -7    1.06    0.28
   3  13  -7    0.67    0.25
  -3  13   7    0.09    0.22
   2 -13  -7    1.20    0.27
  -2 -13   7    1.60    0.30
   2  13  -7    1.38    0.28
  -2  13   7    1.51    0.34
   1 -13  -7    0.40    0.24
   1 -13  -7    0.58    0.23
  -1 -13   7    0.25    0.21
   1  13  -7    0.26    0.19
  -1  13   7   -0.16    0.20
   0 -13  -7    0.77    0.27
   0 -13   7    0.51    0.24
   0  13   7    0.42    0.24
   0  13   7    0.00    0.19
   0  13   7    0.13    0.18
   0  13  -7    0.40    0.19
   0  13  -7    0.10    0.23
   1 -13   7    0.10    0.20
   1 -13   7    0.08    0.19
  -1 -13  -7    0.20    0.24
   1  13   7    0.28    0.20
   1  13   7    0.00    0.20
  -1  13  -7    0.34    0.25
  -2 -13  -7    2.07    0.37
   2 -13   7    2.72    0.37
   2  13   7    1.68    0.30
   2  13   7    2.20    0.35
  -2  13  -7    3.01    0.41
   3 -13   7    0.44    0.26
  -3 -13  -7    0.08    0.23
   3  13   7    0.07    0.23
   3  13   7    0.06    0.23
  -3  13  -7   -0.15    0.22
   3 -14  -7    1.39    0.33
  -3 -14   7    1.02    0.30
   3  14  -7    1.34    0.31
  -3  14   7    0.56    0.29
  -2 -14   7    2.64    0.37
   2 -14  -7    3.91    0.42
   2  14  -7    3.82    0.43
  -2  14   7    4.16    0.47
   1 -14  -7    3.18    0.42
  -1 -14   7    4.38    0.46
   1 -14  -7    4.56    0.49
   1  14  -7    3.91    0.42
  -1  14   7    3.80    0.46
   0 -14  -7    3.51    0.42
   0 -14   7    3.33    0.40
   0  14   7    3.42    0.41
   0  14  -7    2.93    0.35
   0  14  -7    3.81    0.43
   1 -14   7    0.34    0.22
  -1 -14  -7    0.84    0.30
   1  14   7    0.32    0.25
  -1  14  -7    0.36    0.25
   1  14   7    0.31    0.23
  -2 -14  -7    0.42    0.28
   2 -14   7    0.82    0.28
  -2  14  -7    0.45    0.28
   2  14   7    0.98    0.27
   2  14   7    0.33    0.26
   2 -15  -7    0.05    0.22
  -2 -15   7    0.03    0.25
  -2  15   7    0.83    0.31
   2  15  -7    0.35    0.24
  -1 -15   7    0.72    0.27
  -1  15   7    0.65    0.30
   1  15  -7    0.91    0.26
   0 -15  -7    0.31    0.27
   0 -15  -7    0.09    0.22
   0 -15   7    0.02    0.21
  -1 -15  -7   -0.10    0.25
   1 -15   7    0.94    0.44
   1  15   7    0.03    0.21
   1  15   7    0.09    0.25
  -1  15  -7    0.29    0.25
  -6   0   8    3.42    0.36
   6   0  -8    3.40    0.16
  -5   0   8    0.61    0.09
  -5   0   8    0.50    0.23
   5   0  -8    0.81    0.09
  -5   0   8    0.55    0.18
  -4   0   8    1.09    0.21
  -4   0   8    1.07    0.12
  -4   0   8    1.17    0.18
   4   0  -8    1.21    0.10
   4   0  -8    1.39    0.11
  -3   0   8    2.94    0.17
  -3   0   8    3.16    0.27
   3   0  -8    2.78    0.14
   3   0  -8    2.76    0.14
  -3   0   8    2.70    0.15
  -3   0   8    3.00    0.19
   2   0  -8  345.61    5.03
   2   0  -8  343.98    5.03
   2   0  -8  348.23    5.02
  -2   0   8  348.28    5.06
  -2   0   8  351.99    5.07
  -2   0   8  340.94    5.18
  -1   0   8  313.41    4.53
  -1   0   8  313.02    4.56
   1   0  -8  316.94    4.57
   1   0  -8  306.56    4.55
  -1   0   8  308.48    4.58
  -1   0   8  307.46    4.57
   0   0   8   27.01    0.58
   0   0   8   27.37    0.56
   0   0  -8   26.53    0.56
   0   0  -8   26.43    0.57
   0   0   8   26.63    0.58
   1   0   8  143.87    2.29
   1   0   8  142.84    2.28
  -1   0  -8  146.83    2.24
   1   0   8  147.84    2.27
  -1   0  -8  144.63    2.29
   2   0   8    7.42    0.28
   2   0   8    7.29    0.29
  -2   0  -8    7.46    0.30
   2   0   8    7.91    0.31
   2   0   8    8.23    0.21
   3   0   8   26.58    0.63
   3   0   8   27.69    0.65
  -3   0  -8   26.55    0.64
  -3   0  -8   26.81    0.75
   3   0   8   27.51    0.59
   4   0   8   11.97    0.42
  -4   0  -8   12.79    0.56
  -4   0  -8   13.65    0.45
   4   0   8   12.79    0.45
   5   0   8    0.02    0.13
  -5   0  -8    0.04    0.13
   5   0   8    0.27    0.14
  -5   0  -8   -0.08    0.20
  -6   0  -8   -0.03    0.27
  -6   0  -8    0.17    0.15
   6   0   8   -0.19    0.13
   7  -1  -8    0.17    0.12
  -7  -1   8    0.02    0.23
   6  -1  -8   -0.18    0.07
  -6  -1   8   -0.04    0.18
  -6   1   8    0.02    0.17
   6   1  -8   -0.15    0.06
  -6   1   8   -0.15    0.22
   5  -1  -8    7.65    0.24
  -5  -1   8    7.27    0.41
  -5  -1   8    7.75    0.22
  -5   1   8    7.98    0.25
   5   1  -8    7.70    0.21
  -5   1   8    7.72    0.40
  -5   1   8    7.64    0.48
  -4  -1   8    9.50    0.28
   4  -1  -8    9.87    0.26
  -4  -1   8   10.49    0.48
  -4  -1   8   10.06    0.41
   4  -1  -8    9.76    0.27
  -4   1   8    9.79    0.37
   4   1  -8    9.77    0.25
  -4   1   8    9.99    0.49
   4   1  -8    9.38    0.25
  -4   1   8   10.34    0.30
  -3  -1   8    1.32    0.13
   3  -1  -8    1.56    0.13
  -3  -1   8    1.58    0.12
   3  -1  -8    1.69    0.13
  -3  -1   8    1.86    0.23
   3   1  -8    1.46    0.12
  -3   1   8    1.52    0.22
   3   1  -8    1.30    0.11
  -3   1   8    1.62    0.14
  -3   1   8    1.78    0.15
   2  -1  -8   70.98    1.18
  -2  -1   8   73.23    1.21
   2  -1  -8   71.10    1.18
   2  -1  -8   71.52    1.18
  -2  -1   8   72.44    1.20
  -2  -1   8   71.03    1.31
  -2   1   8   72.49    1.22
   2   1  -8   70.72    1.17
   2   1  -8   73.19    1.17
  -2   1   8   70.91    1.31
   2   1  -8   72.51    1.17
  -2   1   8   73.85    1.27
   1  -1  -8    4.72    0.21
  -1  -1   8    5.08    0.23
  -1  -1   8    4.75    0.22
   1  -1  -8    4.99    0.22
  -1  -1   8    4.97    0.19
  -1  -1   8    5.23    0.22
   1   1  -8    4.83    0.22
  -1   1   8    4.74    0.23
   1   1  -8    4.89    0.21
  -1   1   8    4.57    0.20
   0  -1  -8   50.89    0.94
   0  -1   8   51.16    0.82
   0  -1  -8   52.34    0.92
   0  -1   8   50.16    0.94
   0  -1   8   50.68    0.94
   0  -1   8   51.64    0.92
   0  -1  -8   52.19    0.84
   0   1   8   50.53    0.94
   0   1  -8   53.88    0.95
   0   1   8   51.04    0.94
   0   1  -8   51.12    0.92
   0   1   8   50.68    0.91
  -1  -1  -8   32.06    0.63
  -1  -1  -8   31.46    0.67
  -1  -1  -8   31.31    0.65
   1  -1   8   31.54    0.66
   1  -1   8   31.66    0.65
   1   1   8   31.50    0.67
  -1   1  -8   30.94    0.63
  -1   1  -8   31.69    0.67
   1   1   8   32.22    0.66
   1   1   8   31.68    0.66
  -2  -1  -8   80.23    1.37
  -2  -1  -8   76.20    1.41
   2  -1   8   79.54    1.34
   2  -1   8   78.37    1.34
   2   1   8   78.04    1.34
   2   1   8   78.67    1.33
   2   1   8   78.80    1.24
  -2   1  -8   77.97    1.36
   2   1   8   76.74    1.36
  -2   1  -8   70.99    1.25
  -3  -1  -8    7.07    0.31
  -3  -1  -8    5.66    0.35
   3  -1   8    6.34    0.30
   3  -1   8    6.15    0.26
  -3   1  -8    6.23    0.30
   3   1   8    6.74    0.32
   3   1   8    6.47    0.26
   3   1   8    6.03    0.28
  -4  -1  -8    1.86    0.29
   4  -1   8    1.98    0.20
  -4  -1  -8    1.99    0.21
  -4   1  -8    1.70    0.28
  -4   1  -8    1.67    0.20
   4   1   8    2.02    0.21
   4   1   8    2.22    0.23
   5  -1   8   10.84    0.43
   5  -1   8   10.12    0.44
  -5  -1  -8   10.77    0.42
  -5  -1  -8   10.10    0.58
  -5   1  -8    9.73    0.60
   5   1   8   11.63    0.43
  -5   1  -8   10.47    0.43
   5   1   8   10.16    0.42
  -6  -1  -8    6.39    0.36
   6  -1   8    6.39    0.38
  -6  -1  -8    5.71    0.58
  -6   1  -8    6.68    0.56
  -6   1  -8    6.05    0.36
   6   1   8    6.90    0.38
   7  -2  -8    0.15    0.11
   6  -2  -8   10.69    0.33
  -6   2   8   10.66    0.61
  -6   2   8   10.73    0.29
  -6   2   8   10.59    0.52
   6   2  -8   10.34    0.27
  -5  -2   8    1.37    0.11
   5  -2  -8    1.49    0.14
   5   2  -8    1.51    0.12
  -5   2   8    1.67    0.15
  -5   2   8    1.79    0.24
  -5   2   8    0.83    0.23
   4  -2  -8    5.22    0.22
  -4  -2   8    4.82    0.21
  -4   2   8    5.08    0.28
  -4   2   8    4.90    0.23
  -4   2   8    5.34    0.37
   4   2  -8    4.67    0.18
   4   2  -8    5.02    0.18
   3  -2  -8   27.56    0.56
   3  -2  -8   28.71    0.57
  -3  -2   8   27.98    0.57
   3   2  -8   27.95    0.54
  -3   2   8   27.11    0.58
  -3   2   8   28.26    0.58
  -3   2   8   28.46    0.60
  -3   2   8   27.25    0.74
   3   2  -8   28.06    0.54
   2  -2  -8   19.07    0.44
  -2  -2   8   19.80    0.46
  -2  -2   8   19.63    0.41
   2  -2  -8   19.24    0.44
   2  -2  -8   18.50    0.47
  -2  -2   8   19.19    0.45
  -2   2   8   19.87    0.47
   2   2  -8   19.24    0.42
  -2   2   8   19.73    0.36
   2   2  -8   19.07    0.43
   2   2  -8   19.81    0.43
  -1  -2   8    1.35    0.14
   1  -2  -8    1.39    0.14
   1  -2  -8    1.31    0.14
  -1  -2   8    1.48    0.13
  -1  -2   8    1.34    0.14
   1   2  -8    1.39    0.13
  -1   2   8    1.43    0.13
  -1   2   8    1.59    0.16
   1   2  -8    1.51    0.14
   1   2  -8    1.50    0.15
   0  -2  -8    7.72    0.28
   0  -2   8    8.10    0.28
   0  -2   8    8.34    0.30
   0  -2  -8    8.17    0.30
   0  -2  -8    8.22    0.22
   0   2   8    7.88    0.30
   0   2  -8    8.07    0.28
   0   2   8    8.11    0.28
   0   2  -8    7.84    0.21
   0   2  -8    7.71    0.28
   1  -2   8    2.44    0.19
  -1  -2  -8    2.45    0.18
  -1  -2  -8    2.41    0.19
   1  -2   8    1.78    0.17
  -1  -2  -8    2.50    0.18
  -1   2  -8    2.56    0.20
   1   2   8    2.17    0.18
   1   2   8    2.51    0.20
   1   2   8    1.58    0.15
  -1   2  -8    2.22    0.17
  -2  -2  -8    2.91    0.22
   2  -2   8    3.33    0.22
  -2  -2  -8    2.72    0.23
   2  -2   8    2.97    0.20
   2   2   8    3.08    0.20
   2   2   8    3.17    0.22
  -2   2  -8    2.92    0.17
   2   2   8    3.13    0.21
  -2   2  -8    3.14    0.23
   3  -2   8    1.39    0.16
   3  -2   8    1.01    0.16
  -3  -2  -8    0.76    0.15
  -3  -2  -8    0.56    0.19
   3   2   8    1.07    0.14
   3   2   8    1.19    0.16
   3   2   8    0.91    0.16
  -3   2  -8    0.82    0.17
   4  -2   8   29.80    0.72
  -4  -2  -8   28.85    0.89
  -4  -2  -8   29.49    0.72
   4   2   8   27.33    0.68
  -4   2  -8   28.94    0.89
  -4   2  -8   29.18    0.73
   4   2   8   30.35    0.72
   5  -2   8    2.44    0.25
  -5  -2  -8    2.97    0.26
  -5  -2  -8    2.36    0.37
   5   2   8    2.70    0.27
   5   2   8    2.55    0.24
  -5   2  -8    2.75    0.39
  -5   2  -8    2.89    0.27
  -6  -2  -8   -0.35    0.12
  -6  -2  -8   -0.03    0.26
   6  -2   8    0.04    0.15
  -6   2  -8    0.07    0.15
   6   2   8    0.03    0.14
  -6   2  -8   -0.48    0.23
   7  -3  -8    0.02    0.11
   6  -3  -8    0.16    0.11
  -6   3   8   -0.24    0.19
   6   3  -8    0.04    0.08
  -6   3   8    0.09    0.10
  -6   3   8    0.19    0.19
  -5  -3   8    0.38    0.09
   5  -3  -8    0.14    0.10
  -5   3   8    0.47    0.22
  -5   3   8    0.41    0.12
   5   3  -8    0.26    0.08
  -5   3   8    0.42    0.18
  -4  -3   8    4.69    0.22
   4  -3  -8    4.86    0.23
   4   3  -8    4.79    0.20
  -4   3   8    4.81    0.25
  -4   3   8    5.04    0.28
  -4   3   8    4.78    0.36
   3  -3  -8   16.99    0.43
  -3  -3   8   17.57    0.43
   3  -3  -8   16.73    0.39
   3  -3  -8   17.99    0.43
   3   3  -8   17.05    0.40
   3   3  -8   17.11    0.40
  -3   3   8   17.89    0.43
  -3   3   8   17.28    0.46
  -3   3   8   17.37    0.45
  -2  -3   8   16.00    0.43
   2  -3  -8   16.91    0.42
  -2  -3   8   16.98    0.39
   2  -3  -8   16.18    0.42
   2   3  -8   16.58    0.40
  -2   3   8   16.65    0.36
   2   3  -8   16.31    0.40
  -2   3   8   17.24    0.45
   2   3  -8   16.93    0.41
  -1  -3   8    1.19    0.15
   1  -3  -8    1.10    0.14
   1  -3  -8    1.21    0.14
  -1  -3   8    1.25    0.13
  -1   3   8    1.18    0.14
   1   3  -8    1.39    0.14
  -1   3   8    1.42    0.14
   1   3  -8    1.60    0.15
   1   3  -8    1.05    0.14
   0  -3  -8    1.91    0.18
   0  -3   8    1.86    0.16
   0  -3   8    1.48    0.16
   0  -3  -8    2.27    0.19
   0   3  -8    1.95    0.18
   0   3  -8    2.02    0.13
   0   3  -8    2.03    0.18
   0   3   8    2.15    0.18
   0   3   8    1.73    0.18
  -1  -3  -8    2.99    0.19
   1  -3   8    2.56    0.19
  -1  -3  -8    2.94    0.20
   1  -3   8    3.06    0.21
  -1  -3  -8    2.58    0.20
   1   3   8    2.96    0.20
  -1   3  -8    2.95    0.19
   1   3   8    2.96    0.21
  -1   3  -8    2.59    0.21
   2  -3   8    0.67    0.13
  -2  -3  -8    0.70    0.15
   2  -3   8    1.00    0.15
  -2  -3  -8    0.74    0.16
   2   3   8    0.77    0.12
  -2   3  -8    1.09    0.17
   2   3   8    0.88    0.14
  -2   3  -8    0.91    0.12
  -2   3  -8    0.72    0.07
  -3  -3  -8    0.34    0.14
   3  -3   8    0.19    0.11
   3  -3   8   -0.02    0.11
  -3  -3  -8    0.21    0.16
   3   3   8    0.20    0.11
  -3   3  -8    0.35    0.15
  -4  -3  -8    0.14    0.14
   4  -3   8    0.32    0.14
  -4  -3  -8    0.24    0.18
  -4   3  -8    0.46    0.16
   4   3   8    0.25    0.13
  -5  -3  -8   -0.03    0.13
  -5  -3  -8    0.28    0.25
   5  -3   8    0.23    0.15
  -5   3  -8    0.46    0.23
   5   3   8    0.38    0.15
  -5   3  -8    0.30    0.16
  -6  -3  -8    0.58    0.32
  -6  -3  -8    0.19    0.15
   6  -3   8    0.49    0.18
  -6   3  -8    0.68    0.19
  -6   3  -8    0.33    0.30
   6   3   8    0.11    0.15
   6  -4  -8    0.65    0.14
  -6   4   8    0.19    0.12
  -6   4   8    0.30    0.23
   6   4  -8    0.31    0.10
  -5  -4   8    0.00    0.08
   5  -4  -8    0.03    0.09
  -5   4   8   -0.13    0.13
   5   4  -8    0.04    0.08
  -5   4   8   -0.11    0.20
  -5   4   8    0.04    0.11
  -4  -4   8    2.39    0.19
   4  -4  -8    2.49    0.20
  -4   4   8    2.04    0.20
  -4   4   8    2.23    0.22
  -4   4   8    2.05    0.28
   4   4  -8    2.22    0.17
   3  -4  -8    6.08    0.25
  -3  -4   8    5.77    0.26
   3  -4  -8    5.58    0.26
   3   4  -8    5.85    0.23
   3   4  -8    5.62    0.24
  -3   4   8    6.23    0.29
   2  -4  -8   15.61    0.43
  -2  -4   8   15.56    0.40
   2  -4  -8   16.38    0.44
  -2  -4   8   17.07    0.46
  -2   4   8   16.20    0.46
   2   4  -8   16.15    0.41
   2   4  -8   16.08    0.42
  -1  -4   8    0.07    0.10
   1  -4  -8    0.31    0.11
   1  -4  -8    0.15    0.10
  -1  -4   8    0.52    0.10
  -1   4   8    0.08    0.08
  -1   4   8    0.14    0.11
   1   4  -8    0.20    0.09
   1   4  -8    0.08    0.10
   0  -4   8    2.54    0.22
   0  -4  -8    2.62    0.20
   0  -4   8    2.50    0.19
   0  -4  -8    2.26    0.18
   0   4   8    2.62    0.21
   0   4  -8    2.50    0.20
   0   4  -8    2.27    0.19
   0   4   8    2.43    0.19
  -1  -4  -8    8.47    0.32
  -1  -4  -8    8.54    0.33
  -1  -4  -8    9.12    0.31
   1  -4   8    9.24    0.35
   1  -4   8    8.49    0.33
  -1   4  -8    7.96    0.34
   1   4   8    8.53    0.33
   1   4   8    8.69    0.33
  -1   4  -8    7.86    0.30
   2  -4   8    1.47    0.18
  -2  -4  -8    1.23    0.18
  -2  -4  -8    1.39    0.18
   2  -4   8    1.76    0.19
  -2  -4  -8    0.90    0.11
   2   4   8    1.07    0.16
   2   4   8    1.34    0.16
  -2   4  -8    1.35    0.15
  -2   4  -8    1.36    0.19
   3  -4   8   14.13    0.47
   3  -4   8   14.15    0.51
  -3  -4  -8   13.71    0.47
  -3  -4  -8   12.50    0.52
  -3   4  -8   15.10    0.38
  -3   4  -8   13.25    0.48
   3   4   8   13.46    0.45
   4  -4   8    1.02    0.18
  -4  -4  -8    1.10    0.19
  -4  -4  -8    0.61    0.22
  -4   4  -8    0.90    0.19
   4   4   8    0.87    0.16
  -5  -4  -8    0.31    0.16
  -5  -4  -8    0.66    0.25
   5  -4   8    0.17    0.15
  -5   4  -8    0.20    0.17
  -5   4  -8   -0.01    0.21
   5   4   8    0.35    0.15
  -6  -4  -8    0.59    0.18
  -6  -4  -8    0.12    0.27
   6  -4   8    0.52    0.20
  -6   4  -8    0.69    0.20
  -6   4  -8    0.48    0.32
   6   4   8    0.75    0.20
   6  -5  -8    1.51    0.20
  -6   5   8    1.48    0.32
   6   5  -8    1.24    0.16
  -6   5   8    1.27    0.19
  -5  -5   8    2.32    0.19
   5  -5  -8    2.30    0.22
  -5   5   8    2.20    0.22
  -5   5   8    1.88    0.33
  -5   5   8    2.56    0.28
   5   5  -8    1.99    0.18
   4  -5  -8    7.84    0.34
  -4  -5   8    8.78    0.33
  -4   5   8    8.69    0.36
  -4   5   8    8.38    0.36
   4   5  -8    8.25    0.31
   3  -5  -8    8.29    0.34
  -3  -5   8    8.59    0.34
   3   5  -8    8.28    0.31
  -3   5   8    8.85    0.37
   2  -5  -8    5.42    0.27
  -2  -5   8    6.73    0.30
   2  -5  -8    6.04    0.29
   2   5  -8    5.82    0.26
  -2   5   8    6.18    0.24
  -2   5   8    6.16    0.31
   2   5  -8    5.66    0.26
   1  -5  -8   11.72    0.40
  -1  -5   8   11.30    0.39
   1  -5  -8   12.12    0.39
  -1  -5   8   12.05    0.35
   1   5  -8   11.81    0.38
  -1   5   8   12.38    0.38
  -1   5   8   11.04    0.40
   1   5  -8   11.34    0.38
   0  -5  -8    3.44    0.22
   0  -5  -8    3.92    0.24
   0  -5   8    3.93    0.24
   0  -5   8    3.46    0.24
   0   5  -8    3.71    0.24
   0   5   8    3.44    0.23
   0   5   8    3.64    0.24
   0   5  -8    3.62    0.23
   1  -5   8    6.16    0.30
   1  -5   8    6.03    0.31
  -1  -5  -8    5.76    0.26
  -1  -5  -8    5.83    0.30
  -1   5  -8    6.52    0.32
   1   5   8    5.76    0.29
  -1   5  -8    6.38    0.28
   1   5   8    5.99    0.28
   2  -5   8   17.91    0.54
  -2  -5  -8   18.39    0.58
   2  -5   8   18.27    0.54
  -2  -5  -8   18.99    0.55
  -2  -5  -8   18.30    0.45
   2   5   8   18.03    0.51
  -2   5  -8   18.57    0.56
   2   5   8   18.02    0.53
  -2   5  -8   18.86    0.49
   3  -5   8    8.39    0.39
  -3  -5  -8    8.49    0.38
  -3  -5  -8    8.07    0.45
  -3   5  -8    7.82    0.29
  -3   5  -8    7.64    0.40
   3   5   8    7.21    0.35
  -4  -5  -8    7.91    0.39
  -4  -5  -8    8.37    0.52
   4  -5   8    8.39    0.41
   4   5   8    8.65    0.40
  -4   5  -8    8.75    0.43
   5  -5   8    5.57    0.38
  -5  -5  -8    6.11    0.52
  -5  -5  -8    6.21    0.37
  -5   5  -8    6.54    0.40
   5   5   8    5.20    0.35
  -6  -5  -8    2.50    0.27
  -6  -5  -8    1.90    0.40
   6  -5   8    2.95    0.33
  -6   5  -8    2.35    0.29
  -6   5  -8    2.39    0.42
   6   5   8    2.44    0.29
   6  -6  -8    4.03    0.32
  -6  -6   8    4.07    0.23
  -6   6   8    3.37    0.45
  -6   6   8    3.59    0.30
   6   6  -8    3.75    0.27
  -5  -6   8    2.70    0.22
   5  -6  -8    2.37    0.24
  -5   6   8    3.05    0.40
  -5   6   8    2.68    0.26
   5   6  -8    2.29    0.22
  -5   6   8    2.98    0.47
  -4  -6   8    0.08    0.11
   4  -6  -8    0.07    0.12
  -4   6   8   -0.03    0.13
   4   6  -8    0.03    0.10
  -3  -6   8    8.43    0.36
   3  -6  -8    8.42    0.36
   3   6  -8    8.22    0.34
  -3   6   8    7.83    0.37
  -2  -6   8   49.10    1.01
   2  -6  -8   50.37    1.01
   2  -6  -8   48.33    1.00
   2   6  -8   48.76    0.96
  -2   6   8   50.38    0.94
   2   6  -8   48.71    0.98
  -2   6   8   50.08    1.04
  -1  -6   8   53.92    1.10
   1  -6  -8   57.71    1.09
   1  -6  -8   54.20    1.10
  -1  -6   8   55.94    1.03
   1   6  -8   55.99    1.08
  -1   6   8   55.19    1.12
   1   6  -8   55.77    1.08
  -1   6   8   54.60    1.06
   0  -6  -8    0.82    0.14
   0  -6   8    1.04    0.18
   0  -6  -8    0.91    0.17
   0  -6   8    0.73    0.13
   0   6  -8    1.08    0.18
   0   6  -8    1.05    0.16
   0   6   8    1.20    0.19
   0   6   8    1.21    0.17
  -1  -6  -8    6.40    0.32
  -1  -6  -8    7.52    0.31
   1  -6   8    7.45    0.35
   1  -6   8    6.68    0.33
  -1   6  -8    7.24    0.32
   1   6   8    6.57    0.31
  -1   6  -8    6.47    0.33
   1   6   8    7.12    0.33
   2  -6   8   41.60    0.92
   2  -6   8   40.70    0.91
  -2  -6  -8   39.12    0.91
   2   6   8   39.88    0.89
  -2   6  -8   40.41    0.94
  -2   6  -8   40.81    0.85
   2   6   8   39.88    0.88
   3  -6   8    3.79    0.31
  -3  -6  -8    4.29    0.32
  -3  -6  -8    4.12    0.34
   3   6   8    4.55    0.31
  -3   6  -8    4.31    0.33
  -4  -6  -8    4.63    0.46
  -4  -6  -8    5.05    0.34
   4  -6   8    5.79    0.37
  -4   6  -8    6.48    0.40
   4   6   8    5.24    0.34
  -5  -6  -8    0.11    0.16
  -5  -6  -8   -0.11    0.23
   5  -6   8   -0.27    0.14
  -5   6  -8    0.02    0.18
   5   6   8    0.13    0.15
  -6  -6  -8    0.97    0.35
   6  -6   8    0.77    0.22
  -6  -6  -8    0.13    0.17
  -6   6  -8    0.87    0.23
  -6   6  -8    0.75    0.35
   6   6   8    0.79    0.21
  -6  -7   8    0.40    0.13
   6  -7  -8    0.26    0.17
  -6   7   8    0.46    0.18
   6   7  -8    0.30    0.15
  -6   7   8    0.41    0.27
   5  -7  -8    0.08    0.14
  -5  -7   8   -0.05    0.12
  -5   7   8   -0.09    0.20
   5   7  -8   -0.16    0.12
  -5   7   8   -0.16    0.14
   4  -7  -8    0.51    0.16
  -4  -7   8    0.76    0.17
  -4   7   8    0.41    0.16
   4   7  -8    0.85    0.17
   3  -7  -8    3.38    0.28
  -3  -7   8    3.26    0.27
   3   7  -8    3.75    0.28
  -3   7   8    3.38    0.30
   2  -7  -8    3.46    0.27
  -2  -7   8    4.06    0.30
   2  -7  -8    3.83    0.28
  -2   7   8    3.79    0.24
   2   7  -8    4.02    0.28
  -2   7   8    3.68    0.30
   2   7  -8    3.78    0.26
  -1  -7   8    4.76    0.26
  -1  -7   8    4.79    0.30
   1  -7  -8    4.76    0.31
   1  -7  -8    5.24    0.30
  -1   7   8    4.34    0.31
   1   7  -8    4.47    0.29
  -1   7   8    5.06    0.29
   1   7  -8    4.68    0.29
   0  -7   8    4.75    0.28
   0  -7  -8    4.57    0.28
   0  -7   8    4.77    0.32
   0  -7  -8    5.01    0.30
   0   7   8    4.85    0.30
   0   7   8    4.90    0.29
   0   7  -8    4.39    0.28
   0   7  -8    4.58    0.29
  -1  -7  -8   12.02    0.42
   1  -7   8   11.60    0.44
  -1  -7  -8   11.72    0.46
   1  -7   8   12.52    0.47
  -1   7  -8   12.03    0.46
   1   7   8   11.76    0.45
  -1   7  -8   11.62    0.43
   1   7   8   12.26    0.45
   2  -7   8    0.23    0.15
  -2  -7  -8    0.30    0.17
   2  -7   8    0.29    0.14
   2   7   8    0.19    0.14
   2   7   8    0.27    0.15
  -2   7  -8    0.34    0.13
   2   7   8   -0.02    0.13
  -2   7  -8    0.18    0.16
   3  -7   8    0.36    0.16
  -3  -7  -8    0.06    0.14
   3   7   8   -0.12    0.13
  -3   7  -8    0.24    0.17
   4  -7   8    2.00    0.27
  -4  -7  -8    1.80    0.26
   4   7   8    1.47    0.23
  -4   7  -8    2.15    0.29
   5  -7   8    2.42    0.31
  -5  -7  -8    2.31    0.29
  -5   7  -8    2.43    0.31
   5   7   8    2.28    0.28
  -6  -8   8    0.08    0.13
   6  -8  -8    0.00    0.16
   6   8  -8    0.09    0.15
  -6   8   8   -0.05    0.16
  -5  -8   8    0.73    0.18
   5  -8  -8    0.66    0.19
  -5   8   8    0.23    0.18
  -5   8   8    0.30    0.25
   5   8  -8    0.51    0.17
   4  -8  -8   -0.05    0.14
  -4  -8   8   -0.12    0.13
   4   8  -8    0.18    0.14
  -4   8   8   -0.05    0.15
  -3  -8   8    0.52    0.17
   3  -8  -8    0.48    0.17
   3   8  -8    0.53    0.17
  -3   8   8    0.51    0.18
  -2  -8   8   50.56    1.11
   2  -8  -8   51.93    1.11
   2  -8  -8   51.53    1.11
   2   8  -8   49.69    1.06
   2   8  -8   52.88    1.10
  -2   8   8   49.89    1.13
  -1  -8   8    1.29    0.18
   1  -8  -8    1.95    0.25
  -1  -8   8    1.13    0.21
   1  -8  -8    1.64    0.23
  -1   8   8    1.56    0.24
   1   8  -8    1.29    0.21
  -1   8   8    1.56    0.21
   1   8  -8    1.72    0.22
   0  -8   8    1.27    0.19
   0  -8   8    1.35    0.23
   0  -8  -8    1.16    0.18
   0  -8  -8    1.44    0.21
   0   8  -8    0.75    0.17
   0   8  -8    1.23    0.22
   0   8   8    1.32    0.22
   0   8   8    1.30    0.20
   1  -8   8    1.16    0.22
  -1  -8  -8    1.35    0.21
   1  -8   8    1.51    0.22
  -1  -8  -8    1.32    0.19
   1   8   8    1.49    0.23
   1   8   8    1.15    0.21
  -1   8  -8    1.79    0.26
   1   8   8    1.68    0.23
  -1   8  -8    1.56    0.21
   2  -8   8    0.37    0.16
   2  -8   8    0.37    0.17
  -2  -8  -8    0.32    0.17
   2   8   8    0.17    0.16
   2   8   8    0.26    0.16
  -2   8  -8    0.18    0.17
   2   8   8    0.41    0.16
  -3  -8  -8    2.84    0.30
   3  -8   8    2.49    0.29
   3   8   8    3.39    0.33
  -3   8  -8    3.22    0.34
   3   8   8    3.29    0.32
  -4  -8  -8    2.96    0.32
   4  -8   8    3.65    0.35
   4   8   8    3.23    0.32
  -4   8  -8    3.94    0.38
  -5  -8  -8    0.46    0.21
   5  -8   8    0.13    0.21
   5   8   8    0.58    0.21
  -5   8  -8    0.32    0.21
   5  -9  -8    0.09    0.17
  -5  -9   8   -0.10    0.14
  -5   9   8    0.03    0.17
   5   9  -8    0.09    0.16
  -4  -9   8   -0.19    0.13
   4  -9  -8   -0.07    0.15
  -4   9   8   -0.09    0.16
   4   9  -8   -0.01    0.14
  -3  -9   8    0.32    0.16
   3  -9  -8   -0.02    0.15
   3   9  -8    0.29    0.15
  -3   9   8    0.08    0.17
   2  -9  -8    1.51    0.22
   2  -9  -8    1.67    0.24
  -2  -9   8    1.29    0.23
  -2   9   8    1.83    0.27
   2   9  -8    1.72    0.23
   1  -9  -8    0.25    0.16
   1  -9  -8   -0.02    0.15
  -1  -9   8    0.16    0.15
  -1   9   8    0.23    0.16
   1   9  -8    0.17    0.16
   1   9  -8    0.16    0.15
  -1   9   8   -0.05    0.13
   0  -9  -8    7.26    0.40
   0  -9   8    5.74    0.38
   0  -9  -8    5.91    0.35
   0  -9   8    5.34    0.34
   0   9   8    6.28    0.37
   0   9  -8    4.92    0.34
   0   9   8    5.82    0.39
   0   9  -8    5.10    0.35
   1  -9   8    8.37    0.45
  -1  -9  -8    8.39    0.46
  -1  -9  -8    8.33    0.39
   1  -9   8    9.15    0.44
   1   9   8    8.42    0.43
   1   9   8    8.56    0.44
   1   9   8    8.47    0.44
  -1   9  -8    9.08    0.42
  -1   9  -8    9.80    0.49
   2  -9   8    7.59    0.42
  -2  -9  -8    7.42    0.44
   2  -9   8    7.12    0.42
   2   9   8    7.50    0.42
   2   9   8    7.25    0.41
  -2   9  -8    7.20    0.45
   3  -9   8    0.74    0.20
  -3  -9  -8    0.89    0.24
   3   9   8    0.89    0.22
   3   9   8    0.66    0.21
  -3   9  -8    0.82    0.23
  -4  -9  -8    0.21    0.20
   4  -9   8    0.38    0.20
   4   9   8    0.24    0.19
  -4   9  -8    0.19    0.20
  -5  -9  -8   -0.13    0.17
   5  -9   8   -0.07    0.19
   5   9   8    0.08    0.19
  -5   9  -8    0.21    0.22
  -5 -10   8    0.85    0.21
   5 -10  -8    0.78    0.24
   5  10  -8    0.96    0.24
  -5  10   8    1.03    0.27
   4 -10  -8   -0.03    0.18
  -4 -10   8    0.12    0.16
   4  10  -8    0.17    0.17
  -4  10   8   -0.02    0.18
   3 -10  -8    0.98    0.23
  -3 -10   8    0.64    0.21
   3  10  -8    1.24    0.23
  -3  10   8    0.71    0.23
   2 -10  -8    0.68    0.20
   2 -10  -8    0.81    0.21
  -2 -10   8    0.65    0.21
  -2  10   8    1.59    0.27
   2  10  -8    1.06    0.21
  -1 -10   8    0.77    0.20
   1 -10  -8    1.10    0.22
   1 -10  -8    1.21    0.25
   1  10  -8    1.12    0.22
   1  10  -8    0.68    0.18
  -1  10   8    0.88    0.23
  -1  10   8    1.16    0.22
   0 -10   8    4.38    0.39
   0 -10  -8    4.70    0.39
   0 -10  -8    4.35    0.33
   0 -10   8    4.26    0.35
   0  10   8    4.51    0.39
   0  10  -8    4.44    0.39
   0  10   8    3.37    0.31
   0  10  -8    4.80    0.35
   1 -10   8    2.50    0.28
  -1 -10  -8    2.50    0.33
   1 -10   8    2.70    0.32
   1  10   8    2.66    0.30
  -1  10  -8    2.47    0.27
  -1  10  -8    2.75    0.32
   1  10   8    2.58    0.29
   1  10   8    1.82    0.24
   2 -10   8    0.53    0.19
  -2 -10  -8    0.88    0.23
   2 -10   8    0.29    0.19
   2  10   8    0.63    0.20
  -2  10  -8    0.18    0.20
   2  10   8    0.30    0.18
  -3 -10  -8   -0.09    0.17
   3 -10   8   -0.12    0.17
   3  10   8    0.02    0.17
   3  10   8   -0.15    0.16
  -3  10  -8   -0.39    0.16
   4 -10   8   -0.26    0.18
  -4 -10  -8    0.03    0.19
   4  10   8   -0.13    0.17
  -4  10  -8    0.11    0.20
  -5 -10  -8   -0.14    0.19
   5 -10   8   -0.05    0.21
   5  10   8    0.11    0.20
  -5  10  -8   -0.05    0.22
  -5 -11   8    1.63    0.28
   5 -11  -8    1.23    0.28
   5  11  -8    1.14    0.26
  -5  11   8    1.87    0.32
  -4 -11   8    1.92    0.28
   4 -11  -8    2.75    0.34
  -4  11   8    3.36    0.40
   4  11  -8    2.40    0.33
   3 -11  -8    0.23    0.19
  -3 -11   8   -0.03    0.17
   3  11  -8    0.25    0.19
  -3  11   8    0.04    0.20
  -2 -11   8    0.45    0.20
   2 -11  -8    0.19    0.17
   2  11  -8    0.32    0.18
  -2  11   8    0.46    0.20
   1 -11  -8    0.68    0.22
  -1 -11   8    0.84    0.22
   1 -11  -8    0.90    0.22
  -1  11   8    0.86    0.23
   1  11  -8    0.77    0.21
   1  11  -8    0.62    0.19
   0 -11   8    4.57    0.36
   0 -11  -8    4.67    0.36
   0 -11  -8    4.15    0.39
   0 -11   8    5.33    0.42
   0  11  -8    5.20    0.38
   0  11   8    3.77    0.37
   0  11  -8    3.66    0.36
   0  11   8    4.54    0.39
   1 -11   8   11.31    0.53
  -1 -11  -8   11.31    0.56
   1 -11   8   11.88    0.57
   1  11   8   11.30    0.53
  -1  11  -8   10.33    0.53
  -1  11  -8   12.03    0.52
   1  11   8   11.76    0.56
   1  11   8   11.65    0.55
   2 -11   8    3.66    0.37
  -2 -11  -8    4.21    0.40
   2 -11   8    3.55    0.54
  -2  11  -8    4.05    0.41
   2  11   8    4.70    0.42
   2  11   8    3.45    0.36
   3 -11   8    0.72    0.23
  -3 -11  -8    1.02    0.26
   3  11   8    0.60    0.23
   3  11   8    0.69    0.23
  -3  11  -8    0.49    0.23
   4 -11   8    0.37    0.24
  -4 -11  -8    0.18    0.21
  -4  11  -8    0.13    0.23
   4  11   8    0.33    0.22
   4 -12  -8    3.05    0.39
  -4 -12   8    3.03    0.36
  -4  12   8    2.51    0.38
   4  12  -8    2.56    0.36
   3 -12  -8    0.05    0.19
  -3 -12   8    0.12    0.19
  -3  12   8    0.39    0.23
   3  12  -8    0.03    0.19
   2 -12  -8    4.21    0.41
  -2 -12   8    4.07    0.41
   2  12  -8    3.94    0.39
  -2  12   8    3.40    0.38
   1 -12  -8    6.80    0.47
   1 -12  -8    6.44    0.44
  -1 -12   8    6.45    0.47
  -1  12   8    6.90    0.49
   1  12  -8    5.94    0.42
   0 -12  -8    0.58    0.22
   0 -12   8    1.00    0.26
   0  12   8    0.67    0.22
   0  12   8    0.65    0.24
   0  12  -8    1.19    0.25
   0  12  -8    0.89    0.26
   1 -12   8    1.65    0.28
  -1 -12  -8    1.94    0.34
   1 -12   8    2.05    0.30
   1  12   8    1.82    0.30
   1  12   8    1.27    0.25
  -1  12  -8    1.71    0.31
   1  12   8    1.77    0.37
  -2 -12  -8    2.80    0.37
   2 -12   8    3.43    0.37
   2  12   8    3.66    0.38
  -2  12  -8    3.63    0.40
   2  12   8    2.87    0.37
   3 -12   8    0.94    0.28
  -3 -12  -8    1.48    0.33
   3  12   8    1.34    0.29
  -3  12  -8    0.94    0.30
   3  12   8    1.02    0.28
  -4 -12  -8   -0.26    0.20
   4 -12   8    0.06    0.23
   4  12   8    0.17    0.22
  -4  12  -8    0.26    0.26
  -4 -13   8    0.54    0.24
  -4  13   8    1.34    0.33
   3 -13  -8    2.19    0.34
  -3 -13   8    2.17    0.34
  -3  13   8    2.46    0.37
   3  13  -8    2.85    0.38
   2 -13  -8   -0.09    0.18
  -2 -13   8   -0.07    0.18
   2  13  -8   -0.01    0.18
  -2  13   8   -0.27    0.21
  -1 -13   8    0.27    0.23
   1 -13  -8    0.22    0.19
   1 -13  -8    1.03    0.27
   1  13  -8    0.36    0.21
  -1  13   8    0.57    0.25
   0 -13   8    0.02    0.19
   0 -13  -8    0.21    0.23
   0  13  -8    0.02    0.20
   0  13   8   -0.07    0.18
   0  13   8    0.11    0.22
   0  13  -8    0.10    0.17
  -1 -13  -8   -0.03    0.22
   1 -13   8    0.03    0.27
   1 -13   8    0.11    0.20
   1  13   8    0.02    0.17
   1  13   8   -0.18    0.19
  -1  13  -8    0.00    0.20
   2 -13   8    0.34    0.23
  -2 -13  -8    0.14    0.24
   2  13   8    0.15    0.24
  -2  13  -8    0.00    0.25
   2  13   8    0.37    0.23
  -3 -13  -8    1.95    0.36
   3 -13   8    1.72    0.33
   3  13   8    1.65    0.34
   3  13   8    1.66    0.33
  -3  13  -8    1.35    0.32
  -3 -14   8    0.48    0.25
   3 -14  -8    1.08    0.31
  -3  14   8    0.28    0.26
   3  14  -8    0.65    0.28
   2 -14  -8    0.02    0.20
  -2 -14   8    0.06    0.22
   2  14  -8    0.12    0.23
  -2  14   8   -0.06    0.21
   1 -14  -8    2.25    0.37
  -1 -14   8    1.40    0.30
  -1  14   8    2.98    0.42
   1  14  -8    1.83    0.30
   0 -14  -8    0.01    0.24
   0 -14   8    0.17    0.23
   0  14   8    0.14    0.24
   0  14  -8   -0.10    0.33
   0  14  -8    0.25    0.24
   1 -14   8    0.16    0.20
  -1 -14  -8    0.11    0.26
   1  14   8    0.05    0.18
  -1  14  -8   -0.06    0.24
   1  14   8    0.08    0.23
   2 -14   8    3.41    0.41
  -2 -14  -8    4.15    0.47
   2  14   8    4.08    0.45
  -2  14  -8    3.36    0.44
   2  14   8    4.63    0.49
  -1 -15   8   -0.11    0.23
  -1  15   8   -0.06    0.23
   1  15  -8    0.37    0.22
   0 -15  -8    0.11    0.26
   0 -15   8    0.25    0.24
  -1 -15  -8    0.63    0.32
   1  15   8    0.31    0.27
  -1  15  -8    0.54    0.28
  -6   0   9   -0.38    0.15
   6   0  -9    0.06    0.08
  -5   0   9    0.16    0.15
   5   0  -9    0.03    0.07
  -5   0   9   -0.03    0.19
  -5   0   9    0.09    0.08
  -4   0   9   -0.03    0.16
   4   0  -9   -0.04    0.07
  -4   0   9   -0.04    0.08
  -4   0   9    0.03    0.12
   3   0  -9   -0.03    0.06
   3   0  -9   -0.03    0.06
  -3   0   9   -0.09    0.08
  -3   0   9   -0.03    0.03
  -3   0   9    0.18    0.14
  -2   0   9   -0.04    0.08
  -2   0   9    0.12    0.10
   2   0  -9    0.10    0.07
   2   0  -9   -0.02    0.06
   2   0  -9   -0.03    0.07
  -1   0   9   -0.05    0.08
   1   0  -9    0.06    0.08
   1   0  -9   -0.05    0.08
  -1   0   9    0.00    0.08
  -1   0   9   -0.09    0.09
  -1   0   9    0.13    0.07
   0   0   9   -0.09    0.09
   0   0  -9   -0.15    0.09
   0   0   9   -0.06    0.08
   0   0  -9    0.02    0.09
   0   0   9    0.04    0.09
   1   0   9   -0.08    0.10
   1   0   9   -0.12    0.08
  -1   0  -9    0.02    0.08
   1   0   9   -0.01    0.10
  -1   0  -9   -0.04    0.09
   2   0   9   -0.04    0.10
  -2   0  -9    0.03    0.07
   2   0   9   -0.07    0.09
  -2   0  -9    0.00    0.09
   2   0   9   -0.07    0.04
   2   0   9   -0.15    0.08
   3   0   9   -0.03    0.09
  -3   0  -9    0.13    0.12
  -3   0  -9    0.08    0.15
   3   0   9    0.05    0.10
   3   0   9    0.02    0.12
  -4   0  -9   -0.16    0.15
   4   0   9   -0.30    0.10
  -4   0  -9    0.14    0.13
   4   0   9   -0.02    0.11
   5   0   9   -0.03    0.13
  -5   0  -9   -0.09    0.13
  -5   0  -9   -0.13    0.20
   5   0   9   -0.22    0.13
   6   0   9   -0.04    0.15
  -6   0  -9   -0.28    0.26
  -6   0  -9   -0.28    0.13
   7  -1  -9    0.22    0.10
   6  -1  -9    0.06    0.09
   6   1  -9   -0.09    0.07
  -6   1   9   -0.09    0.17
  -6   1   9   -0.06    0.19
   5  -1  -9    0.07    0.08
  -5  -1   9   -0.11    0.14
  -5  -1   9    0.15    0.08
  -5   1   9    0.05    0.14
  -5   1   9   -0.03    0.19
  -5   1   9    0.07    0.08
   5   1  -9    0.13    0.07
   4  -1  -9    7.64    0.26
  -4  -1   9    7.38    0.42
  -4  -1   9    7.21    0.26
  -4   1   9    7.30    0.27
  -4   1   9    7.86    0.33
  -4   1   9    7.37    0.44
   4   1  -9    8.08    0.25
   3  -1  -9    7.30    0.25
  -3  -1   9    8.01    0.27
  -3  -1   9    7.17    0.36
   3  -1  -9    8.15    0.26
  -3   1   9    8.11    0.26
  -3   1   9    8.00    0.29
   3   1  -9    7.92    0.25
   3   1  -9    8.00    0.25
  -3   1   9    7.96    0.39
  -3   1   9    7.86    0.27
   2  -1  -9    0.41    0.09
  -2  -1   9    0.41    0.11
  -2  -1   9    0.18    0.12
   2  -1  -9    0.38    0.09
  -2   1   9    0.36    0.13
   2   1  -9    0.38    0.08
  -2   1   9    0.50    0.11
   2   1  -9    0.25    0.09
   2   1  -9    0.39    0.09
   1  -1  -9   43.09    0.82
  -1  -1   9   43.51    0.84
  -1  -1   9   43.42    0.79
   1  -1  -9   42.86    0.81
  -1  -1   9   43.82    0.82
  -1  -1   9   43.46    0.81
  -1   1   9   44.58    0.79
   1   1  -9   42.86    0.81
  -1   1   9   44.37    0.85
   1   1  -9   42.79    0.82
   0  -1   9   29.19    0.61
   0  -1   9   29.08    0.51
   0  -1   9   28.52    0.62
   0  -1  -9   28.46    0.52
   0  -1  -9   28.21    0.61
   0  -1   9   28.47    0.63
   0   1   9   29.04    0.63
   0   1  -9   27.80    0.60
   0   1   9   28.49    0.63
   0   1  -9   27.36    0.62
   0   1   9   28.81    0.61
  -1  -1  -9    0.81    0.13
   1  -1   9    0.86    0.15
  -1  -1  -9    0.81    0.11
   1  -1   9    0.89    0.14
  -1  -1  -9    0.89    0.14
   1  -1   9    0.80    0.13
   1   1   9    0.76    0.13
   1   1   9    0.75    0.12
   1   1   9    0.79    0.14
  -1   1  -9    1.06    0.16
  -1   1  -9    0.84    0.12
   2  -1   9   30.86    0.69
  -2  -1  -9   31.07    0.70
   2  -1   9   30.45    0.68
  -2  -1  -9   31.63    0.62
  -2  -1  -9   29.74    0.73
   2   1   9   29.70    0.68
   2   1   9   30.88    0.67
  -2   1  -9   31.24    0.71
  -2   1  -9   30.73    0.62
   2   1   9   30.50    0.57
   2   1   9   30.53    0.70
   3  -1   9    2.71    0.21
  -3  -1  -9    3.46    0.25
  -3  -1  -9    3.60    0.30
   3  -1   9    3.32    0.25
   3   1   9    3.43    0.26
  -3   1  -9    3.02    0.25
   3   1   9    3.63    0.26
   3   1   9    3.34    0.20
   3   1   9    3.33    0.24
  -4  -1  -9    0.47    0.22
  -4  -1  -9    0.60    0.16
   4  -1   9    0.78    0.17
   4  -1   9    0.45    0.16
  -4   1  -9    0.90    0.22
   4   1   9    0.86    0.17
   4   1   9    0.68    0.16
  -4   1  -9    1.19    0.19
  -5  -1  -9    0.12    0.21
  -5  -1  -9    0.05    0.14
   5  -1   9    0.02    0.13
   5  -1   9    0.09    0.14
  -5   1  -9    0.05    0.14
  -5   1  -9    0.07    0.23
   5   1   9   -0.06    0.13
   5   1   9    0.17    0.14
  -6  -1  -9    2.09    0.25
  -6  -1  -9    1.18    0.37
   6  -1   9    2.05    0.26
  -6   1  -9    1.75    0.24
   6   1   9    1.88    0.26
  -6   1  -9    1.84    0.40
   7  -2  -9    5.89    0.28
   6  -2  -9    1.33    0.15
   6   2  -9    1.05    0.12
  -6   2   9    1.15    0.13
  -6   2   9    1.02    0.31
   5  -2  -9    0.32    0.10
  -5  -2   9    0.27    0.09
  -5   2   9    0.06    0.20
  -5   2   9    0.43    0.11
   5   2  -9    0.26    0.08
  -5   2   9    0.70    0.17
  -4  -2   9   20.09    0.47
   4  -2  -9   20.82    0.48
   4   2  -9   20.45    0.45
  -4   2   9   20.79    0.50
  -4   2   9   19.97    0.54
  -4   2   9   20.51    0.70
  -3  -2   9    7.80    0.28
   3  -2  -9    7.54    0.27
   3  -2  -9    7.58    0.27
   3   2  -9    7.58    0.26
  -3   2   9    7.67    0.40
  -3   2   9    7.74    0.29
  -3   2   9    7.89    0.29
   3   2  -9    8.01    0.26
  -3   2   9    7.64    0.25
   2  -2  -9   68.37    1.17
  -2  -2   9   67.88    1.13
  -2  -2   9   68.56    1.19
   2  -2  -9   68.43    1.17
   2   2  -9   68.40    1.15
   2   2  -9   66.89    1.16
   2   2  -9   69.66    1.16
  -2   2   9   66.68    1.20
  -1  -2   9   20.30    0.49
   1  -2  -9   21.32    0.50
  -1  -2   9   20.97    0.46
   1  -2  -9   20.29    0.49
  -1  -2   9   20.38    0.50
   1   2  -9   20.56    0.50
  -1   2   9   20.97    0.52
  -1   2   9   21.29    0.48
   1   2  -9   20.64    0.48
   1   2  -9   20.95    0.49
   0  -2   9    5.51    0.25
   0  -2  -9    5.50    0.26
   0  -2  -9    5.41    0.25
   0  -2   9    5.41    0.25
   0  -2  -9    5.32    0.18
   0   2   9    5.56    0.26
   0   2  -9    5.78    0.27
   0   2   9    5.49    0.25
   0   2  -9    5.26    0.24
  -1  -2  -9   79.63    1.42
   1  -2   9   80.39    1.39
   1  -2   9   83.86    1.42
  -1  -2  -9   79.91    1.36
  -1  -2  -9   81.26    1.37
   1   2   9   81.44    1.40
  -1   2  -9   80.21    1.36
  -1   2  -9   79.79    1.41
   1   2   9   79.16    1.39
   1   2   9   79.40    1.41
  -2  -2  -9   35.70    0.82
  -2  -2  -9   36.53    0.79
   2  -2   9   35.90    0.78
  -2  -2  -9   36.98    0.70
   2  -2   9   36.57    0.78
   2   2   9   35.62    0.79
   2   2   9   36.41    0.76
   2   2   9   34.96    0.76
  -2   2  -9   36.77    0.80
  -2   2  -9   36.25    0.71
  -3  -2  -9    6.04    0.38
   3  -2   9    5.83    0.31
  -3  -2  -9    6.25    0.33
   3  -2   9    6.79    0.31
  -3   2  -9    6.36    0.34
   3   2   9    6.24    0.33
   3   2   9    7.06    0.32
  -4  -2  -9    1.76    0.31
   4  -2   9    1.21    0.19
  -4  -2  -9    1.62    0.21
  -4   2  -9    1.05    0.19
   4   2   9    1.80    0.22
  -4   2  -9    1.38    0.27
   4   2   9    1.29    0.18
  -5  -2  -9    0.13    0.21
  -5  -2  -9    0.43    0.16
   5  -2   9    0.38    0.16
   5   2   9    0.39    0.16
   5   2   9    0.42    0.16
  -5   2  -9    0.17    0.20
  -5   2  -9    0.15    0.15
  -6  -2  -9    1.96    0.25
   6  -2   9    1.74    0.26
  -6  -2  -9    1.54    0.37
   6   2   9    1.80    0.25
  -6   2  -9    1.79    0.25
  -6   2  -9    1.59    0.40
   7  -3  -9   -0.09    0.11
   6  -3  -9    5.51    0.28
   6   3  -9    5.03    0.22
  -6   3   9    5.26    0.26
  -6   3   9    6.30    0.58
   5  -3  -9    2.17    0.19
  -5  -3   9    2.16    0.17
   5   3  -9    2.31    0.17
  -5   3   9    1.60    0.30
  -5   3   9    2.07    0.19
  -5   3   9    2.32    0.26
   4  -3  -9    0.01    0.09
  -4  -3   9    0.12    0.09
  -4   3   9   -0.12    0.09
  -4   3   9    0.21    0.17
   4   3  -9   -0.05    0.08
  -4   3   9   -0.01    0.10
   3  -3  -9    3.35    0.21
  -3  -3   9    3.36    0.22
   3  -3  -9    3.70    0.28
   3  -3  -9    3.25    0.18
  -3  -3   9    3.60    0.21
   3   3  -9    3.28    0.19
  -3   3   9    3.49    0.23
  -3   3   9    3.51    0.18
   3   3  -9    3.68    0.20
   2  -3  -9    0.00    0.08
  -2  -3   9    0.09    0.08
   2  -3  -9   -0.09    0.08
  -2  -3   9    0.00    0.10
   2   3  -9    0.10    0.08
  -2   3   9   -0.01    0.06
   2   3  -9    0.04    0.08
  -2   3   9    0.09    0.04
  -2   3   9    0.08    0.10
  -1  -3   9    0.04    0.07
   1  -3  -9   -0.02    0.09
  -1  -3   9   -0.08    0.09
   1  -3  -9    0.04    0.09
  -1   3   9    0.05    0.10
   1   3  -9    0.00    0.09
  -1   3   9    0.03    0.08
   1   3  -9    0.05    0.09
   0  -3   9    0.72    0.12
   0  -3  -9    0.90    0.13
   0  -3  -9    0.89    0.15
   0  -3   9    1.08    0.14
   0   3  -9    1.23    0.11
   0   3   9    0.83    0.13
   0   3   9    0.67    0.14
   0   3  -9    1.04    0.14
   0   3  -9    1.01    0.14
   1  -3   9   19.04    0.52
  -1  -3  -9   19.40    0.48
  -1  -3  -9   19.18    0.48
   1  -3   9   18.96    0.50
  -1  -3  -9   18.42    0.51
   1   3   9   19.11    0.51
   1   3   9   18.99    0.50
  -1   3  -9   19.03    0.52
  -1   3  -9   18.92    0.48
  -2  -3  -9    0.39    0.13
   2  -3   9    0.50    0.13
  -2  -3  -9    0.51    0.10
  -2  -3  -9    0.32    0.13
   2  -3   9    0.63    0.14
  -2   3  -9    0.41    0.13
  -2   3  -9    0.54    0.10
   2   3   9    0.77    0.14
   2   3   9    0.47    0.12
  -3  -3  -9    2.80    0.30
  -3  -3  -9    2.83    0.25
   3  -3   9    2.84    0.25
   3  -3   9    3.52    0.33
  -3   3  -9    3.39    0.28
   3   3   9    3.09    0.25
  -4  -3  -9   14.17    0.49
   4  -3   9   14.02    0.50
  -4  -3  -9   13.84    0.62
  -4   3  -9   14.24    0.52
   4   3   9   14.05    0.48
  -5  -3  -9    7.10    0.39
  -5  -3  -9    6.82    0.53
   5  -3   9    7.54    0.41
  -5   3  -9    7.35    0.40
  -5   3  -9    7.93    0.56
   5   3   9    7.56    0.39
  -6  -3  -9    1.65    0.23
   6  -3   9    1.90    0.28
  -6  -3  -9    1.38    0.38
  -6   3  -9    2.08    0.41
  -6   3  -9    1.46    0.25
   6   3   9    1.63    0.25
   6  -4  -9    0.90    0.17
  -6   4   9    1.09    0.32
   6   4  -9    1.06    0.14
  -6   4   9    0.97    0.16
   5  -4  -9    0.03    0.10
  -5  -4   9    0.07    0.09
  -5   4   9    0.18    0.12
  -5   4   9    0.19    0.16
   5   4  -9    0.16    0.10
  -5   4   9   -0.07    0.20
   4  -4  -9   28.80    0.66
  -4  -4   9   27.85    0.63
  -4   4   9   27.51    0.87
   4   4  -9   28.82    0.62
  -4   4   9   29.47    0.68
  -4   4   9   29.09    0.68
   3  -4  -9   37.57    0.79
   3  -4  -9   40.64    0.98
  -3  -4   9   38.90    0.79
  -3   4   9   37.92    0.72
   3   4  -9   36.42    0.75
  -3   4   9   38.67    0.82
   2  -4  -9   20.88    0.53
  -2  -4   9   20.61    0.49
  -2  -4   9   20.87    0.54
   2  -4  -9   21.34    0.53
   2   4  -9   21.42    0.52
   2   4  -9   20.55    0.50
  -2   4   9   21.01    0.55
  -1  -4   9   86.64    1.46
   1  -4  -9   90.67    1.52
   1  -4  -9   88.54    1.53
  -1  -4   9   89.25    1.54
  -1   4   9   85.38    1.48
  -1   4   9   87.15    1.54
   1   4  -9   89.25    1.51
   1   4  -9   89.56    1.51
   0  -4   9    4.70    0.25
   0  -4   9    4.47    0.25
   0  -4  -9    4.68    0.25
   0  -4  -9    4.77    0.27
   0   4  -9    4.96    0.26
   0   4   9    4.59    0.25
   0   4  -9    4.73    0.27
   0   4   9    5.18    0.28
  -1  -4  -9    8.02    0.31
   1  -4   9    8.03    0.34
   1  -4   9    7.71    0.32
  -1  -4  -9    7.50    0.30
  -1  -4  -9    9.01    0.36
  -1   4  -9    8.03    0.34
   1   4   9    8.58    0.33
  -1   4  -9    8.30    0.32
   1   4   9    7.94    0.33
  -2  -4  -9   87.62    1.47
  -2  -4  -9   86.50    1.59
   2  -4   9   88.94    1.58
  -2  -4  -9   85.97    1.62
   2  -4   9   89.90    1.58
   2   4   9   90.63    1.57
   2   4   9   87.90    1.54
  -2   4  -9   88.50    1.34
  -2   4  -9   87.66    1.50
  -2   4  -9   89.07    1.60
  -3  -4  -9    1.83    0.23
  -3  -4  -9    1.67    0.25
   3  -4   9    2.01    0.23
  -3   4  -9    2.01    0.15
  -3   4  -9    2.03    0.25
   3   4   9    1.73    0.20
  -4  -4  -9   -0.16    0.18
  -4  -4  -9    0.00    0.14
   4  -4   9   -0.15    0.13
  -4   4  -9    0.21    0.16
   4   4   9    0.05    0.12
  -5  -4  -9    2.23    0.27
  -5  -4  -9    2.53    0.41
   5  -4   9    2.51    0.29
   5   4   9    2.21    0.26
  -5   4  -9    2.61    0.29
  -5   4  -9    2.40    0.40
   6  -4   9    0.42    0.20
  -6  -4  -9    0.64    0.19
  -6  -4  -9    0.72    0.32
  -6   4  -9    0.44    0.21
  -6   4  -9    0.05    0.28
   6   4   9    0.62    0.20
  -6  -5   9   -0.04    0.11
   6  -5  -9   -0.07    0.12
   6   5  -9   -0.05    0.10
  -6   5   9   -0.03    0.25
  -6   5   9   -0.09    0.12
   5  -5  -9   -0.09    0.11
  -5  -5   9   -0.03    0.10
   5   5  -9   -0.09    0.09
  -5   5   9    0.08    0.21
  -5   5   9   -0.09    0.12
  -4  -5   9    0.01    0.10
   4  -5  -9   -0.01    0.11
  -4   5   9   -0.15    0.10
  -4   5   9    0.00    0.12
   4   5  -9    0.06    0.10
  -3  -5   9   -0.03    0.12
   3  -5  -9    0.08    0.11
  -3   5   9    0.06    0.13
   3   5  -9   -0.02    0.10
   2  -5  -9    0.87    0.15
   2  -5  -9    0.69    0.15
  -2  -5   9    0.75    0.15
  -2   5   9    0.99    0.17
   2   5  -9    0.81    0.14
   2   5  -9    0.89    0.14
  -2   5   9    0.78    0.12
   1  -5  -9    2.95    0.23
  -1  -5   9    3.51    0.21
  -1  -5   9    3.26    0.25
   1  -5  -9    3.21    0.23
  -1   5   9    3.36    0.24
   1   5  -9    3.35    0.23
  -1   5   9    3.47    0.22
   1   5  -9    3.12    0.23
   0  -5  -9    0.60    0.13
   0  -5  -9    0.49    0.13
   0  -5   9    0.57    0.13
   0  -5   9    0.67    0.15
   0   5   9    0.37    0.11
   0   5   9    0.58    0.14
   0   5  -9    0.62    0.14
   0   5  -9    0.37    0.12
   1  -5   9   10.77    0.40
  -1  -5  -9   10.38    0.36
   1  -5   9   11.42    0.40
  -1  -5  -9    9.30    0.38
   1   5   9   10.63    0.39
  -1   5  -9   10.63    0.38
  -1   5  -9    9.37    0.39
   1   5   9   10.19    0.39
   2  -5   9    1.56    0.20
   2  -5   9    1.64    0.21
  -2  -5  -9    1.48    0.21
  -2  -5  -9    1.59    0.21
  -2  -5  -9    1.87    0.18
   2   5   9    1.63    0.19
  -2   5  -9    1.93    0.24
   2   5   9    1.78    0.20
  -2   5  -9    1.40    0.17
   3  -5   9    1.97    0.24
  -3  -5  -9    1.74    0.22
  -3  -5  -9    1.99    0.28
   3   5   9    1.91    0.22
  -3   5  -9    1.90    0.16
  -3   5  -9    1.53    0.22
  -4  -5  -9    1.36    0.22
  -4  -5  -9    0.78    0.24
   4  -5   9    1.15    0.21
  -4   5  -9    1.41    0.23
   4   5   9    1.31    0.20
   5  -5   9    3.80    0.34
  -5  -5  -9    3.60    0.45
  -5  -5  -9    3.46    0.32
   5   5   9    3.00    0.30
  -5   5  -9    3.36    0.34
  -6  -5  -9    0.99    0.22
  -6  -5  -9    1.56    0.40
   6  -5   9    1.03    0.24
   6   5   9    0.89    0.21
  -6   5  -9    1.01    0.24
  -6   5  -9    0.52    0.35
  -6  -6   9    1.95    0.19
   6  -6  -9    2.33    0.26
  -6   6   9    2.41    0.38
  -6   6   9    1.88    0.24
   6   6  -9    1.81    0.20
   5  -6  -9    0.56    0.16
  -5  -6   9    0.56    0.15
  -5   6   9    0.81    0.27
   5   6  -9    0.59    0.15
  -5   6   9    0.50    0.16
  -4  -6   9    0.11    0.12
   4  -6  -9    0.04    0.12
  -4   6   9    0.02    0.14
   4   6  -9    0.32    0.12
  -3  -6   9   -0.04    0.12
   3  -6  -9    0.15    0.13
   3   6  -9    0.05    0.10
  -3   6   9    0.08    0.13
  -2  -6   9   25.71    0.67
   2  -6  -9   26.36    0.67
   2  -6  -9   27.24    0.68
  -2   6   9   25.29    0.69
   2   6  -9   26.20    0.63
   2   6  -9   26.56    0.65
  -2   6   9   26.08    0.60
   1  -6  -9   13.38    0.44
   1  -6  -9   13.02    0.45
  -1  -6   9   11.60    0.44
  -1  -6   9   12.71    0.40
  -1   6   9   12.41    0.46
   1   6  -9   12.10    0.43
  -1   6   9   13.05    0.42
   1   6  -9   12.87    0.44
   0  -6  -9    0.05    0.09
   0  -6  -9   -0.12    0.11
   0  -6   9    0.08    0.10
   0  -6   9   -0.12    0.10
   0   6   9   -0.07    0.11
   0   6  -9   -0.13    0.10
   0   6  -9   -0.16    0.11
   0   6   9    0.06    0.10
  -1  -6  -9    2.00    0.21
   1  -6   9    2.03    0.24
  -1  -6  -9    1.52    0.21
   1  -6   9    1.02    0.17
   1   6   9    1.42    0.20
  -1   6  -9    1.78    0.20
   1   6   9    1.23    0.18
  -1   6  -9    1.84    0.22
   2  -6   9   10.74    0.45
   2  -6   9   11.68    0.45
  -2  -6  -9   11.26    0.46
   2   6   9   11.37    0.43
   2   6   9   11.53    0.45
  -2   6  -9   11.01    0.40
  -2   6  -9   11.65    0.48
   3  -6   9    5.02    0.35
  -3  -6  -9    4.80    0.34
  -3  -6  -9    4.63    0.37
   3   6   9    4.84    0.32
  -3   6  -9    4.60    0.35
  -4  -6  -9    4.29    0.35
  -4  -6  -9    4.28    0.45
   4  -6   9    3.38    0.32
  -4   6  -9    4.13    0.36
   4   6   9    4.56    0.34
  -5  -6  -9   -0.04    0.24
  -5  -6  -9   -0.15    0.15
   5  -6   9   -0.17    0.16
   5   6   9   -0.10    0.14
  -5   6  -9    0.11    0.19
  -6  -7   9    1.86    0.21
   6  -7  -9    2.09    0.28
  -6   7   9    2.51    0.28
   6   7  -9    2.37    0.26
   5  -7  -9    1.34    0.22
  -5  -7   9    1.26    0.19
   5   7  -9    1.61    0.21
  -5   7   9    1.25    0.22
  -5   7   9    1.21    0.30
  -4  -7   9    1.42    0.20
   4  -7  -9    1.34    0.21
   4   7  -9    1.47    0.20
  -4   7   9    1.16    0.22
  -3  -7   9    2.06    0.24
   3  -7  -9    1.80    0.22
   3   7  -9    1.63    0.21
  -3   7   9    1.59    0.23
  -2  -7   9    4.08    0.31
   2  -7  -9    4.25    0.30
   2  -7  -9    4.50    0.31
  -2   7   9    3.67    0.31
   2   7  -9    4.57    0.31
   2   7  -9    4.25    0.27
   1  -7  -9   21.24    0.62
  -1  -7   9   20.65    0.55
   1  -7  -9   20.30    0.59
  -1  -7   9   20.34    0.62
   1   7  -9   21.29    0.60
   1   7  -9   20.73    0.60
  -1   7   9   21.10    0.62
  -1   7   9   20.98    0.58
   0  -7   9    0.50    0.16
   0  -7  -9    0.38    0.15
   0  -7   9    0.38    0.14
   0  -7  -9    0.65    0.16
   0   7   9    0.56    0.15
   0   7  -9    0.62    0.16
   0   7  -9    0.43    0.15
   0   7   9    0.70    0.16
   1  -7   9    2.97    0.28
  -1  -7  -9    3.15    0.29
   1  -7   9    2.31    0.24
  -1  -7  -9    2.45    0.23
   1   7   9    2.76    0.25
   1   7   9    2.63    0.25
  -1   7  -9    2.96    0.27
  -1   7  -9    3.27    0.31
   2  -7   9    2.14    0.26
  -2  -7  -9    1.75    0.25
   2  -7   9    1.63    0.22
   2   7   9    1.49    0.21
  -2   7  -9    2.42    0.29
   2   7   9    1.87    0.24
  -3  -7  -9    3.21    0.31
   3  -7   9    2.45    0.28
  -3   7  -9    3.29    0.33
   3   7   9    3.15    0.29
   4  -7   9    1.70    0.28
  -4  -7  -9    1.50    0.24
   4   7   9    1.06    0.22
  -4   7  -9    1.03    0.24
  -5  -7  -9    1.04    0.24
   5  -7   9    0.99    0.25
   5   7   9    0.44    0.19
  -5   7  -9    0.84    0.24
  -6  -8   9    2.82    0.26
   6  -8  -9    2.52    0.31
   6   8  -9    2.84    0.29
  -6   8   9    2.94    0.32
   5  -8  -9   -0.13    0.15
  -5  -8   9    0.05    0.14
   5   8  -9   -0.10    0.13
  -5   8   9   -0.06    0.16
  -5   8   9    0.04    0.24
   4  -8  -9    2.17    0.26
  -4  -8   9    2.43    0.26
  -4   8   9    2.04    0.27
   4   8  -9    2.32    0.26
  -3  -8   9   16.32    0.57
   3  -8  -9   14.60    0.55
   3   8  -9   15.58    0.54
  -3   8   9   17.12    0.61
  -2  -8   9   10.48    0.46
   2  -8  -9   10.49    0.46
   2  -8  -9   10.59    0.46
  -2   8   9   10.79    0.49
   2   8  -9   11.45    0.47
   1  -8  -9   18.01    0.60
  -1  -8   9   18.43    0.54
   1  -8  -9   16.99    0.57
  -1  -8   9   18.79    0.62
   1   8  -9   17.31    0.57
  -1   8   9   18.79    0.57
   1   8  -9   17.83    0.58
  -1   8   9   18.63    0.62
   0  -8  -9    2.15    0.27
   0  -8  -9    1.65    0.21
   0  -8   9    1.90    0.24
   0  -8   9    1.68    0.21
   0   8   9    1.67    0.22
   0   8  -9    1.32    0.22
   0   8   9    2.26    0.28
   0   8  -9    1.35    0.21
  -1  -8  -9   22.71    0.63
   1  -8   9   21.29    0.69
   1  -8   9   21.14    0.66
  -1  -8  -9   21.81    0.70
   1   8   9   22.23    0.66
   1   8   9   23.01    0.68
  -1   8  -9   22.29    0.69
  -1   8  -9   22.10    0.64
   2  -8   9    1.25    0.22
  -2  -8  -9    1.18    0.22
   2  -8   9    1.30    0.22
   2   8   9    1.43    0.24
  -2   8  -9    1.04    0.23
   2   8   9    1.05    0.20
   3  -8   9    0.10    0.16
  -3  -8  -9   -0.05    0.17
   3   8   9    0.18    0.16
  -3   8  -9    0.19    0.18
  -4  -8  -9    0.19    0.18
   4  -8   9    0.36    0.19
   4   8   9    0.38    0.18
  -4   8  -9    0.59    0.23
  -5  -8  -9    0.85    0.23
   5  -8   9    1.03    0.25
  -5   8  -9    0.73    0.25
   5   8   9    0.58    0.22
   5  -9  -9    0.73    0.21
  -5  -9   9    1.29    0.23
  -5   9   9    1.21    0.25
   5   9  -9    0.92    0.21
   4  -9  -9    0.50    0.19
  -4  -9   9    0.29    0.17
  -4   9   9    0.26    0.19
   4   9  -9    0.53    0.18
   3  -9  -9    1.28    0.23
  -3  -9   9    1.72    0.25
   3   9  -9    1.37    0.23
  -3   9   9    0.82    0.22
  -2  -9   9    0.16    0.16
   2  -9  -9    0.08    0.16
   2  -9  -9    0.56    0.19
  -2   9   9    0.08    0.18
   2   9  -9    0.03    0.14
   1  -9  -9    1.87    0.27
  -1  -9   9    1.51    0.25
   1  -9  -9    2.41    0.27
   1   9  -9    1.89    0.25
  -1   9   9    1.75    0.25
  -1   9   9    1.83    0.24
   1   9  -9    1.60    0.24
   0  -9  -9    3.12    0.33
   0  -9   9    2.54    0.29
   0  -9  -9    2.79    0.28
   0  -9   9    3.23    0.29
   0   9  -9    2.63    0.29
   0   9   9    2.66    0.28
   0   9  -9    2.49    0.27
   0   9   9    3.42    0.32
  -1  -9  -9   19.00    0.83
  -1  -9  -9   18.20    0.67
   1  -9   9   17.29    0.63
   1  -9   9   19.51    0.64
  -1   9  -9   19.39    0.62
   1   9   9   18.89    0.65
  -1   9  -9   18.91    0.67
   1   9   9   19.17    0.64
  -2  -9  -9    0.04    0.16
   2  -9   9    0.00    0.15
   2  -9   9   -0.26    0.13
   2   9   9    0.19    0.17
  -2   9  -9    0.13    0.18
   3  -9   9    7.47    0.46
  -3  -9  -9    6.23    0.43
  -3   9  -9    6.30    0.46
   3   9   9    7.19    0.45
   4  -9   9    0.66    0.23
  -4  -9  -9    0.52    0.21
   4   9   9    0.62    0.22
  -4   9  -9    0.36    0.22
   5  -9   9    2.56    0.36
  -5  -9  -9    2.30    0.32
   5   9   9    2.52    0.33
  -5   9  -9    2.61    0.36
   5 -10  -9    0.18    0.19
  -5 -10   9   -0.15    0.14
  -5  10   9   -0.04    0.20
   5  10  -9   -0.02    0.17
   4 -10  -9    3.74    0.37
  -4 -10   9    2.99    0.33
  -4  10   9    3.73    0.39
   4  10  -9    3.31    0.33
  -3 -10   9    2.12    0.29
   3 -10  -9    1.80    0.28
  -3  10   9    1.77    0.30
   3  10  -9    1.85    0.26
   2 -10  -9   10.05    0.49
  -2 -10   9    9.33    0.49
   2 -10  -9    9.60    0.49
  -2  10   9   10.88    0.52
   2  10  -9   10.69    0.50
   1 -10  -9    1.27    0.22
   1 -10  -9    1.46    0.25
  -1 -10   9    1.51    0.27
  -1  10   9    1.92    0.30
   1  10  -9    2.09    0.28
   1  10  -9    1.94    0.26
  -1  10   9    2.12    0.26
   0 -10  -9    0.61    0.20
   0 -10   9    0.97    0.22
   0 -10  -9    0.92    0.20
   0 -10   9    0.80    0.22
   0  10  -9    0.96    0.23
   0  10   9    0.80    0.20
   0  10  -9    0.99    0.21
   0  10   9    0.71    0.22
   1 -10   9   12.24    0.53
   1 -10   9   11.38    0.55
  -1 -10  -9   11.71    0.57
  -1  10  -9   11.26    0.50
  -1  10  -9   13.54    0.59
   1  10   9   12.05    0.54
   1  10   9   11.46    0.54
   2 -10   9    0.70    0.21
   2 -10   9    0.56    0.20
  -2 -10  -9    0.79    0.24
  -2  10  -9    0.89    0.25
   2  10   9    0.64    0.21
   3 -10   9    3.44    0.38
  -3 -10  -9    3.28    0.37
   3  10   9    3.28    0.36
  -3  10  -9    3.54    0.41
  -4 -10  -9    1.25    0.28
   4 -10   9    1.23    0.29
  -4  10  -9    1.47    0.30
   4  10   9    0.93    0.26
  -5 -11   9    0.21    0.18
   5 -11  -9    0.00    0.20
   5  11  -9    0.45    0.23
  -5  11   9   -0.17    0.19
  -4 -11   9    0.08    0.19
   4 -11  -9    0.10    0.21
   4  11  -9   -0.01    0.18
  -4  11   9    0.10    0.22
   3 -11  -9    0.16    0.20
  -3 -11   9   -0.03    0.17
   3  11  -9    0.19    0.19
  -3  11   9   -0.03    0.20
   2 -11  -9    3.68    0.37
  -2 -11   9    2.50    0.33
   2  11  -9    3.31    0.35
  -2  11   9    3.13    0.37
   1 -11  -9    0.54    0.20
   1 -11  -9    0.44    0.18
  -1 -11   9    0.60    0.22
   1  11  -9    0.19    0.17
   1  11  -9    0.60    0.22
  -1  11   9    0.05    0.19
   0 -11  -9    0.02    0.16
   0 -11  -9    0.02    0.17
   0 -11   9    0.21    0.20
   0  11   9    0.19    0.17
   0  11  -9   -0.01    0.15
   0  11   9    0.13    0.17
   0  11  -9   -0.21    0.17
   1 -11   9    0.73    0.23
   1 -11   9    0.92    0.23
  -1 -11  -9    0.44    0.20
   1  11   9    1.11    0.26
  -1  11  -9    1.01    0.24
   1  11   9    0.98    0.24
  -1  11  -9    1.15    0.26
   2 -11   9    1.39    0.26
  -2 -11  -9    2.32    0.33
   2  11   9    1.81    0.29
  -2  11  -9    1.29    0.28
   3 -11   9    0.30    0.23
  -3 -11  -9    0.41    0.22
   3  11   9    0.30    0.22
  -3  11  -9    0.48    0.25
   4 -11   9    0.00    0.22
  -4 -11  -9    0.28    0.21
  -4  11  -9    0.40    0.25
   4  11   9   -0.12    0.20
   4 -12  -9    1.44    0.31
  -4 -12   9    1.06    0.26
  -4  12   9    1.20    0.30
   4  12  -9    1.36    0.28
   3 -12  -9    1.39    0.29
  -3 -12   9    1.09    0.26
   3  12  -9    1.37    0.28
  -3  12   9    1.48    0.31
  -2 -12   9    0.63    0.23
   2 -12  -9    0.40    0.21
  -2  12   9    0.33    0.23
   2  12  -9    0.12    0.20
   1 -12  -9    0.46    0.23
  -1 -12   9    0.15    0.21
   1 -12  -9    0.12    0.19
  -1  12   9    0.24    0.20
   1  12  -9    0.18    0.19
   0 -12   9    0.35    0.21
   0 -12  -9    0.08    0.21
   0  12   9   -0.24    0.17
   0  12   9   -0.03    0.19
   0  12  -9    0.01    0.17
   0  12  -9    0.11    0.19
   1 -12   9    0.15    0.19
  -1 -12  -9    0.15    0.19
   1 -12   9    0.06    0.19
  -1  12  -9   -0.18    0.17
   1  12   9   -0.07    0.18
  -2 -12  -9    0.65    0.26
   2 -12   9    0.28    0.21
  -2  12  -9    0.63    0.27
   2  12   9    0.40    0.24
  -3 -12  -9    0.73    0.26
   3 -12   9    1.04    0.30
  -3  12  -9    1.02    0.30
   3  12   9    0.49    0.25
   3 -13  -9    0.01    0.21
  -3 -13   9   -0.11    0.20
  -3  13   9   -0.01    0.21
   3  13  -9    0.00    0.22
  -2 -13   9    4.79    0.47
   2 -13  -9    4.17    0.43
  -2  13   9    4.30    0.46
   2  13  -9    3.92    0.40
   1 -13  -9    1.58    0.31
   1 -13  -9    1.38    0.29
  -1 -13   9    1.29    0.29
   1  13  -9    1.36    0.28
  -1  13   9    1.69    0.33
   0 -13   9    0.58    0.25
   0 -13  -9    0.42    0.26
   0  13   9    0.35    0.24
   0  13  -9    0.34    0.19
   0  13   9    0.41    0.23
   0  13  -9    0.26    0.24
  -1 -13  -9    0.23    0.25
   1 -13   9    0.35    0.25
   1  13   9    0.50    0.24
  -1  13  -9   -0.01    0.24
   2 -13   9    1.00    0.28
  -2 -13  -9    0.98    0.30
  -2  13  -9    0.91    0.29
   2  13   9    1.11    0.30
  -3 -13  -9   -0.21    0.22
   3 -13   9    0.00    0.23
   3  13   9    0.07    0.23
  -3  13  -9   -0.18    0.24
  -2 -14   9    0.16    0.21
   2 -14  -9   -0.05    0.21
   2  14  -9   -0.12    0.19
  -2  14   9    0.20    0.26
  -1 -14   9    0.63    0.27
   1 -14  -9    0.41    0.38
   1  14  -9    0.41    0.21
  -1  14   9    0.21    0.24
   0 -14   9    0.45    0.25
   0 -14  -9    0.33    0.24
   0  14   9    0.62    0.28
   1 -14   9    1.70    0.32
  -1 -14  -9    1.90    0.38
   1  14   9    2.17    0.36
  -1  14  -9    1.84    0.36
   2 -14   9    1.12    0.30
  -2 -14  -9    1.54    0.36
  -2  14  -9    1.01    0.32
   2  14   9    1.46    0.33
  -1 -15   9    1.68    0.34
   1  15  -9    2.00    0.33
  -1  15   9    2.16    0.40
   0 -15   9    0.75    0.28
   0 -15  -9    1.03    0.35
   7   0 -10    2.55    0.19
   6   0 -10    2.43    0.18
  -5   0  10   -0.13    0.07
  -5   0  10   -0.04    0.13
  -5   0  10   -0.04    0.17
   5   0 -10    0.01    0.08
  -4   0  10   34.44    0.96
  -4   0  10   35.91    0.72
   4   0 -10   36.42    0.69
   3   0 -10   57.51    1.02
  -3   0  10   58.66    1.05
   3   0 -10   57.77    1.01
  -3   0  10   57.20    1.05
  -3   0  10   58.75    1.22
   2   0 -10    3.32    0.20
  -2   0  10    3.66    0.22
   2   0 -10    3.36    0.18
  -2   0  10    3.44    0.25
   1   0 -10    1.58    0.16
  -1   0  10    1.94    0.19
  -1   0  10    1.37    0.13
   1   0 -10    1.54    0.16
  -1   0  10    1.49    0.16
  -1   0  10    1.66    0.16
   0   0 -10   25.97    0.59
   0   0  10   26.41    0.59
   0   0  10   26.56    0.62
   0   0  10   26.13    0.62
   0   0 -10   25.89    0.61
   0   0  10   26.37    0.50
   1   0  10   42.78    0.89
   1   0  10   43.39    0.87
  -1   0 -10   42.57    0.89
  -1   0 -10   42.72    0.84
   1   0  10   43.59    0.88
  -2   0 -10    2.73    0.26
  -2   0 -10    2.15    0.21
   2   0  10    3.02    0.22
   2   0  10    2.66    0.23
  -2   0 -10    2.66    0.18
   2   0  10    2.65    0.23
   3   0  10   11.28    0.42
  -3   0 -10   11.86    0.44
   3   0  10   11.33    0.44
  -3   0 -10   11.75    0.50
   4   0  10    3.93    0.31
  -4   0 -10    4.08    0.31
  -4   0 -10    4.06    0.41
   4   0  10    4.05    0.30
   5   0  10    2.21    0.27
  -5   0 -10    2.47    0.27
  -5   0 -10    2.23    0.38
   5   0  10    2.57    0.28
  -6   0 -10    8.47    0.44
  -6   0 -10    9.50    0.69
   6   0  10    9.80    0.48
   7  -1 -10    1.37    0.16
   6  -1 -10    9.06    0.31
   6   1 -10    9.17    0.29
  -6   1  10    9.16    0.27
  -6   1  10    9.85    0.62
  -5  -1  10    1.19    0.13
   5  -1 -10    1.10    0.13
  -5   1  10    1.02    0.19
   5   1 -10    1.13    0.12
  -5   1  10    0.85    0.24
  -5   1  10    1.20    0.14
   4  -1 -10    9.92    0.31
  -4  -1  10    9.99    0.33
  -4  -1  10    9.62    0.50
  -4   1  10   10.30    0.36
   4   1 -10   10.04    0.30
  -4   1  10    9.62    0.33
  -4   1  10   10.40    0.51
   3  -1 -10   16.52    0.42
   3  -1 -10   16.91    0.43
  -3  -1  10   16.81    0.57
  -3  -1  10   16.27    0.43
  -3  -1  10   17.60    0.45
   3   1 -10   16.63    0.42
  -3   1  10   17.77    0.46
   3   1 -10   16.53    0.41
  -3   1  10   16.33    0.56
  -3   1  10   17.25    0.46
   2  -1 -10   11.54    0.34
   2  -1 -10   11.36    0.34
  -2  -1  10   11.23    0.36
  -2  -1  10   11.64    0.41
   2   1 -10   10.99    0.34
  -2   1  10   10.94    0.40
   2   1 -10   11.03    0.33
  -2   1  10   11.06    0.36
  -1  -1  10  100.59    1.68
   1  -1 -10   98.20    1.65
  -1  -1  10   99.76    1.64
  -1  -1  10  100.90    1.66
  -1  -1  10  101.02    1.62
   1  -1 -10   98.97    1.66
  -1   1  10   99.18    1.68
   1   1 -10  100.61    1.66
  -1   1  10  101.74    1.62
   1   1 -10  102.26    1.65
   0  -1  10   59.48    0.95
   0  -1 -10   60.57    1.08
   0  -1 -10   59.38    0.98
   0  -1  10   57.96    1.10
   0  -1  10   59.71    1.08
   0  -1 -10   59.13    1.11
   0  -1  10   59.04    1.10
   0   1  10   59.19    1.10
   0   1 -10   61.34    1.09
   0   1  10   57.67    1.10
   0   1  10   60.96    1.09
   0   1 -10   60.47    1.11
  -1  -1 -10   51.61    0.96
   1  -1  10   51.35    0.98
  -1  -1 -10   49.10    1.00
  -1  -1 -10   51.17    0.96
   1  -1  10   51.71    1.00
   1  -1  10   52.06    1.02
   1   1  10   51.62    0.99
  -1   1 -10   51.35    1.02
   1   1  10   49.09    1.00
  -1   1 -10   52.18    0.96
   1   1  10   52.97    1.00
   2  -1  10    3.74    0.25
  -2  -1 -10    3.86    0.27
   2  -1  10    3.47    0.23
  -2  -1 -10    3.64    0.26
   2  -1  10    3.94    0.27
  -2  -1 -10    3.50    0.19
   2   1  10    3.81    0.24
   2   1  10    3.49    0.26
   2   1  10    3.84    0.16
   2   1  10    3.48    0.24
  -2   1 -10    3.85    0.21
  -2   1 -10    3.70    0.26
  -3  -1 -10   14.86    0.57
   3  -1  10   16.65    0.53
   3  -1  10   17.25    0.52
  -3  -1 -10   16.95    0.53
   3   1  10   17.66    0.55
   3   1  10   16.88    0.51
  -3   1 -10   16.49    0.53
   4  -1  10    8.37    0.41
  -4  -1 -10    7.29    0.48
   4  -1  10    7.93    0.38
  -4  -1 -10    8.63    0.40
   4   1  10    7.70    0.37
   4   1  10    7.71    0.39
  -4   1 -10    8.16    0.40
  -4   1 -10    7.73    0.49
   5  -1  10    5.32    0.37
  -5  -1 -10    3.75    0.43
   5  -1  10    4.54    0.34
  -5  -1 -10    4.44    0.33
   5   1  10    4.56    0.34
   5   1  10    4.82    0.34
  -5   1 -10    4.36    0.47
  -5   1 -10    5.44    0.35
   6  -1  10    0.12    0.17
  -6  -1 -10   -0.07    0.15
  -6  -1 -10    0.29    0.30
   6   1  10   -0.12    0.15
  -6   1 -10    0.17    0.30
  -6   1 -10   -0.09    0.16
   7  -2 -10    0.21    0.12
   6  -2 -10    0.87    0.14
  -6   2  10    1.12    0.29
   6   2 -10    0.78    0.12
  -6   2  10    0.93    0.13
   5  -2 -10    0.90    0.13
  -5  -2  10    0.99    0.13
   5   2 -10    0.90    0.12
  -5   2  10    1.03    0.15
  -5   2  10    1.04    0.19
  -5   2  10    0.99    0.27
  -4  -2  10    6.55    0.27
   4  -2 -10    6.63    0.27
  -4   2  10    6.06    0.40
  -4   2  10    6.16    0.28
  -4   2  10    6.24    0.29
   4   2 -10    6.17    0.25
   3  -2 -10    4.14    0.20
   3  -2 -10    4.76    0.35
   3  -2 -10    4.42    0.23
  -3  -2  10    4.25    0.24
  -3   2  10    4.31    0.25
  -3   2  10    4.73    0.34
   3   2 -10    3.98    0.21
  -3   2  10    4.44    0.18
   3   2 -10    4.48    0.21
  -2  -2  10   18.05    0.43
   2  -2 -10   17.60    0.45
  -2  -2  10   17.96    0.47
   2  -2 -10   17.61    0.46
  -2   2  10   17.54    0.48
   2   2 -10   18.14    0.44
   2   2 -10   17.41    0.45
  -2   2  10   17.59    0.39
   1  -2 -10   36.69    0.77
  -1  -2  10   37.13    0.78
  -1  -2  10   37.14    0.76
  -1  -2  10   37.65    0.72
   1  -2 -10   37.32    0.76
   1   2 -10   37.84    0.76
   1   2 -10   37.89    0.76
   1   2 -10   36.41    0.73
  -1   2  10   36.45    0.78
  -1   2  10   37.33    0.73
   0  -2 -10    0.96    0.14
   0  -2  10    0.66    0.13
   0  -2 -10    1.24    0.17
   0  -2  10    1.18    0.15
   0  -2  10    1.12    0.16
   0  -2 -10    1.17    0.11
   0   2  10    0.84    0.13
   0   2 -10    1.03    0.14
   0   2 -10    1.29    0.17
   0   2  10    0.73    0.14
  -1  -2 -10   30.65    0.66
  -1  -2 -10   28.60    0.69
   1  -2  10   29.79    0.68
   1  -2  10   30.74    0.71
  -1  -2 -10   31.28    0.66
   1   2  10   30.05    0.71
  -1   2 -10   31.81    0.67
   1   2  10   29.96    0.69
  -1   2 -10   29.38    0.70
   1   2  10   31.71    0.69
  -2  -2 -10   12.32    0.35
  -2  -2 -10   12.72    0.43
  -2  -2 -10   11.51    0.43
   2  -2  10   12.36    0.42
   2  -2  10   11.85    0.41
   2   2  10   11.89    0.41
   2   2  10   11.12    0.39
   2   2  10   11.65    0.43
  -2   2 -10   12.05    0.36
  -2   2 -10   12.08    0.43
  -3  -2 -10    7.88    0.37
  -3  -2 -10    7.18    0.42
   3  -2  10    8.11    0.37
   3   2  10    7.44    0.35
  -3   2 -10    8.73    0.39
   3   2  10    7.82    0.37
  -4  -2 -10    2.16    0.33
  -4  -2 -10    1.88    0.24
   4  -2  10    2.00    0.23
  -4   2 -10    1.70    0.31
  -4   2 -10    2.23    0.26
   4   2  10    2.24    0.25
   4   2  10    2.31    0.25
   5  -2  10    1.39    0.23
  -5  -2 -10    1.12    0.21
   5  -2  10    0.90    0.20
  -5  -2 -10    0.81    0.27
   5   2  10    1.24    0.21
  -5   2 -10    1.67    0.24
  -5   2 -10    1.13    0.31
   5   2  10    1.26    0.23
  -6  -2 -10    1.54    0.24
  -6  -2 -10    0.96    0.36
   6  -2  10    1.29    0.24
  -6   2 -10    1.54    0.40
  -6   2 -10    0.87    0.21
   6   2  10    0.83    0.21
   6  -3 -10    0.90    0.15
  -6   3  10    0.87    0.28
  -6   3  10    0.94    0.15
   6   3 -10    0.92    0.14
   5  -3 -10    0.83    0.15
  -5  -3  10    0.83    0.13
  -5   3  10    0.84    0.26
  -5   3  10    0.76    0.15
   5   3 -10    0.94    0.13
   4  -3 -10    4.94    0.26
  -4  -3  10    4.27    0.23
  -4   3  10    4.50    0.39
  -4   3  10    4.90    0.27
  -4   3  10    4.44    0.25
   4   3 -10    4.98    0.24
   3  -3 -10    0.60    0.13
  -3  -3  10    0.74    0.14
  -3   3  10    0.52    0.17
   3   3 -10    0.35    0.11
  -3   3  10    0.75    0.10
  -3   3  10    0.60    0.14
   2  -3 -10   12.39    0.38
   2  -3 -10   11.78    0.38
  -2  -3  10   12.89    0.40
  -2  -3  10   12.28    0.36
   2   3 -10   12.05    0.36
   2   3 -10   12.49    0.38
  -2   3  10   12.52    0.41
   1  -3 -10    0.92    0.14
  -1  -3  10    0.58    0.11
   1  -3 -10    1.05    0.15
  -1  -3  10    1.01    0.15
  -1  -3  10    0.42    0.11
   1   3 -10    0.64    0.13
  -1   3  10    0.91    0.13
   1   3 -10    0.69    0.13
  -1   3  10    0.77    0.15
   0  -3  10   -0.06    0.07
   0  -3 -10    0.07    0.10
   0  -3  10    0.07    0.10
   0  -3 -10    0.09    0.09
   0   3 -10   -0.10    0.07
   0   3  10   -0.03    0.10
   0   3 -10    0.09    0.10
   0   3 -10    0.02    0.05
   0   3  10   -0.08    0.09
   1  -3  10    0.91    0.16
   1  -3  10    0.84    0.14
  -1  -3 -10    0.76    0.13
  -1  -3 -10    0.79    0.14
  -1  -3 -10    0.96    0.15
   1   3  10    0.92    0.16
   1   3  10    0.89    0.15
  -1   3 -10    0.81    0.16
  -1   3 -10    0.97    0.14
  -2  -3 -10    0.17    0.12
  -2  -3 -10    0.28    0.15
  -2  -3 -10    0.11    0.08
   2  -3  10    0.08    0.11
   2  -3  10    0.03    0.11
  -2   3 -10    0.14    0.13
   2   3  10    0.33    0.13
  -2   3 -10    0.20    0.10
   2   3  10    0.09    0.11
   3  -3  10    0.14    0.14
  -3  -3 -10    0.24    0.18
  -3  -3 -10    0.42    0.16
   3   3  10    0.34    0.13
  -3   3 -10    0.24    0.16
   4  -3  10    0.19    0.15
  -4  -3 -10    0.39    0.16
  -4  -3 -10    0.68    0.23
  -4   3 -10    0.25    0.17
   4   3  10    0.23    0.14
   5  -3  10    1.48    0.24
  -5  -3 -10    1.23    0.29
  -5  -3 -10    1.48    0.24
   5   3  10    1.17    0.21
  -5   3 -10    1.59    0.32
  -5   3 -10    1.56    0.25
  -6  -3 -10    0.20    0.17
  -6  -3 -10    0.25    0.28
   6  -3  10    0.37    0.19
  -6   3 -10    0.33    0.32
  -6   3 -10    0.35    0.19
   6   3  10    0.14    0.17
   6  -4 -10    1.05    0.18
  -6   4  10    1.10    0.33
   6   4 -10    1.18    0.16
  -6   4  10    1.14    0.17
   5  -4 -10    0.08    0.12
  -5  -4  10    0.12    0.10
  -5   4  10    0.11    0.12
   5   4 -10    0.09    0.10
  -5   4  10    0.03    0.20
  -4  -4  10    0.92    0.15
   4  -4 -10    0.51    0.14
  -4   4  10    0.73    0.16
   4   4 -10    0.93    0.14
  -4   4  10    0.87    0.22
  -4   4  10    0.69    0.14
  -3  -4  10    7.18    0.32
   3  -4 -10    6.68    0.31
   3   4 -10    6.91    0.29
  -3   4  10    7.69    0.34
  -3   4  10    7.01    0.23
  -2  -4  10   15.11    0.42
   2  -4 -10   14.81    0.45
  -2  -4  10   15.71    0.46
   2  -4 -10   15.48    0.45
  -2   4  10   14.94    0.47
   2   4 -10   15.36    0.44
   2   4 -10   15.44    0.42
  -2   4  10   13.73    0.38
  -1  -4  10    1.09    0.14
  -1  -4  10    1.18    0.17
   1  -4 -10    1.34    0.18
   1  -4 -10    0.92    0.14
   1   4 -10    0.76    0.13
  -1   4  10    1.11    0.15
  -1   4  10    1.03    0.17
   1   4 -10    1.44    0.17
   0  -4 -10    1.12    0.15
   0  -4  10    1.57    0.20
   0  -4 -10    1.15    0.18
   0  -4  10    1.29    0.16
   0   4 -10    1.56    0.13
   0   4 -10    1.32    0.17
   0   4 -10    1.37    0.17
   0   4  10    1.38    0.18
   0   4  10    1.40    0.19
   1  -4  10    4.63    0.27
  -1  -4 -10    4.46    0.27
  -1  -4 -10    5.21    0.26
  -1  -4 -10    5.13    0.26
   1  -4  10    4.35    0.27
   1   4  10    4.57    0.26
   1   4  10    4.67    0.27
  -1   4 -10    4.73    0.30
  -1   4 -10    4.71    0.26
   2  -4  10   14.93    0.49
  -2  -4 -10   14.30    0.51
  -2  -4 -10   13.83    0.49
  -2  -4 -10   14.06    0.40
   2  -4  10   13.87    0.48
  -2   4 -10   14.62    0.51
   2   4  10   14.47    0.47
   2   4  10   14.30    0.46
  -2   4 -10   14.28    0.43
  -3  -4 -10    0.14    0.15
  -3  -4 -10   -0.08    0.16
   3  -4  10    0.03    0.13
   3   4  10   -0.04    0.12
  -3   4 -10   -0.09    0.14
  -4  -4 -10    2.21    0.32
  -4  -4 -10    2.32    0.27
   4  -4  10    2.86    0.29
  -4   4 -10    2.43    0.28
   4   4  10    2.20    0.24
   5  -4  10    1.00    0.22
  -5  -4 -10    0.62    0.20
  -5  -4 -10    0.84    0.29
   5   4  10    0.54    0.18
  -5   4 -10    1.19    0.33
  -5   4 -10    0.91    0.23
  -6  -4 -10    0.14    0.17
  -6  -4 -10    0.13    0.27
   6  -4  10   -0.05    0.18
   6   4  10    0.02    0.16
  -6   4 -10    0.23    0.31
  -6   4 -10   -0.04    0.18
   6  -5 -10    5.60    0.34
  -6  -5  10    5.21    0.25
  -6   5  10    5.72    0.57
   6   5 -10    5.15    0.29
  -6   5  10    5.20    0.32
   5  -5 -10    3.05    0.27
  -5  -5  10    3.39    0.24
  -5   5  10    3.24    0.28
  -5   5  10    2.50    0.35
   5   5 -10    2.75    0.23
   4  -5 -10   -0.12    0.10
  -4  -5  10    0.08    0.12
  -4   5  10   -0.01    0.18
   4   5 -10    0.00    0.10
  -4   5  10    0.05    0.13
   3  -5 -10    5.40    0.31
  -3  -5  10    6.22    0.31
   3   5 -10    5.92    0.29
  -3   5  10    5.44    0.31
  -2  -5  10   18.65    0.49
   2  -5 -10   18.54    0.52
  -2  -5  10   18.33    0.54
   2  -5 -10   17.60    0.52
   2   5 -10   17.95    0.51
  -2   5  10   18.48    0.47
  -2   5  10   17.33    0.54
   2   5 -10   18.42    0.49
   1  -5 -10    3.29    0.24
  -1  -5  10    3.49    0.22
   1  -5 -10    4.05    0.26
  -1  -5  10    3.66    0.25
  -1   5  10    3.02    0.22
   1   5 -10    3.65    0.25
   1   5 -10    3.32    0.24
  -1   5  10    3.15    0.26
   0  -5  10    0.15    0.11
   0  -5 -10    0.17    0.10
   0  -5  10    0.22    0.13
   0  -5 -10    0.18    0.12
   0   5  10    0.20    0.13
   0   5 -10    0.15    0.11
   0   5 -10    0.26    0.12
   0   5  10    0.36    0.12
   1  -5  10    1.14    0.18
  -1  -5 -10    1.22    0.16
  -1  -5 -10    1.09    0.19
   1  -5  10    1.28    0.20
  -1   5 -10    1.37    0.18
   1   5  10    1.28    0.18
   1   5  10    1.51    0.20
  -1   5 -10    1.68    0.22
  -2  -5 -10    2.51    0.27
  -2  -5 -10    2.34    0.26
   2  -5  10    2.57    0.26
   2  -5  10    2.08    0.22
  -2   5 -10    2.82    0.28
   2   5  10    2.05    0.21
   2   5  10    2.22    0.23
  -2   5 -10    2.28    0.21
  -3  -5 -10    9.10    0.48
   3  -5  10    9.10    0.43
  -3  -5 -10    9.03    0.44
  -3   5 -10   10.93    0.47
   3   5  10    9.41    0.42
  -4  -5 -10   12.90    0.52
   4  -5  10   12.88    0.53
  -4  -5 -10   11.51    0.61
  -4   5 -10   12.01    0.52
   4   5  10   13.48    0.52
  -5  -5 -10    1.76    0.38
   5  -5  10    2.58    0.31
  -5  -5 -10    2.16    0.28
   5   5  10    2.08    0.28
  -5   5 -10    2.22    0.30
  -6  -5 -10    0.18    0.29
  -6  -5 -10   -0.01    0.17
   6  -5  10    0.03    0.19
   6   5  10   -0.02    0.17
  -6   5 -10   -0.03    0.18
  -6   5 -10   -0.04    0.24
   6  -6 -10    0.01    0.14
  -6  -6  10    0.07    0.11
   6   6 -10    0.03    0.13
  -6   6  10    0.19    0.24
  -6   6  10   -0.09    0.13
  -5  -6  10    0.15    0.13
   5  -6 -10    0.05    0.14
  -5   6  10    0.06    0.19
  -5   6  10    0.11    0.14
   5   6 -10    0.08    0.13
   4  -6 -10   11.47    0.45
  -4  -6  10   11.87    0.44
  -4   6  10   11.89    0.47
   4   6 -10   11.84    0.43
   3  -6 -10   29.31    0.74
  -3  -6  10   28.55    0.73
   3   6 -10   28.38    0.70
  -3   6  10   29.51    0.76
   2  -6 -10    2.27    0.23
   2  -6 -10    2.07    0.22
  -2  -6  10    2.09    0.24
   2   6 -10    2.05    0.22
  -2   6  10    1.97    0.24
   2   6 -10    2.28    0.22
  -2   6  10    2.31    0.23
   1  -6 -10    0.48    0.14
   1  -6 -10    0.49    0.15
  -1  -6  10    0.44    0.13
  -1  -6  10    0.38    0.15
   1   6 -10    0.20    0.13
  -1   6  10    0.60    0.16
   1   6 -10    0.52    0.14
  -1   6  10    0.70    0.14
   0  -6  10    0.34    0.13
   0  -6 -10    0.25    0.15
   0  -6 -10    0.37    0.14
   0  -6  10    0.33    0.16
   0   6 -10    0.16    0.14
   0   6  10    0.37    0.15
   0   6  10    0.45    0.14
   0   6 -10    0.15    0.12
   1  -6  10    4.92    0.33
   1  -6  10    5.33    0.32
  -1  -6 -10    5.22    0.29
  -1  -6 -10    4.46    0.31
  -1   6 -10    5.85    0.31
   1   6  10    5.41    0.31
   1   6  10    5.03    0.32
  -1   6 -10    4.97    0.34
   2  -6  10   71.14    1.39
  -2  -6 -10   69.41    1.40
   2  -6  10   67.24    1.38
   2   6  10   69.19    1.37
  -2   6 -10   70.23    1.35
  -2   6 -10   68.98    1.41
   2   6  10   69.45    1.35
   3  -6  10   -0.16    0.14
  -3  -6 -10    0.13    0.19
  -3  -6 -10    0.28    0.17
   3   6  10    0.15    0.15
  -3   6 -10    0.22    0.16
   4  -6  10    3.71    0.34
  -4  -6 -10    4.03    0.35
  -4  -6 -10    4.17    0.41
  -4   6 -10    3.66    0.36
   4   6  10    4.42    0.35
   5  -6  10    5.80    0.44
  -5  -6 -10    6.10    0.41
  -5  -6 -10    7.05    0.58
   5   6  10    5.57    0.41
  -5   6 -10    5.79    0.43
  -6  -7  10    1.17    0.18
   6  -7 -10    1.46    0.25
  -6   7  10    1.31    0.24
   6   7 -10    1.48    0.22
  -5  -7  10    1.51    0.21
   5  -7 -10    1.88    0.25
  -5   7  10    1.26    0.32
   5   7 -10    1.89    0.23
  -5   7  10    1.76    0.25
   4  -7 -10    3.99    0.32
  -4  -7  10    3.22    0.29
   4   7 -10    4.02    0.30
  -4   7  10    3.15    0.30
   3  -7 -10    2.31    0.25
  -3  -7  10    2.90    0.28
  -3   7  10    2.77    0.29
   3   7 -10    2.46    0.25
   2  -7 -10   10.89    0.45
  -2  -7  10   11.51    0.47
   2  -7 -10   10.86    0.44
   2   7 -10   10.60    0.42
  -2   7  10   10.20    0.46
   2   7 -10   11.13    0.45
   1  -7 -10   14.56    0.51
  -1  -7  10   15.23    0.47
   1  -7 -10   15.83    0.54
  -1  -7  10   15.21    0.55
  -1   7  10   14.76    0.54
  -1   7  10   15.39    0.50
   1   7 -10   15.59    0.52
   1   7 -10   14.06    0.50
   0  -7 -10    0.57    0.17
   0  -7  10    1.05    0.21
   0  -7 -10    0.82    0.17
   0  -7  10    0.83    0.16
   0   7  10    0.49    0.17
   0   7 -10    0.63    0.16
   0   7 -10    0.84    0.19
   0   7  10    0.58    0.16
  -1  -7 -10    0.57    0.15
  -1  -7 -10   -0.01    0.13
   1  -7  10    0.05    0.14
   1  -7  10    0.46    0.16
  -1   7 -10    0.42    0.14
   1   7  10    0.39    0.17
  -1   7 -10    0.52    0.17
   1   7  10    0.32    0.16
   2  -7  10    0.48    0.18
  -2  -7 -10    0.52    0.18
   2  -7  10    0.68    0.19
   2   7  10    0.30    0.15
   2   7  10    0.69    0.19
  -2   7 -10    0.88    0.22
  -3  -7 -10    6.15    0.40
   3  -7  10    7.78    0.44
  -3   7 -10    6.63    0.42
   3   7  10    6.44    0.41
  -4  -7 -10    0.65    0.21
   4  -7  10    0.84    0.23
   4   7  10    0.88    0.21
  -4   7 -10    0.85    0.24
   5  -7  10    2.89    0.35
  -5  -7 -10    2.16    0.30
  -5   7 -10    2.11    0.32
   5   7  10    2.77    0.32
  -6  -8  10    0.19    0.15
   6  -8 -10    0.34    0.20
  -6   8  10    0.07    0.17
   6   8 -10    0.35    0.17
  -5  -8  10    0.09    0.14
   5  -8 -10    0.02    0.16
  -5   8  10   -0.21    0.16
   5   8 -10    0.17    0.16
  -5   8  10    0.24    0.22
  -4  -8  10    0.16    0.15
   4  -8 -10   -0.16    0.14
   4   8 -10    0.10    0.14
  -4   8  10   -0.34    0.15
  -3  -8  10    0.82    0.20
   3  -8 -10    0.39    0.17
   3   8 -10    0.66    0.18
  -3   8  10    0.77    0.21
  -2  -8  10    4.96    0.35
   2  -8 -10    4.76    0.35
   2  -8 -10    4.96    0.34
   2   8 -10    5.04    0.34
  -2   8  10    5.85    0.39
   1  -8 -10    1.42    0.22
   1  -8 -10    1.41    0.24
  -1  -8  10    1.34    0.19
  -1  -8  10    1.32    0.23
   1   8 -10    1.44    0.23
  -1   8  10    1.32    0.22
  -1   8  10    1.62    0.22
   1   8 -10    1.41    0.23
   0  -8  10    0.39    0.15
   0  -8 -10    0.43    0.15
   0  -8  10    0.45    0.17
   0  -8 -10    0.42    0.17
   0   8 -10    0.36    0.15
   0   8  10    0.35    0.16
   0   8 -10    0.13    0.15
   0   8  10    0.40    0.17
  -1  -8 -10    2.88    0.31
  -1  -8 -10    3.61    0.28
   1  -8  10    2.80    0.29
   1  -8  10    3.72    0.32
   1   8  10    2.93    0.29
   1   8  10    3.25    0.30
  -1   8 -10    3.33    0.32
  -1   8 -10    3.76    0.30
   2  -8  10    1.11    0.22
  -2  -8 -10    1.13    0.23
   2  -8  10    1.14    0.22
  -2   8 -10    1.86    0.28
   2   8  10    0.91    0.21
  -3  -8 -10    1.66    0.26
   3  -8  10    1.52    0.26
   3   8  10    1.75    0.26
  -3   8 -10    1.38    0.27
  -4  -8 -10    6.87    0.46
   4  -8  10    7.45    0.48
  -4   8 -10    8.01    0.49
   4   8  10    7.41    0.46
   5  -8  10    0.63    0.24
  -5  -8 -10    0.97    0.25
  -5   8 -10    1.13    0.29
   5   8  10    1.29    0.26
   5  -9 -10    1.50    0.28
  -5  -9  10    1.44    0.24
  -5   9  10    1.03    0.25
   5   9 -10    1.80    0.26
   4  -9 -10    0.10    0.16
  -4  -9  10    0.14    0.16
   4   9 -10   -0.07    0.14
  -4   9  10   -0.10    0.17
   3  -9 -10    3.29    0.33
  -3  -9  10    3.44    0.32
   3   9 -10    2.91    0.30
  -3   9  10    2.78    0.33
  -2  -9  10    0.21    0.17
   2  -9 -10    0.32    0.18
   2  -9 -10    0.12    0.17
   2   9 -10    0.07    0.15
  -2   9  10    0.42    0.20
   1  -9 -10    0.17    0.16
  -1  -9  10    0.02    0.17
   1  -9 -10   -0.19    0.13
   1   9 -10   -0.10    0.16
  -1   9  10   -0.14    0.17
  -1   9  10   -0.05    0.13
   1   9 -10   -0.04    0.14
   0  -9  10    0.02    0.18
   0  -9 -10    0.19    0.15
   0  -9 -10    0.06    0.18
   0  -9  10    0.14    0.15
   0   9  10    0.19    0.18
   0   9 -10    0.12    0.18
   0   9  10    0.14    0.17
   0   9 -10    0.04    0.14
  -1  -9 -10   21.78    0.73
   1  -9  10   21.54    0.72
   1  -9  10   20.87    0.68
  -1   9 -10   19.24    0.69
   1   9  10   21.17    0.69
  -1   9 -10   20.69    0.66
   1   9  10   20.25    0.68
   2  -9  10    0.58    0.20
  -2  -9 -10    0.95    0.24
   2  -9  10    0.85    0.22
  -2   9 -10    0.65    0.24
   2   9  10    0.90    0.23
  -3  -9 -10    0.94    0.24
   3  -9  10    1.26    0.26
   3   9  10    0.58    0.22
  -3   9 -10    1.26    0.27
   4  -9  10   -0.04    0.19
  -4  -9 -10   -0.14    0.18
   4   9  10   -0.16    0.17
  -4   9 -10   -0.09    0.19
  -5  -9 -10    0.18    0.21
   5  -9  10   -0.03    0.21
  -5   9 -10   -0.12    0.21
   5   9  10    0.07    0.19
   5 -10 -10    0.52    0.23
  -5 -10  10    0.32    0.19
   5  10 -10    0.66    0.22
  -5  10  10    0.34    0.22
   4 -10 -10    0.07    0.19
  -4 -10  10    0.10    0.17
   4  10 -10    0.01    0.17
  -4  10  10   -0.20    0.19
   3 -10 -10    0.00    0.17
  -3 -10  10    0.09    0.17
   3  10 -10    0.01    0.16
  -3  10  10    0.16    0.19
  -2 -10  10    6.56    0.43
   2 -10 -10    5.90    0.41
   2  10 -10    7.25    0.43
  -2  10  10    7.04    0.47
   1 -10 -10    0.67    0.22
  -1 -10  10    0.27    0.19
   1 -10 -10    0.19    0.18
  -1  10  10    0.51    0.23
  -1  10  10    0.36    0.20
   1  10 -10    0.14    0.16
   1  10 -10    0.37    0.18
   0 -10  10    5.97    0.43
   0 -10 -10    5.19    0.37
   0 -10  10    5.59    0.37
   0 -10 -10    5.20    0.41
   0  10  10    5.73    0.40
   0  10  10    5.63    0.43
   0  10 -10    5.94    0.39
   0  10 -10    5.72    0.42
   1 -10  10   13.36    0.56
   1 -10  10   12.46    0.59
  -1 -10 -10   12.50    0.58
   1  10  10   13.74    0.59
   1  10  10   13.14    0.58
  -1  10 -10   14.22    0.56
  -1  10 -10   14.44    0.61
   2 -10  10    5.27    0.41
   2 -10  10    5.75    0.42
  -2 -10 -10    5.50    0.44
  -2  10 -10    5.81    0.46
   2  10  10    5.14    0.42
  -3 -10 -10    1.52    0.29
   3 -10  10    0.96    0.24
  -3  10 -10    0.99    0.27
   3  10  10    1.61    0.28
   4 -10  10   -0.05    0.20
  -4 -10 -10    0.19    0.21
  -4  10 -10    0.38    0.25
   4  10  10    0.22    0.22
  -4 -11  10    0.22    0.19
   4 -11 -10    0.20    0.22
  -4  11  10    0.17    0.22
   4  11 -10    0.22    0.21
  -3 -11  10    2.49    0.33
   3 -11 -10    2.23    0.31
  -3  11  10    2.30    0.34
   3  11 -10    2.55    0.33
   2 -11 -10    1.96    0.29
  -2 -11  10    1.93    0.30
   2  11 -10    2.67    0.33
  -2  11  10    2.02    0.33
   1 -11 -10    0.95    0.25
  -1 -11  10    1.40    0.28
   1 -11 -10    1.07    0.23
   1  11 -10    1.03    0.22
  -1  11  10    1.42    0.29
   0 -11 -10    1.41    0.29
   0 -11  10    1.87    0.30
   0 -11 -10    1.85    0.27
   0  11  10    0.65    0.22
   0  11  10    0.91    0.24
   0  11 -10    1.30    0.28
   0  11 -10    0.77    0.20
  -1 -11 -10    0.95    0.27
   1 -11  10    1.45    0.26
   1 -11  10    1.09    0.24
   1  11  10    0.97    0.25
   1  11  10    1.10    0.26
  -1  11 -10    0.76    0.23
  -2 -11 -10    2.19    0.32
   2 -11  10    1.40    0.27
   2  11  10    3.08    0.36
  -2  11 -10    1.86    0.34
  -3 -11 -10    0.17    0.22
   3 -11  10   -0.01    0.20
   3  11  10    0.13    0.22
  -3  11 -10    0.19    0.23
   4 -11  10    0.43    0.25
  -4 -11 -10    0.53    0.25
   4  11  10    0.26    0.23
  -4  11 -10    0.43    0.26
   4 -12 -10    4.26    0.46
  -4 -12  10    3.42    0.38
  -4  12  10    3.75    0.43
   4  12 -10    4.11    0.43
  -3 -12  10    0.83    0.24
   3 -12 -10    1.16    0.27
  -3  12  10    0.65    0.28
   3  12 -10    1.20    0.28
   2 -12 -10    3.12    0.37
  -2 -12  10    3.29    0.38
  -2  12  10    3.05    0.37
   2  12 -10    3.51    0.38
   1 -12 -10    0.16    0.18
   1 -12 -10    0.10    0.19
  -1 -12  10    0.11    0.21
  -1  12  10    0.10    0.23
   1  12 -10    0.07    0.17
   0 -12 -10    1.19    0.29
   0 -12  10    1.21    0.27
   0  12  10    0.95    0.26
   0  12 -10    1.41    0.26
   0  12  10    1.39    0.29
   0  12 -10    0.97    0.25
  -1 -12 -10    1.82    0.34
   1 -12  10    0.70    0.24
   1 -12  10    0.90    0.24
  -1  12 -10    1.18    0.29
   1  12  10    1.25    0.28
   2 -12  10    4.00    0.43
  -2 -12 -10    3.54    0.43
   2  12  10    2.70    0.37
  -2  12 -10    3.46    0.43
   3 -12  10    1.57    0.31
  -3 -12 -10    1.19    0.31
  -3  12 -10    1.23    0.33
   3  12  10    1.39    0.31
  -3 -13  10    2.03    0.33
   3 -13 -10    1.73    0.31
  -3  13  10    1.91    0.37
   3  13 -10    2.22    0.35
   2 -13 -10    1.56    0.29
  -2 -13  10    1.26    0.29
   2  13 -10    1.72    0.32
  -2  13  10    0.78    0.29
  -1 -13  10    0.16    0.23
   1 -13 -10    0.19    0.19
   1 -13 -10    0.14    0.24
   1  13 -10    0.53    0.21
  -1  13  10    0.06    0.23
   0 -13  10    1.34    0.29
   0 -13 -10    1.54    0.31
   0  13 -10    1.04    0.29
   0  13  10    0.95    0.28
   0  13 -10    0.96    0.23
   1 -13  10    0.20    0.23
  -1 -13 -10   -0.03    0.24
  -1  13 -10    0.00    0.20
   1  13  10    0.22    0.22
   2 -13  10    0.03    0.21
  -2 -13 -10    0.04    0.24
  -2  13 -10    0.34    0.26
   2  13  10    0.21    0.24
  -3 -13 -10    0.06    0.25
   3 -13  10   -0.16    0.22
  -3  13 -10   -0.09    0.24
   3  13  10   -0.12    0.23
  -2 -14  10    0.15    0.24
   2 -14 -10    0.86    0.27
   2  14 -10    0.57    0.27
  -2  14  10    0.54    0.27
  -1 -14  10    1.87    0.35
   1  14 -10    1.04    0.25
  -1  14  10    2.03    0.37
   0 -14  10    0.41    0.26
   0 -14 -10    0.97    0.32
   0  14  10    1.05    0.32
  -1 -14 -10   -0.26    0.24
   1 -14  10    0.06    0.23
  -1  14 -10    0.27    0.27
   1  14  10    0.59    0.27
  -2 -14 -10    2.25    0.40
  -2  14 -10    1.87    0.37
   2  14  10    1.59    0.35
   7   0 -11    0.03    0.11
   6   0 -11   -0.12    0.09
  -6   0  11   -0.11    0.08
   5   0 -11   -0.03    0.08
  -5   0  11   -0.04    0.16
  -5   0  11   -0.01    0.09
   4   0 -11    0.22    0.09
  -4   0  11    0.05    0.17
  -4   0  11   -0.14    0.09
  -3   0  11    0.04    0.13
  -3   0  11   -0.13    0.10
   3   0 -11    0.15    0.09
   2   0 -11   -0.10    0.08
  -2   0  11   -0.04    0.10
   2   0 -11    0.00    0.08
  -2   0  11   -0.04    0.11
   1   0 -11    0.07    0.10
  -1   0  11   -0.03    0.09
   1   0 -11    0.11    0.09
  -1   0  11    0.15    0.10
  -1   0  11   -0.05    0.07
  -1   0  11    0.09    0.09
   0   0 -11    0.05    0.10
   0   0  11   -0.03    0.06
   0   0  11   -0.07    0.11
   0   0  11    0.09    0.10
   0   0  11    0.03    0.11
   0   0 -11   -0.01    0.09
   1   0  11    0.01    0.11
  -1   0 -11   -0.03    0.07
   1   0  11   -0.10    0.09
  -1   0 -11   -0.04    0.10
   1   0  11   -0.17    0.10
   2   0  11    0.01    0.11
   2   0  11    0.14    0.12
  -2   0 -11   -0.01    0.08
   2   0  11    0.08    0.12
  -2   0 -11    0.08    0.12
  -2   0 -11   -0.07    0.12
   3   0  11   -0.19    0.12
  -3   0 -11    0.13    0.15
   3   0  11   -0.08    0.12
  -3   0 -11   -0.04    0.12
  -4   0 -11    0.07    0.14
   4   0  11   -0.15    0.14
  -4   0 -11    0.05    0.17
   4   0  11   -0.03    0.13
   5   0  11    0.02    0.15
  -5   0 -11   -0.13    0.14
  -5   0 -11   -0.14    0.22
   5   0  11   -0.09    0.15
   6   0  11    0.07    0.17
  -6   0 -11    0.02    0.17
  -6   0 -11   -0.04    0.26
   6  -1 -11    1.94    0.19
   6   1 -11    1.87    0.17
  -6   1  11    2.14    0.18
  -6   1  11    1.25    0.31
  -5  -1  11    0.45    0.11
   5  -1 -11    0.28    0.11
   5   1 -11    0.34    0.11
  -5   1  11    0.19    0.19
  -5   1  11    0.54    0.12
   4  -1 -11    0.24    0.10
  -4  -1  11    0.32    0.20
  -4  -1  11    0.16    0.11
   4   1 -11    0.27    0.10
  -4   1  11    0.19    0.18
  -4   1  11    0.20    0.11
  -3  -1  11   31.43    0.83
  -3  -1  11   31.41    0.69
   3  -1 -11   31.45    0.67
  -3   1  11   31.18    0.70
   3   1 -11   31.48    0.66
  -3   1  11   32.25    0.84
   2  -1 -11    5.06    0.24
  -2  -1  11    4.68    0.26
  -2  -1  11    4.76    0.28
   2  -1 -11    4.93    0.24
  -2   1  11    4.48    0.28
   2   1 -11    5.40    0.26
   2   1 -11    4.62    0.23
  -2   1  11    5.05    0.27
  -2   1  11    4.97    0.19
  -1  -1  11   -0.03    0.09
   1  -1 -11   -0.12    0.09
  -1  -1  11   -0.03    0.07
   1  -1 -11    0.13    0.10
  -1  -1  11   -0.13    0.08
  -1  -1  11    0.08    0.10
   1   1 -11   -0.07    0.09
  -1   1  11    0.05    0.07
   1   1 -11   -0.06    0.09
  -1   1  11   -0.04    0.09
   0  -1 -11    0.71    0.14
   0  -1 -11    0.59    0.09
   0  -1  11    0.50    0.08
   0  -1  11    0.69    0.14
   0  -1 -11    0.55    0.13
   0  -1  11    0.73    0.15
   0  -1  11    0.69    0.13
   0   1 -11    0.55    0.14
   0   1  11    0.64    0.15
   0   1 -11    0.62    0.13
   0   1  11    0.51    0.14
   0   1  11    0.65    0.13
  -1  -1 -11    0.94    0.14
   1  -1  11    0.98    0.17
  -1  -1 -11    1.20    0.15
  -1  -1 -11    1.00    0.16
   1  -1  11    1.17    0.17
   1  -1  11    0.78    0.14
   1   1  11    1.15    0.17
  -1   1 -11    0.86    0.13
   1   1  11    1.01    0.16
   1   1  11    1.17    0.16
  -1   1 -11    0.91    0.15
  -2  -1 -11    8.35    0.30
  -2  -1 -11    8.19    0.37
  -2  -1 -11    7.88    0.37
   2  -1  11    8.90    0.36
   2  -1  11    8.17    0.37
   2  -1  11    7.94    0.34
   2   1  11    8.37    0.23
   2   1  11    8.86    0.38
   2   1  11    8.62    0.35
  -2   1 -11    8.20    0.31
   2   1  11    7.77    0.35
  -2   1 -11    7.94    0.36
   3  -1  11    8.47    0.40
  -3  -1 -11    9.11    0.41
  -3  -1 -11    8.00    0.44
   3  -1  11    8.67    0.39
  -3   1 -11    8.47    0.46
   3   1  11    9.43    0.42
   3   1  11    8.81    0.39
  -3   1 -11    8.20    0.39
   4  -1  11    2.64    0.29
   4  -1  11    1.80    0.24
  -4  -1 -11    2.10    0.31
  -4  -1 -11    1.74    0.24
  -4   1 -11    1.89    0.25
   4   1  11    2.12    0.24
   4   1  11    2.01    0.26
  -4   1 -11    1.79    0.31
  -5  -1 -11   -0.14    0.23
   5  -1  11    0.12    0.16
  -5  -1 -11   -0.11    0.14
   5  -1  11   -0.08    0.15
   5   1  11    0.15    0.16
   5   1  11    0.04    0.15
  -5   1 -11   -0.11    0.15
  -5   1 -11    0.18    0.25
  -6  -1 -11    0.34    0.29
  -6  -1 -11    0.00    0.16
   6  -1  11    0.15    0.17
  -6   1 -11    0.30    0.18
  -6   1 -11    0.43    0.31
   6   1  11    0.36    0.19
   6  -2 -11    0.54    0.14
   6   2 -11    0.44    0.12
  -6   2  11    0.16    0.25
  -6   2  11    0.50    0.12
   5  -2 -11    0.95    0.15
  -5  -2  11    0.62    0.12
  -5   2  11    0.67    0.14
   5   2 -11    0.78    0.13
  -5   2  11    0.71    0.27
  -4  -2  11    1.47    0.17
   4  -2 -11    1.48    0.17
  -4   2  11    2.48    0.32
   4   2 -11    1.70    0.17
  -4   2  11    1.69    0.19
  -4   2  11    1.80    0.18
   3  -2 -11    8.71    0.32
  -3  -2  11    8.87    0.34
   3   2 -11    8.39    0.31
  -3   2  11    8.48    0.44
  -3   2  11    9.07    0.35
   2  -2 -11   18.82    0.48
   2  -2 -11   18.81    0.49
  -2  -2  11   18.10    0.46
  -2  -2  11   19.21    0.51
   2   2 -11   18.74    0.48
   2   2 -11   18.13    0.47
  -2   2  11   18.36    0.51
  -2   2  11   17.79    0.41
  -1  -2  11    7.43    0.28
   1  -2 -11    7.46    0.30
  -1  -2  11    7.56    0.31
  -1  -2  11    7.28    0.30
   1  -2 -11    7.75    0.31
   1   2 -11    6.99    0.30
  -1   2  11    7.21    0.32
   1   2 -11    7.32    0.30
  -1   2  11    7.80    0.29
   0  -2 -11   30.09    0.69
   0  -2 -11   31.62    0.72
   0  -2  11   30.64    0.72
   0  -2  11   31.29    0.69
   0  -2  11   31.23    0.73
   0  -2 -11   31.99    0.58
   0   2 -11   31.82    0.70
   0   2  11   30.40    0.69
   0   2 -11   30.25    0.71
   0   2  11   30.65    0.72
  -1  -2 -11    3.62    0.22
  -1  -2 -11    3.61    0.25
  -1  -2 -11    3.62    0.23
   1  -2  11    4.05    0.25
   1  -2  11    4.15    0.27
   1   2  11    3.63    0.26
  -1   2 -11    4.10    0.27
   1   2  11    3.70    0.24
   1   2  11    3.96    0.25
  -1   2 -11    3.73    0.24
  -2  -2 -11    4.20    0.29
  -2  -2 -11    3.96    0.22
  -2  -2 -11    4.54    0.30
   2  -2  11    4.26    0.28
   2  -2  11    3.72    0.26
   2   2  11    3.91    0.27
  -2   2 -11    4.51    0.24
   2   2  11    4.43    0.29
   2   2  11    3.88    0.26
  -2   2 -11    3.94    0.29
  -3  -2 -11    1.89    0.27
  -3  -2 -11    1.58    0.22
   3  -2  11    1.90    0.23
   3   2  11    1.84    0.23
  -3   2 -11    1.57    0.22
   3   2  11    1.62    0.20
  -4  -2 -11   11.63    0.49
  -4  -2 -11   12.22    0.60
   4  -2  11   11.66    0.50
   4  -2  11   11.52    0.48
  -4   2 -11   11.66    0.49
   4   2  11   11.67    0.49
  -4   2 -11   11.88    0.60
   4   2  11   12.12    0.48
   5  -2  11    5.78    0.41
   5  -2  11    5.94    0.39
  -5  -2 -11    6.87    0.55
  -5  -2 -11    6.40    0.40
  -5   2 -11    4.86    0.49
   5   2  11    5.19    0.37
   5   2  11    5.68    0.40
  -5   2 -11    6.09    0.40
   6  -2  11    1.18    0.24
  -6  -2 -11    0.41    0.32
  -6  -2 -11    1.17    0.23
  -6   2 -11    0.85    0.22
   6   2  11    0.79    0.22
  -6   2 -11    0.79    0.33
   6  -3 -11    6.54    0.32
  -6   3  11    5.34    0.53
  -6   3  11    5.66    0.29
   6   3 -11    5.78    0.28
  -5  -3  11    1.40    0.16
   5  -3 -11    1.46    0.18
   5   3 -11    1.30    0.16
  -5   3  11    1.65    0.31
  -5   3  11    1.38    0.18
   4  -3 -11    0.12    0.11
  -4  -3  11    0.14    0.11
  -4   3  11    0.18    0.18
  -4   3  11    0.16    0.12
   4   3 -11    0.07    0.10
  -3  -3  11   69.52    1.26
   3  -3 -11   68.74    1.25
  -3   3  11   68.35    1.28
   3   3 -11   67.64    1.22
  -3   3  11   67.82    1.42
  -3   3  11   67.96    1.08
   2  -3 -11   77.47    1.38
  -2  -3  11   76.13    1.33
  -2  -3  11   78.36    1.40
   2  -3 -11   77.27    1.37
  -2   3  11   79.48    1.41
   2   3 -11   76.92    1.35
   2   3 -11   75.26    1.36
  -1  -3  11    2.63    0.19
   1  -3 -11    2.66    0.22
  -1  -3  11    2.45    0.22
   1  -3 -11    2.91    0.22
  -1  -3  11    2.51    0.21
  -1   3  11    2.82    0.22
   1   3 -11    2.71    0.21
   1   3 -11    2.92    0.21
  -1   3  11    2.15    0.18
   0  -3  11   -0.07    0.08
   0  -3 -11   -0.15    0.10
   0  -3 -11    0.03    0.07
   0  -3 -11   -0.01    0.10
   0  -3  11    0.07    0.12
   0   3 -11    0.12    0.12
   0   3  11   -0.06    0.10
   0   3 -11   -0.01    0.09
   0   3 -11   -0.01    0.06
   0   3  11   -0.03    0.10
  -1  -3 -11    1.89    0.20
   1  -3  11    1.84    0.20
   1  -3  11    1.82    0.20
  -1  -3 -11    2.21    0.21
  -1  -3 -11    1.99    0.19
   1   3  11    1.27    0.17
  -1   3 -11    1.76    0.19
  -1   3 -11    1.74    0.20
   1   3  11    1.33    0.18
   2  -3  11   -0.14    0.12
   2  -3  11   -0.08    0.12
  -2  -3 -11   -0.14    0.12
  -2  -3 -11   -0.05    0.12
  -2  -3 -11    0.09    0.08
  -2   3 -11    0.00    0.12
   2   3  11    0.00    0.11
  -2   3 -11   -0.03    0.09
   2   3  11   -0.09    0.10
  -3  -3 -11   16.98    0.57
   3  -3  11   16.41    0.55
  -3  -3 -11   16.97    0.62
   3   3  11   16.95    0.55
  -3   3 -11   15.20    0.55
  -4  -3 -11    5.93    0.38
   4  -3  11    6.00    0.38
  -4  -3 -11    5.73    0.46
  -4   3 -11    6.08    0.38
   4   3  11    5.78    0.36
  -5  -3 -11    1.01    0.30
  -5  -3 -11    1.06    0.23
   5  -3  11    0.60    0.21
  -5   3 -11    1.04    0.23
   5   3  11    1.11    0.22
  -5   3 -11    0.27    0.24
  -6  -3 -11    0.79    0.21
  -6  -3 -11    1.05    0.35
   6  -3  11    0.66    0.22
  -6   3 -11    0.45    0.22
  -6   3 -11    0.50    0.34
   6   3  11    0.71    0.21
  -6  -4  11    0.14    0.10
   6  -4 -11    0.19    0.14
   6   4 -11    0.07    0.11
  -6   4  11    0.08    0.13
  -6   4  11    0.28    0.27
   5  -4 -11    1.24    0.18
  -5  -4  11    1.23    0.17
   5   4 -11    1.16    0.16
  -5   4  11    1.38    0.19
  -5   4  11    1.68    0.31
  -4  -4  11    3.77    0.26
   4  -4 -11    3.08    0.25
  -4   4  11    3.34    0.27
  -4   4  11    3.55    0.37
   4   4 -11    3.73    0.24
  -3  -4  11   -0.05    0.12
   3  -4 -11   -0.12    0.10
   3   4 -11    0.00    0.09
  -3   4  11   -0.17    0.12
  -2  -4  11   17.58    0.52
  -2  -4  11   16.78    0.46
   2  -4 -11   16.66    0.49
  -2  -4  11   19.07    0.53
   2  -4 -11   17.14    0.50
  -2   4  11   16.16    0.43
   2   4 -11   15.57    0.46
  -2   4  11   17.50    0.53
   2   4 -11   16.17    0.48
  -1  -4  11    0.33    0.13
   1  -4 -11    0.24    0.12
  -1  -4  11    0.13    0.09
   1  -4 -11    0.22    0.11
   1   4 -11    0.11    0.09
  -1   4  11    0.20    0.12
   1   4 -11    0.19    0.11
  -1   4  11    0.41    0.11
   0  -4 -11   -0.16    0.09
   0  -4  11    0.03    0.09
   0  -4 -11   -0.13    0.10
   0  -4  11    0.10    0.13
   0   4 -11    0.05    0.12
   0   4 -11   -0.01    0.07
   0   4 -11    0.00    0.10
   0   4  11    0.05    0.12
   0   4  11   -0.04    0.09
  -1  -4 -11    0.01    0.11
   1  -4  11    0.00    0.11
  -1  -4 -11    0.02    0.10
   1  -4  11   -0.03    0.11
  -1  -4 -11   -0.03    0.09
   1   4  11    0.06    0.11
  -1   4 -11    0.07    0.10
   1   4  11   -0.04    0.11
  -1   4 -11   -0.06    0.12
  -2  -4 -11   50.05    1.08
   2  -4  11   49.81    1.06
  -2  -4 -11   49.68    1.07
   2  -4  11   48.43    1.05
  -2   4 -11   47.37    0.97
   2   4  11   50.13    1.05
   2   4  11   49.78    1.04
  -2   4 -11   48.05    1.07
   3  -4  11    0.61    0.17
  -3  -4 -11    1.12    0.24
  -3  -4 -11    1.05    0.21
  -3   4 -11    1.48    0.23
   3   4  11    0.93    0.19
  -4  -4 -11    8.35    0.44
  -4  -4 -11    7.80    0.52
   4  -4  11    8.94    0.45
  -4   4 -11    7.84    0.44
   4   4  11    7.86    0.42
  -5  -4 -11   10.83    0.51
  -5  -4 -11   10.95    0.66
   5  -4  11   10.03    0.52
  -5   4 -11   10.19    0.52
   5   4  11   10.23    0.50
  -5   4 -11   12.28    0.71
  -6  -4 -11    0.36    0.19
  -6  -4 -11    0.08    0.29
   6  -4  11    0.52    0.24
  -6   4 -11    0.43    0.30
  -6   4 -11    0.32    0.21
   6   4  11    0.50    0.21
   6  -5 -11    1.09    0.20
  -6  -5  11    0.86    0.16
  -6   5  11    0.97    0.33
   6   5 -11    1.11    0.18
  -6   5  11    1.40    0.20
   5  -5 -11   -0.14    0.12
  -5  -5  11   -0.06    0.11
   5   5 -11    0.02    0.11
  -5   5  11    0.01    0.21
  -5   5  11    0.00    0.13
   4  -5 -11   -0.01    0.12
  -4  -5  11    0.33    0.13
  -4   5  11   -0.04    0.13
   4   5 -11    0.04    0.10
  -4   5  11    0.22    0.20
   3  -5 -11   14.51    0.49
  -3  -5  11   15.34    0.50
   3   5 -11   14.49    0.47
  -3   5  11   15.69    0.52
   2  -5 -11   38.80    0.86
   2  -5 -11   40.15    0.88
  -2  -5  11   39.95    0.83
  -2  -5  11   40.70    0.89
   2   5 -11   37.68    0.83
  -2   5  11   38.61    0.80
   2   5 -11   37.82    0.85
  -2   5  11   39.88    0.91
  -1  -5  11    3.46    0.22
   1  -5 -11    3.13    0.25
   1  -5 -11    2.46    0.22
  -1  -5  11    2.96    0.26
  -1   5  11    3.62    0.28
   1   5 -11    3.02    0.24
   1   5 -11    3.40    0.25
  -1   5  11    2.94    0.23
   0  -5 -11    9.91    0.42
   0  -5 -11    9.40    0.38
   0  -5  11    9.43    0.37
   0  -5  11    9.34    0.41
   0   5  11    9.05    0.38
   0   5  11    9.51    0.41
   0   5 -11    8.69    0.37
   0   5 -11    8.75    0.29
   0   5 -11    9.54    0.39
   1  -5  11    1.62    0.21
  -1  -5 -11    1.65    0.19
  -1  -5 -11    1.22    0.19
   1  -5  11    1.57    0.21
  -1   5 -11    1.97    0.22
  -1   5 -11    1.28    0.21
   1   5  11    1.63    0.21
   1   5  11    1.83    0.23
   2  -5  11    3.32    0.29
   2  -5  11    3.63    0.31
  -2  -5 -11    3.40    0.30
  -2  -5 -11    2.97    0.30
   2   5  11    3.72    0.30
  -2   5 -11    3.78    0.33
  -2   5 -11    3.23    0.25
   2   5  11    3.58    0.29
  -3  -5 -11   14.20    0.59
  -3  -5 -11   13.33    0.53
   3  -5  11   13.46    0.54
   3   5  11   13.68    0.52
  -3   5 -11   12.93    0.54
  -4  -5 -11   -0.03    0.16
  -4  -5 -11   -0.35    0.19
   4  -5  11    0.27    0.18
   4   5  11    0.05    0.15
  -4   5 -11   -0.09    0.16
  -5  -5 -11    0.46    0.27
   5  -5  11    0.47    0.21
  -5  -5 -11    0.93    0.22
  -5   5 -11    0.43    0.21
   5   5  11    0.51    0.20
  -6  -6  11    1.33    0.18
   6  -6 -11    0.81    0.20
  -6   6  11    1.41    0.23
   6   6 -11    1.33    0.20
  -5  -6  11    1.21    0.18
   5  -6 -11    1.31    0.22
  -5   6  11    1.26    0.22
  -5   6  11    0.89    0.30
   5   6 -11    1.36    0.20
  -4  -6  11    0.42    0.15
   4  -6 -11    0.27    0.15
   4   6 -11    0.49    0.14
  -4   6  11    0.37    0.17
   3  -6 -11    4.45    0.31
  -3  -6  11    3.50    0.29
   3   6 -11    4.09    0.28
  -3   6  11    3.66    0.32
   2  -6 -11    0.16    0.13
   2  -6 -11    0.03    0.12
  -2  -6  11   -0.09    0.13
   2   6 -11   -0.10    0.11
  -2   6  11    0.12    0.14
   2   6 -11    0.06    0.13
   1  -6 -11    0.52    0.15
  -1  -6  11    0.12    0.13
   1  -6 -11    0.20    0.15
  -1  -6  11    0.05    0.10
   1   6 -11    0.25    0.14
  -1   6  11    0.38    0.16
  -1   6  11    0.40    0.14
   1   6 -11    0.00    0.13
   0  -6  11    0.28    0.13
   0  -6 -11    0.17    0.13
   0  -6  11    0.13    0.15
   0  -6 -11    0.16    0.13
   0   6 -11    0.32    0.16
   0   6 -11    0.27    0.14
   0   6  11    0.25    0.13
   0   6  11    0.40    0.16
   1  -6  11    3.84    0.29
  -1  -6 -11    3.61    0.27
   1  -6  11    4.30    0.31
  -1  -6 -11    3.16    0.29
   1   6  11    4.16    0.30
   1   6  11    3.73    0.29
  -1   6 -11    4.05    0.33
  -1   6 -11    3.55    0.28
   2  -6  11    0.05    0.14
  -2  -6 -11    0.32    0.17
   2  -6  11    0.18    0.16
  -2   6 -11   -0.17    0.15
   2   6  11    0.15    0.14
   2   6  11    0.31    0.15
   3  -6  11    0.03    0.15
  -3  -6 -11   -0.02    0.16
  -3  -6 -11    0.09    0.18
   3   6  11    0.32    0.16
  -3   6 -11    0.24    0.18
  -4  -6 -11    0.21    0.17
   4  -6  11    0.14    0.18
  -4  -6 -11    0.00    0.21
   4   6  11   -0.14    0.15
  -4   6 -11    0.40    0.20
  -5  -6 -11    0.19    0.19
  -5  -6 -11    0.36    0.29
   5  -6  11    0.24    0.20
   5   6  11    0.19    0.19
  -5   6 -11    0.57    0.23
  -6  -7  11    0.80    0.18
   6  -7 -11    0.95    0.23
   6   7 -11    0.81    0.19
  -6   7  11    0.71    0.20
  -5  -7  11    0.07    0.14
   5  -7 -11    0.13    0.16
  -5   7  11    0.23    0.25
  -5   7  11   -0.13    0.16
   5   7 -11    0.07    0.15
   4  -7 -11   15.75    0.57
  -4  -7  11   15.41    0.54
   4   7 -11   15.62    0.53
  -4   7  11   16.08    0.59
   3  -7 -11    0.09    0.14
  -3  -7  11    0.01    0.14
   3   7 -11   -0.20    0.12
  -3   7  11   -0.13    0.15
  -2  -7  11    3.21    0.30
   2  -7 -11    3.82    0.30
   2  -7 -11    3.44    0.29
  -2   7  11    3.00    0.30
   2   7 -11    3.22    0.32
   2   7 -11    2.85    0.26
   1  -7 -11    2.71    0.28
  -1  -7  11    2.60    0.24
  -1  -7  11    2.37    0.26
   1  -7 -11    2.63    0.27
  -1   7  11    2.44    0.28
  -1   7  11    2.11    0.22
   1   7 -11    2.90    0.28
   1   7 -11    2.69    0.27
   0  -7 -11    7.92    0.38
   0  -7 -11    7.52    0.39
   0  -7  11    7.12    0.40
   0  -7  11    8.26    0.38
   0   7  11    8.04    0.39
   0   7 -11    7.62    0.40
   0   7  11    8.34    0.42
   0   7 -11    8.19    0.39
   1  -7  11    1.20    0.20
   1  -7  11    1.21    0.23
  -1  -7 -11    1.25    0.23
  -1  -7 -11    0.89    0.18
   1   7  11    1.20    0.21
   1   7  11    1.20    0.22
  -1   7 -11    1.47    0.23
  -1   7 -11    1.10    0.18
  -2  -7 -11    4.57    0.36
   2  -7  11    3.49    0.31
   2  -7  11    3.90    0.35
   2   7  11    4.33    0.34
  -2   7 -11    4.67    0.37
   2   7  11    4.16    0.32
   3  -7  11    0.47    0.19
  -3  -7 -11    0.30    0.19
   3   7  11    0.54    0.20
  -3   7 -11    0.32    0.19
  -4  -7 -11    0.44    0.20
   4  -7  11    0.20    0.19
   4   7  11    0.34    0.18
  -4   7 -11    0.25    0.22
   5  -7  11    0.34    0.22
  -5  -7 -11    0.21    0.19
  -5   7 -11    0.15    0.22
   5   7  11    0.21    0.19
  -5  -8  11    1.36    0.23
   5  -8 -11    1.57    0.26
   5   8 -11    2.01    0.26
  -5   8  11    2.36    0.30
  -5   8  11    1.18    0.32
  -4  -8  11    1.96    0.26
   4  -8 -11    2.00    0.27
   4   8 -11    2.15    0.26
  -4   8  11    2.11    0.29
  -3  -8  11   14.80    0.56
   3  -8 -11   15.74    0.59
   3   8 -11   15.82    0.57
  -3   8  11   15.71    0.61
  -2  -8  11    0.47    0.19
   2  -8 -11    0.54    0.19
   2  -8 -11    0.48    0.18
   2   8 -11    0.33    0.17
  -2   8  11    0.28    0.20
   1  -8 -11   11.18    0.49
   1  -8 -11   10.65    0.46
  -1  -8  11   11.23    0.50
   1   8 -11   10.29    0.46
  -1   8  11    9.36    0.43
  -1   8  11   10.62    0.48
   1   8 -11   10.64    0.47
   0  -8  11   16.59    0.61
   0  -8  11   15.78    0.55
   0  -8 -11   16.16    0.61
   0  -8 -11   16.96    0.57
   0   8 -11   17.41    0.62
   0   8 -11   15.67    0.57
   0   8  11   16.61    0.59
   0   8  11   16.04    0.57
   1  -8  11    3.12    0.33
  -1  -8 -11    3.19    0.29
   1  -8  11    3.33    0.32
  -1  -8 -11    3.49    0.35
   1   8  11    3.70    0.34
   1   8  11    2.82    0.29
  -1   8 -11    3.95    0.34
  -1   8 -11    3.95    0.37
  -2  -8 -11    3.07    0.33
   2  -8  11    2.71    0.30
   2  -8  11    2.59    0.30
   2   8  11    2.75    0.31
  -2   8 -11    3.22    0.33
  -3  -8 -11    0.20    0.18
   3  -8  11    0.28    0.20
   3   8  11    0.25    0.19
  -3   8 -11   -0.05    0.18
   4  -8  11    2.12    0.31
  -4  -8 -11    1.36    0.27
   4   8  11    1.48    0.27
  -4   8 -11    2.06    0.32
  -5  -8 -11    1.17    0.27
   5  -8  11    1.74    0.32
  -5   8 -11    1.46    0.31
   5   8  11    0.97    0.25
  -5  -9  11    0.58    0.20
   5  -9 -11    0.36    0.21
  -5   9  11    0.48    0.22
   5   9 -11    0.21    0.19
  -4  -9  11    0.64    0.20
   4  -9 -11    0.57    0.21
  -4   9  11    0.27    0.20
   4   9 -11    0.38    0.18
   3  -9 -11    8.26    0.46
  -3  -9  11    7.83    0.45
   3   9 -11    8.71    0.46
  -3   9  11    9.21    0.50
  -2  -9  11    3.47    0.36
   2  -9 -11    3.27    0.31
   2  -9 -11    3.21    0.33
  -2   9  11    3.11    0.33
   2   9 -11    3.08    0.31
   1  -9 -11   15.14    0.57
  -1  -9  11   14.76    0.60
   1  -9 -11   15.04    0.58
  -1   9  11   14.61    0.54
   1   9 -11   13.79    0.56
   1   9 -11   14.78    0.56
  -1   9  11   14.24    0.60
   0  -9 -11    1.45    0.22
   0  -9  11    0.85    0.19
   0  -9  11    1.46    0.26
   0  -9 -11    1.19    0.23
   0   9  11    1.40    0.25
   0   9 -11    1.33    0.26
   0   9 -11    1.26    0.22
   0   9  11    1.22    0.23
   1  -9  11    2.22    0.28
  -1  -9 -11    2.32    0.32
   1  -9  11    2.31    0.30
   1   9  11    2.62    0.31
  -1   9 -11    2.50    0.29
   1   9  11    2.50    0.31
  -1   9 -11    2.54    0.32
   2  -9  11   11.84    0.55
  -2  -9 -11   11.57    0.57
   2  -9  11   11.51    0.55
  -2   9 -11   11.29    0.55
   2   9  11   12.01    0.56
  -3  -9 -11    0.23    0.21
   3  -9  11    0.48    0.21
   3   9  11    0.33    0.20
  -3   9 -11    0.48    0.24
   4  -9  11   -0.19    0.19
  -4  -9 -11    0.06    0.20
   4   9  11    0.10    0.19
  -4   9 -11    0.04    0.21
  -5 -10  11    0.23    0.18
   5 -10 -11   -0.07    0.19
  -5  10  11    0.40    0.23
   5  10 -11    0.30    0.20
  -4 -10  11    0.21    0.19
   4 -10 -11    0.43    0.23
   4  10 -11    0.06    0.18
  -4  10  11    0.39    0.23
  -3 -10  11    3.71    0.36
   3 -10 -11    3.62    0.35
   3  10 -11    4.66    0.39
  -3  10  11    4.13    0.40
  -2 -10  11    0.73    0.22
   2 -10 -11    0.54    0.19
   2  10 -11    0.57    0.19
  -2  10  11    0.72    0.24
  -1 -10  11    0.74    0.21
   1 -10 -11    1.08    0.22
   1 -10 -11    1.39    0.25
   1  10 -11    1.30    0.22
  -1  10  11    1.13    0.26
   1  10 -11    1.88    0.28
   0 -10 -11    5.71    0.43
   0 -10  11    6.23    0.39
   0 -10  11    6.27    0.44
   0 -10 -11    5.09    0.38
   0  10  11    5.95    0.41
   0  10 -11    6.79    0.42
   0  10 -11    5.93    0.41
   0  10  11    5.95    0.41
  -1 -10 -11    0.20    0.20
   1 -10  11    0.44    0.20
   1 -10  11    0.35    0.21
   1  10  11    0.37    0.20
  -1  10 -11    0.44    0.17
   1  10  11    0.37    0.20
  -1  10 -11    0.47    0.23
  -2 -10 -11    0.25    0.20
   2 -10  11   -0.03    0.16
   2  10  11   -0.16    0.17
  -2  10 -11   -0.16    0.20
  -3 -10 -11    0.66    0.25
   3 -10  11    0.35    0.22
  -3  10 -11    0.95    0.28
   3  10  11    0.40    0.23
   4 -10  11    2.18    0.34
  -4 -10 -11    2.32    0.35
  -4  10 -11    2.19    0.36
   4  10  11    2.11    0.33
   4 -11 -11    2.57    0.35
  -4 -11  11    2.09    0.32
   4  11 -11    2.69    0.36
  -4  11  11    2.39    0.36
  -3 -11  11    3.17    0.36
   3 -11 -11    3.22    0.38
   3  11 -11    3.36    0.36
  -3  11  11    3.38    0.40
  -2 -11  11    1.04    0.25
   2 -11 -11    1.14    0.24
   2  11 -11    0.86    0.23
  -2  11  11    1.03    0.27
   1 -11 -11    0.28    0.22
   1 -11 -11   -0.08    0.16
  -1 -11  11   -0.08    0.18
  -1  11  11   -0.01    0.18
   1  11 -11    0.30    0.18
   0 -11 -11    0.44    0.22
   0 -11  11    0.35    0.20
   0 -11 -11   -0.01    0.15
   0  11  11    0.34    0.22
   0  11  11    0.30    0.19
   0  11 -11    0.32    0.19
   0  11 -11   -0.02    0.20
  -1 -11 -11    2.39    0.35
   1 -11  11    1.69    0.31
   1 -11  11    2.23    0.31
   1  11  11    2.25    0.32
   1  11  11    2.26    0.32
  -1  11 -11    1.74    0.30
  -2 -11 -11    0.17    0.19
   2 -11  11    0.42    0.22
  -2  11 -11    0.22    0.23
   2  11  11    0.03    0.20
   3 -11  11    3.11    0.40
  -3 -11 -11    2.13    0.35
  -3  11 -11    2.49    0.39
   3  11  11    1.82    0.32
   4 -11  11    0.79    0.29
  -4 -11 -11    1.00    0.29
   4  11  11    0.73    0.26
  -4  11 -11    1.00    0.30
  -4 -12  11    0.00    0.20
   4 -12 -11    0.19    0.23
  -4  12  11   -0.09    0.22
   4  12 -11   -0.10    0.21
   3 -12 -11    0.23    0.21
  -3 -12  11    0.22    0.22
  -3  12  11    0.31    0.23
   3  12 -11    0.02    0.22
  -2 -12  11    0.55    0.24
   2 -12 -11    0.28    0.22
  -2  12  11    1.13    0.30
   2  12 -11    0.85    0.25
  -1 -12  11    1.29    0.29
   1 -12 -11    1.66    0.32
   1 -12 -11    1.15    0.26
   1  12 -11    1.19    0.27
  -1  12  11    1.58    0.30
   0 -12  11    0.38    0.23
   0 -12 -11    0.65    0.26
   0  12 -11    0.23    0.17
   0  12  11   -0.07    0.19
   0  12 -11    0.34    0.23
   0  12  11    0.22    0.23
  -1 -12 -11    0.69    0.29
   1 -12  11    0.66    0.26
   1 -12  11    0.79    0.24
   1  12  11    1.09    0.28
  -1  12 -11    1.13    0.30
   2 -12  11    0.35    0.21
  -2 -12 -11   -0.19    0.21
   2  12  11    0.14    0.23
  -2  12 -11   -0.10    0.23
   3 -12  11    0.56    0.27
  -3 -12 -11    1.21    0.30
  -3  12 -11    0.93    0.29
   3  12  11    1.11    0.31
   3 -13 -11    0.35    0.25
  -3 -13  11    0.56    0.24
   3  13 -11    0.62    0.27
  -3  13  11    0.34    0.26
  -2 -13  11    0.31    0.22
   2 -13 -11    0.07    0.21
  -2  13  11    0.35    0.27
   2  13 -11    0.21    0.21
   1 -13 -11    0.76    0.26
  -1 -13  11    0.49    0.27
   1 -13 -11    0.36    0.25
  -1  13  11    0.23    0.25
   1  13 -11    0.46    0.21
   0 -13 -11    0.54    0.25
   0 -13  11    0.26    0.23
   0  13  11   -0.21    0.19
   0  13 -11   -0.05    0.23
   0  13 -11    0.05    0.17
   1 -13  11   -0.27    0.18
  -1 -13 -11    0.01    0.24
  -1  13 -11    0.04    0.24
   1  13  11    0.26    0.25
   2 -13  11    2.36    0.36
  -2 -13 -11    2.50    0.40
  -2  13 -11    2.53    0.41
   2  13  11    3.09    0.42
  -2 -14  11    0.87    0.30
   2 -14 -11    0.68    0.26
  -2  14  11    0.75    0.30
   2  14 -11    0.86    0.28
  -1 -14  11    0.23    0.22
   1  14 -11    0.52    0.22
  -1  14  11    0.25    0.26
   0 -14  11    1.13    0.32
   0 -14 -11    1.31    0.33
   0  14  11    1.24    0.36
  -1 -14 -11    3.65    0.47
   1 -14  11    2.83    0.39
   1  14  11    3.13    0.42
  -1  14 -11    3.83    0.46
   6   0 -12    1.66    0.18
  -6   0  12    1.59    0.15
  -5   0  12    4.96    0.26
  -5   0  12    4.27    0.42
   5   0 -12    4.63    0.25
   4   0 -12    1.88    0.18
  -4   0  12    2.18    0.30
  -4   0  12    1.99    0.20
   3   0 -12    6.57    0.29
  -3   0  12    6.22    0.39
  -3   0  12    7.00    0.32
   2   0 -12    3.55    0.23
   2   0 -12    3.47    0.22
  -2   0  12    3.77    0.25
  -2   0  12    3.38    0.17
  -2   0  12    3.36    0.26
  -1   0  12   53.25    1.04
  -1   0  12   56.71    1.02
   1   0 -12   54.38    1.05
  -1   0  12   54.54    1.07
  -1   0  12   53.91    1.01
   1   0 -12   52.33    1.03
   0   0  12  385.91    5.54
   0   0  12  379.41    5.73
   0   0  12  386.63    5.70
   0   0  12  381.90    5.74
   0   0 -12  384.35    5.74
   0   0 -12  382.23    5.69
  -1   0 -12    3.40    0.22
   1   0  12    3.44    0.25
   1   0  12    3.13    0.25
   1   0  12    2.98    0.23
  -1   0 -12    3.11    0.25
  -2   0 -12    1.63    0.22
   2   0  12    1.75    0.21
  -2   0 -12    1.71    0.18
  -2   0 -12    1.20    0.18
   2   0  12    1.26    0.19
   2   0  12    1.71    0.22
  -3   0 -12    8.44    0.40
   3   0  12    8.43    0.41
  -3   0 -12    7.99    0.44
   3   0  12    8.08    0.40
   4   0  12    7.97    0.44
  -4   0 -12    7.65    0.50
  -4   0 -12    8.48    0.43
   4   0  12    7.27    0.40
  -5   0 -12   12.36    0.70
  -5   0 -12   13.44    0.56
   5   0  12   12.67    0.55
   5   0  12   12.97    0.56
  -6   0 -12    3.56    0.52
   6   0  12    3.65    0.38
  -6   0 -12    4.53    0.39
  -6  -1  12    1.83    0.16
   6  -1 -12    2.04    0.20
  -6   1  12    1.99    0.18
   6   1 -12    2.13    0.20
  -6   1  12    1.82    0.34
  -5  -1  12    0.25    0.11
   5  -1 -12    0.21    0.11
   5   1 -12    0.27    0.11
  -5   1  12    0.28    0.12
  -5   1  12    0.42    0.21
   4  -1 -12    4.56    0.25
  -4  -1  12    4.74    0.26
  -4  -1  12    4.56    0.39
  -4   1  12    4.54    0.27
   4   1 -12    4.61    0.25
  -4   1  12    4.53    0.37
  -3  -1  12   21.68    0.56
  -3  -1  12   21.26    0.67
   3  -1 -12   20.01    0.52
   3   1 -12   20.82    0.53
  -3   1  12   20.09    0.65
  -3   1  12   20.78    0.56
  -2  -1  12   13.50    0.33
   2  -1 -12   13.29    0.41
   2  -1 -12   12.43    0.39
  -2  -1  12   12.81    0.43
  -2  -1  12   13.51    0.46
  -2   1  12   13.43    0.46
  -2   1  12   13.93    0.44
   2   1 -12   12.41    0.40
  -2   1  12   12.47    0.33
   2   1 -12   13.22    0.41
  -1  -1  12    0.02    0.10
  -1  -1  12    0.14    0.10
   1  -1 -12    0.02    0.09
  -1  -1  12    0.05    0.08
   1  -1 -12    0.23    0.11
  -1  -1  12    0.10    0.10
   1   1 -12    0.00    0.10
  -1   1  12    0.13    0.09
  -1   1  12    0.16    0.12
   1   1 -12    0.30    0.11
   0  -1  12   21.32    0.58
   0  -1  12   21.81    0.56
   0  -1  12   21.34    0.58
   0  -1 -12   21.87    0.58
   0  -1  12   21.27    0.43
   0  -1 -12   22.09    0.45
   0  -1 -12   20.97    0.55
   0   1  12   20.27    0.55
   0   1  12   21.51    0.59
   0   1 -12   20.27    0.57
   0   1 -12   20.19    0.55
   0   1  12   20.74    0.59
  -1  -1 -12    6.40    0.33
   1  -1  12    6.90    0.34
  -1  -1 -12    6.47    0.29
  -1  -1 -12    6.51    0.29
   1  -1  12    6.34    0.32
   1  -1  12    6.77    0.32
   1   1  12    7.01    0.33
  -1   1 -12    6.47    0.32
  -1   1 -12    5.97    0.29
   1   1  12    6.53    0.33
   1   1  12    6.49    0.32
  -2  -1 -12    2.86    0.27
   2  -1  12    2.87    0.26
   2  -1  12    2.68    0.27
  -2  -1 -12    2.86    0.20
   2  -1  12    2.97    0.25
  -2  -1 -12    2.20    0.24
  -2   1 -12    2.72    0.22
   2   1  12    2.45    0.25
  -2   1 -12    3.13    0.28
   2   1  12    2.10    0.22
   2   1  12    2.66    0.13
   2   1  12    2.82    0.25
   3  -1  12    0.31    0.17
   3  -1  12    0.59    0.17
  -3  -1 -12    0.45    0.20
  -3  -1 -12    0.08    0.15
  -3   1 -12    0.64    0.21
  -3   1 -12    0.41    0.17
   3   1  12    0.40    0.16
   3   1  12    0.35    0.16
   4  -1  12    1.20    0.22
   4  -1  12    1.60    0.25
  -4  -1 -12    1.45    0.23
  -4  -1 -12    1.31    0.28
   4   1  12    0.96    0.22
  -4   1 -12    1.21    0.23
   4   1  12    1.15    0.21
  -4   1 -12    1.67    0.31
   5  -1  12    0.42    0.19
  -5  -1 -12    0.31    0.26
  -5  -1 -12    0.71    0.21
   5  -1  12    0.25    0.19
  -5   1 -12    0.72    0.21
   5   1  12    0.45    0.19
   5   1  12    0.67    0.21
  -5   1 -12    0.55    0.29
  -6  -1 -12    2.72    0.32
  -6  -1 -12    2.93    0.48
   6  -1  12    2.61    0.33
   6   1  12    2.85    0.33
  -6   1 -12    3.56    0.52
  -6   1 -12    3.07    0.34
  -6  -2  12    0.15    0.10
   6  -2 -12    0.40    0.14
   6   2 -12    0.48    0.12
  -6   2  12    0.31    0.26
  -6   2  12    0.42    0.13
  -5  -2  12    5.19    0.26
   5  -2 -12    4.87    0.28
  -5   2  12    4.53    0.28
   5   2 -12    4.97    0.27
  -5   2  12    5.28    0.47
   4  -2 -12    0.35    0.12
  -4  -2  12    0.19    0.12
  -4   2  12    0.40    0.14
   4   2 -12    0.32    0.11
  -4   2  12    0.43    0.21
   3  -2 -12    1.37    0.17
  -3  -2  12    0.81    0.16
   3   2 -12    1.44    0.17
  -3   2  12    0.92    0.17
  -3   2  12    1.01    0.21
   2  -2 -12    6.51    0.29
   2  -2 -12    6.24    0.30
  -2  -2  12    6.50    0.23
  -2  -2  12    6.28    0.28
  -2  -2  12    6.57    0.32
   2   2 -12    6.74    0.29
   2   2 -12    5.90    0.29
  -2   2  12    7.07    0.33
  -1  -2  12    3.65    0.21
   1  -2 -12    3.57    0.24
   1  -2 -12    3.54    0.25
  -1  -2  12    3.77    0.25
  -1  -2  12    3.35    0.25
  -1   2  12    3.52    0.24
   1   2 -12    3.75    0.25
   1   2 -12    3.73    0.24
  -1   2  12    3.35    0.22
   0  -2  12   23.58    0.59
   0  -2 -12   23.03    0.60
   0  -2 -12   23.36    0.47
   0  -2 -12   22.84    0.62
   0  -2  12   22.97    0.62
   0  -2  12   23.71    0.63
   0   2 -12   24.34    0.63
   0   2  12   21.70    0.61
   0   2 -12   22.57    0.59
   0   2  12   22.72    0.59
  -1  -2 -12    4.54    0.30
  -1  -2 -12    4.58    0.25
   1  -2  12    4.55    0.28
   1  -2  12    4.52    0.29
  -1  -2 -12    4.52    0.26
   1  -2  12    4.78    0.31
   1   2  12    4.78    0.28
  -1   2 -12    4.08    0.29
   1   2  12    4.10    0.28
  -1   2 -12    4.39    0.26
   1   2  12    4.82    0.28
  -2  -2 -12    0.94    0.19
   2  -2  12    1.46    0.20
  -2  -2 -12    1.35    0.16
   2  -2  12    1.22    0.18
  -2  -2 -12    1.06    0.18
   2   2  12    1.36    0.21
   2   2  12    1.33    0.20
   2   2  12    1.03    0.17
  -2   2 -12    1.00    0.19
  -2   2 -12    1.13    0.16
  -3  -2 -12    6.77    0.39
   3  -2  12    8.04    0.42
  -3  -2 -12    7.19    0.42
   3  -2  12    6.98    0.37
   3   2  12    6.34    0.36
   3   2  12    7.66    0.40
  -3   2 -12    7.49    0.40
   4  -2  12    4.07    0.33
  -4  -2 -12    3.39    0.37
   4  -2  12    4.33    0.37
  -4  -2 -12    3.45    0.32
  -4   2 -12    3.86    0.34
   4   2  12    4.17    0.34
   4   2  12    3.46    0.31
  -4   2 -12    3.47    0.41
   5  -2  12    7.93    0.46
   5  -2  12    8.53    0.48
  -5  -2 -12    7.56    0.58
  -5  -2 -12    7.49    0.44
   5   2  12    7.78    0.45
   5   2  12    8.47    0.47
  -5   2 -12    7.65    0.46
  -5   2 -12    7.12    0.55
  -6  -2 -12    1.87    0.39
   6  -2  12    2.63    0.33
  -6  -2 -12    2.10    0.29
  -6   2 -12    2.43    0.32
   6   2  12    2.56    0.32
  -6   2 -12    2.71    0.47
   6  -3 -12    0.12    0.13
  -6  -3  12    0.14    0.10
   6   3 -12    0.30    0.13
  -6   3  12   -0.20    0.20
  -6   3  12    0.13    0.12
   5  -3 -12    0.81    0.16
  -5  -3  12    0.73    0.14
  -5   3  12    0.71    0.24
  -5   3  12    0.59    0.16
   5   3 -12    0.69    0.14
  -4  -3  12    9.95    0.38
   4  -3 -12    9.56    0.38
  -4   3  12   10.04    0.40
   4   3 -12    9.89    0.36
  -4   3  12    8.94    0.50
  -3  -3  12    9.39    0.38
   3  -3 -12   10.41    0.38
   3   3 -12    9.14    0.35
  -3   3  12    9.43    0.39
  -3   3  12    9.32    0.47
   2  -3 -12    5.81    0.30
  -2  -3  12    6.60    0.28
  -2  -3  12    5.76    0.31
   2  -3 -12    5.82    0.29
  -2  -3  12    6.12    0.28
  -2   3  12    6.26    0.32
  -2   3  12    6.10    0.24
   2   3 -12    5.70    0.28
   2   3 -12    6.07    0.30
   1  -3 -12    0.31    0.13
   1  -3 -12    0.04    0.11
  -1  -3  12    0.03    0.12
  -1  -3  12    0.25    0.10
  -1  -3  12    0.29    0.12
  -1   3  12    0.29    0.13
  -1   3  12    0.31    0.11
   1   3 -12    0.24    0.12
   1   3 -12    0.40    0.13
   0  -3 -12    8.77    0.26
   0  -3  12    9.30    0.38
   0  -3 -12    8.46    0.35
   0  -3  12    8.93    0.35
   0  -3 -12    8.46    0.38
   0   3  12    8.75    0.38
   0   3  12    9.52    0.37
   0   3 -12    9.06    0.37
   0   3 -12    8.50    0.35
  -1  -3 -12    0.12    0.14
   1  -3  12    0.06    0.12
  -1  -3 -12   -0.09    0.09
  -1  -3 -12   -0.03    0.10
   1  -3  12    0.19    0.13
   1   3  12    0.08    0.11
   1   3  12    0.13    0.12
  -1   3 -12    0.11    0.13
  -1   3 -12    0.20    0.11
  -2  -3 -12    0.66    0.18
   2  -3  12    0.75    0.17
  -2  -3 -12    1.38    0.22
   2  -3  12    0.72    0.18
  -2   3 -12    0.92    0.15
   2   3  12    0.94    0.18
   2   3  12    1.09    0.18
  -2   3 -12    0.91    0.20
  -3  -3 -12    0.31    0.19
  -3  -3 -12    0.32    0.17
   3  -3  12    0.27    0.15
  -3   3 -12    0.32    0.18
   3   3  12    0.41    0.16
  -4  -3 -12   -0.11    0.19
  -4  -3 -12    0.20    0.17
   4  -3  12   -0.01    0.15
   4   3  12    0.01    0.14
  -4   3 -12   -0.03    0.15
  -5  -3 -12    0.10    0.17
  -5  -3 -12    0.07    0.25
   5  -3  12    0.00    0.17
   5  -3  12   -0.03    0.19
  -5   3 -12    0.05    0.18
  -5   3 -12   -0.17    0.21
   5   3  12    0.30    0.18
  -6  -4  12    0.85    0.15
   6  -4 -12    0.91    0.19
   6   4 -12    0.79    0.16
  -6   4  12    0.80    0.31
  -6   4  12    0.98    0.18
   5  -4 -12    1.40    0.20
  -5  -4  12    1.77    0.20
   5   4 -12    1.92    0.20
  -5   4  12    1.72    0.22
  -5   4  12    1.43    0.31
  -4  -4  12    1.05    0.17
   4  -4 -12    0.75    0.16
  -4   4  12    1.18    0.20
   4   4 -12    0.85    0.15
  -4   4  12    1.06    0.24
   3  -4 -12    4.50    0.28
  -3  -4  12    4.44    0.29
  -3   4  12    4.17    0.29
   3   4 -12    4.20    0.27
   2  -4 -12    8.57    0.37
  -2  -4  12    8.15    0.33
   2  -4 -12    8.45    0.36
  -2  -4  12    7.86    0.37
  -2   4  12    7.78    0.30
   2   4 -12    8.20    0.35
   2   4 -12    8.08    0.33
  -2   4  12    8.06    0.38
   1  -4 -12    0.83    0.15
  -1  -4  12    0.90    0.17
  -1  -4  12    0.71    0.15
  -1  -4  12    1.10    0.15
   1  -4 -12    0.57    0.14
  -1   4  12    0.84    0.18
  -1   4  12    0.85    0.15
   1   4 -12    0.92    0.16
   1   4 -12    0.62    0.14
   0  -4 -12    0.48    0.13
   0  -4 -12    0.67    0.17
   0  -4  12    0.30    0.15
   0  -4  12    0.28    0.12
   0   4 -12    0.42    0.14
   0   4 -12    0.61    0.10
   0   4 -12    0.43    0.14
   0   4  12    0.26    0.13
   0   4  12    0.41    0.13
   1  -4  12   10.50    0.42
  -1  -4 -12   11.03    0.38
  -1  -4 -12   10.78    0.40
  -1  -4 -12   10.36    0.44
   1  -4  12   10.19    0.43
   1   4  12    9.71    0.41
  -1   4 -12   10.68    0.45
   1   4  12   11.58    0.45
  -1   4 -12   10.60    0.40
   2  -4  12   11.77    0.47
  -2  -4 -12   11.89    0.49
  -2  -4 -12   11.61    0.48
   2  -4  12   11.49    0.47
   2   4  12   11.88    0.45
   2   4  12   12.41    0.47
  -2   4 -12   11.45    0.47
  -2   4 -12   10.99    0.41
  -3  -4 -12    0.84    0.22
   3  -4  12    1.12    0.21
  -3  -4 -12    1.01    0.22
  -3   4 -12    1.35    0.24
   3   4  12    1.11    0.20
  -4  -4 -12    4.37    0.42
   4  -4  12    5.82    0.40
  -4  -4 -12    5.42    0.39
   4   4  12    4.80    0.37
  -4   4 -12    4.80    0.40
  -5  -4 -12    2.10    0.39
  -5  -4 -12    2.46    0.30
   5  -4  12    2.02    0.30
  -5   4 -12    3.38    0.47
  -5   4 -12    1.66    0.29
   5   4  12    2.39    0.29
   6  -5 -12    0.32    0.17
  -6  -5  12    0.61    0.15
  -6   5  12    0.67    0.18
   6   5 -12    0.66    0.16
   5  -5 -12    1.39    0.22
  -5  -5  12    0.88    0.17
  -5   5  12    0.82    0.27
   5   5 -12    1.12    0.18
  -5   5  12    1.11    0.20
   4  -5 -12    3.65    0.30
  -4  -5  12    4.00    0.29
  -4   5  12    4.90    0.46
   4   5 -12    4.61    0.29
  -4   5  12    4.02    0.31
   3  -5 -12   12.67    0.47
  -3  -5  12   12.90    0.47
  -3   5  12   13.58    0.50
   3   5 -12   12.36    0.44
  -2  -5  12   17.85    0.52
   2  -5 -12   17.95    0.55
   2  -5 -12   17.24    0.54
  -2  -5  12   17.69    0.56
  -2   5  12   18.13    0.58
   2   5 -12   18.10    0.54
   2   5 -12   17.27    0.52
  -1  -5  12    3.74    0.25
   1  -5 -12    3.62    0.29
   1  -5 -12    3.38    0.26
  -1  -5  12    3.72    0.28
   1   5 -12    3.52    0.27
  -1   5  12    3.61    0.26
  -1   5  12    3.64    0.30
   1   5 -12    3.98    0.28
   0  -5  12    1.54    0.22
   0  -5 -12    1.94    0.22
   0  -5 -12    1.52    0.21
   0  -5  12    1.54    0.20
   0   5 -12    1.66    0.15
   0   5 -12    1.35    0.19
   0   5 -12    1.57    0.22
   0   5  12    1.44    0.21
   0   5  12    1.32    0.18
  -1  -5 -12    6.96    0.34
   1  -5  12    6.70    0.36
  -1  -5 -12    6.61    0.37
   1  -5  12    6.41    0.36
   1   5  12    5.84    0.35
   1   5  12    6.26    0.36
  -1   5 -12    7.07    0.22
  -1   5 -12    6.84    0.37
  -1   5 -12    6.47    0.34
  -2  -5 -12    0.21    0.17
   2  -5  12    0.35    0.17
   2  -5  12    0.30    0.16
  -2  -5 -12    0.06    0.15
   2   5  12    0.34    0.15
   2   5  12    0.45    0.16
  -2   5 -12    0.07    0.17
   3  -5  12    8.98    0.46
  -3  -5 -12    9.39    0.50
  -3  -5 -12    9.29    0.46
   3   5  12    9.23    0.45
  -3   5 -12    9.26    0.47
  -4  -5 -12    0.12    0.17
  -4  -5 -12   -0.15    0.20
   4  -5  12   -0.18    0.16
   4   5  12    0.03    0.17
  -4   5 -12    0.20    0.19
  -5  -5 -12    0.38    0.21
  -5  -5 -12    0.21    0.27
   5  -5  12    0.15    0.19
   5   5  12    0.06    0.18
  -5   5 -12    0.41    0.22
   6  -6 -12    0.32    0.18
  -6  -6  12    0.21    0.14
   6   6 -12    0.61    0.17
  -6   6  12    0.46    0.18
  -5  -6  12    1.89    0.23
   5  -6 -12    2.10    0.26
   5   6 -12    1.66    0.22
  -5   6  12    1.39    0.33
  -5   6  12    1.98    0.26
  -4  -6  12    6.90    0.37
   4  -6 -12    6.62    0.38
  -4   6  12    6.25    0.39
   4   6 -12    6.53    0.35
  -3  -6  12    6.27    0.37
   3  -6 -12    6.32    0.36
   3   6 -12    6.45    0.35
  -3   6  12    6.34    0.38
  -2  -6  12    3.50    0.27
  -2  -6  12    4.05    0.31
   2  -6 -12    3.55    0.29
   2  -6 -12    3.04    0.27
  -2   6  12    2.58    0.27
   2   6 -12    3.46    0.27
   2   6 -12    3.92    0.29
   1  -6 -12    7.32    0.37
   1  -6 -12    7.08    0.38
  -1  -6  12    6.60    0.38
  -1  -6  12    6.83    0.32
   1   6 -12    7.28    0.37
   1   6 -12    7.42    0.37
  -1   6  12    7.66    0.36
  -1   6  12    7.52    0.39
   0  -6  12   19.43    0.57
   0  -6 -12   18.03    0.56
   0  -6 -12   17.23    0.58
   0  -6  12   19.01    0.62
   0   6 -12   18.17    0.57
   0   6  12   18.73    0.61
   0   6  12   18.26    0.58
   0   6 -12   17.09    0.58
   1  -6  12    5.90    0.36
   1  -6  12    6.07    0.36
  -1  -6 -12    5.79    0.32
  -1  -6 -12    6.45    0.40
  -1   6 -12    5.52    0.36
   1   6  12    5.78    0.36
  -1   6 -12    5.64    0.34
   1   6  12    5.49    0.35
   2  -6  12    0.91    0.20
  -2  -6 -12    1.02    0.22
   2  -6  12    1.42    0.23
   2   6  12    1.02    0.21
   2   6  12    0.86    0.19
  -2   6 -12    1.35    0.23
  -3  -6 -12    7.61    0.46
  -3  -6 -12    8.27    0.49
   3  -6  12    8.31    0.46
   3   6  12    7.14    0.43
  -3   6 -12    8.12    0.47
   4  -6  12    9.49    0.52
  -4  -6 -12    8.79    0.49
  -4  -6 -12    8.76    0.57
  -4   6 -12    8.20    0.50
   4   6  12    8.69    0.48
  -5  -6 -12    3.04    0.35
  -5  -6 -12    4.16    0.51
   5  -6  12    2.79    0.35
   5   6  12    3.32    0.37
  -5   6 -12    3.25    0.37
   6  -7 -12    0.19    0.18
  -6  -7  12    0.26    0.14
   6   7 -12    0.08    0.16
  -6   7  12    0.21    0.17
   5  -7 -12    0.03    0.16
  -5  -7  12    0.05    0.14
  -5   7  12    0.11    0.24
   5   7 -12    0.02    0.14
  -5   7  12   -0.08    0.17
   4  -7 -12    0.17    0.16
  -4  -7  12    0.33    0.16
  -4   7  12    0.28    0.19
   4   7 -12    0.43    0.16
   3  -7 -12   13.75    0.53
  -3  -7  12   13.92    0.54
   3   7 -12   14.81    0.53
  -3   7  12   14.01    0.57
   2  -7 -12   14.64    0.54
  -2  -7  12   15.47    0.56
   2  -7 -12   13.57    0.53
   2   7 -12   13.90    0.52
  -2   7  12   14.70    0.56
   1  -7 -12    1.03    0.19
  -1  -7  12    0.77    0.19
   1  -7 -12    0.69    0.19
  -1  -7  12    1.07    0.18
  -1   7  12    0.96    0.22
   1   7 -12    0.98    0.20
   1   7 -12    0.80    0.18
  -1   7  12    1.09    0.19
   0  -7 -12    5.00    0.33
   0  -7 -12    4.89    0.34
   0  -7  12    4.81    0.34
   0  -7  12    4.64    0.32
   0   7  12    4.32    0.33
   0   7  12    4.42    0.33
   0   7 -12    5.00    0.34
   0   7 -12    4.85    0.33
   1  -7  12    4.47    0.36
  -1  -7 -12    4.28    0.34
  -1  -7 -12    4.59    0.31
   1  -7  12    5.11    0.35
   1   7  12    4.28    0.32
  -1   7 -12    5.21    0.38
   1   7  12    4.58    0.35
  -1   7 -12    4.57    0.33
   2  -7  12    0.45    0.18
   2  -7  12    0.25    0.17
  -2  -7 -12    0.05    0.16
   2   7  12    0.27    0.17
  -2   7 -12    0.30    0.19
   3  -7  12    1.74    0.28
  -3  -7 -12    1.62    0.28
   3   7  12    1.91    0.28
  -3   7 -12    1.03    0.25
   4  -7  12    1.66    0.29
  -4  -7 -12    1.72    0.29
   4   7  12    1.56    0.27
  -4   7 -12    1.79    0.30
   5  -7  12    0.53    0.24
  -5  -7 -12    0.81    0.24
  -5   7 -12    0.51    0.24
   5   7  12    0.70    0.24
  -5  -8  12    0.04    0.15
   5  -8 -12   -0.15    0.16
  -5   8  12    0.19    0.25
  -5   8  12   -0.20    0.16
   5   8 -12   -0.20    0.14
  -4  -8  12   -0.02    0.16
   4  -8 -12   -0.09    0.16
   4   8 -12    0.15    0.17
  -4   8  12    0.19    0.18
  -3  -8  12    3.82    0.35
   3  -8 -12    3.71    0.34
  -3   8  12    3.49    0.35
   3   8 -12    3.46    0.32
   2  -8 -12    1.18    0.22
   2  -8 -12    1.45    0.24
  -2  -8  12    1.71    0.25
   2   8 -12    1.55    0.23
  -2   8  12    1.71    0.26
   1  -8 -12    7.55    0.43
  -1  -8  12    7.66    0.44
   1  -8 -12    8.21    0.43
   1   8 -12    8.65    0.43
  -1   8  12    7.46    0.40
  -1   8  12    7.50    0.45
   1   8 -12    8.10    0.43
   0  -8 -12    5.28    0.36
   0  -8  12    6.62    0.42
   0  -8 -12    6.19    0.41
   0  -8  12    6.02    0.36
   0   8 -12    5.97    0.40
   0   8  12    5.70    0.37
   0   8  12    5.84    0.40
   0   8 -12    5.80    0.38
  -1  -8 -12   -0.18    0.16
   1  -8  12   -0.16    0.16
   1  -8  12    0.07    0.15
  -1   8 -12    0.15    0.17
   1   8  12    0.13    0.16
  -1   8 -12   -0.17    0.12
   1   8  12   -0.10    0.14
   2  -8  12    1.46    0.25
   2  -8  12    1.44    0.25
  -2  -8 -12    1.41    0.26
   2   8  12    0.85    0.22
  -2   8 -12    1.08    0.25
   3  -8  12    3.34    0.35
  -3  -8 -12    3.99    0.39
   3   8  12    3.47    0.36
  -3   8 -12    3.66    0.39
   4  -8  12    1.55    0.29
  -4  -8 -12    1.17    0.27
  -4   8 -12    1.62    0.30
   4   8  12    1.33    0.28
   5  -8  12    1.68    0.32
  -5  -8 -12    1.46    0.29
  -5   8 -12    1.67    0.33
   5   8  12    1.74    0.31
   5  -9 -12    0.13    0.19
  -5  -9  12    0.18    0.18
  -5   9  12    0.49    0.22
   5   9 -12    0.29    0.19
   4  -9 -12    0.56    0.23
  -4  -9  12    0.46    0.19
   4   9 -12    0.52    0.20
  -4   9  12    0.66    0.23
   3  -9 -12    0.75    0.22
  -3  -9  12    1.17    0.25
   3   9 -12    0.85    0.22
  -3   9  12    0.76    0.23
  -2  -9  12    0.48    0.21
   2  -9 -12    0.36    0.17
  -2   9  12    0.63    0.22
   2   9 -12    0.26    0.18
   1  -9 -12    1.12    0.22
   1  -9 -12    1.37    0.26
  -1  -9  12    1.04    0.25
   1   9 -12    1.33    0.25
  -1   9  12    1.65    0.27
  -1   9  12    1.02    0.24
   1   9 -12    1.46    0.24
   0  -9  12    0.92    0.21
   0  -9 -12    0.54    0.22
   0  -9  12    0.65    0.23
   0  -9 -12    0.95    0.21
   0   9 -12    0.82    0.23
   0   9  12    1.05    0.25
   0   9 -12    0.63    0.19
   0   9  12    0.98    0.22
  -1  -9 -12    3.72    0.38
   1  -9  12    3.30    0.33
   1  -9  12    2.61    0.33
  -1   9 -12    3.35    0.37
  -1   9 -12    2.67    0.29
   1   9  12    3.30    0.35
   1   9  12    2.98    0.32
   2  -9  12    1.11    0.24
  -2  -9 -12    0.83    0.24
   2  -9  12    0.83    0.23
  -2   9 -12    0.62    0.22
   2   9  12    1.39    0.26
  -3  -9 -12    1.15    0.29
   3  -9  12    1.32    0.27
  -3   9 -12    1.43    0.30
   3   9  12    1.72    0.30
   4  -9  12    0.75    0.27
  -4  -9 -12    1.22    0.29
  -4   9 -12    1.07    0.30
   4   9  12    0.87    0.26
  -5 -10  12    3.83    0.37
   5 -10 -12    4.09    0.41
   5  10 -12    3.71    0.38
  -5  10  12    3.58    0.40
  -4 -10  12    3.95    0.39
   4 -10 -12    3.18    0.37
   4  10 -12    2.83    0.33
  -4  10  12    3.41    0.38
  -3 -10  12    0.43    0.21
   3 -10 -12    0.25    0.20
   3  10 -12    0.34    0.20
  -3  10  12    0.31    0.21
   2 -10 -12   -0.11    0.16
  -2 -10  12   -0.07    0.17
  -2  10  12    0.47    0.21
   2  10 -12    0.02    0.16
  -1 -10  12    0.82    0.25
   1 -10 -12    1.03    0.23
   1 -10 -12    1.20    0.27
   1  10 -12    0.64    0.20
   1  10 -12    1.78    0.28
  -1  10  12    1.36    0.27
   0 -10  12    0.24    0.18
   0 -10 -12    0.15    0.18
   0 -10 -12    0.48    0.23
   0  10  12    0.61    0.23
   0  10 -12    0.41    0.19
   0  10  12    0.20    0.18
   0  10 -12    0.12    0.18
  -1 -10 -12    0.05    0.19
   1 -10  12    0.22    0.18
   1 -10  12    0.13    0.19
  -1  10 -12    0.35    0.23
   1  10  12    0.16    0.19
   1  10  12    0.48    0.21
  -2 -10 -12    3.90    0.41
   2 -10  12    5.24    0.43
   2  10  12    4.00    0.40
  -2  10 -12    4.71    0.46
   3 -10  12    1.17    0.29
  -3 -10 -12    0.92    0.27
   3  10  12    1.18    0.29
  -3  10 -12    1.44    0.31
   4 -10  12    0.01    0.21
  -4 -10 -12   -0.01    0.21
  -4  10 -12   -0.12    0.21
   4  10  12   -0.20    0.19
   4 -11 -12    0.04    0.22
  -4 -11  12    0.36    0.22
  -4  11  12    0.49    0.24
   4  11 -12    0.19    0.22
   3 -11 -12    4.34    0.42
  -3 -11  12    4.10    0.40
   3  11 -12    4.44    0.43
  -3  11  12    3.60    0.39
   2 -11 -12    1.65    0.29
  -2 -11  12    1.13    0.27
   2  11 -12    1.41    0.27
  -2  11  12    1.56    0.31
   1 -11 -12    0.43    0.21
  -1 -11  12    0.30    0.21
   1 -11 -12    0.27    0.22
  -1  11  12   -0.16    0.21
   1  11 -12    0.32    0.20
   0 -11 -12    0.53    0.25
   0 -11  12    0.53    0.22
   0  11  12    0.64    0.22
   0  11 -12    0.55    0.21
   0  11  12    0.61    0.24
   0  11 -12    0.89    0.26
  -1 -11 -12    0.99    0.29
   1 -11  12    1.06    0.25
   1 -11  12    1.20    0.26
  -1  11 -12    0.95    0.28
   1  11  12    0.81    0.24
   1  11  12    0.62    0.37
   2 -11  12    3.11    0.39
  -2 -11 -12    3.03    0.39
  -2  11 -12    2.96    0.38
   2  11  12    3.81    0.43
  -3 -11 -12    1.95    0.34
   3 -11  12    1.76    0.34
   3  11  12    1.59    0.31
  -3  11 -12    1.70    0.34
   4 -12 -12    0.01    0.22
  -4 -12  12    0.04    0.19
   4  12 -12   -0.27    0.20
  -4  12  12    0.11    0.23
   3 -12 -12    1.05    0.28
  -3 -12  12    0.88    0.27
  -3  12  12    0.98    0.30
   3  12 -12    1.23    0.29
   2 -12 -12    0.21    0.21
  -2 -12  12    0.01    0.21
  -2  12  12    0.23    0.24
   2  12 -12    0.25    0.21
   1 -12 -12    0.42    0.26
   1 -12 -12    0.73    0.23
  -1 -12  12    1.08    0.26
   1  12 -12    0.96    0.25
  -1  12  12    1.01    0.29
   0 -12 -12    6.45    0.53
   0 -12  12    5.86    0.46
   0  12 -12    6.26    0.50
   0  12  12    5.97    0.49
   0  12 -12    5.24    0.43
  -1 -12 -12    7.48    0.56
   1 -12  12    5.50    0.50
  -1  12 -12    6.57    0.53
   1  12  12    5.58    0.50
  -2 -12 -12    0.15    0.25
   2 -12  12    0.27    0.22
  -2  12 -12   -0.29    0.22
   2  12  12    0.02    0.21
  -3 -12 -12    1.02    0.32
   3 -12  12    0.65    0.27
   3  12  12    2.03    0.35
  -3  12 -12    1.80    0.36
  -3 -13  12    1.87    0.33
   3 -13 -12    1.31    0.31
  -3  13  12    2.22    0.39
   3  13 -12    1.60    0.34
   2 -13 -12    1.72    0.31
  -2 -13  12    1.70    0.34
   2  13 -12    2.14    0.35
  -2  13  12    2.25    0.37
  -1 -13  12   -0.02    0.22
  -1  13  12    0.01    0.25
   1  13 -12    0.05    0.19
   0 -13 -12    1.32    0.33
   0 -13  12    1.15    0.31
   0  13  12    0.61    0.26
   0  13 -12    0.73    0.28
   1 -13  12    4.17    0.45
  -1 -13 -12    4.56    0.50
  -1  13 -12    4.18    0.49
   1  13  12    4.54    0.47
   2 -13  12    0.54    0.26
  -2 -13 -12    0.82    0.30
  -2  13 -12    0.61    0.30
   2  13  12    0.34    0.25
   2 -14 -12    0.64    0.27
  -2 -14  12    0.48    0.26
  -2  14  12    0.13    0.26
   2  14 -12    0.49    0.27
  -1 -14  12   -0.31    0.21
   1  14 -12    0.11    0.20
  -1  14  12    0.13    0.25
   0 -14 -12   -0.31    0.22
   0 -14  12   -0.19    0.22
  -1 -14 -12    0.49    0.27
   1  14  12    1.33    0.42
  -1  14 -12    1.15    0.33
   6   0 -13    0.04    0.12
  -6   0  13    0.11    0.11
  -5   0  13   -0.07    0.20
   5   0 -13    0.06    0.11
  -5   0  13   -0.08    0.11
  -4   0  13   -0.06    0.11
  -4   0  13   -0.10    0.17
   4   0 -13   -0.14    0.09
  -3   0  13   -0.21    0.14
  -3   0  13    0.09    0.13
   3   0 -13   -0.17    0.09
  -2   0  13   -0.03    0.11
   2   0 -13   -0.08    0.09
  -2   0  13    0.03    0.06
  -2   0  13   -0.09    0.11
   2   0 -13   -0.06    0.10
  -1   0  13    0.10    0.09
   1   0 -13    0.06    0.10
  -1   0  13   -0.03    0.11
   1   0 -13    0.06    0.10
  -1   0  13    0.10    0.09
  -1   0  13    0.15    0.11
  -1   0 -13   -0.05    0.09
   1   0  13    0.08    0.13
   1   0  13   -0.09    0.10
   1   0  13    0.13    0.13
  -1   0 -13   -0.17    0.11
  -2   0 -13    0.11    0.11
   2   0  13   -0.08    0.12
   2   0  13    0.01    0.12
   2   0  13   -0.07    0.14
  -2   0 -13    0.05    0.12
  -2   0 -13    0.16    0.15
  -3   0 -13    0.23    0.18
   3   0  13    0.05    0.14
  -3   0 -13   -0.12    0.14
   3   0  13   -0.06    0.15
  -4   0 -13   -0.16    0.14
  -4   0 -13    0.03    0.20
   4   0  13    0.16    0.17
   4   0  13    0.10    0.15
  -5   0 -13    0.17    0.25
  -5   0 -13   -0.05    0.16
   5   0  13   -0.17    0.17
   5   0  13   -0.06    0.16
   6  -1 -13    0.03    0.12
  -6  -1  13   -0.03    0.10
  -6   1  13   -0.03    0.11
   6   1 -13    0.01    0.11
  -6   1  13    0.03    0.21
  -5  -1  13   -0.03    0.11
   5  -1 -13    0.04    0.12
  -5   1  13    0.01    0.21
  -5   1  13    0.18    0.12
   5   1 -13    0.16    0.11
  -4  -1  13    0.14    0.12
  -4  -1  13    0.15    0.18
   4  -1 -13    0.08    0.11
  -4   1  13    0.34    0.18
   4   1 -13    0.19    0.11
  -4   1  13    0.08    0.12
  -3  -1  13   23.28    0.70
   3  -1 -13   22.77    0.59
  -3  -1  13   23.48    0.61
  -3   1  13   23.19    0.72
   3   1 -13   23.41    0.59
  -3   1  13   23.18    0.62
  -2  -1  13   17.66    0.53
  -2  -1  13   18.08    0.55
   2  -1 -13   17.61    0.50
   2  -1 -13   17.45    0.49
  -2  -1  13   17.39    0.42
  -2   1  13   17.34    0.55
   2   1 -13   18.05    0.50
  -2   1  13   16.94    0.53
   2   1 -13   17.13    0.50
  -1  -1  13   -0.10    0.11
  -1  -1  13    0.07    0.10
  -1  -1  13   -0.04    0.08
   1  -1 -13   -0.09    0.09
  -1  -1  13   -0.06    0.09
   1  -1 -13   -0.03    0.11
   1   1 -13    0.06    0.10
  -1   1  13    0.10    0.10
   1   1 -13    0.10    0.10
  -1   1  13   -0.03    0.08
  -1   1  13    0.01    0.10
   0  -1 -13   45.72    0.95
   0  -1  13   46.47    0.99
   0  -1 -13   43.98    0.97
   0  -1 -13   46.24    0.82
   0  -1  13   46.67    0.99
   0  -1  13   44.98    0.94
   0   1  13   46.77    1.00
   0   1 -13   46.04    0.95
   0   1  13   47.60    1.00
   0   1 -13   45.93    0.99
   0   1  13   45.85    0.95
   1  -1  13    6.71    0.35
  -1  -1 -13    6.11    0.30
   1  -1  13    6.05    0.33
  -1  -1 -13    5.98    0.33
  -1  -1 -13    5.97    0.29
   1  -1  13    6.06    0.33
  -1   1 -13    5.90    0.33
   1   1  13    6.37    0.33
   1   1  13    6.56    0.34
   1   1  13    6.47    0.34
  -1   1 -13    6.24    0.30
  -2  -1 -13    1.42    0.20
   2  -1  13    1.49    0.20
   2  -1  13    1.43    0.20
  -2  -1 -13    1.39    0.21
  -2  -1 -13    1.26    0.21
   2  -1  13    1.13    0.21
  -2   1 -13    1.19    0.17
  -2   1 -13    1.26    0.22
   2   1  13    1.65    0.22
   2   1  13    1.30    0.21
   2   1  13    1.69    0.23
  -3  -1 -13    5.77    0.38
   3  -1  13    5.24    0.36
  -3  -1 -13    5.40    0.40
   3  -1  13    5.15    0.34
  -3   1 -13    5.38    0.40
  -3   1 -13    4.90    0.34
   3   1  13    5.78    0.36
   3   1  13    4.53    0.36
   4  -1  13    0.86    0.22
  -4  -1 -13    1.11    0.22
  -4  -1 -13    0.89    0.27
   4  -1  13    1.29    0.23
   4   1  13    1.04    0.23
   4   1  13    0.78    0.21
  -4   1 -13    0.81    0.21
  -4   1 -13    0.93    0.27
   5  -1  13    0.23    0.20
   5  -1  13    0.25    0.18
  -5  -1 -13    0.05    0.19
  -5  -1 -13    0.00    0.26
   5   1  13    0.50    0.20
  -5   1 -13    0.13    0.18
   5   1  13    0.17    0.18
  -5   1 -13    0.13    0.27
   6  -2 -13    3.17    0.26
  -6  -2  13    3.18    0.22
  -6   2  13    3.01    0.41
  -6   2  13    3.36    0.25
   6   2 -13    3.03    0.25
  -5  -2  13    6.59    0.31
   5  -2 -13    6.37    0.33
   5   2 -13    7.43    0.33
  -5   2  13    6.79    0.33
  -5   2  13    6.97    0.52
   4  -2 -13    0.07    0.11
  -4  -2  13    0.15    0.12
   4   2 -13    0.16    0.11
  -4   2  13   -0.24    0.16
  -4   2  13    0.11    0.13
   3  -2 -13    1.15    0.17
  -3  -2  13    1.12    0.18
   3   2 -13    0.89    0.15
  -3   2  13    0.75    0.17
  -3   2  13    0.94    0.22
  -2  -2  13   17.34    0.48
  -2  -2  13   16.75    0.52
   2  -2 -13   17.10    0.50
   2  -2 -13   16.99    0.50
   2   2 -13   16.79    0.48
   2   2 -13   16.69    0.49
  -2   2  13   17.11    0.53
  -2   2  13   17.41    0.56
  -1  -2  13   21.24    0.58
   1  -2 -13   21.36    0.59
   1  -2 -13   20.75    0.57
  -1  -2  13   21.17    0.60
  -1  -2  13   21.69    0.54
  -1   2  13   21.18    0.60
   1   2 -13   21.02    0.58
  -1   2  13   20.45    0.54
   1   2 -13   21.30    0.57
   0  -2  13   19.89    0.55
   0  -2 -13   19.42    0.43
   0  -2 -13   21.16    0.60
   0  -2  13   17.65    0.56
   0  -2  13   19.66    0.58
   0  -2 -13   20.06    0.56
   0   2 -13   20.46    0.56
   0   2 -13   20.96    0.59
   0   2  13   20.20    0.59
   0   2  13   20.59    0.57
  -1  -2 -13    0.27    0.12
  -1  -2 -13    0.12    0.15
   1  -2  13    0.10    0.12
   1  -2  13    0.47    0.17
  -1  -2 -13    0.24    0.11
   1  -2  13    0.32    0.16
   1   2  13    0.24    0.14
  -1   2 -13    0.28    0.13
   1   2  13    0.42    0.14
  -1   2 -13    0.21    0.16
   1   2  13    0.30    0.15
   2  -2  13    4.57    0.35
   2  -2  13    5.17    0.32
  -2  -2 -13    4.48    0.32
  -2  -2 -13    4.44    0.31
   2  -2  13    4.44    0.31
   2   2  13    5.19    0.32
  -2   2 -13    4.35    0.33
   2   2  13    4.73    0.32
  -2   2 -13    4.92    0.28
   2   2  13    4.50    0.33
   3  -2  13    2.49    0.29
  -3  -2 -13    2.33    0.30
   3  -2  13    2.26    0.26
  -3  -2 -13    1.69    0.25
   3   2  13    2.27    0.26
   3   2  13    1.86    0.26
  -3   2 -13    2.39    0.28
   4  -2  13    6.14    0.43
   4  -2  13    5.97    0.40
  -4  -2 -13    6.27    0.40
  -4  -2 -13    6.12    0.48
  -4   2 -13    5.58    0.47
   4   2  13    5.78    0.41
   4   2  13    6.35    0.39
  -4   2 -13    5.45    0.39
  -5  -2 -13    4.52    0.50
  -5  -2 -13    5.97    0.42
   5  -2  13    5.80    0.45
   5  -2  13    5.96    0.43
  -5   2 -13    5.37    0.42
   5   2  13    6.33    0.44
   5   2  13    5.23    0.41
  -5   2 -13    5.16    0.52
  -6  -3  13    0.62    0.14
   6  -3 -13    0.60    0.16
  -6   3  13    0.85    0.30
   6   3 -13    0.83    0.16
  -6   3  13    0.92    0.17
   5  -3 -13    6.85    0.35
  -5  -3  13    6.81    0.32
  -5   3  13    6.80    0.35
  -5   3  13    6.90    0.53
   5   3 -13    6.84    0.33
   4  -3 -13    6.21    0.33
  -4  -3  13    5.98    0.31
  -4   3  13    5.40    0.44
   4   3 -13    6.65    0.32
  -4   3  13    6.74    0.35
   3  -3 -13    0.67    0.14
  -3  -3  13    0.45    0.15
  -3   3  13    0.37    0.18
  -3   3  13    0.29    0.15
   3   3 -13    0.44    0.14
  -2  -3  13    0.62    0.14
   2  -3 -13    0.33    0.13
   2  -3 -13    0.42    0.13
  -2  -3  13    0.57    0.16
   2   3 -13    0.38    0.13
  -2   3  13    0.44    0.16
   2   3 -13    0.41    0.13
  -1  -3  13    0.14    0.10
  -1  -3  13    0.17    0.11
   1  -3 -13    0.16    0.12
  -1  -3  13   -0.05    0.13
   1  -3 -13    0.25    0.13
   1   3 -13   -0.17    0.10
  -1   3  13    0.00    0.10
   1   3 -13    0.06    0.11
  -1   3  13    0.15    0.12
   0  -3 -13    8.79    0.37
   0  -3  13    9.25    0.41
   0  -3  13    8.49    0.36
   0  -3 -13    8.62    0.27
   0  -3  13    8.21    0.39
   0  -3 -13    9.29    0.41
   0   3 -13    9.10    0.37
   0   3 -13    8.72    0.39
   0   3  13    9.06    0.39
   0   3  13    8.59    0.37
  -1  -3 -13   43.36    0.92
   1  -3  13   41.96    0.97
  -1  -3 -13   43.25    0.99
   1  -3  13   43.43    0.95
  -1  -3 -13   42.82    0.88
   1   3  13   42.16    0.96
  -1   3 -13   43.82    0.99
   1   3  13   42.17    0.95
  -1   3 -13   43.56    0.93
   2  -3  13    0.11    0.15
  -2  -3 -13    0.08    0.15
   2  -3  13    0.01    0.13
  -2  -3 -13   -0.04    0.13
   2   3  13   -0.05    0.13
  -2   3 -13    0.08    0.14
   2   3  13    0.03    0.13
   3  -3  13    0.01    0.15
  -3  -3 -13    0.03    0.16
  -3  -3 -13    0.04    0.16
  -3   3 -13    0.08    0.16
   3   3  13    0.10    0.15
   4  -3  13    2.93    0.33
  -4  -3 -13    2.85    0.31
  -4  -3 -13    3.27    0.38
   4  -3  13    3.19    0.33
  -4   3 -13    3.33    0.34
   4   3  13    2.56    0.29
   5  -3  13    1.74    0.29
  -5  -3 -13    2.34    0.38
   5  -3  13    2.12    0.32
  -5  -3 -13    2.76    0.33
  -5   3 -13    2.22    0.32
   5   3  13    2.30    0.30
  -5   3 -13    1.98    0.35
  -6  -4  13    3.43    0.25
   6  -4 -13    3.32    0.29
   6   4 -13    3.18    0.27
  -6   4  13    3.76    0.30
   5  -4 -13    1.67    0.23
  -5  -4  13    1.76    0.21
  -5   4  13    1.43    0.22
  -5   4  13    1.22    0.31
   5   4 -13    1.46    0.19
  -4  -4  13    0.02    0.13
   4  -4 -13    0.19    0.13
   4   4 -13    0.27    0.13
  -4   4  13    0.13    0.19
  -4   4  13    0.12    0.14
  -3  -4  13    0.23    0.14
   3  -4 -13    0.18    0.13
  -3   4  13    0.09    0.15
   3   4 -13    0.12    0.12
   2  -4 -13   13.15    0.46
  -2  -4  13   12.87    0.44
  -2  -4  13   13.45    0.49
   2  -4 -13   13.43    0.47
  -2   4  13   13.51    0.49
   2   4 -13   13.71    0.46
   2   4 -13   13.41    0.46
  -1  -4  13   19.66    0.53
  -1  -4  13   19.13    0.60
  -1  -4  13   20.76    0.58
   1  -4 -13   19.12    0.58
   1  -4 -13   19.77    0.57
   1   4 -13   19.79    0.58
   1   4 -13   18.50    0.56
  -1   4  13   20.76    0.55
  -1   4  13   18.58    0.60
   0  -4  13   16.53    0.56
   0  -4  13   16.44    0.52
   0  -4 -13   16.55    0.53
   0  -4 -13   16.82    0.55
   0   4 -13   17.13    0.55
   0   4 -13   17.03    0.39
   0   4 -13   16.00    0.52
   0   4  13   18.64    0.58
   0   4  13   16.40    0.52
   1  -4  13   28.15    0.76
  -1  -4 -13   27.40    0.76
  -1  -4 -13   28.38    0.70
   1  -4  13   27.17    0.73
  -1  -4 -13   26.88    0.66
  -1   4 -13   29.04    0.78
   1   4  13   26.69    0.72
  -1   4 -13   28.09    0.71
   1   4  13   27.39    0.74
  -2  -4 -13    0.20    0.17
  -2  -4 -13    0.36    0.16
   2  -4  13    0.14    0.15
   2  -4  13    0.35    0.16
   2   4  13    0.30    0.16
   2   4  13    0.28    0.16
  -2   4 -13   -0.08    0.15
   3  -4  13    9.14    0.46
  -3  -4 -13    9.29    0.47
  -3  -4 -13   10.00    0.51
   3   4  13    9.59    0.46
  -3   4 -13    9.10    0.48
   4  -4  13    7.86    0.47
  -4  -4 -13    9.56    0.49
  -4  -4 -13    9.67    0.58
  -4   4 -13    8.50    0.50
   4   4  13    7.70    0.45
  -5  -4 -13    0.52    0.28
   5  -4  13    0.11    0.19
  -5  -4 -13    0.36    0.20
   5  -4  13    0.47    0.23
  -5   4 -13    0.21    0.29
  -5   4 -13    0.34    0.22
   5   4  13    0.52    0.21
   6  -5 -13    2.25    0.27
  -6  -5  13    2.43    0.23
   6   5 -13    2.61    0.26
  -6   5  13    2.11    0.26
   5  -5 -13    0.33    0.17
  -5  -5  13    0.85    0.17
  -5   5  13    0.65    0.18
   5   5 -13    0.12    0.14
  -5   5  13    0.19    0.21
   4  -5 -13   -0.05    0.13
  -4  -5  13    0.14    0.14
  -4   5  13    0.15    0.15
   4   5 -13   -0.04    0.12
  -4   5  13    0.24    0.19
  -3  -5  13    0.56    0.17
   3  -5 -13    0.29    0.14
   3   5 -13    0.29    0.14
  -3   5  13    0.62    0.18
  -2  -5  13   -0.04    0.13
  -2  -5  13   -0.12    0.11
   2  -5 -13    0.07    0.13
   2  -5 -13    0.01    0.12
   2   5 -13    0.07    0.12
  -2   5  13   -0.17    0.13
   2   5 -13   -0.15    0.11
  -1  -5  13   11.24    0.41
   1  -5 -13   11.02    0.44
   1  -5 -13   11.01    0.46
  -1  -5  13   10.83    0.46
   1   5 -13   11.86    0.46
  -1   5  13   11.41    0.43
  -1   5  13   11.47    0.48
   1   5 -13   11.59    0.45
   0  -5  13   13.20    0.47
   0  -5  13   13.67    0.53
   0  -5 -13   13.04    0.47
   0  -5 -13   13.11    0.51
   0   5  13   14.27    0.53
   0   5 -13   13.66    0.49
   0   5 -13   13.55    0.50
   0   5 -13   13.06    0.36
   0   5  13   13.16    0.48
   1  -5  13   25.99    0.72
  -1  -5 -13   26.45    0.70
   1  -5  13   26.65    0.75
  -1  -5 -13   25.52    0.75
   1   5  13   24.51    0.71
   1   5  13   26.22    0.73
  -1   5 -13   25.89    0.70
  -1   5 -13   27.02    0.76
  -2  -5 -13   20.22    0.68
  -2  -5 -13   21.18    0.66
   2  -5  13   19.75    0.65
   2  -5  13   20.51    0.66
   2   5  13   19.59    0.64
   2   5  13   22.06    0.67
  -2   5 -13   20.50    0.69
   3  -5  13    0.33    0.18
  -3  -5 -13    0.13    0.18
  -3  -5 -13    0.39    0.20
   3   5  13    0.66    0.20
  -3   5 -13    0.45    0.20
  -4  -5 -13   -0.17    0.21
  -4  -5 -13    0.14    0.18
   4  -5  13    0.13    0.19
   4   5  13    0.23    0.19
  -4   5 -13   -0.06    0.18
   5  -5  13    1.07    0.27
  -5  -5 -13    0.81    0.31
  -5  -5 -13    1.09    0.25
   5   5  13    0.77    0.23
  -5   5 -13    0.99    0.26
  -6  -6  13    0.11    0.13
   6  -6 -13   -0.08    0.16
   6   6 -13    0.17    0.15
  -6   6  13   -0.23    0.13
  -5  -6  13   -0.01    0.13
   5  -6 -13    0.06    0.16
   5   6 -13    0.32    0.16
  -5   6  13    0.41    0.26
  -5   6  13   -0.07    0.15
  -4  -6  13    0.03    0.15
   4  -6 -13   -0.07    0.14
   4   6 -13    0.01    0.13
  -4   6  13    0.11    0.16
   3  -6 -13    1.85    0.24
  -3  -6  13    2.33    0.26
  -3   6  13    2.25    0.27
   3   6 -13    1.93    0.24
  -2  -6  13    0.03    0.12
  -2  -6  13   -0.24    0.13
   2  -6 -13   -0.05    0.13
   2  -6 -13   -0.10    0.12
  -2   6  13    0.10    0.15
   2   6 -13    0.04    0.13
   1  -6 -13   13.38    0.52
   1  -6 -13   13.41    0.50
  -1  -6  13   12.49    0.51
  -1  -6  13   13.50    0.46
  -1   6  13   13.47    0.48
   1   6 -13   12.99    0.50
  -1   6  13   13.43    0.54
   1   6 -13   14.60    0.52
   0  -6  13    3.42    0.33
   0  -6  13    2.64    0.25
   0  -6 -13    2.89    0.31
   0  -6 -13    2.42    0.25
   0   6 -13    2.17    0.25
   0   6 -13    2.87    0.30
   0   6  13    1.98    0.23
   0   6  13    2.91    0.30
  -1  -6 -13    0.37    0.15
   1  -6  13    0.74    0.20
   1  -6  13    0.74    0.19
  -1  -6 -13    1.05    0.23
   1   6  13    0.59    0.17
  -1   6 -13    0.78    0.19
  -1   6 -13    0.66    0.21
   1   6  13    0.55    0.18
   2  -6  13   -0.01    0.15
   2  -6  13    0.18    0.16
  -2  -6 -13    0.00    0.16
   2   6  13    0.15    0.16
   2   6  13    0.00    0.15
  -2   6 -13   -0.04    0.15
  -3  -6 -13   -0.06    0.18
   3  -6  13    0.10    0.17
  -3  -6 -13   -0.01    0.19
   3   6  13    0.07    0.16
  -3   6 -13   -0.16    0.17
  -4  -6 -13   -0.05    0.21
  -4  -6 -13    0.26    0.21
   4  -6  13    0.00    0.19
   4   6  13    0.06    0.18
  -4   6 -13    0.27    0.21
  -5  -6 -13    0.15    0.20
  -5  -6 -13   -0.08    0.25
   5  -6  13   -0.14    0.19
   5   6  13    0.17    0.20
  -5   6 -13   -0.17    0.20
  -5  -7  13    3.21    0.30
   5  -7 -13    2.30    0.30
  -5   7  13    2.70    0.32
   5   7 -13    3.08    0.31
  -5   7  13    2.56    0.41
  -4  -7  13   11.98    0.51
   4  -7 -13   12.18    0.53
  -4   7  13   12.57    0.54
   4   7 -13   12.07    0.50
   3  -7 -13   -0.03    0.14
  -3  -7  13    0.25    0.17
   3   7 -13    0.07    0.14
  -3   7  13    0.02    0.15
  -2  -7  13    4.03    0.35
   2  -7 -13    4.05    0.34
   2  -7 -13    3.41    0.31
  -2   7  13    3.76    0.34
   2   7 -13    4.01    0.33
  -1  -7  13    1.23    0.23
   1  -7 -13    1.04    0.20
   1  -7 -13    1.08    0.21
   1   7 -13    1.02    0.21
  -1   7  13    1.02    0.19
  -1   7  13    1.34    0.25
   1   7 -13    0.90    0.20
   0  -7  13    6.81    0.38
   0  -7 -13    7.95    0.40
   0  -7  13    7.62    0.45
   0  -7 -13    6.92    0.42
   0   7 -13    7.40    0.40
   0   7 -13    6.93    0.42
   0   7  13    7.01    0.40
   0   7  13    6.85    0.39
  -1  -7 -13    3.58    0.35
  -1  -7 -13    3.67    0.31
   1  -7  13    3.50    0.33
   1  -7  13    3.18    0.33
  -1   7 -13    3.77    0.32
   1   7  13    3.19    0.30
   1   7  13    2.72    0.30
  -1   7 -13    3.64    0.36
   2  -7  13    2.41    0.30
  -2  -7 -13    2.36    0.30
   2  -7  13    1.84    0.27
  -2   7 -13    2.22    0.32
   2   7  13    2.29    0.29
   3  -7  13    2.40    0.32
  -3  -7 -13    2.58    0.32
  -3   7 -13    2.75    0.34
   3   7  13    2.42    0.32
   4  -7  13    0.12    0.20
  -4  -7 -13    0.01    0.20
   4   7  13   -0.10    0.18
  -4   7 -13   -0.08    0.19
   5  -7  13    0.55    0.26
  -5  -7 -13    0.59    0.24
   5   7  13    1.12    0.28
  -5   7 -13    0.64    0.27
  -5  -8  13   -0.05    0.16
   5  -8 -13    0.24    0.19
  -5   8  13    0.29    0.27
   5   8 -13    0.07    0.18
  -5   8  13   -0.27    0.17
   4  -8 -13    1.54    0.26
  -4  -8  13    1.69    0.26
  -4   8  13    1.51    0.28
   4   8 -13    1.66    0.26
   3  -8 -13    0.00    0.16
  -3  -8  13   -0.01    0.16
  -3   8  13   -0.01    0.17
   3   8 -13    0.09    0.16
   2  -8 -13    6.95    0.42
  -2  -8  13    7.37    0.44
   2  -8 -13    6.94    0.42
  -2   8  13    6.97    0.44
   2   8 -13    7.74    0.43
  -1  -8  13    2.97    0.32
   1  -8 -13    4.04    0.37
   1  -8 -13    3.77    0.34
   1   8 -13    4.06    0.35
  -1   8  13    3.61    0.35
   1   8 -13    2.84    0.29
  -1   8  13    4.02    0.33
   0  -8  13   14.14    0.54
   0  -8  13   13.85    0.59
   0  -8 -13   14.12    0.55
   0  -8 -13   14.10    0.59
   0   8  13   14.93    0.60
   0   8 -13   14.37    0.56
   0   8  13   13.58    0.55
   0   8 -13   14.96    0.60
   1  -8  13    0.01    0.16
   1  -8  13    0.04    0.15
  -1  -8 -13    0.25    0.19
   1   8  13    0.09    0.16
   1   8  13    0.27    0.18
  -1   8 -13    0.09    0.15
  -1   8 -13   -0.22    0.14
  -2  -8 -13    6.59    0.46
   2  -8  13    7.80    0.47
   2  -8  13    6.97    0.45
   2   8  13    6.67    0.44
  -2   8 -13    7.32    0.49
  -3  -8 -13    1.64    0.29
   3  -8  13    1.39    0.28
  -3   8 -13    1.57    0.31
   3   8  13    0.66    0.24
   4  -8  13    0.37    0.23
  -4  -8 -13    0.21    0.22
   4   8  13    0.03    0.20
  -4   8 -13    0.18    0.22
  -5  -9  13    3.38    0.35
   5  -9 -13    3.57    0.39
   5   9 -13    3.82    0.37
  -5   9  13    3.65    0.39
   4  -9 -13    6.30    0.46
  -4  -9  13    5.69    0.41
  -4   9  13    5.06    0.44
   4   9 -13    5.66    0.42
   3  -9 -13    1.69    0.28
  -3  -9  13    0.95    0.23
   3   9 -13    1.46    0.26
  -3   9  13    1.18    0.26
  -2  -9  13    0.84    0.22
   2  -9 -13    0.89    0.23
   2   9 -13    0.80    0.21
  -2   9  13    1.03    0.24
   1  -9 -13    1.76    0.27
   1  -9 -13    1.72    0.27
  -1  -9  13    1.76    0.29
  -1   9  13    1.67    0.27
   1   9 -13    2.52    0.32
   1   9 -13    1.65    0.26
   0  -9  13    7.48    0.47
   0  -9 -13    7.68    0.44
   0  -9  13    7.68    0.43
   0  -9 -13    8.28    0.49
   0   9 -13    6.95    0.45
   0   9  13    8.24    0.48
   0   9  13    7.73    0.44
   0   9 -13    7.42    0.43
   1  -9  13    2.31    0.31
  -1  -9 -13    1.94    0.29
   1  -9  13    2.46    0.31
   1   9  13    1.38    0.27
  -1   9 -13    2.70    0.35
  -1   9 -13    2.07    0.27
   1   9  13    1.91    0.28
  -2  -9 -13    5.32    0.44
   2  -9  13    4.16    0.39
  -2   9 -13    4.93    0.45
   2   9  13    5.07    0.42
   3  -9  13   -0.03    0.20
  -3  -9 -13    0.70    0.26
   3   9  13    0.36    0.22
  -3   9 -13    0.51    0.22
   4  -9  13    0.37    0.25
  -4  -9 -13    0.07    0.20
   4   9  13    0.48    0.23
  -4   9 -13    0.11    0.22
  -4 -10  13    0.07    0.19
   4 -10 -13    0.05    0.20
   4  10 -13    0.10    0.21
  -4  10  13    0.45    0.24
   3 -10 -13   -0.12    0.18
  -3 -10  13    0.20    0.20
   3  10 -13   -0.09    0.18
  -3  10  13    0.03    0.19
  -2 -10  13    1.11    0.26
   2 -10 -13    0.66    0.22
   2  10 -13    0.68    0.22
  -2  10  13    0.94    0.26
  -1 -10  13    1.81    0.30
   1 -10 -13    1.52    0.27
   1 -10 -13    1.28    0.27
   1  10 -13    0.94    0.23
  -1  10  13    1.00    0.26
   0 -10 -13   13.02    0.62
   0 -10  13   15.01    0.65
   0 -10 -13   13.37    0.58
   0  10 -13   13.61    0.62
   0  10 -13   13.94    0.59
   0  10  13   13.89    0.59
   0  10  13   14.36    0.64
  -1 -10 -13    0.08    0.21
   1 -10  13   -0.23    0.17
   1 -10  13    0.13    0.19
   1  10  13   -0.17    0.17
  -1  10 -13   -0.14    0.16
   1  10  13   -0.09    0.17
   2 -10  13    1.78    0.28
  -2 -10 -13    1.45    0.28
   2  10  13    1.71    0.29
  -2  10 -13    1.38    0.31
   3 -10  13   -0.12    0.20
  -3 -10 -13    0.24    0.23
   3  10  13    0.19    0.22
  -3  10 -13    0.16    0.23
   4 -10  13    1.09    0.30
  -4 -10 -13    0.93    0.28
  -4  10 -13    1.14    0.31
   4  10  13    0.95    0.28
   4 -11 -13    0.16    0.22
  -4 -11  13   -0.08    0.19
   4  11 -13    0.30    0.23
  -4  11  13    0.11    0.22
  -3 -11  13   -0.11    0.19
   3 -11 -13    0.09    0.20
  -3  11  13    0.21    0.22
   3  11 -13    0.09    0.21
  -2 -11  13    0.55    0.25
   2 -11 -13    0.15    0.20
  -2  11  13    0.49    0.26
   2  11 -13    0.53    0.21
   1 -11 -13   -0.16    0.18
  -1 -11  13    0.01    0.21
   1 -11 -13    0.18    0.18
   1  11 -13   -0.09    0.17
  -1  11  13   -0.06    0.21
   0 -11  13    0.39    0.22
   0 -11 -13    0.21    0.19
   0  11  13    0.24    0.22
   0  11  13    0.21    0.19
   0  11 -13   -0.02    0.17
   0  11 -13    0.30    0.20
  -1 -11 -13    0.61    0.24
   1 -11  13    0.33    0.20
   1 -11  13    0.23    0.23
  -1  11 -13    0.64    0.26
   1  11  13    0.29    0.21
  -2 -11 -13    0.41    0.24
   2 -11  13    0.00    0.19
   2  11  13    0.15    0.22
  -2  11 -13    0.12    0.24
  -3 -11 -13    0.67    0.27
   3 -11  13    1.20    0.30
  -3  11 -13    0.79    0.30
   3  11  13    0.97    0.29
   3 -12 -13    0.16    0.23
  -3 -12  13    0.17    0.21
   3  12 -13   -0.04    0.20
  -3  12  13    0.07    0.23
  -2 -12  13    0.55    0.25
   2 -12 -13    0.74    0.25
  -2  12  13    0.45    0.25
   2  12 -13    0.52    0.24
   1 -12 -13    0.11    0.22
   1 -12 -13   -0.15    0.18
  -1 -12  13    0.26    0.24
   1  12 -13    0.20    0.19
  -1  12  13   -0.25    0.21
   0 -12 -13    0.29    0.23
   0 -12  13    0.55    0.26
   0  12 -13    0.21    0.19
   0  12 -13    0.88    0.26
   0  12  13    0.36    0.25
   1 -12  13    0.04    0.20
  -1 -12 -13   -0.07    0.23
  -1  12 -13    0.09    0.24
   1  12  13    0.15    0.21
   2 -12  13    0.28    0.23
  -2 -12 -13    0.34    0.25
   2  12  13    0.10    0.22
  -2  12 -13   -0.01    0.24
   2 -13 -13    0.90    0.28
  -2 -13  13    0.38    0.25
  -2  13  13    0.58    0.29
   2  13 -13    0.53    0.26
  -1 -13  13   -0.26    0.20
  -1  13  13    0.13    0.25
   1  13 -13    0.19    0.21
   0 -13 -13    2.88    0.43
   0 -13  13    1.84    0.34
   0  13  13    1.58    0.34
   1 -13  13    0.22    0.25
  -1 -13 -13    0.00    0.24
  -1  13 -13    0.40    0.27
   1  13  13    0.13    0.23
  -2 -13 -13    2.68    0.42
  -2  13 -13    1.27    0.32
   2  13  13    1.80    0.35
  -1 -14  13    0.11    0.25
  -1  14  13    0.17    0.23
   1  14 -13    0.14    0.21
   0 -14  13    0.17    0.24
   0 -14 -13    0.30    0.27
   6   0 -14    3.67    0.29
  -6   0  14    4.18    0.27
   5   0 -14    1.75    0.20
  -5   0  14    1.76    0.33
  -5   0  14    1.64    0.20
  -4   0  14    1.14    0.19
   4   0 -14    0.84    0.16
  -4   0  14    0.75    0.22
  -3   0  14   -0.08    0.13
   3   0 -14    0.06    0.11
  -3   0  14    0.13    0.14
   2   0 -14   21.84    0.59
  -2   0  14   22.94    0.65
   2   0 -14   23.58    0.62
  -2   0  14   23.96    0.65
  -1   0  14    4.52    0.26
  -1   0  14    4.61    0.25
  -1   0  14    4.10    0.30
   1   0 -14    4.27    0.28
   1   0 -14    4.79    0.28
  -1   0  14    4.44    0.28
   0   0  14    2.27    0.15
   0   0  14    1.95    0.23
   0   0 -14    2.32    0.22
   0   0 -14    2.33    0.24
   0   0  14    1.63    0.19
   0   0  14    2.06    0.24
   1   0  14   34.31    0.84
  -1   0 -14   33.29    0.84
   1   0  14   36.09    0.87
   1   0  14   35.13    0.83
  -1   0 -14   34.24    0.80
   2   0  14   20.25    0.62
  -2   0 -14   18.89    0.61
   2   0  14   19.35    0.64
  -2   0 -14   18.95    0.62
   2   0  14   19.32    0.60
   3   0  14    0.27    0.18
  -3   0 -14    0.39    0.18
  -3   0 -14    0.10    0.16
   3   0  14    0.19    0.16
   4   0  14    0.04    0.17
  -4   0 -14    0.12    0.17
   4   0  14   -0.08    0.16
  -4   0 -14    0.08    0.20
  -5   0 -14    0.17    0.26
   5   0  14   -0.05    0.18
   5   0  14    0.04    0.18
  -5   0 -14    0.25    0.19
  -6  -1  14   -0.16    0.11
   6  -1 -14   -0.20    0.12
  -6   1  14   -0.11    0.24
   6   1 -14    0.09    0.12
  -6   1  14    0.10    0.12
   5  -1 -14   11.90    0.43
  -5  -1  14   10.59    0.40
  -5   1  14   10.92    0.42
   5   1 -14   11.05    0.41
  -5   1  14   11.99    0.63
   4  -1 -14   16.22    0.51
  -4  -1  14   17.14    0.53
  -4  -1  14   17.28    0.68
  -4   1  14   16.70    0.67
   4   1 -14   17.06    0.51
  -4   1  14   17.25    0.54
   3  -1 -14    3.97    0.28
  -3  -1  14    4.53    0.33
  -3  -1  14    4.24    0.29
  -3   1  14    4.35    0.30
   3   1 -14    4.58    0.28
  -3   1  14    5.00    0.37
  -2  -1  14    0.31    0.14
   2  -1 -14    0.11    0.12
  -2  -1  14    0.17    0.14
   2  -1 -14    0.19    0.12
   2   1 -14    0.09    0.12
  -2   1  14    0.19    0.15
   2   1 -14    0.07    0.11
  -2   1  14    0.14    0.14
  -1  -1  14    1.96    0.19
  -1  -1  14    1.42    0.21
  -1  -1  14    1.38    0.19
  -1  -1  14    1.82    0.18
   1  -1 -14    1.23    0.18
   1  -1 -14    1.18    0.18
  -1   1  14    1.41    0.20
  -1   1  14    1.54    0.18
   1   1 -14    1.87    0.22
  -1   1  14    1.68    0.18
   1   1 -14    1.67    0.19
   0  -1  14   30.93    0.79
   0  -1 -14   33.43    0.64
   0  -1  14   32.93    0.77
   0  -1 -14   32.81    0.80
   0  -1  14   32.07    0.80
   0  -1 -14   33.92    0.78
   0   1 -14   32.75    0.80
   0   1  14   31.87    0.80
   0   1 -14   33.28    0.78
   0   1  14   33.57    0.82
   0   1  14   30.90    0.76
  -1  -1 -14   61.53    1.16
  -1  -1 -14   60.87    1.19
   1  -1  14   61.75    1.23
   1  -1  14   59.41    1.25
   1  -1  14   61.94    1.25
  -1  -1 -14   58.96    1.24
  -1   1 -14   62.17    1.27
   1   1  14   58.81    1.23
  -1   1 -14   62.63    1.20
   1   1  14   60.15    1.22
   1   1  14   59.41    1.25
  -2  -1 -14    4.44    0.32
   2  -1  14    4.70    0.33
   2  -1  14    4.62    0.32
   2  -1  14    4.27    0.35
  -2  -1 -14    4.62    0.34
   2   1  14    4.71    0.34
  -2   1 -14    3.30    0.30
   2   1  14    4.14    0.31
   2   1  14    4.25    0.34
  -3  -1 -14    0.97    0.24
   3  -1  14    0.64    0.19
   3  -1  14    0.98    0.22
  -3  -1 -14    0.35    0.17
  -3   1 -14    0.65    0.20
  -3   1 -14    0.40    0.19
   3   1  14    0.68    0.20
   3   1  14    0.50    0.18
   4  -1  14    0.05    0.17
  -4  -1 -14   -0.03    0.17
   4  -1  14   -0.03    0.16
  -4  -1 -14    0.23    0.22
  -4   1 -14   -0.10    0.17
   4   1  14   -0.03    0.16
  -4   1 -14    0.08    0.17
   4   1  14    0.20    0.18
  -5  -1 -14    4.91    0.53
  -5  -1 -14    4.91    0.42
   5  -1  14    4.49    0.42
   5  -1  14    5.12    0.43
  -5   1 -14    5.66    0.58
   5   1  14    5.02    0.43
   5   1  14    5.00    0.43
  -5   1 -14    4.74    0.42
   6  -2 -14    1.22    0.20
  -6  -2  14    1.37    0.17
  -6   2  14    1.55    0.37
   6   2 -14    1.23    0.19
  -6   2  14    1.27    0.19
  -5  -2  14    2.25    0.23
   5  -2 -14    2.75    0.26
  -5   2  14    2.75    0.26
  -5   2  14    2.80    0.36
   5   2 -14    2.84    0.25
   4  -2 -14    1.11    0.18
  -4  -2  14    1.02    0.18
   4   2 -14    0.88    0.16
  -4   2  14    1.30    0.20
  -4   2  14    1.03    0.26
  -3  -2  14    1.42    0.20
   3  -2 -14    1.21    0.18
   3   2 -14    1.39    0.19
  -3   2  14    1.11    0.20
  -3   2  14    1.42    0.25
  -2  -2  14    0.18    0.12
  -2  -2  14    0.02    0.13
   2  -2 -14    0.14    0.13
   2  -2 -14    0.20    0.12
   2   2 -14   -0.02    0.11
  -2   2  14    0.17    0.14
   2   2 -14    0.10    0.12
  -2   2  14    0.04    0.13
  -1  -2  14    4.06    0.28
   1  -2 -14    4.06    0.28
  -1  -2  14    4.34    0.25
   1  -2 -14    4.07    0.28
  -1  -2  14    4.00    0.28
  -1   2  14    3.75    0.28
   1   2 -14    3.97    0.28
  -1   2  14    4.29    0.27
   1   2 -14    3.70    0.27
   0  -2  14   10.58    0.44
   0  -2  14   10.85    0.43
   0  -2 -14   10.86    0.45
   0  -2 -14   11.14    0.42
   0  -2 -14   11.34    0.31
   0  -2  14   11.14    0.42
   0   2  14   11.31    0.43
   0   2 -14   10.79    0.45
   0   2 -14   10.67    0.42
   0   2  14   11.89    0.47
   1  -2  14    0.00    0.15
   1  -2  14    0.19    0.17
  -1  -2 -14    0.33    0.12
   1  -2  14    0.31    0.15
  -1  -2 -14    0.03    0.15
  -1  -2 -14    0.20    0.12
  -1   2 -14   -0.05    0.13
   1   2  14    0.15    0.13
  -1   2 -14    0.23    0.13
   1   2  14    0.12    0.16
   1   2  14    0.04    0.16
  -2  -2 -14    8.69    0.45
   2  -2  14    9.47    0.46
   2  -2  14    9.44    0.43
   2  -2  14    9.06    0.42
  -2  -2 -14    9.33    0.43
  -2   2 -14    9.22    0.43
   2   2  14    9.82    0.43
   2   2  14    9.05    0.42
   2   2  14    8.72    0.45
  -3  -2 -14    1.28    0.25
   3  -2  14    1.67    0.25
   3  -2  14    1.23    0.24
  -3  -2 -14    1.18    0.24
   3   2  14    1.41    0.22
  -3   2 -14    1.09    0.22
   3   2  14    1.32    0.24
   4  -2  14    0.13    0.19
  -4  -2 -14   -0.25    0.16
  -4  -2 -14   -0.10    0.21
   4  -2  14    0.38    0.19
   4   2  14    0.09    0.19
  -4   2 -14   -0.09    0.16
  -4   2 -14   -0.23    0.19
   4   2  14   -0.09    0.16
   5  -2  14    2.69    0.35
  -5  -2 -14    2.15    0.30
   5  -2  14    2.58    0.34
  -5  -2 -14    2.92    0.43
  -5   2 -14    2.13    0.31
  -5   2 -14    2.49    0.42
   5   2  14    2.30    0.32
  -6  -3  14    0.81    0.16
   6  -3 -14    0.59    0.18
   6   3 -14    0.74    0.17
  -6   3  14    0.84    0.18
   5  -3 -14    1.89    0.23
  -5  -3  14    1.66    0.21
  -5   3  14    1.50    0.33
  -5   3  14    1.79    0.23
   5   3 -14    1.48    0.20
  -4  -3  14    2.83    0.26
   4  -3 -14    3.17    0.27
  -4   3  14    3.59    0.30
   4   3 -14    3.03    0.26
  -4   3  14    3.21    0.38
   3  -3 -14   14.50    0.50
  -3  -3  14   15.32    0.52
  -3   3  14   15.44    0.53
  -3   3  14   14.79    0.58
   3   3 -14   15.11    0.49
  -2  -3  14    3.94    0.26
   2  -3 -14    4.14    0.29
  -2  -3  14    4.26    0.30
   2  -3 -14    4.42    0.29
   2   3 -14    3.58    0.28
  -2   3  14    4.75    0.32
   2   3 -14    4.39    0.28
   1  -3 -14    5.03    0.31
   1  -3 -14    4.91    0.30
  -1  -3  14    4.73    0.31
  -1  -3  14    4.49    0.27
  -1  -3  14    4.92    0.31
  -1   3  14    4.89    0.28
   1   3 -14    4.60    0.30
  -1   3  14    4.94    0.33
   1   3 -14    5.04    0.30
   0  -3  14    0.43    0.18
   0  -3 -14    0.14    0.14
   0  -3 -14    0.69    0.10
   0  -3  14    0.67    0.16
   0  -3  14    0.38    0.17
   0  -3 -14    0.48    0.15
   0   3  14    0.43    0.17
   0   3 -14    0.37    0.16
   0   3 -14    0.49    0.15
   0   3  14    0.33    0.14
   1  -3  14    4.24    0.31
  -1  -3 -14    4.25    0.28
  -1  -3 -14    4.11    0.33
   1  -3  14    3.67    0.29
  -1  -3 -14    3.88    0.25
   1  -3  14    4.04    0.34
   1   3  14    3.71    0.30
  -1   3 -14    4.38    0.30
   1   3  14    3.35    0.28
  -1   3 -14    4.06    0.33
  -2  -3 -14    2.82    0.28
  -2  -3 -14    2.92    0.29
   2  -3  14    3.18    0.30
   2  -3  14    2.62    0.28
  -2   3 -14    2.97    0.29
   2   3  14    3.44    0.31
   2   3  14    2.70    0.27
  -3  -3 -14    0.22    0.18
  -3  -3 -14    0.06    0.16
   3  -3  14    0.34    0.19
   3  -3  14    0.13    0.16
   3   3  14    0.06    0.16
  -3   3 -14    0.22    0.18
   4  -3  14    0.64    0.22
   4  -3  14    0.22    0.19
  -4  -3 -14    0.76    0.22
  -4  -3 -14    0.10    0.22
   4   3  14    0.48    0.20
  -4   3 -14    0.53    0.21
  -5  -3 -14    0.05    0.26
  -5  -3 -14   -0.22    0.17
   5  -3  14   -0.16    0.19
   5  -3  14    0.11    0.20
  -5   3 -14    0.03    0.25
   5   3  14    0.28    0.20
  -5   3 -14    0.15    0.20
   6  -4 -14   -0.11    0.15
  -6  -4  14    0.04    0.12
   6   4 -14   -0.07    0.12
  -6   4  14    0.09    0.15
  -5  -4  14   -0.04    0.13
   5  -4 -14   -0.03    0.13
  -5   4  14    0.26    0.16
  -5   4  14   -0.26    0.21
   5   4 -14    0.13    0.13
   4  -4 -14    0.27    0.15
  -4  -4  14    0.66    0.17
  -4   4  14    0.03    0.20
   4   4 -14    0.35    0.14
  -4   4  14    0.22    0.16
  -3  -4  14    0.37    0.16
   3  -4 -14    0.23    0.14
   3   4 -14    0.34    0.14
  -3   4  14    0.24    0.16
  -2  -4  14    1.80    0.23
   2  -4 -14    1.67    0.22
  -2  -4  14    1.86    0.21
   2  -4 -14    1.40    0.20
  -2   4  14    1.48    0.22
   2   4 -14    1.12    0.19
   2   4 -14    1.34    0.19
  -1  -4  14    2.80    0.24
   1  -4 -14    2.66    0.25
  -1  -4  14    2.19    0.26
  -1  -4  14    2.58    0.26
   1  -4 -14    2.71    0.27
  -1   4  14    2.32    0.26
   1   4 -14    2.43    0.25
   1   4 -14    2.76    0.28
  -1   4  14    2.32    0.23
   0  -4  14   -0.13    0.14
   0  -4 -14    0.10    0.15
   0  -4 -14    0.02    0.13
   0  -4  14    0.22    0.13
   0   4  14    0.01    0.13
   0   4 -14    0.16    0.16
   0   4 -14    0.20    0.14
   0   4  14    0.01    0.12
   1  -4  14   -0.15    0.12
  -1  -4 -14    0.22    0.12
  -1  -4 -14    0.04    0.14
  -1  -4 -14    0.16    0.13
   1  -4  14    0.06    0.17
  -1   4 -14    0.25    0.16
   1   4  14    0.24    0.15
  -1   4 -14    0.00    0.13
   1   4  14    0.16    0.15
   2  -4  14    3.46    0.32
  -2  -4 -14    3.42    0.34
  -2  -4 -14    3.59    0.31
   2  -4  14    2.64    0.27
  -2   4 -14    2.53    0.29
   2   4  14    2.51    0.27
   2   4  14    2.92    0.29
  -3  -4 -14    4.64    0.39
   3  -4  14    5.08    0.39
  -3  -4 -14    4.91    0.40
   3   4  14    4.02    0.36
  -3   4 -14    5.12    0.39
  -4  -4 -14    0.33    0.21
   4  -4  14    0.27    0.21
  -4  -4 -14    0.67    0.26
  -4   4 -14    0.49    0.22
   4   4  14    0.56    0.21
   5  -4  14    0.01    0.20
   5  -4  14   -0.10    0.21
  -5  -4 -14   -0.30    0.21
  -5  -4 -14    0.21    0.20
   5   4  14   -0.32    0.16
  -5   4 -14   -0.05    0.25
  -5   4 -14    0.21    0.21
  -6  -5  14    0.49    0.16
   6  -5 -14    0.65    0.19
   6   5 -14    0.85    0.19
  -6   5  14    0.44    0.19
  -5  -5  14    2.12    0.25
   5  -5 -14    1.86    0.25
  -5   5  14    1.79    0.33
   5   5 -14    2.07    0.24
  -5   5  14    2.48    0.28
   4  -5 -14   12.69    0.51
  -4  -5  14   13.36    0.50
   4   5 -14   12.63    0.48
  -4   5  14   13.02    0.53
  -4   5  14   13.25    0.65
  -3  -5  14    2.51    0.27
   3  -5 -14    2.48    0.27
  -3   5  14    2.17    0.27
   3   5 -14    2.07    0.23
   2  -5 -14    1.49    0.22
  -2  -5  14    0.95    0.17
   2  -5 -14    1.21    0.21
  -2  -5  14    1.14    0.22
  -2   5  14    1.29    0.22
   2   5 -14    1.16    0.22
   2   5 -14    1.49    0.21
   1  -5 -14    4.81    0.33
  -1  -5  14    4.37    0.32
  -1  -5  14    5.17    0.30
  -1  -5  14    5.48    0.34
   1  -5 -14    4.99    0.32
  -1   5  14    4.69    0.31
  -1   5  14    5.63    0.37
   1   5 -14    5.11    0.33
   1   5 -14    5.08    0.32
   0  -5  14    2.65    0.29
   0  -5 -14    2.38    0.27
   0  -5  14    2.03    0.24
   0  -5 -14    2.49    0.27
   0   5  14    2.03    0.23
   0   5 -14    2.56    0.28
   0   5 -14    2.86    0.29
   0   5  14    3.03    0.31
  -1  -5 -14   31.09    0.78
   1  -5  14   29.86    0.83
  -1  -5 -14   30.27    0.85
   1  -5  14   29.55    0.81
   1   5  14   31.88    0.83
   1   5  14   30.73    0.83
  -1   5 -14   31.26    0.80
  -1   5 -14   31.22    0.85
  -2  -5 -14    0.30    0.19
  -2  -5 -14    0.26    0.16
   2  -5  14    0.66    0.20
   2  -5  14    0.61    0.19
   2   5  14    0.52    0.19
  -2   5 -14    0.56    0.22
   2   5  14    0.51    0.18
  -3  -5 -14    0.76    0.22
  -3  -5 -14    0.65    0.23
   3  -5  14    0.73    0.22
  -3   5 -14    0.43    0.21
   3   5  14    0.97    0.23
  -4  -5 -14    5.58    0.43
  -4  -5 -14    5.68    0.49
   4  -5  14    5.39    0.45
  -4   5 -14    4.64    0.43
   4   5  14    5.89    0.44
  -5  -5 -14    0.70    0.30
  -5  -5 -14    1.29    0.27
   5  -5  14    0.72    0.24
  -5   5 -14    0.70    0.25
   5   5  14    0.73    0.24
  -5   5 -14    0.94    0.36
   6  -6 -14    1.42    0.26
  -6  -6  14    1.96    0.23
  -6   6  14    1.80    0.27
   6   6 -14    1.92    0.26
   5  -6 -14    0.01    0.15
  -5  -6  14   -0.03    0.14
   5   6 -14    0.01    0.14
  -5   6  14   -0.04    0.24
  -5   6  14   -0.11    0.16
   4  -6 -14    2.41    0.28
  -4  -6  14    2.06    0.26
   4   6 -14    2.24    0.26
  -4   6  14    2.30    0.29
   3  -6 -14    9.59    0.46
  -3  -6  14    8.98    0.45
   3   6 -14    8.92    0.43
  -3   6  14    9.27    0.46
   2  -6 -14   10.64    0.46
  -2  -6  14   10.70    0.49
   2  -6 -14    9.68    0.45
  -2  -6  14   10.29    0.43
   2   6 -14   10.79    0.46
  -2   6  14   10.26    0.47
   1  -6 -14    0.13    0.14
  -1  -6  14    0.12    0.16
   1  -6 -14   -0.01    0.13
   1   6 -14    0.04    0.15
  -1   6  14   -0.17    0.15
   1   6 -14    0.00    0.14
  -1   6  14    0.03    0.13
   0  -6 -14    0.64    0.17
   0  -6  14    0.90    0.18
   0  -6  14    0.92    0.22
   0  -6 -14    1.13    0.23
   0   6  14    0.85    0.19
   0   6  14    1.29    0.24
   0   6 -14    0.79    0.21
   0   6 -14    0.82    0.19
   1  -6  14    8.64    0.44
   1  -6  14    7.92    0.45
  -1  -6 -14    8.91    0.41
  -1  -6 -14    8.77    0.47
   1   6  14    7.50    0.43
  -1   6 -14    8.24    0.41
  -1   6 -14    8.10    0.46
   1   6  14    8.45    0.44
   2  -6  14    1.43    0.24
  -2  -6 -14    2.10    0.29
   2  -6  14    1.69    0.25
  -2   6 -14    1.43    0.26
   2   6  14    1.77    0.25
   3  -6  14    8.42    0.50
  -3  -6 -14    7.46    0.47
  -3  -6 -14    8.00    0.51
  -3   6 -14    7.86    0.49
   3   6  14    9.26    0.50
  -4  -6 -14    4.12    0.45
   4  -6  14    3.92    0.40
  -4  -6 -14    3.67    0.39
   4   6  14    4.41    0.42
  -4   6 -14    3.66    0.40
  -5  -6 -14    1.35    0.28
   5  -6  14    1.25    0.30
  -5  -6 -14    0.85    0.32
  -5   6 -14    1.12    0.29
   5   6  14    1.19    0.29
  -5  -7  14   -0.01    0.15
   5  -7 -14    0.11    0.18
   5   7 -14    0.16    0.17
  -5   7  14    0.07    0.19
  -5   7  14    0.31    0.27
   4  -7 -14   10.06    0.50
  -4  -7  14   10.71    0.49
   4   7 -14    9.04    0.46
  -4   7  14    9.65    0.51
  -3  -7  14    9.01    0.47
   3  -7 -14    8.04    0.44
   3   7 -14    8.68    0.45
  -3   7  14    8.27    0.48
  -2  -7  14    0.41    0.16
  -2  -7  14    0.62    0.21
   2  -7 -14    0.71    0.20
   2  -7 -14    0.89    0.21
   2   7 -14    0.77    0.19
  -2   7  14    0.96    0.22
   1  -7 -14   10.94    0.49
   1  -7 -14   11.49    0.49
  -1  -7  14    9.64    0.50
  -1   7  14   10.32    0.46
  -1   7  14   10.47    0.49
   1   7 -14   10.99    0.49
   1   7 -14   11.32    0.49
   0  -7  14   10.35    0.52
   0  -7  14    9.20    0.44
   0  -7 -14    9.87    0.46
   0  -7 -14    9.79    0.48
   0   7  14   10.99    0.51
   0   7 -14   10.16    0.47
   0   7  14    9.64    0.46
   0   7 -14   11.00    0.51
   1  -7  14   15.76    0.59
   1  -7  14   16.50    0.62
  -1  -7 -14   15.98    0.64
  -1   7 -14   15.07    0.57
   1   7  14   16.01    0.61
   1   7  14   16.03    0.61
  -1   7 -14   16.69    0.65
   2  -7  14    0.17    0.19
  -2  -7 -14    0.25    0.19
   2  -7  14   -0.04    0.16
  -2   7 -14   -0.12    0.17
   2   7  14    0.14    0.18
   3  -7  14    2.76    0.35
  -3  -7 -14    3.08    0.36
  -3   7 -14    2.23    0.33
   3   7  14    2.69    0.33
  -4  -7 -14    0.91    0.26
   4  -7  14    0.99    0.28
  -4   7 -14    0.83    0.26
   4   7  14    1.10    0.26
   5  -8 -14    0.07    0.19
  -5  -8  14    0.15    0.18
  -5   8  14    0.37    0.21
   5   8 -14    0.17    0.19
   4  -8 -14    0.42    0.21
  -4  -8  14    0.26    0.18
   4   8 -14    0.33    0.19
  -4   8  14    0.42    0.21
  -3  -8  14    0.27    0.19
   3  -8 -14    0.08    0.17
   3   8 -14    0.28    0.17
  -3   8  14   -0.12    0.17
  -2  -8  14    0.13    0.17
   2  -8 -14    0.23    0.17
   2   8 -14    0.15    0.16
  -2   8  14   -0.07    0.18
  -1  -8  14   -0.10    0.17
   1  -8 -14   -0.01    0.15
   1  -8 -14   -0.13    0.16
   1   8 -14   -0.20    0.15
   1   8 -14   -0.02    0.15
  -1   8  14    0.13    0.19
   0  -8  14    2.90    0.30
   0  -8  14    2.85    0.34
   0  -8 -14    3.82    0.35
   0  -8 -14    2.73    0.31
   0   8 -14    3.99    0.38
   0   8  14    2.81    0.32
   0   8 -14    2.75    0.30
   0   8  14    2.85    0.30
  -1  -8 -14    0.33    0.19
   1  -8  14   -0.04    0.18
   1  -8  14    0.12    0.17
  -1   8 -14    0.28    0.17
  -1   8 -14   -0.02    0.17
   1   8  14    0.31    0.18
   1   8  14    0.36    0.19
  -2  -8 -14    5.25    0.43
   2  -8  14    5.00    0.44
   2  -8  14    5.10    0.42
   2   8  14    5.71    0.43
  -2   8 -14    3.93    0.39
  -3  -8 -14    0.15    0.22
   3  -8  14   -0.12    0.19
   3   8  14    0.00    0.19
  -3   8 -14    0.25    0.21
  -4  -8 -14   -0.19    0.19
   4  -8  14    0.31    0.23
  -4   8 -14    0.80    0.28
   4   8  14    0.22    0.22
  -5  -9  14   -0.06    0.18
   5  -9 -14    0.02    0.18
  -5   9  14    0.17    0.21
   5   9 -14    0.30    0.21
   4  -9 -14    1.46    0.28
  -4  -9  14    1.27    0.26
  -4   9  14    1.00    0.27
   4   9 -14    1.30    0.26
   3  -9 -14    0.53    0.21
  -3  -9  14    0.67    0.22
   3   9 -14    0.38    0.19
  -3   9  14    0.38    0.21
  -2  -9  14    0.00    0.17
   2  -9 -14   -0.17    0.16
   2   9 -14   -0.10    0.16
  -2   9  14    0.00    0.16
   1  -9 -14   -0.11    0.15
   1  -9 -14    0.09    0.18
  -1  -9  14   -0.05    0.19
  -1   9  14    0.29    0.21
   1   9 -14   -0.06    0.17
   1   9 -14    0.01    0.16
   0  -9  14    0.08    0.20
   0  -9 -14    0.12    0.19
   0  -9 -14    0.15    0.17
   0   9  14    0.04    0.15
   0   9 -14    0.15    0.16
   0   9  14   -0.26    0.17
   0   9 -14   -0.03    0.19
   1  -9  14    0.91    0.26
   1  -9  14    0.72    0.22
  -1  -9 -14    0.79    0.25
  -1   9 -14    0.34    0.23
   1   9  14    0.64    0.21
   1   9  14    0.67    0.23
   2  -9  14    7.12    0.48
  -2  -9 -14    8.17    0.53
  -2   9 -14    6.64    0.51
   2   9  14    8.27    0.51
   3  -9  14    0.08    0.21
  -3  -9 -14    0.62    0.26
  -3   9 -14    0.51    0.27
   3   9  14    0.30    0.22
  -4  -9 -14    0.11    0.22
   4  -9  14   -0.18    0.21
  -4   9 -14    0.22    0.25
   4   9  14   -0.03    0.20
   4 -10 -14    1.08    0.28
  -4 -10  14    1.33    0.28
  -4  10  14    1.51    0.31
   4  10 -14    1.28    0.28
  -3 -10  14    0.28    0.21
   3 -10 -14    0.16    0.19
  -3  10  14    0.17    0.21
   3  10 -14    0.07    0.19
  -2 -10  14   -0.01    0.19
   2 -10 -14    0.04    0.19
   2  10 -14    0.29    0.20
  -2  10  14    0.14    0.19
   1 -10 -14    6.83    0.45
  -1 -10  14    6.42    0.48
   1 -10 -14    7.17    0.49
   1  10 -14    6.49    0.45
  -1  10  14    7.35    0.51
   0 -10  14    0.50    0.23
   0 -10 -14    0.12    0.20
   0 -10 -14    0.42    0.22
   0  10 -14   -0.05    0.20
   0  10 -14    0.00    0.16
   0  10  14    0.30    0.19
   0  10  14    0.04    0.20
   1 -10  14    0.15    0.18
   1 -10  14    0.06    0.21
  -1 -10 -14    0.17    0.19
  -1  10 -14    0.37    0.23
   1  10  14    0.21    0.20
   1  10  14   -0.16    0.19
  -2 -10 -14   -0.06    0.21
   2 -10  14    0.66    0.24
  -2  10 -14    0.34    0.25
   2  10  14    0.03    0.20
  -3 -10 -14    0.81    0.28
   3 -10  14    0.95    0.28
   3  10  14    0.72    0.26
  -3  10 -14    0.73    0.29
  -4 -11  14    1.38    0.29
   4 -11 -14    0.63    0.25
  -4  11  14    1.36    0.30
   4  11 -14    1.13    0.29
  -3 -11  14    6.69    0.49
   3 -11 -14    5.81    0.48
   3  11 -14    5.64    0.48
  -3  11  14    6.03    0.51
   2 -11 -14    0.12    0.21
  -2 -11  14    0.55    0.25
   2  11 -14    0.53    0.23
  -2  11  14    0.04    0.23
  -1 -11  14    2.34    0.35
   1 -11 -14    2.01    0.31
   1 -11 -14    1.97    0.34
   1  11 -14    1.82    0.30
  -1  11  14    1.77    0.31
   0 -11  14    6.66    0.51
   0 -11 -14    6.92    0.53
   0  11 -14    6.61    0.50
   0  11 -14    5.37    0.43
   0  11  14    6.61    0.50
  -1 -11 -14    0.56    0.27
   1 -11  14    0.65    0.26
  -1  11 -14    0.75    0.26
   1  11  14    0.61    0.24
   2 -11  14   -0.04    0.19
  -2 -11 -14   -0.05    0.22
  -2  11 -14   -0.16    0.20
   2  11  14    0.16    0.22
  -3 -11 -14    0.82    0.30
   3 -11  14    0.86    0.29
  -3  11 -14    0.32    0.28
   3  11  14    0.98    0.29
   3 -12 -14    0.87    0.27
  -3 -12  14    0.72    0.26
  -3  12  14    1.61    0.34
   3  12 -14    1.23    0.31
   2 -12 -14   -0.18    0.19
  -2 -12  14    0.14    0.20
   2  12 -14   -0.34    0.18
  -2  12  14    0.29    0.27
   1 -12 -14    0.47    0.23
  -1 -12  14    0.51    0.26
   1 -12 -14    0.43    0.29
   1  12 -14    0.55    0.22
  -1  12  14    0.02    0.22
   0 -12  14   -0.20    0.21
   0 -12 -14   -0.14    0.22
   0  12  14    0.06    0.23
   0  12 -14   -0.02    0.17
   0  12 -14   -0.06    0.24
   1 -12  14    0.04    0.22
  -1 -12 -14   -0.07    0.21
  -1  12 -14    0.41    0.26
   1  12  14   -0.15    0.20
   2 -12  14   -0.03    0.21
  -2 -12 -14    0.04    0.25
  -2  12 -14    0.04    0.25
   2  12  14    0.12    0.23
  -2 -13  14    0.39    0.25
   2 -13 -14   -0.10    0.21
  -2  13  14    0.17    0.23
   2  13 -14    0.15    0.22
  -1 -13  14    1.00    0.31
  -1  13  14    0.46    0.26
   1  13 -14    0.86    0.26
   0 -13  14    1.18    0.30
   0 -13 -14    1.72    0.35
   0  13  14    1.60    0.35
  -1 -13 -14    4.27    0.50
   1 -13  14    4.68    0.52
   1  13  14    4.19    0.46
  -1  13 -14    4.16    0.47
  -6   0  15   -0.11    0.12
   6   0 -15    0.00    0.13
  -5   0  15    0.36    0.24
   5   0 -15    0.16    0.13
  -5   0  15    0.01    0.13
   4   0 -15   -0.06    0.11
  -4   0  15    0.03    0.13
  -4   0  15    0.24    0.19
   3   0 -15    0.08    0.12
  -3   0  15   -0.02    0.14
  -3   0  15    0.06    0.16
   2   0 -15    0.02    0.12
   2   0 -15   -0.04    0.11
  -2   0  15    0.00    0.13
  -2   0  15    0.02    0.15
  -1   0  15   -0.04    0.10
  -1   0  15    0.05    0.13
  -1   0  15   -0.08    0.12
  -1   0  15    0.01    0.10
   1   0 -15   -0.15    0.11
   1   0 -15   -0.28    0.12
   0   0 -15    0.20    0.12
   0   0  15   -0.07    0.14
   0   0  15    0.00    0.12
   0   0 -15    0.00    0.13
   0   0  15    0.12    0.08
   0   0  15    0.06    0.15
   1   0  15   -0.04    0.15
   1   0  15    0.07    0.15
  -1   0 -15    0.06    0.12
  -1   0 -15    0.09    0.14
   1   0  15    0.19    0.14
  -1   0 -15    0.13    0.12
  -2   0 -15    0.01    0.13
   2   0  15    0.38    0.18
   2   0  15   -0.11    0.13
  -2   0 -15   -0.09    0.13
   2   0  15   -0.17    0.13
  -3   0 -15   -0.07    0.15
   3   0  15   -0.24    0.15
   3   0  15    0.19    0.18
  -3   0 -15    0.17    0.18
   4   0  15    0.05    0.18
  -4   0 -15   -0.02    0.18
  -4   0 -15   -0.33    0.18
   4   0  15   -0.02    0.17
   5   0  15    0.32    0.22
   5   0  15   -0.10    0.18
  -5   0 -15    0.06    0.27
  -5   0 -15    0.02    0.19
  -6  -1  15    1.96    0.21
   6  -1 -15    2.02    0.23
  -6   1  15    2.10    0.63
  -6   1  15    1.54    0.21
   6   1 -15    2.05    0.24
   5  -1 -15    1.73    0.22
  -5  -1  15    2.20    0.23
   5   1 -15    1.92    0.23
  -5   1  15    2.00    0.24
  -5   1  15    1.88    0.33
  -4  -1  15    2.20    0.33
  -4  -1  15    1.72    0.22
   4  -1 -15    2.12    0.23
   4   1 -15    2.13    0.23
  -4   1  15    1.57    0.22
  -4   1  15    2.00    0.30
  -3  -1  15    2.94    0.31
  -3  -1  15    2.45    0.25
   3  -1 -15    2.07    0.22
  -3   1  15    2.70    0.31
   3   1 -15    2.13    0.22
  -3   1  15    2.30    0.25
  -2  -1  15    6.51    0.35
   2  -1 -15    6.61    0.35
   2  -1 -15    6.21    0.33
  -2  -1  15    6.50    0.36
  -2   1  15    5.87    0.35
   2   1 -15    6.35    0.33
  -2   1  15    7.11    0.37
   2   1 -15    6.04    0.33
   1  -1 -15   15.57    0.52
  -1  -1  15   14.28    0.53
  -1  -1  15   15.97    0.52
  -1  -1  15   16.08    0.46
  -1  -1  15   16.28    0.49
   1  -1 -15   16.74    0.54
  -1   1  15   16.39    0.48
   1   1 -15   15.47    0.51
   1   1 -15   15.65    0.53
  -1   1  15   15.81    0.49
  -1   1  15   15.73    0.55
   0  -1 -15    3.94    0.31
   0  -1  15    2.89    0.28
   0  -1 -15    3.69    0.20
   0  -1 -15    3.61    0.28
   0  -1  15    3.35    0.27
   0  -1  15    3.60    0.30
   0   1 -15    2.71    0.26
   0   1 -15    3.68    0.28
   0   1  15    3.32    0.20
   0   1  15    3.67    0.28
   0   1  15    3.93    0.32
   0   1  15    3.55    0.29
  -1  -1 -15    0.92    0.16
  -1  -1 -15    0.88    0.17
   1  -1  15    1.02    0.21
   1  -1  15    0.46    0.16
   1  -1  15    0.70    0.20
  -1  -1 -15    0.60    0.17
  -1   1 -15    0.66    0.19
   1   1  15    1.21    0.21
   1   1  15    0.87    0.21
   1   1  15    0.77    0.18
  -1   1 -15    0.76    0.16
   2  -1  15    1.80    0.25
  -2  -1 -15    2.05    0.26
   2  -1  15    1.81    0.24
  -2  -1 -15    2.88    0.31
   2  -1  15    2.26    0.26
   2   1  15    2.34    0.27
   2   1  15    2.41    0.27
  -2   1 -15    1.74    0.25
   2   1  15    2.29    0.28
  -3  -1 -15    1.45    0.25
   3  -1  15    1.65    0.27
  -3  -1 -15    1.41    0.26
   3  -1  15    1.36    0.25
   3   1  15    1.55    0.26
  -3   1 -15    1.06    0.23
   3   1  15    1.55    0.26
  -3   1 -15    1.15    0.25
   4  -1  15    2.71    0.33
  -4  -1 -15    3.15    0.35
  -4  -1 -15    2.21    0.34
   4  -1  15    1.97    0.29
  -4   1 -15    2.19    0.30
  -4   1 -15    2.97    0.40
   4   1  15    2.77    0.34
   4   1  15    2.46    0.31
  -5  -1 -15    1.04    0.26
   5  -1  15    1.01    0.26
  -5  -1 -15    1.41    0.36
   5  -1  15    1.34    0.30
  -5   1 -15    1.21    0.35
  -5   1 -15    1.45    0.28
   5   1  15    0.92    0.26
   5   1  15    0.80    0.24
   6  -2 -15    0.03    0.14
  -6  -2  15    0.11    0.13
  -6   2  15    0.11    0.14
   6   2 -15    0.23    0.14
   5  -2 -15    0.15    0.15
  -5  -2  15    0.19    0.14
   5   2 -15    0.37    0.14
  -5   2  15    0.29    0.21
  -5   2  15    0.36    0.16
  -4  -2  15   11.74    0.46
   4  -2 -15   11.27    0.45
   4   2 -15   11.29    0.44
  -4   2  15   13.05    0.62
  -4   2  15   11.93    0.47
   3  -2 -15    4.41    0.30
  -3  -2  15    4.03    0.30
  -3   2  15    4.06    0.33
  -3   2  15    4.08    0.37
   3   2 -15    4.39    0.29
   2  -2 -15    0.48    0.15
  -2  -2  15    0.17    0.15
  -2  -2  15    0.20    0.14
   2  -2 -15    0.42    0.15
  -2   2  15    0.39    0.17
   2   2 -15    0.17    0.14
   2   2 -15    0.18    0.13
  -2   2  15    0.20    0.16
   1  -2 -15    0.08    0.14
  -1  -2  15   -0.06    0.10
   1  -2 -15    0.13    0.14
  -1  -2  15    0.05    0.13
  -1  -2  15    0.01    0.13
   1   2 -15   -0.26    0.12
   1   2 -15    0.07    0.13
  -1   2  15   -0.05    0.11
  -1   2  15   -0.27    0.13
   0  -2  15   -0.25    0.12
   0  -2  15    0.08    0.15
   0  -2  15   -0.07    0.11
   0  -2 -15    0.00    0.12
   0  -2 -15    0.03    0.15
   0  -2 -15   -0.02    0.07
   0   2  15   -0.02    0.12
   0   2 -15    0.01    0.14
   0   2  15   -0.05    0.13
   0   2 -15    0.16    0.13
  -1  -2 -15    2.63    0.29
   1  -2  15    1.82    0.24
  -1  -2 -15    2.59    0.23
   1  -2  15    2.56    0.28
   1  -2  15    2.18    0.24
  -1  -2 -15    2.80    0.25
   1   2  15    2.50    0.27
  -1   2 -15    2.71    0.26
   1   2  15    2.57    0.29
  -1   2 -15    2.12    0.27
   1   2  15    2.15    0.25
   2  -2  15    6.55    0.42
  -2  -2 -15    7.02    0.43
  -2  -2 -15    8.20    0.40
   2  -2  15    6.80    0.39
   2  -2  15    7.28    0.41
   2   2  15    7.94    0.45
  -2   2 -15    7.12    0.42
   2   2  15    7.96    0.42
   2   2  15    7.74    0.40
   3  -2  15    0.34    0.19
  -3  -2 -15    0.24    0.19
  -3  -2 -15    0.02    0.17
   3  -2  15    0.20    0.19
   3   2  15    0.08    0.16
  -3   2 -15    0.04    0.16
   3   2  15   -0.09    0.17
   4  -2  15    0.17    0.19
   4  -2  15    0.25    0.20
  -4  -2 -15    0.25    0.20
  -4  -2 -15    0.51    0.25
  -4   2 -15    0.14    0.19
   4   2  15    0.32    0.21
   4   2  15    0.37    0.20
  -4   2 -15   -0.02    0.21
   5  -2  15    1.27    0.28
  -5  -2 -15    0.65    0.25
   5  -2  15    0.98    0.27
  -5  -2 -15    0.85    0.30
  -5   2 -15    1.03    0.26
   5   2  15    1.05    0.26
  -5   2 -15    0.98    0.34
  -6  -3  15    6.30    0.33
   6  -3 -15    5.53    0.37
  -6   3  15    5.17    0.34
   6   3 -15    5.14    0.34
   5  -3 -15    5.92    0.36
  -5  -3  15    6.98    0.36
  -5   3  15    6.25    0.53
   5   3 -15    6.29    0.35
  -5   3  15    6.14    0.37
  -4  -3  15   13.05    0.49
   4  -3 -15   12.81    0.49
  -4   3  15   12.90    0.61
  -4   3  15   12.81    0.51
   4   3 -15   13.93    0.49
   3  -3 -15    3.87    0.30
  -3  -3  15    2.90    0.27
  -3   3  15    4.13    0.33
   3   3 -15    4.20    0.30
  -3   3  15    3.86    0.37
  -2  -3  15    6.70    0.33
   2  -3 -15    6.94    0.36
  -2  -3  15    7.03    0.39
   2  -3 -15    6.73    0.36
   2   3 -15    7.06    0.35
   2   3 -15    7.67    0.37
  -2   3  15    6.72    0.39
  -1  -3  15   44.14    0.99
   1  -3 -15   42.41    0.99
  -1  -3  15   41.92    1.00
  -1  -3  15   45.61    0.93
   1  -3 -15   44.80    0.98
  -1   3  15   41.71    1.00
   1   3 -15   43.91    0.99
  -1   3  15   41.83    0.93
   1   3 -15   42.80    0.97
   0  -3 -15   15.30    0.55
   0  -3 -15   16.20    0.54
   0  -3  15   15.88    0.53
   0  -3  15   15.97    0.56
   0  -3  15   16.36    0.57
   0  -3 -15   15.99    0.39
   0   3  15   16.36    0.58
   0   3 -15   16.40    0.54
   0   3  15   16.10    0.54
   0   3 -15   15.61    0.55
  -1  -3 -15   20.74    0.67
   1  -3  15   20.84    0.64
  -1  -3 -15   20.62    0.60
   1  -3  15   20.89    0.68
   1  -3  15   19.34    0.64
  -1  -3 -15   20.78    0.56
  -1   3 -15   21.20    0.62
  -1   3 -15   21.43    0.69
   1   3  15   20.18    0.64
   1   3  15   20.33    0.65
   2  -3  15    1.05    0.21
   2  -3  15    1.75    0.28
  -2  -3 -15    1.19    0.24
   2  -3  15    1.15    0.22
  -2  -3 -15    1.52    0.23
   2   3  15    1.14    0.22
  -2   3 -15    1.62    0.27
   2   3  15    1.06    0.22
   3  -3  15    4.46    0.41
  -3  -3 -15    4.60    0.40
   3  -3  15    4.00    0.37
  -3  -3 -15    3.38    0.35
   3   3  15    3.89    0.35
  -3   3 -15    4.11    0.38
   4  -3  15    9.50    0.54
   4  -3  15   10.56    0.58
  -4  -3 -15    9.41    0.59
  -4  -3 -15   10.59    0.55
  -4   3 -15    9.85    0.53
  -4   3 -15   11.08    0.64
   4   3  15   10.46    0.53
   5  -3  15    1.52    0.31
  -5  -3 -15    1.60    0.29
   5  -3  15    1.69    0.31
  -5  -3 -15    2.00    0.39
  -5   3 -15    1.48    0.30
   5   3  15    1.56    0.30
  -5   3 -15    2.26    0.42
   6  -4 -15    0.30    0.17
  -6  -4  15    0.06    0.13
   6   4 -15    0.28    0.15
  -6   4  15    0.36    0.17
   5  -4 -15    0.00    0.14
  -5  -4  15   -0.27    0.13
   5   4 -15   -0.18    0.12
  -5   4  15   -0.08    0.14
  -5   4  15   -0.02    0.23
   4  -4 -15    5.57    0.36
  -4  -4  15    5.93    0.37
   4   4 -15    5.55    0.34
  -4   4  15    6.39    0.40
  -4   4  15    5.96    0.48
   3  -4 -15    4.87    0.33
  -3  -4  15    4.09    0.32
  -3   4  15    4.62    0.40
  -3   4  15    5.13    0.37
   3   4 -15    4.58    0.32
   2  -4 -15    8.61    0.41
  -2  -4  15    7.68    0.41
  -2  -4  15    8.40    0.38
   2  -4 -15    8.18    0.40
  -2   4  15    7.52    0.41
   2   4 -15    8.16    0.39
   2   4 -15    8.46    0.46
  -1  -4  15   10.65    0.45
   1  -4 -15   10.70    0.46
  -1  -4  15   10.43    0.41
  -1  -4  15   10.61    0.48
   1  -4 -15   10.62    0.45
   1   4 -15   10.15    0.44
   1   4 -15   11.15    0.46
  -1   4  15   10.87    0.44
  -1   4  15   10.48    0.48
   0  -4  15   13.08    0.53
   0  -4 -15   10.92    0.46
   0  -4  15   12.17    0.51
   0  -4 -15   12.26    0.50
   0  -4  15   12.39    0.47
   0   4 -15   11.58    0.47
   0   4  15   12.38    0.48
   0   4  15   11.71    0.50
   0   4 -15   12.18    0.50
   1  -4  15    6.06    0.38
  -1  -4 -15    6.63    0.42
  -1  -4 -15    6.36    0.32
  -1  -4 -15    6.27    0.36
   1  -4  15    6.20    0.40
   1   4  15    5.77    0.37
   1   4  15    5.74    0.38
  -1   4 -15    6.29    0.41
  -1   4 -15    6.59    0.37
   2  -4  15   12.33    0.53
  -2  -4 -15   10.88    0.52
  -2  -4 -15   12.01    0.49
   2  -4  15   12.35    0.53
   2   4  15   11.93    0.52
  -2   4 -15   11.78    0.54
   2   4  15   10.30    0.48
   3  -4  15    2.98    0.33
  -3  -4 -15    2.85    0.33
  -3  -4 -15    3.00    0.35
  -3   4 -15    2.54    0.33
   3   4  15    3.43    0.35
   4  -4  15    1.99    0.32
   4  -4  15    1.85    0.30
  -4  -4 -15    1.54    0.33
  -4  -4 -15    1.14    0.27
   4   4  15    1.24    0.26
  -4   4 -15    1.57    0.31
  -5  -4 -15    2.04    0.38
  -5  -4 -15    3.23    0.37
   5  -4  15    2.12    0.34
   5  -4  15    1.98    0.32
  -5   4 -15    2.54    0.45
   5   4  15    1.84    0.31
  -5   4 -15    2.40    0.34
   6  -5 -15    2.33    0.29
  -6  -5  15    2.31    0.25
  -6   5  15    2.64    0.30
   6   5 -15    1.63    0.24
   5  -5 -15    1.79    0.26
  -5  -5  15    1.73    0.24
  -5   5  15    1.86    0.26
   5   5 -15    2.16    0.25
  -5   5  15    2.18    0.38
   4  -5 -15    2.79    0.29
  -4  -5  15    2.79    0.29
   4   5 -15    3.30    0.30
  -4   5  15    2.53    0.38
  -4   5  15    2.74    0.30
  -3  -5  15    1.07    0.22
   3  -5 -15    0.90    0.19
  -3   5  15    0.82    0.20
   3   5 -15    1.03    0.20
  -2  -5  15    0.01    0.13
  -2  -5  15    0.19    0.17
   2  -5 -15    0.32    0.16
   2  -5 -15    0.16    0.15
   2   5 -15    0.16    0.15
  -2   5  15    0.13    0.16
   1  -5 -15    3.67    0.31
  -1  -5  15    3.79    0.32
   1  -5 -15    4.02    0.31
  -1  -5  15    4.03    0.38
  -1  -5  15    4.10    0.32
   1   5 -15    4.76    0.33
   1   5 -15    3.92    0.32
  -1   5  15    4.70    0.36
  -1   5  15    3.63    0.29
   0  -5 -15    9.49    0.43
   0  -5  15    9.47    0.43
   0  -5 -15   10.13    0.48
   0  -5  15   10.16    0.49
   0   5 -15    9.22    0.45
   0   5  15    9.63    0.44
   0   5  15    8.82    0.44
   0   5 -15    9.32    0.44
   1  -5  15   25.85    0.76
  -1  -5 -15   27.24    0.73
   1  -5  15   25.35    0.77
  -1  -5 -15   27.15    0.81
   1   5  15   25.07    0.75
  -1   5 -15   25.85    0.74
  -1   5 -15   26.62    0.81
   1   5  15   26.63    0.78
  -2  -5 -15    0.89    0.22
   2  -5  15    1.08    0.22
   2  -5  15    1.16    0.24
  -2  -5 -15    0.89    0.23
   2   5  15    1.11    0.22
   2   5  15    0.96    0.29
  -2   5 -15    1.11    0.25
  -3  -5 -15    1.09    0.26
  -3  -5 -15    1.17    0.26
   3  -5  15    0.91    0.25
   3   5  15    0.90    0.23
  -3   5 -15    1.50    0.28
   4  -5  15    5.59    0.47
  -4  -5 -15    5.48    0.52
  -4  -5 -15    6.09    0.46
  -4   5 -15    6.17    0.49
   4   5  15    6.48    0.48
  -5  -5 -15   -0.18    0.18
   5  -5  15   -0.01    0.22
   5  -5  15    0.14    0.22
  -5  -5 -15    0.02    0.26
  -5   5 -15   -0.33    0.22
  -5   5 -15   -0.22    0.19
   5   5  15   -0.08    0.19
  -5  -6  15    4.21    0.34
   5  -6 -15    4.71    0.39
   5   6 -15    4.90    0.36
  -5   6  15    4.06    0.37
  -5   6  15    4.51    0.51
  -4  -6  15    0.10    0.15
   4  -6 -15    0.00    0.15
   4   6 -15   -0.01    0.15
  -4   6  15   -0.01    0.19
  -4   6  15   -0.19    0.15
   3  -6 -15   -0.01    0.15
  -3  -6  15   -0.06    0.15
   3   6 -15   -0.01    0.15
  -3   6  15   -0.07    0.16
  -2  -6  15    3.41    0.30
   2  -6 -15    3.58    0.33
  -2  -6  15    3.80    0.34
   2  -6 -15    3.71    0.33
   2   6 -15    3.86    0.33
  -2   6  15    3.30    0.34
  -1  -6  15   11.08    0.52
   1  -6 -15   10.36    0.47
   1  -6 -15   11.29    0.50
   1   6 -15   11.23    0.49
   1   6 -15   10.67    0.48
  -1   6  15   10.92    0.46
  -1   6  15    9.89    0.49
   0  -6  15    1.57    0.23
   0  -6 -15    1.49    0.23
   0  -6 -15    1.20    0.25
   0  -6  15    1.10    0.25
   0   6 -15    1.14    0.22
   0   6 -15    1.43    0.22
   0   6  15    1.27    0.25
   0   6  15    1.64    0.25
   1  -6  15    6.01    0.42
  -1  -6 -15    5.86    0.39
  -1  -6 -15    7.57    0.46
   1  -6  15    6.72    0.40
  -1   6 -15    6.64    0.39
  -1   6 -15    6.08    0.41
   1   6  15    6.09    0.41
   1   6  15    6.75    0.42
  -2  -6 -15    0.10    0.18
   2  -6  15    0.16    0.17
   2  -6  15    0.36    0.20
  -2   6 -15   -0.01    0.19
   2   6  15    0.48    0.20
  -3  -6 -15    0.83    0.25
  -3  -6 -15    0.97    0.26
   3  -6  15    0.51    0.22
   3   6  15    0.75    0.24
  -3   6 -15    0.84    0.24
  -4  -6 -15    0.06    0.24
  -4  -6 -15    0.09    0.22
   4  -6  15    0.05    0.21
   4   6  15    0.24    0.21
  -4   6 -15    0.06    0.22
   5  -7 -15    1.12    0.25
  -5  -7  15    1.12    0.24
  -5   7  15    1.50    0.27
   5   7 -15    1.12    0.24
  -5   7  15    1.19    0.57
   4  -7 -15    1.07    0.24
  -4  -7  15    1.52    0.25
  -4   7  15    1.15    0.26
   4   7 -15    1.36    0.24
  -3  -7  15    4.55    0.37
   3  -7 -15    3.82    0.36
  -3   7  15    4.28    0.39
   3   7 -15    3.69    0.34
  -2  -7  15    0.90    0.23
   2  -7 -15    0.84    0.21
  -2  -7  15    0.70    0.18
  -2   7  15    0.59    0.21
   2   7 -15    0.77    0.21
   1  -7 -15   -0.11    0.16
   1  -7 -15   -0.01    0.17
  -1  -7  15   -0.11    0.17
   1   7 -15    0.06    0.17
   1   7 -15    0.00    0.14
  -1   7  15   -0.02    0.18
   0  -7  15    0.40    0.17
   0  -7  15    0.32    0.20
   0  -7 -15    0.24    0.18
   0  -7 -15    0.23    0.17
   0   7 -15    0.60    0.19
   0   7  15    0.32    0.18
   0   7  15    0.08    0.18
   0   7 -15    0.21    0.17
  -1  -7 -15    4.48    0.41
   1  -7  15    5.36    0.42
   1  -7  15    6.17    0.40
   1   7  15    5.48    0.40
  -1   7 -15    5.14    0.42
  -1   7 -15    5.98    0.39
   1   7  15    5.61    0.40
   2  -7  15    0.26    0.20
   2  -7  15    0.55    0.20
  -2  -7 -15    0.16    0.18
   2   7  15   -0.07    0.17
  -2   7 -15    0.06    0.19
   3  -7  15    3.78    0.39
  -3  -7 -15    2.96    0.36
  -3   7 -15    4.08    0.43
   3   7  15    3.51    0.39
   4  -7  15    0.25    0.23
  -4  -7 -15    0.34    0.24
   4   7  15    0.77    0.26
  -4   7 -15    0.13    0.23
   5  -8 -15    1.04    0.26
  -5  -8  15    0.87    0.23
   5   8 -15    0.90    0.23
  -5   8  15    1.26    0.27
  -4  -8  15    1.37    0.26
   4  -8 -15    1.48    0.28
  -4   8  15    2.13    0.32
   4   8 -15    1.50    0.27
  -3  -8  15    2.14    0.30
   3  -8 -15    2.22    0.30
   3   8 -15    2.22    0.29
  -3   8  15    2.34    0.31
  -2  -8  15    2.71    0.29
  -2  -8  15    2.87    0.34
   2  -8 -15    2.66    0.32
   2   8 -15    2.40    0.31
  -2   8  15    2.23    0.31
   1  -8 -15    1.20    0.24
   1  -8 -15    1.12    0.24
  -1  -8  15    1.12    0.26
   1   8 -15    1.60    0.28
   1   8 -15    1.39    0.23
  -1   8  15    1.23    0.25
   0  -8  15    6.05    0.39
   0  -8 -15    5.43    0.41
   0  -8 -15    6.27    0.40
   0  -8  15    6.42    0.46
   0   8 -15    5.34    0.42
   0   8 -15    5.75    0.40
   0   8  15    5.78    0.40
   0   8  15    5.86    0.44
  -1  -8 -15   12.27    0.60
   1  -8  15   12.13    0.58
   1  -8  15   13.01    0.59
  -1   8 -15   13.64    0.58
   1   8  15   13.76    0.60
  -1   8 -15   12.84    0.61
   1   8  15   13.30    0.58
  -2  -8 -15    1.05    0.26
   2  -8  15    0.74    0.23
  -2   8 -15    0.68    0.25
   2   8  15    1.06    0.26
  -3  -8 -15    0.45    0.23
   3  -8  15    0.35    0.23
  -3   8 -15    0.03    0.23
   3   8  15    0.20    0.22
  -4  -8 -15    1.61    0.32
   4  -8  15    1.51    0.31
   4   8  15    1.01    0.29
  -4   8 -15    1.74    0.34
  -5  -9  15    0.86    0.23
  -5   9  15    0.37    0.23
  -4  -9  15    4.22    0.40
   4  -9 -15    4.99    0.45
  -4   9  15    4.87    0.45
   4   9 -15    3.95    0.39
  -3  -9  15    1.15    0.26
   3  -9 -15    1.34    0.27
  -3   9  15    1.35    0.29
   3   9 -15    1.07    0.24
   2  -9 -15    1.37    0.26
  -2  -9  15    1.38    0.28
   2   9 -15    1.36    0.27
  -2   9  15    0.85    0.26
  -1  -9  15   16.92    0.69
   1  -9 -15   16.45    0.66
   1  -9 -15   16.31    0.67
   1   9 -15   16.55    0.66
  -1   9  15   17.73    0.71
   0  -9  15    3.66    0.39
   0  -9 -15    4.08    0.41
   0  -9 -15    3.87    0.37
   0   9  15    4.28    0.42
   0   9 -15    3.62    0.35
   0   9  15    4.81    0.40
   0   9 -15    4.40    0.41
   1  -9  15    1.79    0.27
   1  -9  15    1.69    0.30
  -1  -9 -15    1.70    0.29
   1   9  15    1.31    0.26
  -1   9 -15    1.46    0.28
   1   9  15    1.89    0.29
  -2  -9 -15    0.18    0.22
   2  -9  15    0.15    0.20
   2   9  15   -0.05    0.18
  -2   9 -15    0.04    0.19
  -3  -9 -15    4.80    0.47
   3  -9  15    3.86    0.43
   3   9  15    4.35    0.45
  -3   9 -15    3.88    0.46
   4 -10 -15    2.02    0.33
  -4 -10  15    1.71    0.30
  -4  10  15    1.55    0.32
   4  10 -15    2.02    0.33
   3 -10 -15   -0.09    0.19
  -3 -10  15   -0.10    0.19
   3  10 -15   -0.18    0.19
  -3  10  15    0.10    0.22
  -2 -10  15   -0.11    0.19
   2 -10 -15    0.02    0.19
   2  10 -15    0.13    0.20
  -2  10  15    0.17    0.22
  -1 -10  15    0.46    0.23
   1 -10 -15    0.25    0.21
   1 -10 -15    0.28    0.20
   1  10 -15    0.30    0.20
  -1  10  15    0.48    0.25
   0 -10  15    0.45    0.22
   0 -10 -15    0.30    0.21
   0  10 -15    0.40    0.23
   0  10  15    0.20    0.19
   0  10  15    0.04    0.22
   0  10 -15    0.01    0.18
   1 -10  15    3.62    0.43
  -1 -10 -15    3.56    0.40
   1 -10  15    2.98    0.34
   1  10  15    2.69    0.34
  -1  10 -15    2.66    0.38
   2 -10  15    0.82    0.24
  -2 -10 -15    0.29    0.23
  -2  10 -15    0.45    0.27
   2  10  15    0.31    0.23
   3 -10  15    0.05    0.23
  -3 -10 -15    0.01    0.22
  -3  10 -15    0.12    0.24
   3  10  15    0.13    0.22
  -3 -11  15    1.07    0.27
   3 -11 -15    0.83    0.27
   3  11 -15    0.53    0.25
  -3  11  15    1.05    0.30
  -2 -11  15    0.11    0.20
   2 -11 -15    0.34    0.22
   2  11 -15    0.23    0.21
  -2  11  15    0.16    0.24
   1 -11 -15    0.81    0.25
   1 -11 -15    0.36    0.21
  -1 -11  15    0.29    0.22
   1  11 -15    0.24    0.20
  -1  11  15    0.52    0.26
   0 -11 -15    0.53    0.26
   0 -11  15   -0.27    0.20
   0  11  15    0.16    0.21
   0  11 -15    0.26    0.21
   0  11 -15   -0.03    0.18
  -1 -11 -15    3.42    0.44
   1 -11  15    2.75    0.38
  -1  11 -15    3.28    0.41
   1  11  15    2.85    0.37
  -2 -11 -15    2.24    0.37
   2 -11  15    2.78    0.38
  -2  11 -15    2.23    0.38
   2  11  15    2.76    0.39
   3 -12 -15    1.25    0.31
  -3 -12  15    1.35    0.32
   3  12 -15    0.96    0.30
  -3  12  15    1.17    0.34
   2 -12 -15    0.64    0.27
  -2 -12  15    0.39    0.26
   2  12 -15    0.42    0.26
  -2  12  15    0.83    0.29
   1 -12 -15   -0.16    0.25
  -1 -12  15    0.20    0.24
  -1  12  15   -0.25    0.21
   1  12 -15    0.33    0.21
   0 -12 -15   -0.28    0.23
   0 -12  15    0.35    0.24
   0  12  15   -0.13    0.22
   1 -12  15    0.28    0.26
  -1 -12 -15    0.43    0.25
  -1  12 -15    0.83    0.31
   1  12  15    0.64    0.26
  -2 -12 -15   -0.17    0.24
   2  12  15    0.01    0.24
  -2  12 -15   -0.19    0.23
  -2 -13  15    0.59    0.26
   2 -13 -15    0.12    0.23
  -2  13  15    0.47    0.29
   2  13 -15    0.14    0.23
  -1 -13  15   -0.25    0.23
  -1  13  15    0.37    0.28
   1  13 -15    0.18    0.21
   0 -13  15    0.39    0.25
   0 -13 -15   -0.07    0.22
   0  13  15    0.12    0.37
  -1 -13 -15    0.35    0.26
  -1  13 -15   -0.09    0.25
  -6   0  16    1.14    0.19
   6   0 -16    0.87    0.19
  -5   0  16    2.20    0.25
  -5   0  16    2.42    0.38
   5   0 -16    2.38    0.26
  -4   0  16    9.25    0.43
   4   0 -16    8.28    0.40
  -4   0  16    8.73    0.53
  -3   0  16    4.16    0.32
  -3   0  16    3.97    0.35
   3   0 -16    3.89    0.30
   2   0 -16   -0.10    0.12
   2   0 -16    0.20    0.13
  -2   0  16    0.11    0.15
  -2   0  16    0.02    0.14
  -1   0  16   -0.10    0.11
  -1   0  16   -0.20    0.14
   1   0 -16   -0.16    0.14
   1   0 -16   -0.25    0.12
  -1   0  16   -0.01    0.15
  -1   0  16   -0.06    0.11
   0   0 -16    7.52    0.37
   0   0  16    7.17    0.25
   0   0  16    7.16    0.36
   0   0  16    6.74    0.38
   0   0  16    7.49    0.41
   0   0 -16    7.37    0.40
  -1   0 -16   47.37    1.10
   1   0  16   46.57    1.09
   1   0  16   45.35    1.05
   1   0  16   48.57    1.11
  -1   0 -16   46.06    0.99
  -1   0 -16   46.43    1.03
  -2   0 -16    5.64    0.36
  -2   0 -16    6.37    0.41
   2   0  16    6.02    0.38
   2   0  16    5.55    0.39
   2   0  16    5.60    0.39
  -3   0 -16    0.64    0.22
  -3   0 -16    0.56    0.22
   3   0  16    0.99    0.23
   3   0  16    0.80    0.22
  -4   0 -16    0.59    0.23
  -4   0 -16    0.28    0.24
   4   0  16    0.62    0.24
   4   0  16    0.74    0.23
  -5   0 -16   -0.22    0.23
   5   0  16   -0.24    0.19
   5   0  16    0.11    0.22
  -5   0 -16    0.11    0.20
   6  -1 -16    7.03    0.40
  -6  -1  16    5.98    0.34
   6   1 -16    6.10    0.37
  -6   1  16    6.56    0.36
   5  -1 -16    5.30    0.35
  -5  -1  16    5.00    0.34
   5   1 -16    4.78    0.34
  -5   1  16    4.83    0.34
  -5   1  16    4.17    0.46
  -4  -1  16    2.20    0.25
  -4  -1  16    2.20    0.33
   4  -1 -16    2.12    0.24
   4   1 -16    2.10    0.24
  -4   1  16    2.53    0.35
  -4   1  16    2.53    0.27
  -3  -1  16   -0.17    0.15
  -3  -1  16    0.07    0.15
   3  -1 -16    0.22    0.14
  -3   1  16    0.05    0.17
   3   1 -16    0.01    0.12
  -3   1  16    0.19    0.16
   2  -1 -16    2.24    0.24
  -2  -1  16    2.20    0.25
  -2  -1  16    2.46    0.26
   2  -1 -16    1.90    0.23
   2   1 -16    2.19    0.24
   2   1 -16    2.15    0.23
  -2   1  16    1.66    0.22
  -2   1  16    2.22    0.26
  -1  -1  16   52.22    1.07
  -1  -1  16   52.10    1.12
  -1  -1  16   53.20    1.02
   1  -1 -16   52.09    1.13
   1  -1 -16   52.98    1.12
  -1  -1  16   51.93    1.15
  -1   1  16   52.46    1.07
  -1   1  16   52.95    1.05
   1   1 -16   52.54    1.13
  -1   1  16   50.59    1.15
   1   1 -16   53.19    1.12
   0  -1  16    0.59    0.16
   0  -1  16    0.26    0.17
   0  -1  16    1.08    0.22
   0  -1 -16    0.41    0.11
   0  -1 -16    0.51    0.19
   0  -1 -16    1.00    0.19
   0   1 -16    0.71    0.18
   0   1  16    0.64    0.12
   0   1  16    0.66    0.20
   0   1 -16    0.68    0.17
   0   1  16    0.85    0.20
   0   1  16    0.82    0.17
  -1  -1 -16    9.50    0.46
   1  -1  16   10.27    0.49
  -1  -1 -16   10.02    0.42
  -1  -1 -16   10.08    0.40
   1  -1  16    9.37    0.44
   1  -1  16    9.84    0.45
  -1   1 -16   10.44    0.49
   1   1  16    9.27    0.44
  -1   1 -16    9.87    0.42
   1   1  16    9.04    0.47
   1   1  16    9.14    0.46
   2  -1  16    0.31    0.17
   2  -1  16   -0.03    0.15
  -2  -1 -16    0.06    0.15
   2  -1  16    0.43    0.19
  -2  -1 -16    0.42    0.19
  -2   1 -16    0.20    0.18
   2   1  16   -0.04    0.15
   2   1  16    0.18    0.16
   2   1  16    0.17    0.18
  -3  -1 -16    4.33    0.41
   3  -1  16    5.41    0.40
   3  -1  16    5.56    0.44
  -3  -1 -16    4.66    0.39
  -3   1 -16    5.24    0.42
   3   1  16    5.85    0.41
   3   1  16    4.77    0.40
  -3   1 -16    5.04    0.40
   4  -1  16    4.23    0.42
   4  -1  16    4.74    0.42
  -4  -1 -16    4.71    0.43
  -4  -1 -16    4.40    0.46
   4   1  16    4.73    0.42
  -4   1 -16    3.65    0.43
   4   1  16    3.72    0.39
  -4   1 -16    4.09    0.40
   5  -1  16    2.09    0.33
  -5  -1 -16    1.57    0.37
  -5  -1 -16    2.37    0.35
   5  -1  16    1.75    0.32
   5   1  16    2.35    0.34
  -5   1 -16    2.45    0.43
   5   1  16    2.03    0.33
  -5   1 -16    1.80    0.31
   6  -2 -16    0.04    0.16
  -6  -2  16    0.02    0.13
  -6   2  16   -0.17    0.13
   6   2 -16    0.20    0.15
  -5  -2  16    2.87    0.28
   5  -2 -16    3.15    0.30
   5   2 -16    3.67    0.31
  -5   2  16    3.41    0.31
  -5   2  16    2.77    0.38
  -4  -2  16    0.91    0.20
   4  -2 -16    1.34    0.21
  -4   2  16    1.03    0.27
  -4   2  16    0.80    0.20
   4   2 -16    0.86    0.18
  -3  -2  16    1.37    0.23
   3  -2 -16    1.05    0.20
  -3   2  16    1.53    0.27
  -3   2  16    1.00    0.20
   3   2 -16    1.52    0.21
  -2  -2  16    2.21    0.23
   2  -2 -16    1.97    0.24
   2  -2 -16    2.35    0.25
  -2  -2  16    1.88    0.25
   2   2 -16    2.16    0.23
   2   2 -16    2.34    0.26
  -2   2  16    1.94    0.25
  -2   2  16    1.90    0.25
  -1  -2  16    0.69    0.15
   1  -2 -16    0.97    0.21
  -1  -2  16    0.67    0.19
  -1  -2  16    0.70    0.20
   1  -2 -16    0.98    0.21
   1   2 -16    0.52    0.16
  -1   2  16    0.72    0.16
   1   2 -16    1.05    0.20
  -1   2  16    0.68    0.19
   0  -2  16    4.51    0.33
   0  -2  16    4.18    0.34
   0  -2 -16    4.02    0.31
   0  -2  16    5.05    0.32
   0  -2 -16    4.02    0.20
   0  -2 -16    5.05    0.35
   0   2 -16    5.00    0.35
   0   2 -16    4.33    0.31
   0   2  16    4.61    0.32
   0   2  16    4.04    0.32
   1  -2  16    0.85    0.22
  -1  -2 -16    1.74    0.27
  -1  -2 -16    1.29    0.18
   1  -2  16    1.25    0.22
   1  -2  16    1.24    0.21
  -1  -2 -16    1.48    0.21
   1   2  16    1.35    0.24
   1   2  16    1.81    0.25
  -1   2 -16    1.09    0.23
  -1   2 -16    1.12    0.20
   2  -2  16    0.51    0.19
   2  -2  16    0.47    0.19
   2  -2  16    0.34    0.18
  -2  -2 -16    0.27    0.19
  -2  -2 -16    0.23    0.16
   2   2  16    0.27    0.18
  -2   2 -16    0.45    0.21
   2   2  16    0.42    0.18
   2   2  16    0.07    0.18
  -3  -2 -16    1.21    0.26
   3  -2  16    0.90    0.24
   3  -2  16    0.62    0.21
  -3  -2 -16    1.05    0.25
   3   2  16    0.94    0.25
   3   2  16    1.15    0.24
  -3   2 -16    0.83    0.22
  -4  -2 -16    1.21    0.28
   4  -2  16    1.57    0.29
   4  -2  16    2.13    0.33
  -4  -2 -16    1.55    0.31
   4   2  16    1.70    0.30
  -4   2 -16    1.77    0.34
  -4   2 -16    1.56    0.29
   4   2  16    1.88    0.32
  -5  -2 -16    0.20    0.21
  -5  -2 -16    0.22    0.26
   5  -2  16    0.43    0.24
   5  -2  16    0.39    0.26
  -5   2 -16    0.26    0.22
  -5   2 -16    0.26    0.29
   5   2  16    0.70    0.25
   6  -3 -16    0.32    0.18
  -6  -3  16    0.29    0.16
  -6   3  16    0.62    0.18
   6   3 -16    0.44    0.17
   5  -3 -16    0.43    0.18
  -5  -3  16    0.10    0.16
  -5   3  16    0.49    0.27
  -5   3  16    0.35    0.18
   5   3 -16    0.55    0.17
  -4  -3  16    0.35    0.17
   4  -3 -16    0.58    0.18
  -4   3  16    0.32    0.22
  -4   3  16    0.52    0.19
   4   3 -16    0.81    0.18
   3  -3 -16    6.59    0.37
  -3  -3  16    4.92    0.34
  -3   3  16    6.50    0.44
  -3   3  16    5.43    0.38
   3   3 -16    5.71    0.35
   2  -3 -16    1.31    0.21
  -2  -3  16    0.87    0.17
  -2  -3  16    0.94    0.20
   2  -3 -16    1.16    0.19
  -2   3  16    0.93    0.21
   2   3 -16    1.02    0.20
  -1  -3  16    0.08    0.15
  -1  -3  16   -0.21    0.14
  -1  -3  16    0.20    0.12
   1  -3 -16    0.31    0.16
   1  -3 -16   -0.06    0.14
   1   3 -16    0.06    0.13
  -1   3  16   -0.11    0.15
  -1   3  16    0.06    0.13
   1   3 -16    0.30    0.16
   0  -3 -16    0.89    0.12
   0  -3 -16    0.75    0.19
   0  -3  16    1.12    0.22
   0  -3 -16    0.88    0.19
   0  -3  16    0.85    0.18
   0  -3  16    0.83    0.22
   0   3 -16    0.95    0.19
   0   3  16    1.02    0.20
   0   3  16    1.29    0.23
   0   3 -16    1.02    0.21
   1  -3  16    3.21    0.30
  -1  -3 -16    3.36    0.34
   1  -3  16    3.25    0.31
  -1  -3 -16    3.68    0.29
   1  -3  16    3.59    0.35
  -1  -3 -16    3.63    0.25
   1   3  16    4.13    0.36
  -1   3 -16    3.75    0.31
  -1   3 -16    3.42    0.33
   1   3  16    4.37    0.37
   2  -3  16    1.89    0.28
  -2  -3 -16    1.96    0.29
   2  -3  16    2.03    0.28
   2  -3  16    1.67    0.27
  -2  -3 -16    1.68    0.24
   2   3  16    1.54    0.24
  -2   3 -16    2.44    0.31
   2   3  16    1.81    0.26
   3  -3  16    0.21    0.21
  -3  -3 -16    0.41    0.20
  -3  -3 -16    0.22    0.19
   3  -3  16   -0.12    0.17
   3   3  16    0.08    0.17
  -3   3 -16    0.15    0.19
  -4  -3 -16   -0.55    0.15
  -4  -3 -16   -0.29    0.20
   4  -3  16   -0.05    0.20
   4  -3  16   -0.06    0.18
  -4   3 -16    0.10    0.20
  -4   3 -16    0.60    0.27
   4   3  16    0.13    0.20
  -5  -3 -16    0.06    0.26
   5  -3  16   -0.15    0.19
   5  -3  16    0.17    0.23
  -5  -3 -16    0.23    0.22
  -5   3 -16    0.04    0.22
   5   3  16    0.44    0.23
  -5   3 -16    0.55    0.31
   6  -4 -16    0.46    0.20
  -6  -4  16    0.67    0.18
  -6   4  16    0.64    0.20
   6   4 -16    0.54    0.19
   5  -4 -16    0.09    0.17
  -5  -4  16    0.48    0.18
  -5   4  16    0.36    0.18
   5   4 -16    0.43    0.18
  -5   4  16    0.15    0.23
   4  -4 -16    6.01    0.38
  -4  -4  16    6.53    0.38
  -4   4  16    6.01    0.40
  -4   4  16    6.10    0.46
   4   4 -16    6.00    0.37
  -3  -4  16    4.15    0.35
   3  -4 -16    3.26    0.30
  -3   4  16    4.59    0.41
  -3   4  16    4.17    0.35
   3   4 -16    3.98    0.32
  -2  -4  16    1.14    0.22
   2  -4 -16    1.00    0.20
   2  -4 -16    1.01    0.19
  -2  -4  16    1.19    0.20
  -2   4  16    1.05    0.22
   2   4 -16    1.03    0.19
  -1  -4  16   12.40    0.52
   1  -4 -16   13.28    0.51
   1  -4 -16   12.83    0.52
  -1  -4  16   12.98    0.51
  -1   4  16   12.68    0.48
  -1   4  16   11.99    0.53
   1   4 -16   12.35    0.50
   1   4 -16   12.64    0.51
   0  -4 -16   -0.06    0.15
   0  -4 -16   -0.14    0.15
   0  -4  16   -0.09    0.16
   0  -4  16   -0.04    0.13
   0  -4  16   -0.08    0.16
   0   4 -16    0.09    0.17
   0   4  16    0.15    0.18
   0   4  16    0.07    0.15
   0   4 -16   -0.06    0.14
   1  -4  16    1.65    0.28
  -1  -4 -16    0.93    0.17
   1  -4  16    0.99    0.22
  -1  -4 -16    0.87    0.20
   1  -4  16    1.11    0.23
  -1  -4 -16    0.99    0.23
  -1   4 -16    1.09    0.22
   1   4  16    1.33    0.23
  -1   4 -16    1.16    0.25
   1   4  16    1.06    0.22
  -2  -4 -16    4.48    0.40
   2  -4  16    4.43    0.38
   2  -4  16    4.59    0.37
   2  -4  16    5.40    0.42
  -2  -4 -16    4.09    0.34
  -2   4 -16    4.51    0.37
   2   4  16    5.15    0.46
   2   4  16    4.86    0.38
  -3  -4 -16    2.35    0.32
  -3  -4 -16    2.70    0.34
   3  -4  16    2.77    0.33
   3  -4  16    3.19    0.38
   3   4  16    1.90    0.29
  -3   4 -16    2.17    0.32
   4  -4  16   -0.16    0.20
  -4  -4 -16    0.22    0.21
   4  -4  16    0.25    0.22
  -4  -4 -16   -0.01    0.22
   4   4  16   -0.15    0.17
  -4   4 -16   -0.08    0.20
  -5  -4 -16    0.69    0.25
  -5  -4 -16    0.47    0.28
   5  -4  16    0.54    0.26
   5  -4  16    0.65    0.26
  -5   4 -16    0.14    0.30
   5   4  16    0.46    0.26
  -5   4 -16    0.60    0.26
   5  -5 -16    0.69    0.21
  -5  -5  16    1.35    0.23
   5   5 -16    0.92    0.21
  -5   5  16    1.06    0.24
  -5   5  16    1.68    0.36
  -4  -5  16    0.28    0.17
   4  -5 -16    0.16    0.16
  -4   5  16    0.22    0.24
  -4   5  16    0.06    0.18
   4   5 -16    0.46    0.17
  -3  -5  16    1.89    0.26
   3  -5 -16    2.11    0.27
  -3   5  16    2.16    0.30
   3   5 -16    1.48    0.23
   2  -5 -16    4.06    0.35
  -2  -5  16    4.21    0.35
   2  -5 -16    3.42    0.35
  -2  -5  16    4.10    0.32
   2   5 -16    2.68    0.29
  -2   5  16    3.75    0.35
   1  -5 -16    4.59    0.36
   1  -5 -16    5.06    0.36
  -1  -5  16    5.08    0.36
  -1  -5  16    4.69    0.38
  -1   5  16    4.77    0.36
   1   5 -16    4.45    0.35
  -1   5  16    4.49    0.33
   1   5 -16    4.88    0.35
   0  -5 -16    5.98    0.41
   0  -5  16    6.04    0.37
   0  -5  16    5.04    0.40
   0  -5 -16    5.50    0.36
   0  -5  16    5.22    0.38
   0   5 -16    5.35    0.37
   0   5  16    6.30    0.38
   0   5  16    4.83    0.36
   0   5 -16    5.03    0.39
   1  -5  16    2.00    0.30
  -1  -5 -16    1.86    0.27
  -1  -5 -16    2.38    0.26
   1  -5  16    2.32    0.29
   1   5  16    1.95    0.28
  -1   5 -16    1.98    0.30
   1   5  16    2.64    0.31
  -1   5 -16    1.67    0.24
   2  -5  16    1.03    0.24
   2  -5  16    1.48    0.25
  -2  -5 -16    1.43    0.26
  -2  -5 -16    1.61    0.25
   2   5  16    0.85    0.22
  -2   5 -16    1.28    0.25
  -3  -5 -16    8.18    0.51
   3  -5  16    8.49    0.52
  -3  -5 -16    7.76    0.51
   3   5  16    8.38    0.51
  -3   5 -16    7.11    0.49
   4  -5  16    4.36    0.44
  -4  -5 -16    3.73    0.41
  -4  -5 -16    3.61    0.44
  -4   5 -16    4.07    0.44
   4   5  16    3.56    0.40
   5  -6 -16    1.95    0.28
  -5  -6  16    0.96    0.23
   5   6 -16    1.45    0.25
  -5   6  16    1.87    0.29
  -5   6  16    1.48    0.34
  -4  -6  16    1.36    0.24
   4  -6 -16    2.03    0.29
   4   6 -16    1.67    0.26
  -4   6  16    2.14    0.35
  -4   6  16    1.47    0.27
  -3  -6  16   13.63    0.57
   3  -6 -16   14.53    0.58
   3   6 -16   15.09    0.58
  -3   6  16   14.78    0.61
  -2  -6  16    0.60    0.18
   2  -6 -16    0.33    0.17
  -2  -6  16    0.28    0.19
   2   6 -16    0.48    0.18
  -2   6  16    0.57    0.19
  -1  -6  16    1.57    0.25
   1  -6 -16    2.00    0.27
   1  -6 -16    2.24    0.28
  -1  -6  16    1.84    0.28
   1   6 -16    2.35    0.30
  -1   6  16    1.73    0.28
   1   6 -16    1.92    0.26
   0  -6  16   15.96    0.63
   0  -6 -16   15.88    0.63
   0  -6 -16   14.63    0.56
   0  -6  16   15.25    0.56
   0   6  16   14.58    0.60
   0   6 -16   15.23    0.61
   0   6 -16   15.40    0.58
   0   6  16   15.63    0.58
   1  -6  16    0.01    0.15
   1  -6  16   -0.13    0.18
  -1  -6 -16    0.01    0.19
   1   6  16    0.03    0.18
  -1   6 -16   -0.04    0.18
  -1   6 -16   -0.17    0.13
   1   6  16    0.06    0.16
   2  -6  16    6.72    0.45
   2  -6  16    6.88    0.46
  -2  -6 -16    6.74    0.47
  -2   6 -16    6.69    0.48
   2   6  16    6.22    0.44
  -3  -6 -16    0.11    0.20
   3  -6  16    0.01    0.19
  -3  -6 -16   -0.05    0.19
  -3   6 -16    0.26    0.21
   3   6  16   -0.13    0.19
   4  -6  16    0.09    0.22
  -4  -6 -16   -0.18    0.23
  -4  -6 -16   -0.02    0.21
  -4   6 -16    0.13    0.23
   4   6  16   -0.04    0.20
   5  -7 -16    0.44    0.21
  -5  -7  16    0.34    0.20
   5   7 -16    0.49    0.21
  -5   7  16    0.29    0.20
   4  -7 -16    2.76    0.33
  -4  -7  16    2.45    0.31
  -4   7  16    2.73    0.34
   4   7 -16    2.64    0.32
  -3  -7  16    0.25    0.19
   3  -7 -16    0.44    0.20
  -3   7  16    0.15    0.19
   3   7 -16    0.63    0.20
   2  -7 -16    5.60    0.41
  -2  -7  16    5.14    0.36
  -2  -7  16    4.87    0.40
   2   7 -16    5.28    0.39
  -2   7  16    6.30    0.45
   1  -7 -16   13.07    0.57
  -1  -7  16   13.64    0.58
   1  -7 -16   11.72    0.53
  -1   7  16   11.12    0.54
   1   7 -16   11.81    0.53
   1   7 -16   12.72    0.55
   0  -7 -16    1.13    0.22
   0  -7  16    1.07    0.26
   0  -7 -16    0.93    0.25
   0  -7  16    0.78    0.21
   0   7 -16    0.55    0.21
   0   7  16    0.62    0.20
   0   7  16    0.81    0.24
   0   7 -16    0.91    0.24
   1  -7  16   -0.42    0.16
  -1  -7 -16   -0.20    0.16
   1  -7  16    0.18    0.17
  -1   7 -16    0.05    0.20
   1   7  16    0.24    0.18
  -1   7 -16    0.01    0.15
   1   7  16   -0.04    0.17
   2  -7  16   -0.06    0.17
  -2  -7 -16    0.03    0.18
  -2   7 -16    0.04    0.21
   2   7  16   -0.02    0.18
   3  -7  16    3.99    0.42
  -3  -7 -16    4.24    0.43
   3   7  16    4.35    0.43
  -3   7 -16    4.07    0.43
  -4  -7 -16    1.90    0.34
   4  -7  16    1.72    0.33
   4   7  16    2.13    0.35
  -4   7 -16    1.68    0.33
   5  -8 -16    0.13    0.20
  -5  -8  16   -0.14    0.18
  -5   8  16    0.29    0.21
   5   8 -16    0.22    0.21
   4  -8 -16    1.79    0.30
  -4  -8  16    0.74    0.23
   4   8 -16    0.83    0.23
  -4   8  16    1.52    0.30
  -3  -8  16    2.54    0.33
   3  -8 -16    2.08    0.29
  -3   8  16    2.34    0.35
   3   8 -16    2.54    0.32
  -2  -8  16    0.11    0.20
  -2  -8  16    0.13    0.16
   2  -8 -16    0.12    0.18
  -2   8  16    0.27    0.21
   2   8 -16    0.01    0.17
   1  -8 -16    3.21    0.34
   1  -8 -16    3.14    0.35
  -1  -8  16    2.70    0.32
   1   8 -16    3.87    0.38
  -1   8  16    3.38    0.36
   1   8 -16    3.52    0.37
   0  -8 -16    0.88    0.21
   0  -8 -16    0.68    0.24
   0  -8  16    0.59    0.24
   0   8  16    0.75    0.24
   0   8 -16    0.96    0.26
   0   8 -16    0.62    0.21
   0   8  16    0.67    0.21
  -1  -8 -16    0.00    0.18
   1  -8  16   -0.03    0.17
   1  -8  16    0.09    0.21
  -1   8 -16    0.16    0.22
   1   8  16    0.06    0.19
   1   8  16   -0.13    0.18
  -2  -8 -16    0.13    0.20
   2  -8  16    0.40    0.21
  -2   8 -16    0.04    0.22
   2   8  16   -0.06    0.20
   3  -8  16    0.84    0.27
  -3  -8 -16    0.79    0.26
  -3   8 -16    1.39    0.32
   3   8  16    0.70    0.26
  -4  -8 -16    0.37    0.24
   4  -8  16    0.75    0.27
  -4   8 -16    0.54    0.27
   4   8  16    1.25    0.32
   4  -9 -16    2.30    0.33
  -4  -9  16    2.38    0.33
  -4   9  16    1.85    0.33
   4   9 -16    2.27    0.32
   3  -9 -16    0.99    0.26
  -3  -9  16    1.17    0.27
  -3   9  16    1.22    0.29
   3   9 -16    0.85    0.25
  -2  -9  16    0.01    0.19
  -2  -9  16    0.11    0.17
   2  -9 -16   -0.05    0.16
  -2   9  16   -0.05    0.20
   2   9 -16    0.25    0.18
   1  -9 -16    0.17    0.20
   1  -9 -16    0.06    0.20
  -1  -9  16    0.13    0.19
  -1   9  16    0.28    0.22
   1   9 -16    0.08    0.17
   0  -9 -16    2.70    0.33
   0  -9  16    3.47    0.40
   0  -9 -16    3.36    0.40
   0   9 -16    3.32    0.35
   0   9 -16    2.80    0.37
   0   9  16    3.12    0.37
   0   9  16    2.56    0.31
   1  -9  16    0.35    0.21
  -1  -9 -16    0.32    0.25
   1  -9  16    0.62    0.21
  -1   9 -16    0.71    0.26
   1   9  16    0.49    0.22
   1   9  16    0.81    0.23
  -2  -9 -16    0.61    0.28
   2  -9  16    0.53    0.24
  -2   9 -16    0.56    0.29
   2   9  16    0.38    0.22
  -3  -9 -16    0.57    0.27
   3  -9  16    0.61    0.26
  -3   9 -16    0.41    0.26
   3   9  16    0.76    0.28
  -4 -10  16    2.59    0.36
   4 -10 -16    2.52    0.36
  -4  10  16    3.22    0.42
   4  10 -16    2.91    0.39
   3 -10 -16    3.22    0.40
  -3 -10  16    3.20    0.39
   3  10 -16    3.31    0.39
  -3  10  16    3.92    0.44
  -2 -10  16    0.55    0.24
   2 -10 -16    0.78    0.25
   2  10 -16    0.38    0.23
  -2  10  16    0.58    0.24
  -1 -10  16    1.05    0.29
   1 -10 -16    0.80    0.25
   1 -10 -16    0.44    0.23
  -1  10  16    1.05    0.29
   1  10 -16    0.94    0.24
   0 -10 -16    0.92    0.26
   0 -10  16    1.34    0.33
   0  10 -16    1.21    0.30
   0  10  16    1.76    0.33
   0  10 -16    1.21    0.27
   1 -10  16    0.82    0.29
  -1 -10 -16    0.60    0.28
  -1  10 -16    0.41    0.27
   1  10  16    0.36    0.22
   2 -10  16    0.21    0.21
  -2 -10 -16    0.22    0.25
   2  10  16    0.29    0.24
  -2  10 -16   -0.02    0.24
   3 -10  16    1.12    0.30
  -3 -10 -16    1.74    0.36
  -3  10 -16    1.16    0.31
   3  10  16    1.23    0.32
  -3 -11  16   -0.02    0.21
   3 -11 -16   -0.22    0.19
   3  11 -16    0.02    0.24
  -3  11  16   -0.18    0.22
  -2 -11  16    0.34    0.23
   2 -11 -16    0.33    0.22
  -2  11  16   -0.02    0.24
   2  11 -16    0.17    0.22
   1 -11 -16    1.97    0.32
  -1 -11  16    1.67    0.35
   1  11 -16    1.99    0.32
  -1  11  16    1.91    0.36
   0 -11  16    4.99    0.48
   0 -11 -16    5.66    0.53
   0  11  16    4.94    0.48
   0  11 -16    4.64    0.45
   0  11 -16    5.20    0.50
   1 -11  16    0.14    0.22
  -1 -11 -16    0.09    0.21
  -1  11 -16    0.06    0.25
   1  11  16    0.00    0.21
  -2 -11 -16    0.24    0.26
   2 -11  16    0.11    0.24
  -2  11 -16    0.23    0.28
   2  11  16    0.42    0.26
  -2 -12  16    0.05    0.21
   2 -12 -16    0.00    0.19
   2  12 -16   -0.10    0.20
  -2  12  16   -0.12    0.23
  -1 -12  16    1.03    0.30
  -1  12  16    0.89    0.31
   1  12 -16    0.66    0.25
   0 -12  16    0.75    0.31
   0 -12 -16    0.79    0.31
   0  12  16    0.91    0.30
   1 -12  16    0.54    0.28
  -1 -12 -16    1.04    0.33
  -1  12 -16    0.50    0.29
   1  12  16    0.54    0.30
   6   0 -17    0.07    0.15
  -6   0  17    0.07    0.14
  -5   0  17   -0.04    0.23
   5   0 -17   -0.22    0.13
  -5   0  17    0.01    0.14
  -4   0  17    0.01    0.19
   4   0 -17   -0.13    0.13
  -4   0  17    0.07    0.16
   3   0 -17    0.03    0.14
  -3   0  17    0.07    0.15
  -3   0  17    0.09    0.17
  -2   0  17   -0.13    0.13
   2   0 -17   -0.06    0.12
  -2   0  17    0.00    0.13
   2   0 -17    0.11    0.13
  -1   0  17   -0.05    0.12
  -1   0  17   -0.13    0.15
   1   0 -17   -0.06    0.13
   1   0 -17   -0.07    0.12
  -1   0  17    0.08    0.12
   0   0  17   -0.24    0.15
   0   0  17   -0.01    0.08
   0   0 -17   -0.02    0.13
   0   0 -17    0.10    0.10
   0   0  17    0.37    0.15
   0   0  17   -0.10    0.15
   0   0 -17   -0.15    0.14
   1   0  17    0.18    0.17
  -1   0 -17    0.12    0.13
  -1   0 -17    0.38    0.19
   1   0  17   -0.03    0.15
   1   0  17    0.20    0.17
  -1   0 -17   -0.07    0.12
   2   0  17   -0.07    0.15
  -2   0 -17   -0.01    0.18
   2   0  17    0.35    0.20
   2   0  17   -0.08    0.16
  -2   0 -17    0.22    0.16
   3   0  17    0.39    0.20
   3   0  17   -0.04    0.18
  -3   0 -17   -0.21    0.16
  -3   0 -17    0.02    0.18
   4   0  17    0.14    0.20
  -4   0 -17    0.03    0.20
   4   0  17   -0.21    0.17
  -4   0 -17    0.06    0.22
  -5   0 -17    0.26    0.24
   5   0  17    0.00    0.20
  -5   0 -17   -0.12    0.25
   5   0  17   -0.29    0.18
   6  -1 -17    0.11    0.16
  -6  -1  17    0.00    0.15
   6   1 -17   -0.15    0.15
  -6   1  17   -0.06    0.14
   5  -1 -17    0.27    0.16
  -5  -1  17    0.15    0.16
   5   1 -17    0.18    0.16
  -5   1  17   -0.07    0.19
  -5   1  17    0.13    0.16
   4  -1 -17    0.72    0.18
  -4  -1  17    0.58    0.24
  -4  -1  17    0.15    0.17
  -4   1  17    0.48    0.18
  -4   1  17    0.70    0.25
   4   1 -17    0.44    0.16
  -3  -1  17    0.06    0.16
  -3  -1  17   -0.09    0.16
   3  -1 -17    0.03    0.14
   3   1 -17    0.13    0.14
  -3   1  17   -0.21    0.15
  -3   1  17    0.01    0.16
  -2  -1  17    4.68    0.33
   2  -1 -17    4.88    0.32
   2  -1 -17    5.22    0.35
  -2  -1  17    4.24    0.32
   2   1 -17    4.67    0.33
  -2   1  17    5.05    0.34
  -2   1  17    4.79    0.36
   2   1 -17    5.30    0.51
  -1  -1  17   11.74    0.45
   1  -1 -17   12.86    0.50
   1  -1 -17   12.10    0.50
  -1  -1  17   12.39    0.51
  -1  -1  17   11.93    0.41
  -1  -1  17   12.79    0.53
  -1   1  17   12.48    0.52
   1   1 -17   11.41    0.47
  -1   1  17   11.57    0.45
   1   1 -17   12.60    0.50
  -1   1  17   12.64    0.44
   0  -1  17    0.31    0.19
   0  -1 -17    0.11    0.15
   0  -1 -17   -0.04    0.13
   0  -1 -17    0.18    0.10
   0  -1  17   -0.02    0.17
   0  -1  17    0.06    0.14
   0   1  17    0.23    0.10
   0   1  17    0.13    0.15
   0   1  17   -0.03    0.16
   0   1  17    0.20    0.15
   0   1 -17    0.12    0.15
   0   1 -17    0.03    0.14
  -1  -1 -17    9.33    0.43
   1  -1  17    8.30    0.45
  -1  -1 -17   10.10    0.48
   1  -1  17    9.24    0.45
  -1  -1 -17    9.84    0.40
   1  -1  17    9.97    0.50
   1   1  17    9.42    0.47
  -1   1 -17    9.02    0.42
   1   1  17    9.56    0.50
   1   1  17    8.08    0.43
  -1   1 -17    9.74    0.47
  -2  -1 -17    1.16    0.23
   2  -1  17    1.25    0.24
   2  -1  17    0.88    0.22
   2  -1  17    0.95    0.25
  -2  -1 -17    1.22    0.23
   2   1  17    1.03    0.23
   2   1  17    0.89    0.21
  -2   1 -17    0.69    0.23
   2   1  17    1.13    0.25
  -2   1 -17    1.10    0.23
   3  -1  17    0.04    0.17
  -3  -1 -17    0.16    0.19
  -3  -1 -17   -0.06    0.18
   3  -1  17    0.00    0.19
   3   1  17    0.26    0.19
  -3   1 -17    0.30    0.20
   3   1  17    0.07    0.18
  -3   1 -17    0.19    0.20
   4  -1  17    0.19    0.21
   4  -1  17    0.31    0.22
  -4  -1 -17   -0.17    0.20
  -4  -1 -17   -0.10    0.21
  -4   1 -17   -0.01    0.22
   4   1  17    0.04    0.20
   4   1  17   -0.22    0.18
  -4   1 -17    0.24    0.21
   5  -1  17    0.22    0.23
  -5  -1 -17   -0.46    0.22
  -5  -1 -17   -0.24    0.19
   5  -1  17    0.06    0.22
   5   1  17    0.21    0.23
  -5   1 -17    0.21    0.22
   5   1  17   -0.10    0.20
  -5   1 -17    0.25    0.26
  -6  -2  17    1.59    0.22
   6  -2 -17    2.04    0.27
   6   2 -17    1.50    0.24
  -6   2  17    1.33    0.22
  -5  -2  17    5.98    0.38
   5  -2 -17    6.00    0.39
   5   2 -17    5.67    0.37
  -5   2  17    5.86    0.39
  -5   2  17    6.29    0.54
   4  -2 -17   14.17    0.55
  -4  -2  17   15.25    0.57
   4   2 -17   14.59    0.54
  -4   2  17   15.03    0.68
  -4   2  17   15.29    0.57
   3  -2 -17    5.77    0.37
  -3  -2  17    4.91    0.37
   3   2 -17    4.95    0.34
  -3   2  17    4.62    0.39
  -3   2  17    5.26    0.38
  -2  -2  17    0.52    0.19
   2  -2 -17    0.50    0.17
   2  -2 -17    0.40    0.16
  -2  -2  17    0.63    0.17
  -2   2  17    0.71    0.19
  -2   2  17    0.49    0.18
   2   2 -17    0.34    0.15
  -1  -2  17   30.81    0.81
  -1  -2  17   29.30    0.76
   1  -2 -17   30.39    0.81
   1  -2 -17   31.92    0.84
  -1  -2  17   30.58    0.85
  -1   2  17   30.14    0.84
  -1   2  17   31.23    0.78
   1   2 -17   30.96    0.82
  -1   2  17   30.64    0.75
   1   2 -17   30.93    0.81
   0  -2 -17   23.68    0.69
   0  -2  17   24.37    0.69
   0  -2  17   23.76    0.75
   0  -2  17   23.35    0.74
   0  -2 -17   25.39    0.75
   0   2  17   23.40    0.74
   0   2  17   23.74    0.70
   0   2 -17   24.36    0.73
   0   2 -17   23.63    0.70
  -1  -2 -17    1.71    0.21
   1  -2  17    2.13    0.29
   1  -2  17    2.25    0.29
  -1  -2 -17    1.78    0.24
   1  -2  17    1.82    0.26
  -1  -2 -17    1.85    0.26
   1   2  17    1.66    0.24
  -1   2 -17    1.98    0.26
   1   2  17    1.46    0.25
  -1   2 -17    1.34    0.24
  -2  -2 -17    0.15    0.18
   2  -2  17    0.04    0.16
   2  -2  17   -0.10    0.16
   2  -2  17   -0.09    0.16
  -2  -2 -17    0.26    0.16
   2   2  17   -0.04    0.16
   2   2  17    0.08    0.18
  -2   2 -17    0.12    0.18
   2   2  17    0.32    0.17
  -3  -2 -17    0.18    0.19
   3  -2  17    0.30    0.20
  -3  -2 -17    0.34    0.21
   3  -2  17    0.22    0.19
   3   2  17    0.07    0.19
   3   2  17    0.25    0.20
  -3   2 -17    0.50    0.22
  -3   2 -17    0.46    0.23
   4  -2  17    0.19    0.22
  -4  -2 -17    0.06    0.23
  -4  -2 -17    0.24    0.22
   4  -2  17   -0.28    0.19
  -4   2 -17    0.01    0.24
   4   2  17    0.05    0.21
  -4   2 -17   -0.06    0.19
   4   2  17    0.07    0.20
  -5  -2 -17    0.25    0.27
  -5  -2 -17    0.01    0.21
   5  -2  17    0.02    0.23
   5  -2  17    0.02    0.22
   5   2  17    0.15    0.21
  -5   2 -17   -0.01    0.26
  -5   2 -17    0.04    0.22
   6  -3 -17    0.27    0.18
  -6  -3  17    0.16    0.16
   6   3 -17    0.34    0.17
  -6   3  17    0.37    0.18
   5  -3 -17    0.46    0.18
  -5  -3  17    0.20    0.17
   5   3 -17    0.16    0.16
  -5   3  17   -0.02    0.22
  -5   3  17    0.06    0.17
   4  -3 -17   -0.03    0.14
  -4  -3  17    0.34    0.17
  -4   3  17   -0.14    0.15
   4   3 -17   -0.19    0.13
  -4   3  17    0.10    0.21
  -3  -3  17    2.27    0.27
   3  -3 -17    2.47    0.28
  -3   3  17    2.43    0.32
  -3   3  17    2.66    0.30
   3   3 -17    2.70    0.27
  -2  -3  17    0.28    0.16
   2  -3 -17    0.36    0.17
   2  -3 -17    0.04    0.14
  -2  -3  17    0.17    0.14
  -2   3  17   -0.10    0.15
   2   3 -17    0.12    0.14
  -2   3  17    0.05    0.15
  -1  -3  17    0.02    0.16
   1  -3 -17   -0.03    0.12
   1  -3 -17   -0.18    0.14
  -1  -3  17    0.14    0.15
   1   3 -17    0.03    0.14
   1   3 -17    0.22    0.15
  -1   3  17    0.08    0.14
  -1   3  17   -0.18    0.13
   0  -3 -17    5.96    0.40
   0  -3 -17    5.97    0.37
   0  -3  17    6.49    0.38
   0  -3  17    5.28    0.38
   0  -3  17    4.95    0.39
   0   3 -17    5.41    0.36
   0   3  17    4.92    0.35
   0   3  17    5.72    0.41
   0   3 -17    5.21    0.39
  -1  -3 -17    3.02    0.32
  -1  -3 -17    3.15    0.25
   1  -3  17    3.47    0.33
  -1  -3 -17    3.40    0.31
   1  -3  17    2.74    0.32
   1  -3  17    3.42    0.34
   1   3  17    3.78    0.35
  -1   3 -17    2.39    0.29
   1   3  17    3.62    0.34
  -1   3 -17    3.25    0.30
   2  -3  17    7.91    0.49
   2  -3  17    7.79    0.46
  -2  -3 -17    8.90    0.44
  -2  -3 -17    7.94    0.48
   2  -3  17    6.83    0.44
   2   3  17    8.25    0.47
  -2   3 -17    7.82    0.48
   3  -3  17    9.81    0.54
  -3  -3 -17    9.51    0.53
   3  -3  17    9.59    0.55
  -3  -3 -17   10.45    0.55
   3   3  17    9.51    0.53
  -3   3 -17    9.78    0.55
   4  -3  17    0.31    0.23
  -4  -3 -17    0.29    0.24
  -4  -3 -17    0.61    0.24
   4  -3  17    0.39    0.23
  -4   3 -17    0.78    0.30
   4   3  17    0.73    0.25
  -4   3 -17    0.14    0.22
  -5  -4  17   15.27    0.57
   5  -4 -17   15.10    0.60
   5   4 -17   15.75    0.58
  -5   4  17   15.16    0.77
  -5   4  17   15.40    0.60
   4  -4 -17    4.53    0.36
  -4  -4  17    5.59    0.37
  -4   4  17    4.54    0.46
   4   4 -17    5.27    0.37
  -4   4  17    5.35    0.40
  -3  -4  17    5.34    0.37
   3  -4 -17    5.56    0.38
  -3   4  17    5.56    0.43
   3   4 -17    4.83    0.36
  -3   4  17    5.07    0.39
   2  -4 -17    0.62    0.20
  -2  -4  17    0.49    0.20
  -2  -4  17    0.65    0.17
   2   4 -17    0.49    0.16
  -2   4  17    0.68    0.21
  -1  -4  17    1.97    0.26
   1  -4 -17    1.64    0.24
  -1  -4  17    1.69    0.26
   1  -4 -17    1.90    0.26
   1   4 -17    1.92    0.25
  -1   4  17    1.79    0.24
   1   4 -17    2.36    0.28
  -1   4  17    1.50    0.26
   0  -4  17   37.92    1.00
   0  -4  17   39.46    1.01
   0  -4 -17   40.34    0.98
   0  -4 -17   39.64    1.02
   0  -4  17   38.50    0.95
   0   4 -17   40.14    1.02
   0   4  17   38.59    0.97
   0   4  17   37.21    1.00
   0   4 -17   39.88    0.98
  -1  -4 -17   -0.05    0.16
   1  -4  17   -0.07    0.14
   1  -4  17   -0.04    0.14
  -1  -4 -17   -0.09    0.13
   1  -4  17   -0.20    0.17
  -1  -4 -17   -0.10    0.12
  -1   4 -17    0.00    0.16
  -1   4 -17    0.16    0.15
   1   4  17    0.08    0.17
   1   4  17   -0.05    0.14
   2  -4  17    3.63    0.38
  -2  -4 -17    3.94    0.33
   2  -4  17    3.72    0.37
  -2  -4 -17    5.38    0.46
   2  -4  17    3.73    0.37
   2   4  17    5.10    0.41
  -2   4 -17    4.15    0.41
   3  -4  17    0.02    0.20
   3  -4  17    0.17    0.20
  -3  -4 -17    0.12    0.20
  -3  -4 -17    0.36    0.21
  -3   4 -17    0.24    0.22
   3   4  17    0.37    0.21
  -4  -4 -17   -0.01    0.23
  -4  -4 -17   -0.02    0.20
   4  -4  17    0.07    0.22
   4  -4  17    0.00    0.21
  -4   4 -17   -0.18    0.20
   4   4  17    0.08    0.21
  -5  -5  17   -0.02    0.17
   5  -5 -17   -0.14    0.16
  -5   5  17   -0.26    0.23
   5   5 -17    0.01    0.17
  -5   5  17   -0.07    0.17
  -4  -5  17    3.73    0.35
   4  -5 -17    3.43    0.35
  -4   5  17    3.12    0.41
   4   5 -17    3.17    0.32
  -4   5  17    3.51    0.36
   3  -5 -17    0.18    0.17
  -3  -5  17    0.20    0.17
  -3   5  17   -0.16    0.15
   3   5 -17   -0.16    0.14
   2  -5 -17    1.04    0.22
  -2  -5  17    1.31    0.25
  -2  -5  17    1.68    0.25
  -2   5  17    1.56    0.27
   2   5 -17    1.37    0.23
   1  -5 -17    2.68    0.29
  -1  -5  17    2.40    0.31
  -1  -5  17    2.41    0.28
   1  -5 -17    2.83    0.31
  -1   5  17    2.05    0.29
   1   5 -17    2.17    0.28
   1   5 -17    2.28    0.29
   0  -5  17    1.17    0.24
   0  -5 -17    1.35    0.23
   0  -5 -17    1.47    0.25
   0  -5  17    1.07    0.22
   0  -5  17    1.26    0.24
   0   5  17    1.17    0.25
   0   5 -17    1.44    0.24
   0   5 -17    1.61    0.27
   0   5  17    0.57    0.19
   1  -5  17   10.84    0.54
  -1  -5 -17    9.89    0.53
   1  -5  17   10.54    0.50
   1  -5  17    9.47    0.53
   1   5  17    9.54    0.50
  -1   5 -17   10.75    0.54
   1   5  17   10.34    0.51
  -1   5 -17    9.80    0.48
   2  -5  17    1.01    0.27
  -2  -5 -17    1.11    0.23
  -2  -5 -17    1.20    0.26
   2  -5  17    1.39    0.25
   2   5  17    1.71    0.29
  -2   5 -17    1.60    0.30
   3  -5  17    0.26    0.22
  -3  -5 -17    1.00    0.28
  -3  -5 -17    0.78    0.25
   3  -5  17    0.72    0.26
   3   5  17    0.38    0.23
  -3   5 -17    0.49    0.24
  -4  -5 -17    0.77    0.28
   4  -5  17   -0.07    0.21
  -4  -5 -17    0.66    0.25
   4  -5  17   -0.12    0.22
  -4   5 -17    0.15    0.23
   4   5  17    0.16    0.22
  -5  -6  17    0.17    0.17
   5  -6 -17    0.17    0.18
  -5   6  17   -0.13    0.18
   5   6 -17    0.29    0.19
  -4  -6  17    2.81    0.31
   4  -6 -17    3.09    0.34
  -4   6  17    3.35    0.43
   4   6 -17    4.08    0.37
  -4   6  17    3.54    0.37
   3  -6 -17    0.98    0.23
  -3  -6  17    0.96    0.23
   3   6 -17    1.04    0.24
  -3   6  17    1.26    0.26
  -2  -6  17    1.25    0.23
   2  -6 -17    1.26    0.24
  -2  -6  17    0.90    0.23
  -2   6  17    1.25    0.27
   2   6 -17    1.10    0.21
   1  -6 -17   -0.03    0.16
   1  -6 -17   -0.07    0.16
  -1  -6  17    0.30    0.18
  -1  -6  17   -0.06    0.18
   1   6 -17    0.25    0.17
   1   6 -17    0.41    0.20
  -1   6  17   -0.09    0.16
   0  -6  17    2.61    0.31
   0  -6  17    2.73    0.34
   0  -6  17    2.76    0.31
   0  -6 -17    3.09    0.32
   0  -6 -17    2.38    0.32
   0   6  17    2.41    0.31
   0   6 -17    2.93    0.35
   0   6 -17    1.85    0.26
   0   6  17    2.56    0.29
  -1  -6 -17   -0.08    0.18
   1  -6  17    0.14    0.16
   1  -6  17   -0.04    0.18
  -1   6 -17   -0.05    0.15
   1   6  17    0.12    0.18
  -1   6 -17   -0.04    0.19
   1   6  17    0.01    0.18
  -2  -6 -17   -0.02    0.20
   2  -6  17   -0.13    0.17
   2   6  17    0.08    0.18
  -2   6 -17   -0.11    0.20
  -3  -6 -17    0.42    0.23
  -3  -6 -17    0.41    0.23
   3  -6  17    0.23    0.23
   3   6  17    0.18    0.23
  -3   6 -17    0.20    0.23
  -4  -6 -17    1.58    0.36
   4  -6  17    0.70    0.27
  -4  -6 -17    1.51    0.31
  -4   6 -17    1.43    0.33
   4   6  17    1.01    0.30
  -5  -7  17    2.57    0.32
   5  -7 -17    2.91    0.36
  -5   7  17    3.24    0.38
   5   7 -17    3.00    0.35
   4  -7 -17    0.97    0.24
  -4  -7  17    0.54    0.21
  -4   7  17    0.84    0.27
  -4   7  17    0.94    0.26
   4   7 -17    0.36    0.20
   3  -7 -17    6.67    0.45
  -3  -7  17    6.42    0.45
   3   7 -17    6.09    0.44
  -3   7  17    6.80    0.46
   2  -7 -17    1.35    0.26
  -2  -7  17    1.10    0.26
  -2  -7  17    1.05    0.23
  -2   7  17    1.00    0.24
   2   7 -17    0.93    0.24
  -1  -7  17    2.49    0.34
  -1  -7  17    1.76    0.28
   1  -7 -17    1.71    0.27
   1  -7 -17    2.25    0.30
   1   7 -17    1.87    0.29
  -1   7  17    2.16    0.32
   1   7 -17    1.71    0.27
   0  -7 -17   -0.13    0.15
   0  -7 -17   -0.09    0.18
   0  -7  17    0.05    0.17
   0   7  17   -0.06    0.18
   0   7 -17    0.40    0.21
   0   7 -17    0.09    0.17
   0   7  17    0.03    0.16
  -1  -7 -17   -0.04    0.20
   1  -7  17    0.08    0.18
   1  -7  17    0.07    0.20
   1   7  17    0.12    0.18
   1   7  17   -0.14    0.17
  -1   7 -17    0.12    0.19
   2  -7  17    3.56    0.40
  -2  -7 -17    3.36    0.40
  -2   7 -17    3.15    0.40
   2   7  17    3.57    0.39
  -3  -7 -17    0.98    0.28
   3  -7  17    0.47    0.25
  -3   7 -17    0.82    0.28
   3   7  17    0.47    0.25
   4  -7  17    0.63    0.27
  -4  -7 -17    0.45    0.26
  -4   7 -17    0.68    0.28
   4   7  17    0.78    0.29
  -4  -8  17   -0.21    0.17
   4  -8 -17    0.17    0.19
  -4   8  17    0.02    0.20
   4   8 -17    0.07    0.19
   3  -8 -17    2.84    0.35
  -3  -8  17    2.51    0.33
   3   8 -17    3.14    0.35
  -3   8  17    2.73    0.37
  -2  -8  17   -0.19    0.17
   2  -8 -17   -0.02    0.18
  -2  -8  17   -0.10    0.16
   2   8 -17    0.12    0.17
  -2   8  17    0.28    0.22
  -1  -8  17    1.14    0.28
   1  -8 -17    1.17    0.24
   1  -8 -17    0.79    0.24
  -1   8  17    1.01    0.28
   1   8 -17    1.28    0.27
   0  -8 -17    6.16    0.47
   0  -8  17    5.94    0.45
   0  -8 -17    5.86    0.41
   0   8  17    6.37    0.45
   0   8 -17    5.19    0.41
   0   8 -17    6.28    0.43
   0   8  17    5.77    0.46
   1  -8  17    2.00    0.33
   1  -8  17    1.57    0.27
  -1  -8 -17    2.34    0.34
   1   8  17    2.59    0.34
   1   8  17    1.97    0.30
  -1   8 -17    2.71    0.37
  -2  -8 -17    0.22    0.22
   2  -8  17    0.07    0.19
  -2   8 -17   -0.10    0.20
   2   8  17   -0.16    0.19
  -3  -8 -17    2.53    0.38
   3  -8  17    1.44    0.32
  -3   8 -17    1.36    0.34
   3   8  17    1.98    0.36
  -4  -9  17    0.12    0.20
   4  -9 -17    0.15    0.21
  -4   9  17    0.02    0.21
   4   9 -17    0.35    0.22
   3  -9 -17    2.52    0.35
  -3  -9  17    2.59    0.36
   3   9 -17    2.24    0.33
  -3   9  17    2.72    0.37
   2  -9 -17    0.89    0.25
  -2  -9  17    0.72    0.25
  -2  -9  17    0.99    0.24
  -2   9  17    0.71    0.26
   2   9 -17    0.45    0.22
  -1  -9  17    3.75    0.43
   1  -9 -17    4.72    0.44
   1  -9 -17    4.06    0.40
   1   9 -17    3.91    0.40
  -1   9  17    2.92    0.38
   0  -9  17    0.08    0.21
   0  -9 -17   -0.18    0.20
   0   9  17    0.05    0.22
   0   9 -17    0.60    0.23
   0   9 -17    0.28    0.19
  -1  -9 -17    2.20    0.35
   1  -9  17    1.59    0.28
   1  -9  17    2.03    0.33
   1   9  17    2.83    0.36
  -1   9 -17    3.03    0.39
  -2  -9 -17    0.91    0.31
   2  -9  17    0.83    0.28
  -2   9 -17    0.85    0.30
   2   9  17    0.38    0.25
  -3  -9 -17    1.12    0.31
   3  -9  17    0.99    0.29
  -3   9 -17    0.98    0.30
   3   9  17    0.88    0.29
   4 -10 -17    1.12    0.29
  -4 -10  17    0.38    0.23
  -4  10  17    0.67    0.27
  -3 -10  17    0.48    0.25
   3 -10 -17   -0.02    0.21
   3  10 -17    0.61    0.25
  -3  10  17    0.73    0.26
  -2 -10  17   -0.31    0.20
   2 -10 -17    0.02    0.21
   2  10 -17    0.43    0.23
  -2  10  17    0.79    0.27
   1 -10 -17    0.81    0.25
  -1 -10  17    1.02    0.30
   1 -10 -17    1.07    0.29
  -1  10  17    0.88    0.27
   1  10 -17    0.66    0.25
   0 -10  17    2.71    0.40
   0 -10 -17    1.98    0.35
   0  10  17    1.60    0.34
   0  10 -17    2.15    0.35
   0  10 -17    1.37    0.27
  -1 -10 -17    4.22    0.45
   1 -10  17    5.60    0.54
   1  10  17    4.93    0.47
  -1  10 -17    5.55    0.52
  -2 -10 -17    0.36    0.27
   2 -10  17    0.04    0.21
   2  10  17    0.01    0.22
  -2  10 -17   -0.05    0.25
   3 -11 -17   -0.06    0.21
  -3 -11  17   -0.12    0.22
   3  11 -17    0.09    0.24
  -3  11  17    0.07    0.24
  -2 -11  17    0.22    0.23
   2 -11 -17   -0.10    0.21
  -2  11  17    0.39    0.27
   2  11 -17    0.14    0.23
   1 -11 -17    1.00    0.28
  -1 -11  17    0.87    0.29
   1  11 -17    0.51    0.23
  -1  11  17    1.09    0.30
   0 -11 -17    0.41    0.26
   0 -11  17   -0.08    0.22
   0  11  17    0.28    0.25
   1 -11  17    0.54    0.26
  -1 -11 -17    0.01    0.25
  -1  11 -17    0.08    0.25
   1  11  17    0.31    0.26
  -2 -11 -17    0.01    0.23
   2  11  17   -0.04    0.22
  -2  11 -17   -0.23    0.23
  -2 -12  17   -0.10    0.24
   2 -12 -17   -0.02    0.22
  -2  12  17   -0.14    0.25
   2  12 -17    0.00    0.21
  -1 -12  17    0.63    0.28
  -1  12  17    0.35    0.28
   1  12 -17    0.44    0.23
   0 -12 -17    2.05    0.39
   0 -12  17    1.83    0.38
   0  12  17    1.89    0.38
  -1 -12 -17   -0.23    0.24
  -1  12 -17    0.18    0.24
   6   0 -18    5.60    0.40
  -6   0  18    4.97    0.36
  -5   0  18   17.69    0.81
  -5   0  18   18.06    0.63
   5   0 -18   19.04    0.65
   4   0 -18    4.44    0.36
  -4   0  18    5.14    0.47
  -4   0  18    4.96    0.36
   3   0 -18    1.23    0.22
  -3   0  18    1.50    0.25
  -3   0  18    1.42    0.26
   2   0 -18    1.64    0.24
  -2   0  18    1.71    0.26
  -2   0  18    1.99    0.25
   1   0 -18    8.34    0.44
   1   0 -18    9.64    0.45
  -1   0  18    9.04    0.37
  -1   0  18    9.49    0.48
   0   0 -18   24.76    0.76
   0   0  18   24.44    0.72
   0   0 -18   25.31    0.59
   0   0  18   24.59    0.77
   0   0 -18   24.74    0.73
   0   0  18   24.62    0.77
   1   0  18    0.05    0.17
  -1   0 -18   -0.09    0.15
   1   0  18    0.23    0.19
  -1   0 -18   -0.02    0.13
  -1   0 -18    0.08    0.14
   1   0  18   -0.05    0.14
   2   0  18   26.55    0.83
  -2   0 -18   26.17    0.85
   2   0  18   26.15    0.85
   2   0  18   28.94    0.88
  -2   0 -18   28.49    0.81
  -3   0 -18    3.59    0.39
  -3   0 -18    3.88    0.40
   3   0  18    4.26    0.39
   3   0  18    4.41    0.42
   4   0  18    5.21    0.48
   4   0  18    5.68    0.49
  -4   0 -18    6.19    0.52
  -4   0 -18    4.75    0.45
  -6  -1  18    0.06    0.15
   6  -1 -18    0.08    0.16
  -6   1  18   -0.15    0.14
   6   1 -18   -0.14    0.15
   5  -1 -18   -0.08    0.16
  -5  -1  18    0.49    0.19
  -5   1  18    0.09    0.18
  -5   1  18    0.35    0.27
   5   1 -18    0.33    0.19
   4  -1 -18    2.98    0.30
  -4  -1  18    2.41    0.29
   4   1 -18    2.84    0.30
  -4   1  18    2.93    0.32
  -4   1  18    3.21    0.38
  -3  -1  18    3.50    0.33
   3  -1 -18    3.25    0.31
  -3  -1  18    3.20    0.35
  -3   1  18    3.33    0.34
  -3   1  18    3.13    0.35
   3   1 -18    2.69    0.28
   2  -1 -18    0.34    0.16
  -2  -1  18    0.93    0.20
  -2  -1  18    0.89    0.22
  -2   1  18    0.85    0.19
   2   1 -18    0.89    0.19
  -2   1  18    0.64    0.20
  -1  -1  18    2.32    0.30
  -1  -1  18    2.63    0.30
   1  -1 -18    2.32    0.29
   1  -1 -18    2.25    0.27
  -1   1  18    1.62    0.27
   1   1 -18    1.55    0.25
   1   1 -18    2.11    0.27
  -1   1  18    1.69    0.20
   0  -1  18   -0.06    0.17
   0  -1  18    0.00    0.15
   0  -1  18    0.12    0.17
   0  -1 -18    0.19    0.18
   0  -1 -18    0.00    0.13
   0   1  18    0.21    0.16
   0   1  18    0.16    0.10
   0   1  18    0.16    0.18
   0   1 -18    0.09    0.15
   0   1 -18    0.04    0.14
  -1  -1 -18    7.11    0.43
   1  -1  18    7.97    0.46
  -1  -1 -18    7.34    0.36
   1  -1  18    6.01    0.43
   1  -1  18    7.99    0.43
  -1  -1 -18    8.02    0.41
   1   1  18    8.06    0.48
  -1   1 -18    7.62    0.41
  -1   1 -18    6.84    0.42
   1   1  18    7.37    0.44
   1   1  18    6.72    0.42
   2  -1  18    7.71    0.47
  -2  -1 -18    7.43    0.48
  -2  -1 -18    7.09    0.42
   2  -1  18    6.95    0.44
   2  -1  18    7.60    0.50
  -2   1 -18    7.07    0.44
   2   1  18    6.36    0.64
  -2   1 -18    7.34    0.44
   2   1  18    8.27    0.50
   2   1  18    6.96    0.46
   3  -1  18    1.98    0.31
   3  -1  18    1.40    0.29
  -3  -1 -18    1.30    0.27
  -3  -1 -18    1.79    0.29
  -3   1 -18    1.69    0.30
  -3   1 -18    1.50    0.29
   3   1  18    1.56    0.30
   3   1  18    1.15    0.27
   4  -1  18    1.22    0.28
   4  -1  18    1.92    0.34
  -4  -1 -18    1.02    0.30
  -4  -1 -18    1.22    0.30
  -4   1 -18    1.37    0.29
   4   1  18    1.49    0.32
  -4   1 -18    1.20    0.31
   4   1  18    1.20    0.29
   5  -2 -18    9.48    0.49
  -5  -2  18    9.19    0.47
  -5   2  18    8.43    0.61
  -5   2  18    9.02    0.48
   5   2 -18    9.86    0.48
   4  -2 -18    4.62    0.36
  -4  -2  18    3.98    0.35
   4   2 -18    3.57    0.32
  -4   2  18    3.76    0.34
  -4   2  18    3.29    0.38
   3  -2 -18    0.19    0.15
  -3  -2  18    0.12    0.17
  -3   2  18    0.12    0.19
   3   2 -18   -0.15    0.13
  -3   2  18    0.12    0.17
   2  -2 -18    0.42    0.18
  -2  -2  18    0.69    0.20
   2   2 -18    0.65    0.18
  -2   2  18    0.68    0.20
  -2   2  18    0.63    0.19
  -1  -2  18    1.29    0.24
   1  -2 -18    0.82    0.19
  -1  -2  18    0.57    0.19
   1  -2 -18    0.94    0.21
  -1   2  18    0.77    0.20
   1   2 -18    0.82    0.21
  -1   2  18    1.11    0.18
   1   2 -18    1.11    0.21
   0  -2  18   27.52    0.82
   0  -2 -18   28.94    0.84
   0  -2  18   27.13    0.82
   0  -2 -18   29.06    0.80
   0  -2  18   27.11    0.77
   0   2  18   28.98    0.84
   0   2 -18   28.31    0.83
   0   2 -18   28.29    0.79
   0   2  18   27.94    0.65
   0   2  18   28.35    0.79
  -1  -2 -18    0.75    0.19
   1  -2  18    0.93    0.22
  -1  -2 -18    1.19    0.19
   1  -2  18    1.19    0.25
  -1  -2 -18    1.39    0.27
   1  -2  18    1.21    0.25
   1   2  18    1.35    0.25
  -1   2 -18    1.17    0.21
  -1   2 -18    0.98    0.22
   1   2  18    1.34    0.24
   2  -2  18    2.82    0.35
   2  -2  18    2.45    0.31
  -2  -2 -18    2.85    0.36
  -2  -2 -18    3.11    0.32
   2  -2  18    3.28    0.36
   2   2  18    2.89    0.35
   2   2  18    3.39    0.38
  -2   2 -18    2.88    0.32
   3  -2  18    0.99    0.27
   3  -2  18    1.35    0.29
  -3  -2 -18    1.47    0.29
  -3  -2 -18    1.25    0.28
   3   2  18    1.71    0.30
  -3   2 -18    1.29    0.28
  -3   2 -18    1.36    0.30
   3   2  18    0.93    0.27
   4  -2  18    1.82    0.33
  -4  -2 -18    1.12    0.29
  -4  -2 -18    1.23    0.31
   4  -2  18    1.59    0.34
  -4   2 -18    0.86    0.28
   4   2  18    1.79    0.32
  -4   2 -18    1.38    0.32
   5  -3 -18    1.57    0.27
  -5  -3  18    1.48    0.25
   5   3 -18    1.40    0.25
  -5   3  18    1.65    0.26
  -5   3  18    1.52    0.36
  -4  -3  18    0.02    0.16
   4  -3 -18    0.11    0.17
  -4   3  18   -0.02    0.21
   4   3 -18    0.09    0.15
  -4   3  18   -0.16    0.15
   3  -3 -18    0.30    0.17
  -3  -3  18    0.06    0.17
  -3   3  18   -0.04    0.16
  -3   3  18    0.29    0.19
   3   3 -18   -0.12    0.14
  -2  -3  18    0.27    0.16
  -2  -3  18    0.35    0.19
   2  -3 -18    0.43    0.17
  -2   3  18    0.42    0.20
  -2   3  18    0.53    0.20
   2   3 -18    0.29    0.16
  -1  -3  18   -0.19    0.14
   1  -3 -18   -0.16    0.13
   1  -3 -18   -0.13    0.14
  -1  -3  18    0.10    0.18
  -1   3  18   -0.17    0.16
   1   3 -18   -0.06    0.13
   1   3 -18    0.22    0.16
   0  -3  18    0.47    0.21
   0  -3  18    0.46    0.19
   0  -3 -18    0.54    0.19
   0  -3  18    0.44    0.19
   0  -3 -18    0.67    0.20
   0   3  18    0.27    0.18
   0   3  18    0.53    0.17
   0   3 -18    0.46    0.21
   0   3 -18    0.68    0.20
  -1  -3 -18    0.27    0.18
   1  -3  18    0.30    0.18
  -1  -3 -18    0.22    0.17
  -1  -3 -18    0.31    0.14
   1  -3  18    0.21    0.19
   1  -3  18    0.47    0.22
   1   3  18    0.27    0.17
   1   3  18    0.46    0.18
  -1   3 -18    0.28    0.16
  -1   3 -18   -0.05    0.18
   2  -3  18    0.24    0.18
   2  -3  18    0.19    0.20
  -2  -3 -18    0.15    0.17
  -2  -3 -18    0.49    0.22
   2  -3  18    0.13    0.21
   2   3  18    0.29    0.20
  -2   3 -18    0.19    0.20
   3  -3  18    0.37    0.23
  -3  -3 -18    0.20    0.21
   3  -3  18    0.39    0.22
  -3  -3 -18    0.40    0.21
  -3   3 -18    0.14    0.21
   3   3  18   -0.01    0.19
   4  -3  18    0.10    0.23
  -4  -3 -18    0.06    0.22
   4  -3  18    0.34    0.25
  -4  -3 -18   -0.02    0.22
   4   3  18    0.04    0.22
  -4   3 -18    0.27    0.23
  -4   3 -18    0.12    0.25
  -5  -4  18    0.34    0.18
   5  -4 -18    0.14    0.18
  -5   4  18   -0.03    0.24
  -5   4  18    0.02    0.18
   5   4 -18    0.26    0.18
  -4  -4  18    3.18    0.33
   4  -4 -18    3.79    0.36
  -4   4  18    3.73    0.43
  -4   4  18    3.44    0.36
   4   4 -18    2.93    0.31
   3  -4 -18   -0.01    0.16
  -3  -4  18    0.14    0.17
   3   4 -18    0.15    0.16
  -3   4  18   -0.01    0.20
  -3   4  18   -0.12    0.16
   2  -4 -18    0.61    0.20
  -2  -4  18    0.18    0.17
  -2  -4  18    0.50    0.17
   2   4 -18    0.42    0.18
  -2   4  18    0.38    0.19
   1  -4 -18    2.84    0.29
  -1  -4  18    3.71    0.37
  -1  -4  18    3.53    0.35
   1  -4 -18    3.84    0.37
   1   4 -18    3.14    0.31
  -1   4  18    3.88    0.38
   1   4 -18    4.07    0.36
   0  -4 -18    0.98    0.22
   0  -4  18    1.24    0.26
   0  -4  18    0.90    0.20
   0  -4 -18    0.96    0.24
   0  -4  18    0.90    0.22
   0   4  18    0.66    0.19
   0   4  18    0.62    0.21
   0   4 -18    0.91    0.20
   0   4 -18    0.95    0.23
   1  -4  18    0.47    0.21
  -1  -4 -18    0.47    0.23
   1  -4  18    0.10    0.19
   1  -4  18    0.29    0.17
   1   4  18    0.34    0.20
  -1   4 -18    0.36    0.22
   1   4  18    0.22    0.18
  -1   4 -18    0.38    0.17
   2  -4  18    0.76    0.25
  -2  -4 -18    0.68    0.20
   2  -4  18    0.63    0.23
  -2  -4 -18    0.64    0.22
   2   4  18    0.61    0.23
  -2   4 -18    0.28    0.22
   3  -4  18    3.70    0.41
  -3  -4 -18    3.28    0.39
   3  -4  18    3.16    0.40
  -3  -4 -18    3.35    0.38
   3   4  18    3.12    0.38
  -3   4 -18    3.30    0.37
   4  -4  18    0.60    0.26
  -4  -4 -18    0.34    0.24
  -4  -4 -18    0.73    0.29
   4  -4  18    0.60    0.26
  -4   4 -18    0.64    0.25
  -4   4 -18    0.32    0.29
   4   4  18    0.70    0.26
   5  -5 -18    1.48    0.27
  -5  -5  18    1.27    0.25
  -5   5  18    1.27    0.26
   5   5 -18    1.25    0.25
   4  -5 -18    0.33    0.21
  -4  -5  18    0.46    0.20
  -4   5  18    0.42    0.25
  -4   5  18    0.69    0.23
   4   5 -18    0.39    0.19
  -3  -5  18    2.96    0.32
   3  -5 -18    3.07    0.32
  -3   5  18    3.45    0.39
  -3   5  18    2.77    0.34
   3   5 -18    2.77    0.31
   2  -5 -18    2.63    0.30
  -2  -5  18    2.12    0.29
  -2  -5  18    2.91    0.31
  -2   5  18    2.57    0.32
   2   5 -18    2.34    0.29
  -1  -5  18    0.61    0.20
  -1  -5  18    1.12    0.27
   1  -5 -18    0.89    0.23
   1  -5 -18    0.81    0.21
  -1   5  18    1.04    0.26
   1   5 -18    0.91    0.22
   1   5 -18    0.77    0.21
   0  -5  18    1.52    0.30
   0  -5 -18    1.54    0.25
   0  -5  18    1.54    0.25
   0  -5  18    1.44    0.28
   0  -5 -18    1.55    0.28
   0   5 -18    1.49    0.26
   0   5  18    1.35    0.24
   0   5 -18    1.67    0.27
   0   5  18    1.16    0.26
   1  -5  18    0.99    0.25
   1  -5  18    0.89    0.25
   1  -5  18    0.69    0.20
  -1  -5 -18    0.89    0.25
  -1   5 -18    0.88    0.26
   1   5  18    0.92    0.24
  -1   5 -18    0.98    0.25
   1   5  18    0.72    0.22
   2  -5  18    8.58    0.55
  -2  -5 -18    8.54    0.46
  -2  -5 -18    9.92    0.57
   2  -5  18    9.09    0.51
  -2   5 -18    9.40    0.56
   2   5  18    8.32    0.52
  -3  -5 -18    9.51    0.55
   3  -5  18    9.41    0.59
  -3  -5 -18    8.83    0.56
   3  -5  18    8.08    0.55
   3   5  18    8.55    0.55
  -3   5 -18    7.36    0.55
  -4  -5 -18    0.22    0.25
   4  -5  18    0.58    0.26
  -4  -5 -18    0.54    0.25
   4  -5  18    0.19    0.25
   4   5  18    0.18    0.23
  -4   5 -18    0.06    0.23
   5  -6 -18   10.73    0.58
  -5  -6  18   10.65    0.52
  -5   6  18   10.48    0.56
   5   6 -18    9.77    0.53
  -4  -6  18    1.71    0.28
   4  -6 -18    2.81    0.34
  -4   6  18    2.43    0.41
  -4   6  18    1.57    0.29
   4   6 -18    2.20    0.31
   3  -6 -18    0.43    0.21
  -3  -6  18    0.45    0.21
  -3   6  18    0.54    0.22
   3   6 -18    0.40    0.21
  -2  -6  18   13.83    0.57
   2  -6 -18   14.46    0.60
  -2  -6  18   13.48    0.61
   2   6 -18   12.45    0.57
  -2   6  18   13.52    0.62
   1  -6 -18    6.19    0.44
  -1  -6  18    5.76    0.42
  -1  -6  18    6.56    0.46
   1  -6 -18    6.42    0.43
   1   6 -18    6.65    0.44
  -1   6  18    6.42    0.47
   1   6 -18    5.99    0.42
   0  -6  18   10.14    0.53
   0  -6 -18    9.30    0.49
   0  -6 -18    9.86    0.54
   0  -6  18   10.47    0.55
   0   6  18    9.63    0.49
   0   6 -18   10.55    0.55
   0   6 -18    9.59    0.50
   0   6  18    9.06    0.53
   1  -6  18    0.34    0.21
   1  -6  18    0.04    0.20
  -1  -6 -18   -0.31    0.15
   1  -6  18   -0.21    0.15
   1   6  18    0.35    0.19
  -1   6 -18   -0.28    0.19
   1   6  18    0.15    0.20
  -2  -6 -18   -0.18    0.19
   2  -6  18   -0.08    0.18
   2   6  18   -0.45    0.17
  -2   6 -18    0.05    0.22
   3  -6  18    0.85    0.27
  -3  -6 -18    1.27    0.29
  -3  -6 -18    1.16    0.30
  -3   6 -18    1.14    0.31
   3   6  18    1.48    0.31
   4  -6  18    0.47    0.27
  -4  -6 -18    0.65    0.29
   4  -6  18    1.12    0.31
  -4  -6 -18    0.10    0.23
  -4   6 -18    0.91    0.30
   4   6  18    0.73    0.28
   5  -7 -18   -0.02    0.19
  -5  -7  18    0.15    0.19
   5   7 -18    0.16    0.19
  -5   7  18    0.16    0.21
   4  -7 -18    0.19    0.20
  -4  -7  18   -0.29    0.18
   4   7 -18    0.14    0.19
  -4   7  18    0.37    0.28
  -4   7  18    0.05    0.20
   3  -7 -18    1.23    0.26
  -3  -7  18    1.40    0.29
   3   7 -18    1.68    0.29
  -3   7  18    1.18    0.27
  -2  -7  18    3.81    0.40
  -2  -7  18    3.87    0.36
   2  -7 -18    4.89    0.43
   2   7 -18    3.43    0.36
  -2   7  18    3.97    0.42
   1  -7 -18   -0.06    0.18
   1  -7 -18    0.24    0.21
  -1  -7  18    0.16    0.18
  -1  -7  18    0.43    0.20
  -1   7  18    0.40    0.23
   1   7 -18    0.28    0.19
   0  -7 -18   -0.01    0.16
   0  -7  18    0.09    0.18
   0  -7 -18   -0.01    0.20
   0   7  18   -0.02    0.17
   0   7  18   -0.14    0.19
   0   7 -18    0.14    0.17
   0   7 -18   -0.26    0.17
   1  -7  18    5.94    0.47
  -1  -7 -18    6.54    0.50
   1  -7  18    5.38    0.42
   1   7  18    5.30    0.44
  -1   7 -18    5.88    0.45
   1   7  18    5.39    0.44
  -2  -7 -18    2.96    0.38
   2  -7  18    3.49    0.40
  -2   7 -18    2.63    0.40
   2   7  18    2.90    0.38
  -3  -7 -18    1.85    0.35
   3  -7  18    1.26    0.31
   3   7  18    1.44    0.33
  -3   7 -18    1.90    0.36
  -4  -8  18    1.40    0.28
   4  -8 -18    1.32    0.28
   4   8 -18    1.44    0.28
  -4   8  18    1.68    0.32
  -3  -8  18    1.58    0.30
   3  -8 -18    1.89    0.32
  -3   8  18    1.54    0.31
   3   8 -18    1.28    0.28
  -2  -8  18    1.27    0.30
   2  -8 -18    1.19    0.26
  -2  -8  18    0.99    0.24
   2   8 -18    1.08    0.25
  -2   8  18    0.65    0.26
  -1  -8  18    1.43    0.28
   1  -8 -18    0.81    0.27
   1  -8 -18    0.93    0.25
  -1  -8  18    0.99    0.25
   1   8 -18    0.96    0.25
  -1   8  18    0.78    0.24
   0  -8 -18    0.41    0.24
   0  -8 -18    0.33    0.30
   0  -8  18    0.19    0.22
   0   8 -18   -0.05    0.18
   0   8 -18    0.29    0.20
   0   8  18    0.40    0.21
   0   8  18    0.36    0.35
  -1  -8 -18    0.51    0.24
   1  -8  18    0.82    0.24
   1  -8  18    0.44    0.24
   1   8  18    0.58    0.23
  -1   8 -18    0.26    0.25
   1   8  18    1.06    0.28
   2  -8  18    1.86    0.33
  -2  -8 -18    1.93    0.36
   2   8  18    1.33    0.30
  -2   8 -18    1.34    0.30
   3  -8  18    1.02    0.29
  -3  -8 -18    1.46    0.33
  -3   8 -18    1.46    0.34
   3   8  18    1.21    0.31
  -4  -9  18   -0.13    0.19
   4  -9 -18    0.20    0.22
   4   9 -18   -0.14    0.19
  -4   9  18    0.09    0.24
   3  -9 -18    0.52    0.25
  -3  -9  18    0.54    0.25
  -3   9  18    0.57    0.26
   3   9 -18    0.43    0.24
   2  -9 -18    1.61    0.31
  -2  -9  18    1.44    0.31
  -2   9  18    1.50    0.32
   2   9 -18    1.19    0.28
   1  -9 -18    0.20    0.20
  -1  -9  18    0.27    0.24
   1  -9 -18    0.42    0.24
   1   9 -18    0.38    0.22
  -1   9  18    0.87    0.28
   0  -9  18    0.92    0.27
   0  -9 -18    1.04    0.29
   0   9 -18    0.50    0.23
   0   9  18    0.52    0.25
   0   9 -18    1.20    0.29
  -1  -9 -18   -0.30    0.19
   1  -9  18    0.13    0.22
   1   9  18    0.13    0.21
  -1   9 -18   -0.07    0.22
   2  -9  18   -0.19    0.20
  -2  -9 -18   -0.12    0.23
  -2   9 -18    0.07    0.24
   2   9  18   -0.18    0.22
  -3  -9 -18    0.01    0.25
   3  -9  18    0.38    0.25
   3   9  18    0.31    0.26
  -3   9 -18    0.62    0.30
  -3 -10  18    1.96    0.35
   3 -10 -18    1.75    0.35
   3  10 -18    1.88    0.34
  -3  10  18    2.02    0.36
   2 -10 -18    0.66    0.25
  -2 -10  18    0.24    0.22
  -2  10  18    0.36    0.26
   2  10 -18   -0.12    0.19
  -1 -10  18    2.02    0.37
   1 -10 -18    1.63    0.29
  -1  10  18    2.91    0.40
   1  10 -18    2.27    0.34
   0 -10  18    1.81    0.36
   0 -10 -18    1.56    0.34
   0  10 -18    1.23    0.28
   0  10 -18    1.02    0.32
   0  10  18    1.76    0.32
  -1 -10 -18    0.58    0.28
   1 -10  18    0.54    0.28
   1  10  18    0.44    0.25
  -1  10 -18    0.71    0.28
   2 -10  18    0.15    0.23
  -2 -10 -18   -0.36    0.22
   2  10  18    0.03    0.24
  -2  10 -18   -0.03    0.25
   2 -11 -18    1.35    0.32
  -2 -11  18    2.44    0.39
   2  11 -18    2.62    0.39
  -2  11  18    1.32    0.34
  -1 -11  18    1.14    0.31
   1  11 -18    0.43    0.24
  -1  11  18    0.98    0.31
   0 -11 -18    0.59    0.28
   0 -11  18    0.26    0.27
   0  11  18    0.21    0.25
   1 -11  18    2.13    0.43
  -1 -11 -18    1.47    0.36
  -1  11 -18    1.42    0.36
  -1 -12  18    1.44    0.35
   1  12 -18    1.57    0.33
  -1  12  18    1.34    0.32
  -5   0  19    0.21    0.24
   5   0 -19   -0.04    0.17
  -5   0  19    0.06    0.17
  -4   0  19    0.10    0.21
  -4   0  19    0.10    0.18
   4   0 -19    0.14    0.17
  -3   0  19    0.03    0.17
  -3   0  19    0.06    0.17
   3   0 -19    0.01    0.14
  -2   0  19    0.10    0.17
  -2   0  19    0.03    0.14
   2   0 -19    0.14    0.16
   1   0 -19   -0.05    0.14
  -1   0  19   -0.04    0.12
  -1   0  19   -0.10    0.17
   1   0 -19    0.11    0.17
   0   0  19   -0.03    0.15
   0   0  19    0.23    0.18
   0   0 -19   -0.08    0.17
   0   0 -19   -0.05    0.15
   0   0  19    0.19    0.19
   1   0  19    0.07    0.19
   1   0  19    0.19    0.17
  -1   0 -19   -0.05    0.18
   1   0  19    0.01    0.16
  -1   0 -19   -0.07    0.14
  -1   0 -19    0.01    0.13
   2   0  19   -0.04    0.18
  -2   0 -19   -0.03    0.18
   2   0  19   -0.07    0.20
  -2   0 -19    0.10    0.17
   3   0  19   -0.17    0.19
   3   0  19   -0.08    0.20
  -3   0 -19    0.00    0.19
  -3   0 -19    0.29    0.22
  -4   0 -19   -0.04    0.21
   4   0  19    0.18    0.22
  -4   0 -19   -0.08    0.22
   4   0  19    0.13    0.22
   5  -1 -19    2.40    0.30
  -5  -1  19    2.28    0.29
   5   1 -19    1.81    0.27
  -5   1  19    2.39    0.39
  -5   1  19    1.98    0.29
  -4  -1  19    3.10    0.33
   4  -1 -19    2.23    0.29
   4   1 -19    2.19    0.28
  -4   1  19    2.40    0.30
  -4   1  19    2.45    0.35
   3  -1 -19    0.81    0.21
  -3  -1  19    0.55    0.20
  -3  -1  19    0.44    0.21
   3   1 -19    0.75    0.20
  -3   1  19    0.42    0.20
  -3   1  19    1.00    0.24
   2  -1 -19    0.04    0.16
  -2  -1  19   -0.05    0.15
  -2  -1  19    0.03    0.14
   2   1 -19    0.07    0.16
  -2   1  19   -0.04    0.16
  -2   1  19    0.16    0.16
  -1  -1  19    0.09    0.17
   1  -1 -19    0.16    0.16
   1  -1 -19    0.08    0.15
  -1  -1  19   -0.12    0.16
   1   1 -19    0.21    0.15
  -1   1  19    0.31    0.20
   1   1 -19   -0.01    0.15
  -1   1  19    0.24    0.14
   0  -1  19    4.03    0.38
   0  -1 -19    3.24    0.35
   0  -1  19    3.46    0.34
   0  -1  19    3.44    0.34
   0  -1 -19    3.13    0.31
   0   1  19    4.22    0.39
   0   1 -19    2.56    0.31
   0   1 -19    3.48    0.33
   0   1  19    3.31    0.31
   1  -1  19    2.45    0.29
  -1  -1 -19    3.17    0.27
  -1  -1 -19    2.63    0.34
   1  -1  19    3.75    0.36
   1  -1  19    3.64    0.39
  -1  -1 -19    3.32    0.49
   1   1  19    3.37    0.34
   1   1  19    3.07    0.36
  -1   1 -19    3.20    0.32
  -1   1 -19    2.32    0.33
   1   1  19    2.68    0.30
  -2  -1 -19    0.51    0.20
   2  -1  19    0.74    0.25
   2  -1  19    0.45    0.21
  -2  -1 -19    0.35    0.24
  -2   1 -19    0.74    0.21
  -2   1 -19    0.77    0.24
   2   1  19    0.13    0.21
   2   1  19    0.84    0.25
   3  -1  19    0.43    0.24
  -3  -1 -19    0.60    0.24
   3  -1  19    0.73    0.25
  -3  -1 -19    0.54    0.24
  -3   1 -19    0.69    0.26
  -3   1 -19    0.85    0.26
   3   1  19    1.17    0.28
   3   1  19    0.84    0.27
   4  -1  19    0.44    0.25
  -4  -1 -19    0.43    0.25
   4  -1  19    0.26    0.24
  -4  -1 -19    0.45    0.26
   4   1  19    0.82    0.28
  -4   1 -19    0.79    0.29
  -4   1 -19    0.73    0.26
   4   1  19    0.47    0.24
  -5  -2  19    0.22    0.18
   5  -2 -19    0.05    0.17
  -5   2  19    0.59    0.21
   5   2 -19    0.11    0.18
  -5   2  19    0.40    0.29
   4  -2 -19    1.25    0.24
  -4  -2  19    1.58    0.26
   4   2 -19    1.33    0.24
  -4   2  19    1.66    0.27
  -4   2  19    1.40    0.31
   3  -2 -19    0.88    0.20
  -3  -2  19    1.00    0.23
  -3   2  19    0.77    0.22
   3   2 -19    1.27    0.24
  -3   2  19    1.36    0.27
   2  -2 -19   13.14    0.55
  -2  -2  19   12.49    0.56
  -2   2  19   12.03    0.55
   2   2 -19   13.13    0.54
  -2   2  19   12.07    0.52
  -1  -2  19    4.20    0.35
  -1  -2  19    4.94    0.42
   1  -2 -19    3.54    0.34
   1  -2 -19    4.02    0.34
   1   2 -19    4.23    0.37
   1   2 -19    4.25    0.35
  -1   2  19    4.34    0.39
  -1   2  19    3.86    0.29
   0  -2 -19   -0.06    0.14
   0  -2 -19    0.17    0.18
   0  -2  19    0.05    0.19
   0  -2  19    0.10    0.16
   0  -2  19    0.17    0.20
   0   2 -19    0.31    0.18
   0   2  19   -0.01    0.15
   0   2  19    0.09    0.16
   0   2 -19    0.16    0.16
   1  -2  19    0.27    0.21
   1  -2  19    0.62    0.21
   1  -2  19    0.49    0.20
  -1  -2 -19    0.88    0.24
   1   2  19   -0.09    0.17
   1   2  19    0.42    0.19
  -1   2 -19    0.46    0.22
  -1   2 -19    0.64    0.19
  -2  -2 -19    6.43    0.41
   2  -2  19    6.31    0.46
  -2  -2 -19    5.86    0.47
   2  -2  19    6.20    0.47
  -2   2 -19    6.56    0.48
   2   2  19    6.78    0.47
   3  -2  19    7.99    0.53
  -3  -2 -19    6.85    0.50
   3  -2  19    6.19    0.51
  -3  -2 -19    7.37    0.52
   3   2  19    7.27    0.51
  -3   2 -19    8.13    0.53
  -3   2 -19    7.81    0.53
   4  -2  19    1.58    0.33
  -4  -2 -19    1.06    0.31
  -4  -2 -19    1.25    0.30
   4  -2  19    1.26    0.31
  -4   2 -19    1.54    0.35
  -4   2 -19    1.15    0.30
   4   2  19    1.73    0.33
   5  -3 -19    6.42    0.45
  -5  -3  19    6.80    0.44
  -5   3  19    5.98    0.57
   5   3 -19    6.05    0.43
  -5   3  19    7.28    0.47
  -4  -3  19    7.22    0.45
   4  -3 -19    8.09    0.47
  -4   3  19    8.08    0.49
   4   3 -19    8.15    0.46
  -4   3  19    8.14    0.55
   3  -3 -19    3.62    0.35
  -3  -3  19    2.82    0.32
  -3   3  19    3.37    0.36
  -3   3  19    3.11    0.36
   3   3 -19    3.17    0.33
  -2  -3  19    2.85    0.33
   2  -3 -19    2.42    0.30
  -2  -3  19    2.50    0.28
  -2   3  19    2.50    0.30
   2   3 -19    2.53    0.29
  -2   3  19    3.03    0.32
  -1  -3  19    0.16    0.17
  -1  -3  19    0.10    0.19
   1  -3 -19    0.01    0.17
   1  -3 -19   -0.03    0.15
   1   3 -19    0.15    0.16
  -1   3  19   -0.04    0.18
   1   3 -19    0.14    0.17
   0  -3  19    0.17    0.19
   0  -3 -19   -0.13    0.15
   0  -3 -19    0.23    0.19
   0  -3  19    0.14    0.16
   0  -3  19    0.01    0.18
   0   3 -19    0.09    0.18
   0   3  19    0.00    0.18
   0   3 -19   -0.13    0.15
   0   3  19   -0.02    0.15
   1  -3  19   13.91    0.62
   1  -3  19   13.14    0.62
   1  -3  19   14.72    0.60
  -1  -3 -19   15.27    0.65
   1   3  19   13.54    0.58
  -1   3 -19   14.26    0.68
   1   3  19   13.39    0.60
  -1   3 -19   14.52    0.64
   2  -3  19    4.81    0.43
  -2  -3 -19    5.16    0.37
   2  -3  19    4.37    0.43
  -2  -3 -19    5.43    0.45
   2   3  19    4.65    0.43
  -2   3 -19    5.63    0.48
   3  -3  19    6.01    0.49
  -3  -3 -19    5.06    0.43
  -3  -3 -19    5.09    0.46
   3  -3  19    4.32    0.44
   3   3  19    5.60    0.48
  -3   3 -19    5.10    0.47
  -4  -3 -19    0.01    0.22
   4  -3  19    0.07    0.23
   4  -3  19    0.05    0.22
  -4  -3 -19    0.04    0.24
   4   3  19   -0.07    0.23
  -4   3 -19    0.32    0.25
  -4   3 -19    0.24    0.26
  -5  -4  19    1.80    0.28
   5  -4 -19    2.15    0.30
   5   4 -19    2.63    0.32
  -5   4  19    2.49    0.32
   4  -4 -19    0.05    0.18
  -4  -4  19    0.25    0.19
  -4   4  19   -0.01    0.19
  -4   4  19    0.57    0.26
   4   4 -19    0.26    0.18
  -3  -4  19    0.78    0.22
   3  -4 -19    1.16    0.25
  -3   4  19    1.20    0.27
   3   4 -19    0.76    0.21
  -3   4  19    1.02    0.27
  -2  -4  19    7.49    0.46
  -2  -4  19    6.90    0.41
   2  -4 -19    6.77    0.44
   2   4 -19    7.21    0.44
  -2   4  19    7.86    0.48
  -1  -4  19    0.49    0.21
   1  -4 -19    0.52    0.20
   1  -4 -19    0.51    0.18
  -1  -4  19    0.29    0.19
  -1   4  19    0.63    0.21
   1   4 -19    0.13    0.18
   1   4 -19    0.39    0.18
   0  -4 -19    0.16    0.18
   0  -4 -19    0.25    0.16
   0  -4  19    0.40    0.19
   0  -4  19    0.11    0.20
   0  -4  19    0.29    0.20
   0   4 -19    0.27    0.17
   0   4 -19    0.02    0.19
   0   4  19    0.23    0.21
   0   4  19    0.15    0.17
   1  -4  19    1.97    0.32
  -1  -4 -19    1.30    0.28
   1  -4  19    1.33    0.24
   1  -4  19    2.32    0.32
   1   4  19    2.15    0.30
  -1   4 -19    2.35    0.33
   1   4  19    1.91    0.29
   2  -4  19    4.55    0.42
   2  -4  19    5.63    0.48
  -2  -4 -19    5.32    0.43
  -2  -4 -19    5.86    0.39
   2   4  19    5.42    0.46
  -2   4 -19    5.34    0.48
   3  -4  19    8.14    0.55
  -3  -4 -19    7.04    0.53
  -3  -4 -19    7.69    0.52
   3  -4  19    8.10    0.56
   3   4  19    8.52    0.56
  -3   4 -19    7.33    0.54
  -4  -4 -19    0.77    0.28
   4  -4  19    0.68    0.28
  -4  -4 -19    0.98    0.29
   4  -4  19    0.28    0.25
  -4   4 -19    0.37    0.28
  -4   4 -19    0.66    0.29
   4   4  19    0.61    0.28
  -5  -5  19    3.34    0.36
   5  -5 -19    3.56    0.37
   5   5 -19    3.14    0.35
  -5   5  19    3.73    0.38
  -4  -5  19    3.49    0.36
   4  -5 -19    3.93    0.38
  -4   5  19    3.32    0.43
   4   5 -19    3.68    0.37
  -4   5  19    4.27    0.42
  -3  -5  19    0.28    0.20
   3  -5 -19    0.28    0.20
  -3   5  19    0.40    0.22
  -3   5  19    0.69    0.25
   3   5 -19    0.31    0.20
  -2  -5  19    0.51    0.20
  -2  -5  19    0.70    0.23
   2  -5 -19    0.55    0.21
   2   5 -19    0.63    0.21
  -2   5  19    0.20    0.22
  -1  -5  19    1.37    0.26
   1  -5 -19    0.91    0.23
  -1  -5  19    0.89    0.26
   1  -5 -19    0.91    0.22
  -1   5  19    1.62    0.30
   1   5 -19    1.56    0.27
   1   5 -19    1.47    0.27
   0  -5 -19   12.58    0.60
   0  -5  19   13.74    0.63
   0  -5  19   13.51    0.61
   0  -5 -19   13.59    0.58
   0   5 -19   14.09    0.62
   0   5 -19   13.25    0.58
   0   5  19   13.17    0.58
   0   5  19   12.80    0.61
  -1  -5 -19    5.16    0.42
   1  -5  19    5.61    0.42
   1  -5  19    5.67    0.47
   1  -5  19    5.76    0.45
   1   5  19    5.61    0.43
  -1   5 -19    5.46    0.44
   1   5  19    5.47    0.42
  -2  -5 -19    4.06    0.44
   2  -5  19    4.20    0.43
   2  -5  19    4.56    0.44
   2   5  19    3.75    0.38
  -2   5 -19    4.57    0.44
   3  -5  19    3.83    0.44
   3  -5  19    4.91    0.47
  -3  -5 -19    5.20    0.45
  -3  -5 -19    5.29    0.50
   3   5  19    5.51    0.48
  -3   5 -19    5.66    0.51
   4  -5  19    1.37    0.31
  -4  -5 -19    0.96    0.30
  -4  -5 -19    1.02    0.30
   4  -5  19    0.77    0.29
  -4   5 -19    1.31    0.33
   4   5  19    0.48    0.28
  -5  -6  19   -0.08    0.18
   5  -6 -19    0.12    0.21
   5   6 -19   -0.17    0.17
  -5   6  19    0.15    0.21
  -4  -6  19    1.12    0.26
   4  -6 -19    1.46    0.29
  -4   6  19    1.07    0.27
  -4   6  19    1.18    0.32
   4   6 -19    1.47    0.28
  -3  -6  19    0.57    0.24
   3  -6 -19    0.33    0.19
   3   6 -19    0.91    0.25
  -3   6  19    0.39    0.22
  -2  -6  19    0.49    0.20
  -2  -6  19    0.33    0.20
   2  -6 -19    0.56    0.22
   2   6 -19    0.57    0.20
  -2   6  19    0.33    0.22
  -1  -6  19    0.47    0.23
   1  -6 -19    0.44    0.20
  -1  -6  19    0.02    0.19
   1  -6 -19    0.34    0.22
   1   6 -19    0.00    0.17
  -1   6  19    0.14    0.21
   0  -6 -19   11.60    0.60
   0  -6 -19   10.10    0.52
   0  -6  19   10.21    0.58
   0  -6  19    9.93    0.56
   0   6 -19   11.33    0.58
   0   6  19    9.77    0.56
   0   6  19   10.23    0.53
   0   6 -19    9.37    0.51
   1  -6  19    1.62    0.28
   1  -6  19    1.83    0.32
   1  -6  19    1.05    0.29
  -1  -6 -19    1.78    0.32
   1   6  19    1.51    0.30
   1   6  19    1.75    0.31
  -1   6 -19    1.59    0.31
  -2  -6 -19   -0.07    0.22
   2  -6  19    0.00    0.22
   2  -6  19    0.01    0.19
  -2   6 -19   -0.39    0.21
   2   6  19   -0.23    0.20
   3  -6  19   -0.08    0.21
   3  -6  19   -0.13    0.22
  -3  -6 -19    0.04    0.22
   3   6  19    0.06    0.22
  -3   6 -19   -0.08    0.22
  -4  -7  19    0.65    0.24
   4  -7 -19    0.58    0.23
  -4   7  19    0.46    0.25
  -4   7  19    0.63    0.29
   4   7 -19    0.72    0.24
  -3  -7  19    0.38    0.21
   3  -7 -19    0.04    0.20
   3   7 -19   -0.16    0.17
  -3   7  19    0.05    0.20
   2  -7 -19    0.84    0.26
  -2  -7  19    0.17    0.19
  -2  -7  19    0.40    0.22
   2   7 -19    0.44    0.21
  -2   7  19    0.35    0.23
  -1  -7  19    1.59    0.29
   1  -7 -19    1.59    0.30
   1  -7 -19    1.42    0.27
  -1  -7  19    1.73    0.29
  -1   7  19    1.53    0.32
   1   7 -19    1.46    0.27
   0  -7  19    1.03    0.27
   0  -7  19    1.21    0.27
   0  -7 -19    1.39    0.27
   0  -7 -19    1.25    0.28
   0   7 -19    1.07    0.25
   0   7 -19    1.15    0.28
   0   7  19    1.61    0.31
   1  -7  19    0.54    0.22
  -1  -7 -19    0.31    0.24
   1  -7  19    0.62    0.27
  -1   7 -19    0.51    0.24
   1   7  19    0.69    0.25
   1   7  19    0.25    0.21
  -2  -7 -19   -0.09    0.22
   2  -7  19    0.56    0.24
  -2   7 -19    0.12    0.25
   2   7  19    0.04    0.22
   3  -7  19   -0.19    0.21
  -3  -7 -19    0.17    0.24
  -3   7 -19    0.28    0.26
   3   7  19    0.28    0.24
  -4  -8  19   -0.22    0.18
   4  -8 -19    0.07    0.21
   4   8 -19   -0.12    0.20
  -4   8  19    0.03    0.22
   3  -8 -19    0.85    0.26
  -3  -8  19    1.03    0.27
  -3   8  19    0.83    0.27
   3   8 -19    0.87    0.27
  -2  -8  19    5.09    0.48
  -2  -8  19    6.58    0.48
   2  -8 -19    6.66    0.49
  -2   8  19    6.22    0.50
   2   8 -19    6.48    0.48
   1  -8 -19    0.49    0.24
  -1  -8  19    0.80    0.25
   1  -8 -19    0.43    0.22
  -1  -8  19    0.93    0.28
  -1   8  19    0.82    0.25
   1   8 -19    0.52    0.21
   0  -8 -19    4.43    0.45
   0  -8  19    3.64    0.42
   0  -8  19    4.37    0.45
   0   8  19    4.16    0.43
   0   8 -19    4.43    0.42
   0   8 -19    4.11    0.42
   1  -8  19    0.05    0.23
  -1  -8 -19    0.52    0.27
  -1   8 -19    0.06    0.25
   1   8  19    0.59    0.25
   2  -8  19    4.01    0.44
  -2  -8 -19    4.15    0.45
  -2   8 -19    3.96    0.44
   2   8  19    4.70    0.49
   3  -8  19    0.96    0.30
  -3  -8 -19    1.74    0.36
  -3   8 -19    0.51    0.28
   3   8  19    0.96    0.31
  -3  -9  19    0.63    0.26
   3  -9 -19    0.58    0.25
   3   9 -19    0.64    0.24
  -3   9  19    0.47    0.25
  -2  -9  19    2.85    0.39
   2  -9 -19    2.90    0.39
   2   9 -19    2.72    0.36
  -2   9  19    3.21    0.42
  -1  -9  19   -0.10    0.20
   1  -9 -19    0.03    0.20
  -1  -9  19    0.28    0.22
   1   9 -19    0.03    0.18
  -1   9  19    0.27    0.24
   0  -9  19    4.21    0.45
   0  -9 -19    5.08    0.50
   0   9 -19    4.73    0.43
   0   9  19    4.23    0.44
   0   9 -19    4.98    0.48
  -1  -9 -19    1.04    0.31
   1  -9  19    1.01    0.31
  -1   9 -19    1.39    0.33
   1   9  19    0.84    0.27
   2  -9  19    0.17    0.22
  -2  -9 -19    0.13    0.24
   2   9  19    0.19    0.25
  -2   9 -19    0.68    0.30
   3 -10 -19    0.46    0.25
  -3 -10  19    0.88    0.29
  -3  10  19   -0.10    0.24
   3  10 -19    0.37    0.24
   2 -10 -19    1.65    0.34
  -2 -10  19    1.43    0.33
  -2  10  19    1.84    0.35
   2  10 -19    1.38    0.30
   1 -10 -19   -0.08    0.21
  -1 -10  19    0.29    0.26
  -1 -10  19    0.27    0.22
   1  10 -19   -0.05    0.20
  -1  10  19   -0.18    0.22
   0 -10  19    0.89    0.31
   0 -10 -19    0.17    0.23
   0  10  19    1.35    0.32
  -1 -10 -19    0.54    0.28
   1 -10  19    0.77    0.30
  -1  10 -19    0.52    0.28
  -2 -11  19    0.19    0.26
   2 -11 -19    0.38    0.25
   2  11 -19    0.05    0.23
  -2  11  19    0.00    0.25
  -1 -11  19   -0.03    0.24
   1  11 -19    0.19    0.21
  -1  11  19    0.05    0.25
   0 -11 -19   -0.13    0.23
   0 -11  19    0.01    0.25
   0  11  19    0.12    0.25
   5   0 -20    0.06    0.17
  -5   0  20    0.29    0.19
  -4   0  20    1.61    0.27
   4   0 -20    1.32    0.24
  -4   0  20    1.37    0.30
  -3   0  20    3.78    0.37
   3   0 -20    2.88    0.31
  -3   0  20    2.96    0.35
  -2   0  20   19.36    0.64
   2   0 -20   18.33    0.66
  -2   0  20   20.07    0.72
  -1   0  20    1.78    0.28
   1   0 -20    1.74    0.28
   1   0 -20    1.83    0.26
   0   0  20    0.36    0.22
   0   0 -20    0.12    0.17
   0   0 -20    0.09    0.16
   0   0  20    0.31    0.18
   0   0  20    0.55    0.23
   1   0  20    0.15    0.17
   1   0  20    0.21    0.21
  -1   0 -20   -0.12    0.19
   1   0  20    0.25    0.19
  -1   0 -20    0.06    0.21
   2   0  20    5.06    0.46
  -2   0 -20    4.63    0.38
  -2   0 -20    4.70    0.44
   2   0  20    5.05    0.45
   3   0  20    5.68    0.50
  -3   0 -20    6.27    0.54
  -3   0 -20    5.27    0.48
   3   0  20    5.88    0.50
  -4   0 -20    6.31    0.55
  -4   0 -20    5.49    0.53
   4   0  20    5.16    0.52
   4   0  20    5.97    0.53
   5  -1 -20    4.86    0.42
  -5  -1  20    5.17    0.41
  -5   1  20    5.42    0.54
  -5   1  20    4.94    0.41
   5   1 -20    4.95    0.41
   4  -1 -20    9.78    0.52
  -4  -1  20    9.96    0.52
  -4   1  20   10.07    0.52
  -4   1  20    8.31    0.56
   4   1 -20    8.88    0.49
  -3  -1  20   -0.07    0.17
   3  -1 -20    0.05    0.16
   3   1 -20   -0.03    0.16
  -3   1  20    0.02    0.18
  -3   1  20   -0.07    0.17
   2  -1 -20    0.87    0.20
  -2  -1  20    1.11    0.24
  -2   1  20    1.75    0.26
   2   1 -20    1.45    0.25
  -2   1  20    1.27    0.27
   1  -1 -20    2.15    0.29
   1  -1 -20    2.01    0.26
  -1  -1  20    1.91    0.30
  -1  -1  20    1.98    0.29
  -1   1  20    2.20    0.32
   1   1 -20    1.87    0.26
   1   1 -20    2.19    0.30
  -1   1  20    2.13    0.24
   0  -1 -20   10.65    0.55
   0  -1 -20   11.42    0.51
   0  -1  20   10.46    0.53
   0  -1  20   10.26    0.53
   0  -1  20   10.42    0.50
   0   1  20    9.38    0.48
   0   1 -20    9.98    0.49
   0   1  20   11.88    0.57
   0   1 -20   10.42    0.52
   1  -1  20    0.49    0.21
   1  -1  20    0.13    0.20
  -1  -1 -20    0.35    0.23
   1  -1  20    0.51    0.21
   1   1  20    0.49    0.23
  -1   1 -20    0.87    0.19
   1   1  20    0.41    0.20
  -1   1 -20    0.52    0.23
   1   1  20    0.96    0.25
   2  -1  20    1.23    0.27
  -2  -1 -20    1.52    0.25
   2  -1  20    0.77    0.24
  -2  -1 -20    1.20    0.28
   2   1  20    1.16    0.27
  -2   1 -20    1.49    0.30
  -2   1 -20    1.29    0.25
   2   1  20    0.58    0.25
   3  -1  20    1.15    0.29
   3  -1  20    0.85    0.27
  -3  -1 -20    0.79    0.27
  -3  -1 -20    0.85    0.29
   3   1  20    0.94    0.27
   3   1  20    1.58    0.31
  -3   1 -20    1.21    0.31
  -3   1 -20    1.02    0.28
  -4  -1 -20   -0.20    0.22
   4  -1  20    0.18    0.25
   4  -1  20   -0.04    0.23
  -4  -1 -20    0.00    0.24
  -4   1 -20   -0.14    0.21
   4   1  20   -0.16    0.23
  -4   1 -20   -0.11    0.23
   4   1  20   -0.12    0.23
  -5  -2  20    0.05    0.18
   5  -2 -20    0.08    0.18
  -5   2  20    0.02    0.25
   5   2 -20    0.07    0.18
  -5   2  20    0.08    0.19
   4  -2 -20    1.18    0.26
  -4  -2  20    1.30    0.27
  -4   2  20    1.89    0.29
   4   2 -20    1.46    0.26
  -4   2  20    1.42    0.32
   3  -2 -20    0.51    0.20
  -3  -2  20    0.33    0.21
  -3   2  20    0.17    0.19
  -3   2  20    0.58    0.22
   3   2 -20    0.33    0.18
  -2  -2  20    0.72    0.23
   2  -2 -20    0.76    0.22
  -2   2  20    0.89    0.22
   2   2 -20    0.40    0.19
  -2   2  20    0.87    0.23
  -1  -2  20    0.65    0.20
   1  -2 -20    0.53    0.20
  -1  -2  20    0.45    0.21
   1  -2 -20    0.28    0.18
  -1   2  20    0.52    0.17
   1   2 -20    0.61    0.19
  -1   2  20    0.32    0.22
   1   2 -20    0.18    0.19
   0  -2 -20    0.34    0.19
   0  -2  20    0.17    0.18
   0  -2  20    0.43    0.18
   0  -2  20    0.23    0.19
   0  -2 -20    0.35    0.17
   0   2  20    0.26    0.21
   0   2  20    0.20    0.18
   0   2 -20    0.44    0.21
   0   2 -20    0.27    0.17
  -1  -2 -20    0.05    0.17
   1  -2  20   -0.24    0.15
   1  -2  20   -0.08    0.19
   1  -2  20   -0.09    0.15
  -1   2 -20   -0.23    0.15
   1   2  20   -0.05    0.19
   1   2  20   -0.23    0.16
   2  -2  20    1.72    0.31
  -2  -2 -20    1.41    0.25
   2  -2  20    0.92    0.26
  -2  -2 -20    1.35    0.29
  -2   2 -20    1.48    0.28
   2   2  20    1.44    0.28
  -2   2 -20    1.19    0.28
  -3  -2 -20    2.03    0.32
  -3  -2 -20    1.25    0.30
   3  -2  20    2.20    0.37
   3  -2  20    2.03    0.34
  -3   2 -20    1.70    0.32
  -3   2 -20    2.25    0.36
   3   2  20    1.61    0.32
  -4  -2 -20    1.84    0.35
  -4  -2 -20    2.07    0.37
   4  -2  20    1.93    0.37
   4  -2  20    1.87    0.36
  -4   2 -20    2.41    0.39
   4   2  20    1.99    0.36
  -4   2 -20    2.41    0.40
   5  -3 -20    0.10    0.20
  -5  -3  20    0.01    0.18
  -5   3  20    0.13    0.20
   5   3 -20   -0.03    0.18
  -4  -3  20    0.32    0.20
   4  -3 -20    0.47    0.21
  -4   3  20    0.35    0.21
   4   3 -20    0.38    0.20
  -4   3  20    0.70    0.27
  -3  -3  20    1.44    0.26
   3  -3 -20    2.24    0.30
   3   3 -20    1.60    0.27
  -3   3  20    2.13    0.31
  -3   3  20    1.84    0.31
  -2  -3  20    1.08    0.23
  -2  -3  20    0.98    0.24
   2  -3 -20    1.07    0.24
   2   3 -20    0.69    0.21
  -2   3  20    1.18    0.26
  -2   3  20    0.78    0.22
   1  -3 -20    1.44    0.26
   1  -3 -20    1.14    0.25
  -1  -3  20    1.26    0.24
  -1  -3  20    1.13    0.26
   1   3 -20    1.13    0.24
   1   3 -20    0.85    0.22
  -1   3  20    1.14    0.25
  -1   3  20    1.06    0.21
   0  -3 -20    0.27    0.18
   0  -3 -20    0.28    0.19
   0  -3  20   -0.17    0.16
   0  -3  20    0.02    0.18
   0  -3  20   -0.02    0.20
   0   3  20    0.11    0.20
   0   3 -20    0.02    0.17
   0   3  20   -0.05    0.16
   0   3 -20    0.34    0.19
  -1  -3 -20   -0.20    0.18
   1  -3  20    0.28    0.21
   1  -3  20   -0.01    0.15
   1  -3  20   -0.16    0.19
   1   3  20    0.26    0.21
  -1   3 -20   -0.16    0.17
   1   3  20    0.18    0.18
   2  -3  20   -0.03    0.22
  -2  -3 -20   -0.16    0.20
   2  -3  20    0.09    0.20
   2   3  20   -0.12    0.18
  -2   3 -20   -0.18    0.21
  -3  -3 -20    1.44    0.29
   3  -3  20    1.12    0.30
   3  -3  20    1.52    0.31
  -3  -3 -20    1.15    0.31
  -3   3 -20    1.38    0.31
  -3   3 -20    0.91    0.28
   3   3  20    0.89    0.27
   4  -3  20   -0.06    0.22
  -4  -3 -20    0.35    0.26
   4  -3  20   -0.20    0.23
  -4  -3 -20    0.23    0.24
  -4   3 -20   -0.21    0.21
  -4   3 -20   -0.01    0.24
   4   3  20    0.32    0.25
   5  -4 -20   -0.06    0.19
  -5  -4  20    0.13    0.19
   5   4 -20    0.14    0.20
  -5   4  20    0.07    0.19
   4  -4 -20    0.27    0.20
  -4  -4  20    0.21    0.20
   4   4 -20    0.11    0.19
  -4   4  20    0.29    0.24
  -4   4  20   -0.05    0.19
   3  -4 -20    3.07    0.34
  -3  -4  20    2.53    0.34
  -3   4  20    3.07    0.37
   3   4 -20    3.06    0.35
  -3   4  20    3.15    0.39
  -2  -4  20    5.04    0.38
  -2  -4  20    5.00    0.42
   2  -4 -20    5.25    0.41
   2   4 -20    5.16    0.42
  -2   4  20    5.03    0.40
  -2   4  20    4.63    0.43
  -1  -4  20    1.56    0.30
   1  -4 -20    1.34    0.25
  -1  -4  20    1.56    0.27
   1  -4 -20    1.81    0.30
   1   4 -20    1.07    0.24
  -1   4  20    1.39    0.29
   1   4 -20    1.65    0.28
   0  -4  20    2.80    0.37
   0  -4  20    2.66    0.35
   0  -4 -20    2.43    0.35
   0  -4 -20    2.15    0.30
   0   4  20    2.22    0.34
   0   4 -20    2.50    0.31
   0   4 -20    1.57    0.30
   0   4  20    2.26    0.31
   1  -4  20   -0.21    0.16
   1  -4  20    0.31    0.20
  -1  -4 -20    0.02    0.18
   1  -4  20    0.01    0.20
  -1   4 -20   -0.09    0.18
   1   4  20   -0.07    0.18
   1   4  20   -0.26    0.16
   2  -4  20   -0.12    0.21
   2  -4  20   -0.24    0.19
  -2  -4 -20   -0.14    0.18
  -2   4 -20   -0.20    0.21
   2   4  20    0.02    0.20
  -3  -4 -20    1.28    0.31
  -3  -4 -20    1.37    0.30
   3  -4  20    1.16    0.31
   3  -4  20    1.36    0.32
  -3   4 -20    0.58    0.28
   3   4  20    1.09    0.29
   5  -5 -20    1.41    0.28
  -5  -5  20    0.94    0.25
   5   5 -20    1.21    0.26
  -5   5  20    1.19    0.27
  -4  -5  20    2.33    0.33
   4  -5 -20    2.13    0.32
  -4   5  20    2.39    0.39
   4   5 -20    2.43    0.33
  -4   5  20    2.73    0.35
   3  -5 -20   -0.02    0.18
  -3  -5  20   -0.28    0.16
   3   5 -20   -0.09    0.18
  -3   5  20    0.22    0.24
  -3   5  20   -0.21    0.19
  -2  -5  20    2.19    0.32
   2  -5 -20    2.38    0.33
  -2  -5  20    1.70    0.26
  -2   5  20    1.99    0.33
   2   5 -20    1.39    0.27
   1  -5 -20    3.74    0.38
  -1  -5  20    4.39    0.41
  -1  -5  20    4.31    0.40
   1  -5 -20    4.21    0.40
   1   5 -20    4.10    0.38
  -1   5  20    4.41    0.43
   0  -5  20    0.12    0.21
   0  -5 -20    0.36    0.19
   0  -5 -20    0.55    0.22
   0  -5  20    0.07    0.22
   0   5 -20   -0.01    0.17
   0   5  20    0.27    0.19
   0   5  20    0.22    0.21
   0   5 -20    0.12    0.20
   1  -5  20    3.31    0.40
  -1  -5 -20    4.14    0.44
   1  -5  20    2.92    0.37
   1  -5  20    3.37    0.37
   1   5  20    2.49    0.33
   1   5  20    3.53    0.38
  -1   5 -20    3.67    0.42
  -2  -5 -20    2.22    0.37
   2  -5  20    1.42    0.32
   2  -5  20    1.11    0.29
  -2   5 -20    1.88    0.35
   2   5  20    1.47    0.30
  -3  -5 -20   -0.11    0.21
   3  -5  20    0.41    0.26
   3  -5  20   -0.15    0.20
  -3   5 -20    0.26    0.25
   3   5  20    0.13    0.24
   4  -6 -20    0.11    0.19
  -4  -6  20   -0.30    0.16
   4   6 -20    0.40    0.22
  -4   6  20    0.29    0.27
  -4   6  20    0.18    0.22
  -3  -6  20    0.24    0.21
   3  -6 -20    0.41    0.22
  -3   6  20    0.17    0.22
   3   6 -20    0.26    0.21
  -3   6  20    0.50    0.26
  -2  -6  20    6.27    0.44
  -2  -6  20    6.08    0.48
   2  -6 -20    7.46    0.49
   2   6 -20    6.16    0.46
  -2   6  20    6.42    0.49
  -1  -6  20    5.40    0.44
   1  -6 -20    5.60    0.47
  -1  -6  20    5.10    0.47
   1  -6 -20    5.21    0.44
   1   6 -20    5.35    0.43
  -1   6  20    4.78    0.46
   0  -6 -20    0.15    0.18
   0  -6  20   -0.17    0.18
   0  -6  20    0.14    0.21
   0  -6 -20    0.57    0.24
   0   6 -20   -0.26    0.18
   0   6 -20    0.11    0.19
   0   6  20    0.06    0.20
   1  -6  20    2.68    0.37
   1  -6  20    2.40    0.36
  -1  -6 -20    2.04    0.33
   1  -6  20    2.98    0.35
  -1   6 -20    2.58    0.39
   1   6  20    2.18    0.33
   1   6  20    2.27    0.36
   2  -6  20    8.45    0.59
   2  -6  20    7.91    0.54
  -2  -6 -20    7.13    0.55
   2   6  20    8.14    0.56
  -2   6 -20    8.31    0.59
   3  -6  20    3.52    0.45
   3  -6  20    3.48    0.42
  -3  -6 -20    3.38    0.43
   3   6  20    3.33    0.41
  -3   6 -20    3.52    0.46
  -4  -7  20    3.29    0.38
   4  -7 -20    3.59    0.39
  -4   7  20    3.78    0.42
   4   7 -20    3.33    0.39
   3  -7 -20    0.05    0.21
  -3  -7  20    0.18    0.21
  -3   7  20    0.21    0.21
   3   7 -20    0.27    0.22
   2  -7 -20    0.59    0.23
  -2  -7  20    0.84    0.24
  -2  -7  20    1.12    0.26
   2   7 -20    0.54    0.23
  -2   7  20    0.56    0.25
   1  -7 -20    5.26    0.44
  -1  -7  20    5.45    0.45
   1  -7 -20    4.74    0.45
  -1  -7  20    4.98    0.47
   1   7 -20    5.47    0.45
  -1   7  20    4.62    0.45
   0  -7 -20   -0.12    0.21
   0  -7  20    0.08    0.21
   0  -7  20   -0.14    0.21
   0   7  20   -0.23    0.18
   0   7 -20   -0.08    0.16
   0   7 -20   -0.11    0.21
   1  -7  20    0.43    0.26
   1  -7  20    0.15    0.23
  -1  -7 -20    0.17    0.23
  -1   7 -20    0.54    0.28
   1   7  20    0.34    0.23
   2  -7  20    0.46    0.24
   2  -7  20    0.46    0.27
  -2  -7 -20    0.01    0.24
  -2   7 -20    0.62    0.28
   2   7  20    0.38    0.24
  -3  -7 -20    0.20    0.26
   3  -7  20    0.16    0.25
   3  -7  20    0.05    0.25
  -3   7 -20   -0.08    0.24
   3   7  20    0.55    0.27
   4  -8 -20    0.71    0.27
  -4  -8  20    0.69    0.26
  -4   8  20    0.72    0.27
   3  -8 -20    0.42    0.24
  -3  -8  20    0.64    0.25
  -3   8  20    0.22    0.25
   3   8 -20    0.21    0.22
  -2  -8  20    4.13    0.44
   2  -8 -20    4.06    0.44
  -2   8  20    4.91    0.47
   2   8 -20    4.87    0.46
   1  -8 -20    0.16    0.21
  -1  -8  20    0.08    0.23
  -1  -8  20    0.04    0.20
  -1   8  20   -0.04    0.21
   1   8 -20    0.04    0.18
   0  -8  20    1.74    0.34
   0  -8  20    1.68    0.33
   0  -8 -20    1.59    0.34
   0   8 -20    1.19    0.28
   0   8 -20    1.29    0.30
   0   8  20    1.08    0.28
  -1  -8 -20    0.47    0.26
   1  -8  20    0.07    0.25
   1  -8  20    0.49    0.26
  -1   8 -20    0.52    0.28
   1   8  20    0.42    0.23
  -2  -8 -20    0.20    0.26
   2  -8  20    0.70    0.26
   2   8  20    0.35    0.26
  -2   8 -20    0.58    0.30
  -3  -9  20    0.16    0.24
   3  -9 -20    0.45    0.26
  -3   9  20    0.23    0.24
   3   9 -20    0.05    0.23
   2  -9 -20    0.88    0.28
  -2  -9  20    0.81    0.28
  -2   9  20    1.07    0.29
   2   9 -20    1.42    0.31
  -1  -9  20    0.18    0.24
   1  -9 -20    0.19    0.22
  -1  -9  20   -0.10    0.20
  -1   9  20    0.23    0.25
   1   9 -20    0.21    0.21
   0  -9  20    0.08    0.21
   0  -9 -20   -0.03    0.23
   0  -9  20    0.15    0.23
   0   9  20    0.29    0.24
  -1  -9 -20    0.66    0.30
   1  -9  20    0.85    0.32
  -1   9 -20    1.15    0.33
   1   9  20    0.70    0.35
  -2  -9 -20    0.06    0.25
  -2   9 -20   -0.33    0.24
   2   9  20   -0.26    0.22
  -2 -10  20    2.26    0.39
   2 -10 -20    1.67    0.33
  -2  10  20    1.55    0.36
   2  10 -20    1.35    0.30
  -1 -10  20    3.07    0.40
  -1 -10  20    2.72    0.42
   1  10 -20    3.49    0.41
  -1  10  20    3.68    0.45
   0 -10  20    0.38    0.29
   0 -10 -20    0.67    0.30
   0  10  20    0.83    0.30
  -1 -10 -20    1.91    0.39
  -1  10 -20    2.41    0.41
  -5   0  21    0.08    0.19
   5   0 -21    0.00    0.19
  -4   0  21   -0.08    0.18
  -4   0  21   -0.13    0.21
   4   0 -21   -0.14    0.16
  -3   0  21   -0.13    0.17
   3   0 -21   -0.02    0.17
  -3   0  21   -0.05    0.18
  -2   0  21   -0.05    0.15
  -2   0  21   -0.05    0.19
   2   0 -21   -0.05    0.16
   1   0 -21   -0.10    0.17
  -1   0  21   -0.03    0.19
   1   0 -21    0.00    0.17
   0   0 -21    0.12    0.21
   0   0  21   -0.04    0.18
   0   0  21    0.16    0.17
   0   0  21   -0.18    0.18
   0   0 -21    0.15    0.17
  -1   0 -21    0.02    0.18
   1   0  21    0.25    0.21
   1   0  21    0.34    0.22
   1   0  21   -0.12    0.17
   2   0  21   -0.39    0.18
  -2   0 -21   -0.01    0.17
  -2   0 -21   -0.19    0.21
   2   0  21    0.11    0.23
   3   0  21   -0.24    0.20
  -3   0 -21   -0.02    0.22
  -3   0 -21   -0.26    0.21
   3   0  21    0.11    0.23
   5  -1 -21    0.53    0.22
  -5  -1  21    0.20    0.20
   5   1 -21    0.43    0.22
  -5   1  21    0.74    0.23
  -4  -1  21    0.08    0.18
   4  -1 -21   -0.06    0.17
  -4   1  21   -0.14    0.21
  -4   1  21    0.01    0.19
   4   1 -21    0.05    0.18
  -3  -1  21    0.01    0.18
   3  -1 -21   -0.08    0.16
  -3   1  21    0.11    0.19
   3   1 -21    0.40    0.19
  -3   1  21    0.13    0.19
   2  -1 -21    1.95    0.29
  -2  -1  21    1.77    0.29
  -2   1  21    1.98    0.32
   2   1 -21    1.86    0.29
  -2   1  21    2.66    0.30
   1  -1 -21    1.53    0.26
   1  -1 -21    1.30    0.24
  -1  -1  21    1.27    0.28
  -1   1  21    1.73    0.30
   1   1 -21    0.86    0.24
   1   1 -21    1.22    0.25
   0  -1  21    1.13    0.27
   0  -1 -21    0.96    0.23
   0  -1 -21    1.16    0.28
   0  -1  21    1.07    0.26
   0   1  21    0.63    0.25
   0   1 -21    1.16    0.26
   0   1 -21    0.93    0.23
   0   1  21    0.90    0.23
   1  -1  21    0.65    0.24
   1  -1  21    0.48    0.22
  -1  -1 -21    0.71    0.26
   1  -1  21    0.35    0.21
   1   1  21    0.76    0.26
  -1   1 -21    0.24    0.23
   1   1  21    0.58    0.20
   2  -1  21    0.56    0.25
   2  -1  21    0.06    0.22
  -2  -1 -21    0.70    0.26
   2   1  21    0.54    0.25
  -2   1 -21    0.68    0.22
   2   1  21    0.74    0.25
  -2   1 -21    0.54    0.26
  -3  -1 -21    0.73    0.25
  -3  -1 -21    0.67    0.28
   3  -1  21    0.70    0.28
   3  -1  21    0.88    0.30
   3   1  21    1.28    0.31
   3   1  21    1.28    0.31
  -3   1 -21    0.57    0.26
  -3   1 -21    0.26    0.25
  -5  -2  21    0.45    0.22
   5  -2 -21    0.42    0.22
   5   2 -21    0.52    0.22
  -5   2  21    0.78    0.25
   4  -2 -21    1.47    0.28
  -4  -2  21    1.51    0.28
  -4   2  21    1.32    0.31
  -4   2  21    1.67    0.29
   4   2 -21    1.58    0.28
  -3  -2  21    7.82    0.48
   3  -2 -21    7.28    0.48
  -3   2  21    6.82    0.47
   3   2 -21    7.02    0.46
  -3   2  21    6.95    0.47
   2  -2 -21    9.10    0.50
  -2  -2  21    8.98    0.53
   2   2 -21    8.79    0.50
  -2   2  21    8.46    0.52
  -2   2  21    8.74    0.46
  -1  -2  21    4.05    0.40
   1  -2 -21    4.63    0.41
   1  -2 -21    3.02    0.34
  -1  -2  21    3.86    0.41
  -1   2  21    3.54    0.38
   1   2 -21    3.67    0.37
   1   2 -21    3.56    0.36
   0  -2 -21    8.87    0.52
   0  -2 -21    7.92    0.46
   0  -2  21    8.28    0.51
   0  -2  21    8.12    0.52
   0   2  21    8.10    0.50
   0   2  21    8.50    0.53
   0   2 -21    9.38    0.53
   0   2 -21    9.74    0.51
   1  -2  21    6.27    0.45
   1  -2  21    5.65    0.43
   1  -2  21    5.80    0.47
  -1  -2 -21    4.87    0.46
   1   2  21    5.64    0.45
  -1   2 -21    5.78    0.50
   1   2  21    5.70    0.43
   2  -2  21    2.81    0.37
  -2  -2 -21    4.09    0.42
   2  -2  21    5.14    0.51
   2   2  21    4.11    0.42
  -2   2 -21    3.82    0.39
  -2   2 -21    3.84    0.44
   3  -2  21    0.41    0.26
   3  -2  21    0.70    0.28
  -3  -2 -21    0.83    0.25
  -3  -2 -21    0.58    0.27
   3   2  21    0.93    0.29
  -3   2 -21    1.10    0.28
  -3   2 -21    0.85    0.30
   5  -3 -21    0.90    0.25
  -5  -3  21    0.77    0.23
  -5   3  21    1.39    0.28
   5   3 -21    0.96    0.25
  -4  -3  21   -0.17    0.19
   4  -3 -21    0.06    0.20
  -4   3  21   -0.13    0.19
   4   3 -21   -0.12    0.17
  -4   3  21    0.12    0.22
  -3  -3  21    1.86    0.30
   3  -3 -21    1.84    0.30
  -3   3  21    1.52    0.29
   3   3 -21    1.74    0.29
  -3   3  21    1.29    0.28
  -2  -3  21    3.25    0.37
   2  -3 -21    3.37    0.37
  -2  -3  21    4.39    0.38
  -2   3  21    4.43    0.39
  -2   3  21    3.96    0.41
   2   3 -21    3.26    0.36
   1  -3 -21    5.21    0.45
  -1  -3  21    4.84    0.41
   1  -3 -21    4.84    0.40
  -1  -3  21    4.13    0.41
  -1   3  21    4.92    0.41
   1   3 -21    4.79    0.60
   1   3 -21    4.03    0.38
   0  -3 -21    0.94    0.24
   0  -3 -21    0.43    0.19
   0  -3  21    0.88    0.25
   0  -3  21    0.83    0.25
   0   3 -21    0.69    0.24
   0   3 -21    0.87    0.22
   0   3  21    0.64    0.25
  -1  -3 -21    0.21    0.20
   1  -3  21    0.59    0.24
   1  -3  21   -0.08    0.18
   1  -3  21    0.18    0.19
  -1   3 -21    0.28    0.20
   1   3  21    0.36    0.22
   1   3  21    0.26    0.21
   2  -3  21    0.38    0.24
  -2  -3 -21    0.16    0.20
   2  -3  21    0.30    0.25
   2   3  21    0.33    0.22
  -2   3 -21    0.00    0.24
   3  -3  21    0.90    0.29
   3  -3  21    1.03    0.29
  -3  -3 -21    0.98    0.31
  -3   3 -21    1.16    0.31
   3   3  21    0.92    0.29
  -3   3 -21    1.65    0.33
  -4  -4  21    4.87    0.43
   4  -4 -21    4.40    0.42
   4   4 -21    4.37    0.42
  -4   4  21    4.44    0.43
  -4   4  21    4.32    0.48
  -3  -4  21    5.69    0.45
   3  -4 -21    6.94    0.48
  -3   4  21    5.83    0.47
  -3   4  21    5.38    0.48
   3   4 -21    6.48    0.46
   2  -4 -21    3.27    0.36
  -2  -4  21    3.43    0.35
  -2  -4  21    2.40    0.35
  -2   4  21    3.04    0.35
  -2   4  21    3.36    0.40
   2   4 -21    3.17    0.37
   1  -4 -21   16.01    0.66
   1  -4 -21   15.25    0.66
  -1  -4  21   15.56    0.70
  -1  -4  21   16.38    0.67
  -1   4  21   16.75    0.70
   1   4 -21   16.36    0.67
   0  -4 -21    0.27    0.22
   0  -4 -21    0.30    0.18
   0  -4  21   -0.07    0.19
   0  -4  21   -0.02    0.21
   0   4 -21    0.12    0.22
   0   4 -21    0.06    0.17
   0   4  21    0.19    0.22
   1  -4  21    1.55    0.28
   1  -4  21    1.27    0.31
   1  -4  21    1.31    0.30
  -1  -4 -21    1.06    0.27
   1   4  21    1.02    0.25
   1   4  21    1.10    0.28
  -1   4 -21    1.37    0.29
   2  -4  21    7.99    0.57
  -2  -4 -21    7.40    0.55
   2  -4  21    7.91    0.55
  -2   4 -21    7.83    0.57
   2   4  21    7.07    0.53
   3  -4  21    0.29    0.26
   3  -4  21    0.12    0.24
  -3  -4 -21    0.32    0.25
  -3   4 -21    0.41    0.26
   3   4  21    0.25    0.25
  -4  -5  21    0.05    0.19
   4  -5 -21    0.27    0.22
  -4   5  21   -0.04    0.22
  -4   5  21    0.12    0.22
   4   5 -21    0.22    0.21
  -3  -5  21    0.03    0.19
   3  -5 -21   -0.11    0.19
   3   5 -21    0.02    0.19
  -3   5  21   -0.04    0.22
  -3   5  21   -0.03    0.20
   2  -5 -21    1.36    0.28
  -2  -5  21    0.99    0.26
  -2  -5  21    1.53    0.27
  -2   5  21    1.59    0.32
   2   5 -21    1.30    0.27
  -1  -5  21    7.54    0.50
  -1  -5  21    7.93    0.53
   1  -5 -21    7.94    0.51
   1  -5 -21    7.45    0.50
  -1   5  21    8.23    0.55
   1   5 -21    7.24    0.50
   0  -5 -21    2.12    0.31
   0  -5 -21    1.40    0.30
   0  -5  21    1.60    0.32
   0  -5  21    1.30    0.28
   0   5 -21    1.65    0.29
   0   5  21    1.29    0.28
   0   5 -21    1.71    0.29
  -1  -5 -21    4.90    0.47
   1  -5  21    3.94    0.43
   1  -5  21    4.52    0.43
   1  -5  21    3.96    0.42
  -1   5 -21    4.73    0.47
   1   5  21    5.17    0.48
   1   5  21    4.58    0.45
   2  -5  21    2.27    0.37
   2  -5  21    2.67    0.36
  -2  -5 -21    2.52    0.38
  -2   5 -21    2.38    0.39
   2   5  21    1.98    0.35
   3  -5  21    0.15    0.24
   3  -5  21    0.18    0.25
  -3  -5 -21    0.10    0.25
  -3   5 -21    0.16    0.25
   3   5  21    0.12    0.26
  -4  -6  21    0.14    0.20
   4  -6 -21    0.09    0.22
  -4   6  21    0.10    0.22
   4   6 -21   -0.11    0.20
   3  -6 -21    1.04    0.27
  -3  -6  21    0.78    0.27
   3   6 -21    0.52    0.23
  -3   6  21    0.65    0.26
  -3   6  21    0.42    0.25
  -2  -6  21    1.70    0.32
  -2  -6  21    2.59    0.32
   2  -6 -21    2.90    0.37
   2   6 -21    2.51    0.34
  -2   6  21    2.08    0.32
  -1  -6  21    2.01    0.34
  -1  -6  21    2.42    0.34
   1  -6 -21    2.91    0.37
  -1   6  21    3.02    0.41
   1   6 -21    2.77    0.35
   0  -6 -21    0.05    0.22
   0  -6  21    0.31    0.23
   0  -6  21    0.18    0.25
   0   6  21    0.22    0.24
   0   6 -21    0.13    0.17
   0   6 -21   -0.20    0.19
   1  -6  21    0.78    0.28
   1  -6  21    0.62    0.27
  -1  -6 -21    0.27    0.25
  -1   6 -21    1.22    0.30
   1   6  21    0.47    0.40
   1   6  21    0.67    0.24
   2  -6  21    0.44    0.27
   2  -6  21    0.20    0.24
  -2  -6 -21    0.37    0.26
   2   6  21    0.59    0.26
  -2   6 -21   -0.15    0.23
  -3  -6 -21   -0.03    0.21
   3  -6  21    0.40    0.27
   3  -6  21   -0.16    0.22
   3   6  21    0.03    0.23
  -3   6 -21   -0.43    0.21
  -4  -7  21    0.92    0.27
   4  -7 -21    0.74    0.27
  -4   7  21    1.92    0.34
   4   7 -21    0.88    0.26
  -3  -7  21   -0.03    0.22
   3  -7 -21   -0.17    0.20
  -3   7  21   -0.09    0.20
   3   7 -21   -0.12    0.19
  -2  -7  21    0.15    0.23
   2  -7 -21    0.41    0.24
   2   7 -21    0.26    0.22
  -2   7  21    0.26    0.25
   1  -7 -21    6.31    0.48
  -1  -7  21    6.62    0.49
  -1  -7  21    6.46    0.54
  -1   7  21    6.53    0.54
   1   7 -21    6.72    0.49
   0  -7 -21    0.67    0.26
   0  -7  21    1.11    0.29
   0  -7  21    1.00    0.31
   0   7  21    0.56    0.27
   0   7 -21    0.61    0.24
   0   7 -21    0.85    0.25
  -1  -7 -21    0.87    0.29
   1  -7  21    1.34    0.32
   1  -7  21    0.69    0.28
  -1   7 -21    0.40    0.28
   1   7  21    0.71    0.27
  -2  -7 -21   -0.09    0.24
   2  -7  21    0.22    0.24
   2  -7  21    0.20    0.22
   2   7  21   -0.49    0.20
  -2   7 -21    0.18    0.27
   3  -8 -21    1.11    0.31
  -3  -8  21    0.62    0.27
   3   8 -21    0.91    0.28
  -3   8  21    0.85    0.29
  -2  -8  21    0.66    0.26
   2  -8 -21    0.58    0.25
   2   8 -21    0.42    0.23
  -2   8  21    0.42    0.26
  -1  -8  21    0.60    0.25
  -1  -8  21    0.53    0.26
   1  -8 -21    1.08    0.27
  -1   8  21    0.80    0.30
   1   8 -21    0.77    0.24
   0  -8  21    0.12    0.25
   0  -8 -21    0.08    0.23
   0  -8  21    0.34    0.24
   0   8  21    0.12    0.24
   1  -8  21    2.18    0.40
   1  -8  21    1.96    0.37
  -1  -8 -21    2.21    0.37
  -1   8 -21    1.58    0.33
   2  -8  21    0.68    0.31
  -2  -8 -21    0.98    0.31
  -2   8 -21    0.52    0.31
   2   8  21    1.34    0.33
  -2  -9  21    1.39    0.32
   2  -9 -21    1.77    0.35
   2   9 -21    1.64    0.34
  -2   9  21    1.59    0.34
   1  -9 -21    3.57    0.59
  -1  -9  21    2.72    0.40
  -1  -9  21    3.59    0.42
  -1   9  21    3.43    0.46
   1   9 -21    2.24    0.35
   0  -9 -21    1.61    0.35
   0  -9  21    1.02    0.33
   0  -9  21    1.09    0.32
   0   9  21    0.54    0.28
   1  -9  21    0.03    0.25
  -1  -9 -21   -0.18    0.24
  -1   9 -21    0.07    0.26
  -1 -10  21    0.78    0.31
  -1 -10  21    0.70    0.27
   1  10 -21    0.63    0.27
  -1  10  21    0.38    0.27
   0 -10 -21   -0.33    0.23
   0 -10  21    0.06    0.24
   0 -10  21    0.00    0.26
   0  10  21    0.41    0.26
  -4   0  22    5.78    0.47
  -4   0  22    5.54    0.51
   4   0 -22    5.47    0.45
  -3   0  22    7.79    0.52
   3   0 -22    7.38    0.49
  -3   0  22    6.24    0.45
  -2   0  22    2.39    0.33
   2   0 -22    1.63    0.28
   1   0 -22    0.32    0.20
   1   0 -22    0.31    0.23
  -1   0  22    0.74    0.23
   0   0 -22    3.20    0.36
   0   0  22    4.13    0.43
   0   0 -22    3.63    0.37
   1   0  22   10.31    0.60
   1   0  22    9.71    0.56
   1   0  22    8.94    0.55
  -1   0 -22    9.17    0.58
   2   0  22    0.09    0.23
  -2   0 -22    0.16    0.24
   2   0  22   -0.19    0.20
   3   0  22    0.46    0.27
  -3   0 -22    0.09    0.23
   3   0  22    0.26    0.25
  -3   0 -22    0.12    0.21
  -4  -1  22    0.60    0.24
   4  -1 -22    0.78    0.24
  -4   1  22    1.45    0.33
   4   1 -22    0.73    0.24
  -4   1  22    1.00    0.27
  -3  -1  22    3.73    0.41
   3  -1 -22    3.07    0.35
   3   1 -22    3.82    0.39
  -3   1  22    3.76    0.40
  -3   1  22    4.52    0.44
  -2  -1  22    0.88    0.25
   2  -1 -22    1.41    0.27
  -2   1  22    1.15    0.27
   2   1 -22    1.03    0.24
   1  -1 -22   11.33    0.63
   1  -1 -22   11.32    0.55
  -1  -1  22   10.52    0.59
  -1   1  22   10.44    0.59
   1   1 -22   10.37    0.54
   0  -1 -22    1.81    0.32
   0  -1  22    1.27    0.29
   0  -1  22    1.69    0.31
   0  -1 -22    1.37    0.27
   0   1 -22    1.30    0.29
   0   1  22    1.27    0.29
   0   1 -22    1.21    0.25
   1  -1  22    3.42    0.41
  -1  -1 -22    3.56    0.40
   1  -1  22    3.70    0.39
   1  -1  22    3.09    0.37
  -1   1 -22    4.18    0.44
   1   1  22    4.07    0.42
   1   1  22    3.72    0.40
   2  -1  22    0.90    0.29
  -2  -1 -22    1.37    0.32
   2  -1  22    1.11    0.29
  -2   1 -22    1.60    0.34
   2   1  22    1.52    0.33
   2   1  22    0.77    0.27
   3  -1  22    1.32    0.33
  -3  -1 -22    0.98    0.30
   3  -1  22    1.29    0.34
  -3   1 -22    1.16    0.30
   3   1  22    0.96    0.31
  -3   1 -22    1.33    0.33
   3   1  22    1.38    0.33
  -4  -2  22    1.85    0.31
   4  -2 -22    2.32    0.34
  -4   2  22    2.33    0.35
   4   2 -22    2.59    0.34
  -4   2  22    3.03    0.42
   3  -2 -22    0.10    0.20
  -3  -2  22    0.13    0.21
  -3   2  22    0.27    0.22
  -3   2  22    0.25    0.22
   3   2 -22   -0.03    0.19
  -2  -2  22    0.57    0.22
   2  -2 -22    0.49    0.21
  -2   2  22    0.23    0.21
   2   2 -22    0.35    0.22
  -2   2  22    0.62    0.23
   1  -2 -22    3.68    0.38
  -1  -2  22    3.92    0.42
   1  -2 -22    3.76    0.45
  -1  -2  22    3.50    0.39
  -1   2  22    3.87    0.42
   1   2 -22    3.35    0.37
   0  -2  22   -0.13    0.20
   0  -2 -22    0.12    0.17
   0  -2  22    0.00    0.20
   0  -2 -22    0.06    0.20
   0   2  22    0.00    0.20
   0   2 -22    0.06    0.17
   0   2 -22    0.17    0.22
  -1  -2 -22    5.96    0.50
   1  -2  22    5.92    0.50
   1  -2  22    5.72    0.45
   1  -2  22    5.76    0.45
   1   2  22    6.46    0.49
   1   2  22    6.09    0.47
  -1   2 -22    5.91    0.49
   2  -2  22    0.89    0.28
   2  -2  22    0.69    0.27
  -2  -2 -22    1.43    0.30
  -2   2 -22    0.81    0.25
  -2   2 -22    0.68    0.26
   2   2  22    1.32    0.30
   3  -2  22    0.22    0.24
  -3  -2 -22    0.23    0.25
   3  -2  22    0.19    0.26
  -3   2 -22    0.25    0.23
   3   2  22   -0.08    0.23
  -3   2 -22    0.32    0.25
   4  -3 -22    0.15    0.21
  -4  -3  22   -0.13    0.19
  -4   3  22   -0.11    0.23
   4   3 -22   -0.17    0.17
  -4   3  22    0.04    0.21
   3  -3 -22    1.17    0.28
  -3  -3  22    1.05    0.26
  -3   3  22    0.76    0.25
   3   3 -22    1.19    0.27
  -3   3  22    0.66    0.25
   2  -3 -22    4.21    0.40
  -2  -3  22    4.69    0.45
  -2   3  22    4.85    0.46
   2   3 -22    5.26    0.43
  -2   3  22    4.47    0.39
   1  -3 -22    2.39    0.52
  -1  -3  22    1.72    0.29
   1  -3 -22    2.11    0.31
  -1  -3  22    2.70    0.37
  -1   3  22    1.65    0.31
   1   3 -22    1.90    0.30
   0  -3 -22   -0.09    0.16
   0  -3  22    0.17    0.20
   0  -3 -22    0.10    0.21
   0  -3  22    0.03    0.22
   0   3 -22   -0.01    0.20
   0   3  22    0.33    0.22
   0   3 -22    0.27    0.20
   1  -3  22    0.08    0.19
  -1  -3 -22    0.32    0.25
   1  -3  22    0.21    0.23
   1  -3  22    0.10    0.22
  -1   3 -22    0.45    0.24
   1   3  22    0.42    0.23
   1   3  22    0.24    0.23
   2  -3  22    0.85    0.29
  -2  -3 -22    0.51    0.27
   2  -3  22    0.63    0.26
  -2   3 -22    0.77    0.28
   2   3  22    0.15    0.24
   3  -3  22    0.00    0.23
   3  -3  22   -0.07    0.24
  -3  -3 -22    0.31    0.26
   3   3  22   -0.16    0.22
  -3   3 -22   -0.26    0.20
  -3   3 -22    0.34    0.26
  -4  -4  22    0.00    0.19
   4  -4 -22    0.26    0.22
  -4   4  22    0.32    0.23
  -4   4  22    0.18    0.24
   4   4 -22    0.21    0.20
   3  -4 -22    0.35    0.22
  -3  -4  22    0.45    0.24
   3   4 -22    0.95    0.26
  -3   4  22    0.62    0.24
  -3   4  22    0.48    0.24
  -2  -4  22    1.42    0.27
  -2  -4  22    1.37    0.30
   2  -4 -22    1.72    0.32
  -2   4  22    1.11    0.29
   2   4 -22    1.66    0.31
  -2   4  22    1.15    0.25
  -1  -4  22    0.05    0.19
   1  -4 -22   -0.07    0.17
  -1  -4  22    0.04    0.22
  -1   4  22   -0.05    0.22
   1   4 -22    0.08    0.20
   0  -4  22    0.71    0.26
   0  -4  22    0.94    0.30
   0  -4 -22    0.69    0.23
   0  -4 -22    0.63    0.24
   0   4 -22    1.34    0.31
   0   4 -22    0.45    0.22
   0   4  22    1.08    0.29
  -1  -4 -22    0.93    0.29
   1  -4  22    0.85    0.29
   1  -4  22    0.98    0.28
   1  -4  22    1.40    0.29
   1   4  22    0.75    0.25
   1   4  22    1.43    0.32
  -1   4 -22    1.05    0.27
  -2  -4 -22    3.13    0.43
   2  -4  22    1.36    0.33
   2  -4  22    2.16    0.35
  -2   4 -22    2.64    0.41
   2   4  22    2.30    0.36
   3  -4  22   -0.26    0.22
   3  -4  22    0.13    0.24
  -3  -4 -22   -0.38    0.22
  -3   4 -22   -0.08    0.23
  -3   4 -22   -0.07    0.23
   3   4  22    0.18    0.24
  -4  -5  22    0.26    0.23
   4  -5 -22    0.38    0.25
  -4   5  22    0.54    0.31
  -4   5  22    0.08    0.22
   4   5 -22    0.05    0.21
  -3  -5  22    2.51    0.36
   3  -5 -22    2.77    0.37
  -3   5  22    2.53    0.38
  -3   5  22    2.89    0.39
   3   5 -22    3.22    0.39
  -2  -5  22    2.30    0.36
  -2  -5  22    2.37    0.31
   2  -5 -22    2.12    0.32
  -2   5  22    2.61    0.39
   2   5 -22    2.23    0.35
  -2   5  22    2.46    0.34
  -1  -5  22    2.26    0.38
  -1  -5  22    2.75    0.36
   1  -5 -22    2.62    0.36
   1   5 -22    1.83    0.29
  -1   5  22    2.35    0.35
   0  -5  22   -0.37    0.17
   0  -5  22   -0.09    0.22
   0  -5 -22   -0.15    0.18
   0   5 -22   -0.07    0.20
   0   5 -22    0.10    0.20
   0   5  22   -0.22    0.20
   1  -5  22    0.04    0.24
  -1  -5 -22    0.20    0.22
   1  -5  22    0.31    0.24
   1   5  22    0.20    0.23
  -1   5 -22    0.07    0.21
   2  -5  22    1.06    0.31
   2  -5  22    0.59    0.26
  -2  -5 -22    0.38    0.26
  -2   5 -22    0.97    0.31
   2   5  22    0.73    0.28
  -4  -6  22    2.55    0.36
   4  -6 -22    3.11    0.40
  -4   6  22    2.86    0.40
   4   6 -22    2.36    0.35
  -3  -6  22    5.61    0.47
   3  -6 -22    5.76    0.52
  -3   6  22    6.19    0.52
  -3   6  22    5.85    0.52
   3   6 -22    4.73    0.45
  -2  -6  22    0.05    0.21
   2  -6 -22   -0.08    0.19
   2   6 -22   -0.23    0.17
  -2   6  22    0.19    0.21
  -1  -6  22    0.13    0.24
  -1  -6  22    0.12    0.22
   1  -6 -22    0.09    0.20
   1   6 -22   -0.14    0.19
  -1   6  22   -0.08    0.24
   0  -6 -22    1.56    0.33
   0  -6  22    1.86    0.33
   0  -6  22    1.41    0.31
   0   6 -22    1.21    0.27
   0   6 -22    1.64    0.34
   0   6  22    1.22    0.32
   1  -6  22    1.26    0.30
  -1  -6 -22    0.96    0.29
   1  -6  22    0.98    0.29
   1   6  22    1.94    0.35
  -1   6 -22    1.71    0.35
   2  -6  22    4.99    0.50
  -2  -6 -22    4.33    0.48
   2  -6  22    4.68    0.50
  -2   6 -22    5.11    0.54
   2   6  22    3.71    0.45
  -3  -7  22    0.82    0.28
   3  -7 -22    1.37    0.31
  -3   7  22    1.17    0.31
  -3   7  22    1.51    0.34
   3   7 -22    0.97    0.28
   2  -7 -22    1.52    0.30
  -2  -7  22    1.43    0.33
  -2   7  22    1.13    0.31
   2   7 -22    1.52    0.30
  -1  -7  22    2.15    0.38
  -1  -7  22    2.03    0.34
   1  -7 -22    2.35    0.34
   1   7 -22    1.42    0.29
  -1   7  22    2.00    0.37
   0  -7 -22    0.05    0.24
   0  -7  22    0.19    0.23
   0  -7  22   -0.08    0.22
   0   7  22   -0.22    0.23
  -1  -7 -22    1.13    0.33
   1  -7  22    1.64    0.35
   1  -7  22    1.35    0.34
  -1   7 -22    1.10    0.32
   2  -7  22    1.19    0.34
  -2  -7 -22    1.18    0.35
   2   7  22    1.53    0.36
  -2   7 -22    1.72    0.37
  -3  -8  22    1.08    0.30
  -3   8  22    0.93    0.30
  -2  -8  22    1.99    0.38
   2  -8 -22    2.41    0.40
   2   8 -22    1.59    0.32
  -2   8  22    1.68    0.34
  -1  -8  22    0.95    0.27
   1  -8 -22    0.53    0.25
  -1  -8  22    0.89    0.32
   1   8 -22    0.19    0.21
  -1   8  22    0.17    0.26
   0  -8 -22    0.79    0.29
   0  -8  22    0.84    0.31
   0  -8  22    0.78    0.29
   0   8  22    1.10    0.31
  -1  -8 -22    0.33    0.25
   1  -8  22    0.34    0.27
  -1   8 -22    0.36    0.29
   2  -9 -22    0.05    0.22
  -2  -9  22    0.13    0.26
  -2   9  22   -0.12    0.25
  -1  -9  22    0.34    0.24
  -1  -9  22    0.15    0.26
   1   9 -22    0.40    0.23
  -1   9  22    0.44    0.28
   0  -9 -22    0.00    0.22
   0  -9  22    0.08    0.25
   0  -9  22   -0.12    0.25
   0   9  22    0.01    0.22
   4   0 -23    0.15    0.20
  -4   0  23    0.00    0.19
   3   0 -23   -0.07    0.18
  -3   0  23    0.12    0.22
   2   0 -23   -0.43    0.16
  -2   0  23    0.07    0.21
   1   0 -23    0.17    0.19
  -1   0  23   -0.14    0.20
   0   0 -23    0.20    0.22
   0   0  23   -0.13    0.19
   0   0 -23    0.06    0.19
   1   0  23    0.07    0.22
   1   0  23   -0.14    0.19
   1   0  23   -0.16    0.20
  -1   0 -23    0.28    0.25
  -2   0 -23   -0.21    0.22
   2   0  23   -0.08    0.22
   2   0  23   -0.37    0.20
   3   0  23    0.14    0.26
   3   0  23    0.04    0.25
  -3   0 -23   -0.08    0.24
   4  -1 -23   -0.21    0.19
  -4  -1  23   -0.04    0.20
  -4   1  23   -0.05    0.21
  -4   1  23   -0.08    0.19
   4   1 -23   -0.02    0.20
   3  -1 -23    5.02    0.46
  -3  -1  23    4.78    0.46
   3   1 -23    4.00    0.40
  -3   1  23    4.08    0.44
  -3   1  23    4.58    0.48
  -2  -1  23    3.32    0.40
   2  -1 -23    3.90    0.40
   2   1 -23    3.02    0.36
  -2   1  23    3.64    0.42
   1  -1 -23    0.19    0.19
  -1  -1  23    0.50    0.23
   1   1 -23    0.32    0.22
  -1   1  23    0.49    0.25
   0  -1 -23    0.13    0.21
   0  -1  23    0.26    0.23
   0  -1 -23    0.12    0.19
   0  -1  23    0.44    0.24
   0   1  23    0.05    0.22
   0   1 -23    0.02    0.18
   0   1 -23    0.36    0.24
   1  -1  23    0.85    0.25
   1  -1  23    1.37    0.30
   1  -1  23    1.76    0.35
  -1  -1 -23    1.11    0.30
  -1   1 -23    2.03    0.36
   1   1  23    1.57    0.32
   1   1  23    1.20    0.27
  -2  -1 -23    0.83    0.27
   2  -1  23    0.84    0.30
   2  -1  23    0.85    0.30
   2   1  23    1.23    0.31
  -2   1 -23    1.39    0.33
   3  -1  23    0.74    0.30
   3  -1  23    1.24    0.32
  -3  -1 -23    0.79    0.31
  -3   1 -23    0.79    0.31
   3   1  23    1.34    0.32
  -4  -2  23   -0.04    0.20
   4  -2 -23   -0.10    0.19
  -4   2  23   -0.12    0.19
   4   2 -23   -0.30    0.18
  -4   2  23   -0.06    0.23
  -3  -2  23    0.43    0.24
   3  -2 -23   -0.18    0.18
   3   2 -23    0.04    0.20
  -3   2  23   -0.30    0.20
  -3   2  23    0.02    0.21
   2  -2 -23    0.19    0.21
  -2  -2  23   -0.05    0.20
   2   2 -23    0.26    0.21
  -2   2  23    0.21    0.23
  -1  -2  23    0.74    0.25
   1  -2 -23    0.17    0.19
  -1  -2  23    0.79    0.26
   1   2 -23    0.49    0.22
  -1   2  23    0.73    0.27
   0  -2 -23    2.04    0.31
   0  -2  23    1.69    0.34
   0  -2  23    1.83    0.32
   0  -2 -23    2.35    0.34
   0   2 -23    2.29    0.33
   0   2 -23    2.68    0.34
   0   2  23    1.40    0.32
   1  -2  23   -0.07    0.20
  -1  -2 -23   -0.09    0.22
   1  -2  23    0.26    0.23
   1  -2  23    0.17    0.23
  -1   2 -23   -0.06    0.22
   1   2  23    0.23    0.20
   1   2  23   -0.04    0.20
  -2  -2 -23    0.38    0.25
   2  -2  23    0.37    0.24
   2  -2  23    0.15    0.25
   2   2  23   -0.03    0.21
  -2   2 -23   -0.24    0.22
  -4  -3  23    0.38    0.23
   4  -3 -23    0.58    0.25
  -4   3  23    0.83    0.29
   4   3 -23    0.18    0.22
  -4   3  23    0.62    0.25
  -3  -3  23   10.94    0.61
   3  -3 -23   10.69    0.60
   3   3 -23   11.54    0.61
  -3   3  23    9.48    0.60
  -3   3  23    9.65    0.59
  -2  -3  23   10.48    0.60
   2  -3 -23    9.46    0.56
  -2   3  23   10.68    0.61
   2   3 -23    9.54    0.57
  -1  -3  23    1.18    0.27
   1  -3 -23    1.24    0.27
  -1  -3  23    1.32    0.32
  -1   3  23    1.17    0.30
   1   3 -23    1.64    0.30
   0  -3  23    1.25    0.29
   0  -3  23    1.18    0.30
   0  -3 -23    2.24    0.35
   0   3 -23    1.61    0.31
   0   3 -23    1.87    0.32
   0   3  23    1.98    0.34
  -1  -3 -23    1.00    0.28
   1  -3  23    1.38    0.32
   1  -3  23    1.15    0.30
   1   3  23    1.51    0.33
  -1   3 -23    1.00    0.31
   1   3  23    1.77    0.31
   2  -3  23    2.41    0.36
   2  -3  23    3.41    0.43
  -2  -3 -23    2.81    0.42
  -2   3 -23    2.98    0.43
   2   3  23    2.76    0.39
  -4  -4  23    0.05    0.21
   4  -4 -23    0.28    0.23
   4   4 -23   -0.01    0.21
  -4   4  23    0.38    0.30
  -4   4  23    0.15    0.23
   3  -4 -23    0.32    0.22
  -3  -4  23    0.09    0.22
  -3   4  23    0.01    0.23
  -3   4  23   -0.16    0.21
   3   4 -23    0.28    0.23
  -2  -4  23    0.95    0.27
  -2  -4  23    0.85    0.26
   2  -4 -23    0.89    0.28
   2   4 -23    0.57    0.25
  -2   4  23    1.11    0.30
  -1  -4  23   -0.13    0.22
  -1  -4  23   -0.13    0.18
   1  -4 -23   -0.17    0.17
   1   4 -23   -0.34    0.17
  -1   4  23   -0.10    0.22
   0  -4  23    3.72    0.42
   0  -4 -23    3.60    0.42
   0  -4  23    2.96    0.40
   0   4 -23    2.69    0.37
   0   4 -23    2.83    0.34
   0   4  23    3.73    0.43
   1  -4  23    0.18    0.21
   1  -4  23    0.14    0.24
  -1  -4 -23    0.08    0.24
   1   4  23    0.12    0.22
  -1   4 -23    0.10    0.24
   2  -4  23    0.51    0.25
  -2  -4 -23    0.78    0.28
   2  -4  23    0.96    0.30
  -2   4 -23    0.68    0.30
   2   4  23    0.28    0.25
   3  -5 -23    4.13    0.45
  -3  -5  23    3.72    0.43
   3   5 -23    4.27    0.44
  -3   5  23    3.86    0.46
  -3   5  23    3.31    0.41
  -2  -5  23    2.39    0.38
   2  -5 -23    1.94    0.34
  -2   5  23    2.43    0.37
   2   5 -23    2.72    0.38
  -1  -5  23    0.13    0.23
   1  -5 -23   -0.07    0.18
  -1  -5  23   -0.22    0.19
  -1   5  23   -0.46    0.20
   1   5 -23    0.06    0.19
   0  -5  23    3.35    0.41
   0  -5 -23    2.23    0.37
   0  -5  23    3.27    0.42
   0   5  23    3.09    0.41
   0   5 -23    3.02    0.39
  -1  -5 -23    1.19    0.29
   1  -5  23    1.22    0.32
   1  -5  23    1.83    0.37
  -1   5 -23    0.85    0.29
  -2  -5 -23    0.31    0.26
   2  -5  23    0.19    0.28
   2  -5  23    0.00    0.22
   2   5  23    0.13    0.23
  -2   5 -23    0.09    0.26
  -3  -6  23    0.23    0.24
   3  -6 -23    0.21    0.24
   3   6 -23   -0.17    0.19
  -3   6  23    0.27    0.25
  -3   6  23   -0.05    0.25
   2  -6 -23    0.20    0.22
  -2  -6  23    0.25    0.25
  -2   6  23    0.40    0.25
   2   6 -23    0.33    0.24
  -1  -6  23    0.04    0.22
   1  -6 -23    0.20    0.22
  -1  -6  23    0.13    0.22
   1   6 -23   -0.03    0.21
  -1   6  23    0.12    0.24
   0  -6  23    0.96    0.30
   0  -6 -23    0.99    0.31
   0  -6  23    1.12    0.33
   0   6  23    0.72    0.26
  -1  -6 -23    1.15    0.32
   1  -6  23    1.08    0.32
   1  -6  23    0.60    0.28
  -1   6 -23    0.45    0.27
  -2  -7  23    0.12    0.24
   2  -7 -23    0.34    0.24
   2   7 -23    0.35    0.23
  -2   7  23    0.55    0.25
  -1  -7  23    2.37    0.37
   1  -7 -23    2.30    0.36
  -1  -7  23    2.63    0.40
   1   7 -23    2.69    0.38
  -1   7  23    2.94    0.44
   0  -7 -23    0.38    0.27
   0  -7  23    0.44    0.26
   0  -7  23    0.73    0.29
   0   7  23    0.44    0.27
   1  -7  23    1.05    0.31
  -1  -7 -23    0.28    0.25
  -1   7 -23    0.80    0.30
   2  -8 -23    1.42    0.32
  -2  -8  23    2.19    0.40
  -2   8  23    1.68    0.36
   2   8 -23    1.02    0.30
  -1  -8  23    1.73    0.33
  -1  -8  23    2.03    0.39
  -1   8  23    1.60    0.35
   1   8 -23    2.71    0.40
   0  -8  23    0.97    0.30
   0  -8  23    0.62    0.30
   0  -8 -23    0.83    0.31
   0   8  23    0.60    0.28
  -4   0  24    1.37    0.30
   4   0 -24    1.50    0.31
   3   0 -24    2.22    0.35
  -3   0  24    2.30    0.37
  -2   0  24    3.90    0.44
   2   0 -24    3.66    0.39
   1   0 -24    4.50    0.43
  -1   0  24    3.63    0.42
   0   0 -24    0.63    0.26
   0   0  24    1.28    0.31
   1   0  24    0.09    0.23
   1   0  24   -0.16    0.22
  -1   0 -24   -0.06    0.20
  -2   0 -24    0.42    0.27
   2   0  24    0.17    0.25
   2   0  24   -0.14    0.24
  -4  -1  24    1.81    0.34
   4  -1 -24    1.90    0.32
  -4   1  24    2.11    0.39
  -4   1  24    1.36    0.30
   4   1 -24    1.89    0.34
   3  -1 -24    4.88    0.47
  -3  -1  24    4.22    0.44
  -3   1  24    4.56    0.47
   3   1 -24    4.45    0.45
   2  -1 -24    3.35    0.38
  -2  -1  24    3.24    0.42
   2   1 -24    3.46    0.40
  -2   1  24    4.00    0.45
  -1  -1  24    0.96    0.27
   1  -1 -24    0.97    0.27
  -1   1  24    0.94    0.29
   1   1 -24    1.16    0.28
   0  -1  24    0.14    0.24
   0  -1 -24    0.40    0.24
   0  -1  24   -0.29    0.19
   0   1 -24   -0.16    0.23
   0   1  24   -0.08    0.22
   1  -1  24    5.49    0.52
   1  -1  24    4.84    0.51
  -1  -1 -24    4.78    0.50
  -1   1 -24    5.04    0.51
   1   1  24    4.53    0.54
   2  -1  24    4.21    0.47
  -2  -1 -24    4.12    0.49
   2  -1  24    4.04    0.48
  -2   1 -24    4.24    0.50
   2   1  24    4.46    0.46
  -4  -2  24    1.13    0.29
   4  -2 -24    0.76    0.26
   4   2 -24    0.86    0.28
  -4   2  24    0.55    0.28
  -4   2  24    0.55    0.25
  -3  -2  24   -0.38    0.18
   3  -2 -24    0.02    0.20
   3   2 -24   -0.12    0.21
  -3   2  24    0.29    0.23
   2  -2 -24    1.77    0.31
  -2  -2  24    1.83    0.35
   2   2 -24    1.87    0.32
  -2   2  24    2.06    0.36
  -1  -2  24    0.08    0.23
   1  -2 -24   -0.08    0.19
  -1   2  24    0.09    0.21
   1   2 -24   -0.29    0.19
   0  -2  24    0.16    0.22
   0  -2 -24   -0.13    0.20
   0  -2  24   -0.03    0.22
   0   2  24   -0.10    0.18
   0   2 -24    0.03    0.21
   1  -2  24    0.36    0.25
  -1  -2 -24    0.09    0.25
   1  -2  24   -0.04    0.21
  -1   2 -24   -0.42    0.20
  -2  -2 -24    0.24    0.24
   2  -2  24   -0.26    0.21
   2  -2  24    0.07    0.25
   2   2  24   -0.22    0.21
  -2   2 -24    0.29    0.27
  -3  -3  24   -0.19    0.19
   3  -3 -24    0.17    0.21
  -3   3  24   -0.28    0.20
   3   3 -24    0.06    0.21
   2  -3 -24    0.37    0.22
  -2  -3  24    0.66    0.26
   2   3 -24    0.51    0.25
  -2   3  24    0.56    0.24
  -1  -3  24    1.50    0.32
  -1  -3  24    1.64    0.32
   1  -3 -24    1.43    0.28
  -1   3  24    2.31    0.36
   1   3 -24    2.00    0.33
   0  -3  24    0.20    0.23
   0  -3  24   -0.07    0.22
   0  -3 -24    0.38    0.23
   0   3  24    0.17    0.25
   0   3 -24    0.14    0.23
   1  -3  24   -0.13    0.22
  -1  -3 -24    0.03    0.24
   1  -3  24    0.00    0.22
  -1   3 -24   -0.27    0.21
  -2  -3 -24   -0.15    0.24
   2  -3  24   -0.17    0.21
   2  -3  24    0.07    0.24
  -2   3 -24   -0.01    0.25
   2   3  24    0.05    0.24
   3  -4 -24    0.36    0.24
  -3  -4  24    0.95    0.29
   3   4 -24    0.67    0.27
  -3   4  24    0.65    0.28
   2  -4 -24    1.03    0.27
  -2  -4  24    0.99    0.28
   2   4 -24    0.84    0.27
  -2   4  24    1.22    0.30
  -1  -4  24    0.95    0.29
   1  -4 -24    0.75    0.24
  -1  -4  24    0.49    0.25
  -1   4  24    1.14    0.32
   1   4 -24    0.71    0.27
   0  -4  24    0.46    0.25
   0  -4 -24   -0.07    0.23
   0  -4  24    0.50    0.26
   0   4 -24    0.52    0.26
   0   4  24    0.32    0.26
   1  -4  24    0.52    0.27
  -1  -4 -24    0.09    0.25
   1  -4  24    0.00    0.28
  -1   4 -24    0.27    0.27
   2  -4  24   -0.09    0.24
   2  -4  24    0.14    0.23
  -2  -4 -24   -0.04    0.24
   2   4  24    0.33    0.26
  -2   4 -24    0.14    0.26
  -3  -5  24    2.84    0.39
   3  -5 -24    3.07    0.42
   3   5 -24    2.28    0.37
  -3   5  24    1.92    0.36
  -2  -5  24    3.59    0.45
   2  -5 -24    3.35    0.42
   2   5 -24    4.08    0.46
  -2   5  24    3.99    0.47
  -1  -5  24   -0.15    0.21
  -1  -5  24    0.03    0.23
   1  -5 -24   -0.19    0.19
  -1   5  24    0.35    0.26
   1   5 -24    0.14    0.21
   0  -5 -24    0.51    0.28
   0  -5  24    0.92    0.31
   0  -5  24    0.52    0.28
   0   5  24    1.08    0.32
   1  -5  24    1.27    0.34
  -1  -5 -24    1.06    0.32
  -1   5 -24    0.95    0.30
   2  -6 -24    1.27    0.31
  -2  -6  24    1.91    0.37
   2   6 -24    1.08    0.29
  -2   6  24    1.24    0.34
  -1  -6  24   -0.03    0.22
  -1  -6  24   -0.53    0.21
   1  -6 -24    0.53    0.23
  -1   6  24   -0.18    0.23
   1   6 -24    0.12    0.22
   0  -6 -24    1.01    0.30
   0  -6  24    1.26    0.33
   0  -6  24    0.84    0.31
   0   6  24    0.64    0.30
   1  -6  24    0.40    0.28
  -1  -6 -24   -0.24    0.24
  -1   6 -24    0.45    0.27
   2  -7 -24    3.41    0.43
  -2  -7  24    3.75    0.48
   2   7 -24    3.14    0.42
  -2   7  24    4.04    0.48
  -1  -7  24    0.14    0.26
  -1  -7  24    0.44    0.26
   1   7 -24    0.17    0.22
  -1   7  24    0.16    0.25
   0  -7  24    0.18    0.26
   0  -7  24   -0.14    0.26
   0  -7 -24    0.65    0.29
   0   7  24    0.05    0.23
  -3   0  25    0.12    0.23
   3   0 -25    0.00    0.21
   2   0 -25    0.05    0.22
  -2   0  25   -0.07    0.21
  -1   0  25    0.05    0.24
   1   0 -25    0.20    0.22
   0   0 -25    0.05    0.24
   0   0  25    0.15    0.23
  -1   0 -25   -0.20    0.23
  -3  -1  25    0.87    0.28
   3  -1 -25    0.98    0.29
  -3   1  25    0.91    0.28
   3   1 -25    1.18    0.30
  -2  -1  25    0.52    0.26
   2  -1 -25    0.53    0.24
  -2   1  25    0.55    0.27
   2   1 -25    0.77    0.27
  -1  -1  25    1.11    0.30
   1  -1 -25    0.79    0.26
   1   1 -25    1.11    0.27
  -1   1  25    1.13    0.31
   0  -1 -25    0.73    0.26
   0  -1  25    0.91    0.29
   0   1  25    0.40    0.26
   0   1 -25    0.32    0.25
   1  -1  25    0.17    0.25
  -1  -1 -25    0.17    0.24
  -1   1 -25    0.66    0.28
  -3  -2  25    1.24    0.31
   3  -2 -25    1.26    0.31
  -3   2  25    1.34    0.31
   3   2 -25    1.39    0.31
   2  -2 -25    2.25    0.33
  -2  -2  25    3.51    0.44
   2   2 -25    2.75    0.38
  -2   2  25    3.00    0.41
  -1  -2  25    3.33    0.43
   1  -2 -25    4.35    0.45
   1   2 -25    2.99    0.38
  -1   2  25    3.62    0.42
   0  -2  25   -0.11    0.22
   0  -2 -25    0.26    0.25
   0  -2  25    0.13    0.23
   0   2  25    0.02    0.22
   0   2 -25    0.12    0.23
   1  -2  25   -0.40    0.22
  -1  -2 -25    0.25    0.25
  -1   2 -25    0.37    0.26
  -3  -3  25   -0.22    0.22
   3  -3 -25   -0.09    0.20
  -3   3  25    0.10    0.24
   3   3 -25    0.03    0.22
  -2  -3  25    0.36    0.26
   2  -3 -25    0.21    0.23
  -2   3  25    0.32    0.25
   2   3 -25    0.32    0.26
  -1  -3  25    1.26    0.33
   1  -3 -25    1.77    0.31
  -1  -3  25    2.34    0.36
   1   3 -25    2.16    0.36
  -1   3  25    2.10    0.38
   0  -3  25    1.58    0.32
   0  -3  25    1.68    0.33
   0  -3 -25    1.92    0.36
   0   3  25    2.43    0.39
  -1  -3 -25    4.27    0.49
   1  -3  25    2.83    0.41
  -1   3 -25    2.68    0.43
  -3  -4  25    0.53    0.27
   3  -4 -25    0.77    0.27
  -3   4  25    0.69    0.29
  -2  -4  25    3.30    0.45
   2  -4 -25    4.55    0.48
   2   4 -25    3.66    0.43
  -2   4  25    3.47    0.43
  -1  -4  25    0.10    0.25
  -1  -4  25    0.20    0.24
   1  -4 -25    0.20    0.22
  -1   4  25    0.51    0.27
   1   4 -25    0.93    0.28
   0  -4  25    0.06    0.24
   0  -4  25    0.64    0.30
   0  -4 -25    0.74    0.29
   0   4  25    0.32    0.27
   1  -4  25    1.32    0.33
  -1  -4 -25    1.74    0.38
  -1   4 -25    2.24    0.41
  -2  -5  25    0.22    0.26
   2  -5 -25    0.50    0.24
  -2   5  25    0.69    0.30
   2   5 -25    0.46    0.26
  -1  -5  25    2.94    0.38
  -1  -5  25    3.22    0.45
   1  -5 -25    2.03    0.33
  -1   5  25    3.62    0.46
   1   5 -25    2.82    0.38
   0  -5 -25    3.45    0.47
   0  -5  25    2.52    0.42
   0  -5  25    3.02    0.43
   0   5  25    2.87    0.43
  -1  -6  25    0.63    0.29
  -1  -6  25    0.59    0.26
  -1   6  25    0.40    0.29
   1   6 -25    0.51    0.25
   2   0 -26    4.43    0.45
  -2   0  26    4.99    0.52
  -1   0  26    1.60    0.34
   1   0 -26    2.40    0.37
   0   0  26    0.35    0.28
  -1   0 -26    1.32    0.35
   2  -1 -26   -0.14    0.22
  -2  -1  26    0.04    0.22
   2   1 -26    0.03    0.23
  -2   1  26   -0.06    0.22
   1  -1 -26    1.04    0.29
  -1  -1  26    0.93    0.32
   1   1 -26    0.80    0.27
  -1   1  26    0.73    0.29
   0  -1  26    4.35    0.47
   0   1  26    3.87    0.45
   1  -1  26    0.36    0.28
  -1  -1 -26    1.03    0.33
  -1   1 -26    1.12    0.36
   2  -2 -26    3.31    0.40
  -2  -2  26    2.09    0.39
  -2   2  26    2.85    0.41
   2   2 -26    3.23    0.42
   1  -2 -26   -0.21    0.19
  -1  -2  26    0.10    0.26
  -1   2  26   -0.04    0.22
   1   2 -26    0.10    0.24
   0  -2  26   -0.22    0.22
   0  -2  26    0.14    0.23
   0   2  26   -0.25    0.22
  -2  -3  26    1.71    0.34
   2  -3 -26    1.66    0.33
   2   3 -26    1.30    0.33
  -2   3  26    1.31    0.32
  -1  -3  26    1.71    0.36
   1  -3 -26    1.18    0.27
   1   3 -26    2.03    0.37
  -1   3  26    1.31    0.31
   0  -3  26    0.24    0.26
   0  -3  26    0.37    0.26
   0   3  26   -0.30    0.22
  -1  -4  26    0.74    0.31
  -1  -4  26    0.59    0.28
   1   4 -26    0.28    0.26
  -1   4  26    0.53    0.28
   0  -4  26    0.18    0.24
   0  -4  26   -0.18    0.24
   0   4  26    0.22    0.26
   1   0 -27   -0.32    0.20
  -1   0  27    0.03    0.25
   1  -1 -27    1.33    0.33
  -1  -1  27    1.39    0.36
  -1   1  27    1.81    0.38
   1   1 -27    1.14    0.32
   0   0   0    0.00    0.00
;
_shelx_hkl_checksum              88530
loop_
_space_group_symop_operation_xyz
'x, y, z'
'-x, y+1/2, -z+1/2'
'-x, -y, -z'
'x, -y-1/2, z-1/2'
loop_
_atom_site_label
_atom_site_type_symbol
_atom_site_fract_x
_atom_site_fract_y
_atom_site_fract_z
_atom_site_U_iso_or_equiv
_atom_site_adp_type
_atom_site_occupancy
_atom_site_site_symmetry_order
_atom_site_calc_flag
_atom_site_refinement_flags_posn
_atom_site_refinement_flags_adp
S1 S 0.60364(6) 0.66484(3) 0.33717(2) 0.02838(10) Uani 1 1 d . .
F1 F -0.2537(2) 0.68906(10) 0.10551(5) 0.0529(3) Uani 1 1 d . .
O1 O 0.78163(19) 0.76084(11) 0.33253(6) 0.0411(3) Uani 1 1 d . .
O2 O 0.7016(2) 0.54697(10) 0.34396(6) 0.0412(3) Uani 1 1 d . .
O3 O 0.2950(2) 0.49895(10) 0.42116(6) 0.0403(3) Uani 1 1 d . .
N1 N 0.4491(2) 0.69081(10) 0.40849(6) 0.0254(2) Uani 1 1 d . .
C1 C 0.3512(2) 0.67214(12) 0.26613(7) 0.0247(2) Uani 1 1 d . .
C2 C 0.2117(3) 0.56981(12) 0.24568(7) 0.0297(3) Uani 1 1 d . .
H2 H 0.2562 0.4969 0.2692 0.036 Uiso 1 1 calc R U
C3 C 0.0071(3) 0.57511(13) 0.19068(8) 0.0349(3) Uani 1 1 d . .
H3 H -0.0898 0.5061 0.1751 0.042 Uiso 1 1 calc R U
C4 C -0.0521(3) 0.68344(14) 0.15908(7) 0.0333(3) Uani 1 1 d . .
C5 C 0.0823(3) 0.78617(13) 0.17838(7) 0.0320(3) Uani 1 1 d . .
H5 H 0.0351 0.8590 0.1551 0.038 Uiso 1 1 calc R U
C6 C 0.2887(3) 0.78004(12) 0.23287(7) 0.0290(3) Uani 1 1 d . .
H6 H 0.3870 0.8491 0.2475 0.035 Uiso 1 1 calc R U
C7 C 0.3941(3) 0.80604(12) 0.43503(7) 0.0272(3) Uani 1 1 d . .
C8 C 0.4866(3) 0.90900(14) 0.41704(8) 0.0395(3) Uani 1 1 d . .
H8A H 0.6053 0.9127 0.3824 0.047 Uiso 1 1 calc R U
H8B H 0.4346 0.9797 0.4387 0.047 Uiso 1 1 calc R U
C9 C 0.2032(3) 0.78810(14) 0.48860(8) 0.0357(3) Uani 1 1 d . .
H9A H 0.0271 0.8192 0.4700 0.043 Uiso 1 1 calc R U
H9B H 0.2657 0.8296 0.5336 0.043 Uiso 1 1 calc R U
C10 C 0.1911(3) 0.65614(15) 0.50069(9) 0.0396(3) Uani 1 1 d . .
H10A H 0.2930 0.6343 0.5467 0.047 Uiso 1 1 calc R U
H10B H 0.0066 0.6300 0.5008 0.047 Uiso 1 1 calc R U
C11 C 0.3089(3) 0.60033(13) 0.44026(7) 0.0297(3) Uani 1 1 d . .
loop_
_atom_site_aniso_label
_atom_site_aniso_U_11
_atom_site_aniso_U_22
_atom_site_aniso_U_33
_atom_site_aniso_U_23
_atom_site_aniso_U_13
_atom_site_aniso_U_12
S1 0.02210(15) 0.03606(19) 0.02745(17) -0.00251(13) 0.00501(11) 0.00183(12)
F1 0.0544(6) 0.0575(6) 0.0406(5) 0.0034(5) -0.0190(5) -0.0046(5)
O1 0.0291(5) 0.0564(7) 0.0389(6) -0.0059(5) 0.0090(4) -0.0140(5)
O2 0.0374(5) 0.0455(7) 0.0408(6) -0.0024(5) 0.0051(4) 0.0183(5)
O3 0.0431(6) 0.0321(6) 0.0456(6) -0.0012(5) 0.0046(5) -0.0056(5)
N1 0.0255(5) 0.0276(6) 0.0236(5) 0.0001(4) 0.0044(4) 0.0018(4)
C1 0.0251(5) 0.0283(6) 0.0214(5) -0.0018(5) 0.0059(4) -0.0003(5)
C2 0.0347(6) 0.0246(6) 0.0301(6) 0.0002(5) 0.0053(5) -0.0014(5)
C3 0.0392(7) 0.0323(7) 0.0325(7) -0.0045(6) 0.0013(6) -0.0090(6)
C4 0.0350(7) 0.0405(8) 0.0234(6) -0.0008(5) -0.0006(5) -0.0016(6)
C5 0.0412(7) 0.0291(7) 0.0260(6) 0.0031(5) 0.0052(5) 0.0009(6)
C6 0.0349(6) 0.0268(6) 0.0260(6) -0.0008(5) 0.0070(5) -0.0048(5)
C7 0.0270(6) 0.0307(7) 0.0225(6) -0.0021(5) -0.0022(4) 0.0044(5)
C8 0.0535(9) 0.0302(8) 0.0338(7) 0.0002(6) 0.0018(6) 0.0020(7)
C9 0.0318(6) 0.0449(8) 0.0310(7) -0.0092(6) 0.0065(5) 0.0023(6)
C10 0.0407(8) 0.0461(9) 0.0343(7) 0.0032(7) 0.0139(6) 0.0020(7)
C11 0.0264(6) 0.0331(7) 0.0290(6) 0.0038(5) 0.0012(5) -0.0001(5)
loop_
_atom_type_symbol
_atom_type_description
_atom_type_scat_dispersion_real
_atom_type_scat_dispersion_imag
_atom_type_scat_source
C C 0.0033 0.0016 'International Tables Vol C Tables 4.2.6.8 and 6.1.1.4'
H H 0.0000 0.0000 'International Tables Vol C Tables 4.2.6.8 and 6.1.1.4'
N N 0.0061 0.0033 'International Tables Vol C Tables 4.2.6.8 and 6.1.1.4'
O O 0.0106 0.0060 'International Tables Vol C Tables 4.2.6.8 and 6.1.1.4'
F F 0.0171 0.0103 'International Tables Vol C Tables 4.2.6.8 and 6.1.1.4'
S S 0.1246 0.1234 'International Tables Vol C Tables 4.2.6.8 and 6.1.1.4'
loop_
_geom_angle_atom_site_label_1
_geom_angle_atom_site_label_2
_geom_angle_atom_site_label_3
_geom_angle
O2 S1 O1 119.72(7)
O2 S1 N1 106.70(6)
O1 S1 N1 106.69(6)
O2 S1 C1 109.40(7)
O1 S1 C1 109.45(7)
N1 S1 C1 103.62(6)
C11 N1 C7 111.69(11)
C11 N1 S1 122.00(9)
C7 N1 S1 125.09(9)
C2 C1 C6 121.42(12)
C2 C1 S1 118.76(10)
C6 C1 S1 119.79(10)
C3 C2 C1 119.28(13)
C4 C3 C2 118.06(13)
F1 C4 C5 117.96(13)
F1 C4 C3 118.19(13)
C5 C4 C3 123.85(13)
C4 C5 C6 117.81(13)
C5 C6 C1 119.56(12)
C8 C7 N1 128.04(13)
C8 C7 C9 125.29(13)
N1 C7 C9 106.67(12)
C7 C9 C10 106.09(12)
C11 C10 C9 105.68(12)
O3 C11 N1 124.75(13)
O3 C11 C10 128.11(14)
N1 C11 C10 107.14(12)
loop_
_geom_bond_atom_site_label_1
_geom_bond_atom_site_label_2
_geom_bond_distance
S1 O2 1.4218(11)
S1 O1 1.4255(11)
S1 N1 1.6764(11)
S1 C1 1.7477(13)
F1 C4 1.3556(16)
O3 C11 1.1995(18)
N1 C11 1.4247(17)
N1 C7 1.4351(17)
C1 C2 1.3871(18)
C1 C6 1.3900(18)
C2 C3 1.3836(19)
C3 C4 1.378(2)
C4 C5 1.374(2)
C5 C6 1.3837(19)
C7 C8 1.316(2)
C7 C9 1.5091(19)
C9 C10 1.509(2)
C10 C11 1.499(2)
