#------------------------------------------------------------------------------
#$Date: 2016-03-04 10:54:30 +0200 (Fri, 04 Mar 2016) $
#$Revision: 177373 $
#$URL: svn://www.crystallography.net/cod/cif/1/54/27/1542723.cif $
#------------------------------------------------------------------------------
#
# This file is available in the Crystallography Open Database (COD),
# http://www.crystallography.net/
#
# All data on this site have been placed in the public domain by the
# contributors.
#
data_1542723
loop_
_publ_author_name
'Pan, Hongjie'
'Huang, Hu'
'Liu, Weigang'
'Tian, Hua'
'Shi, Yian'
_publ_section_title
;
 Phosphine Oxide-Sc(OTf)3 Catalyzed Highly Regio- and Enantioselective
 Bromoaminocyclization of (E)-Cinnamyl Tosylcarbamates. An Approach to a
 Class of Synthetically Versatile Functionalized Molecules.
;
_journal_issue                   5
_journal_name_full               'Organic letters'
_journal_page_first              896
_journal_paper_doi               10.1021/acs.orglett.5b03459
_journal_volume                  18
_journal_year                    2016
_chemical_absolute_configuration ad
_chemical_formula_moiety         'C16 H18 Br N O3 S'
_chemical_formula_sum            'C16 H18 Br N O3 S'
_chemical_formula_weight         384.28
_space_group_crystal_system      monoclinic
_space_group_IT_number           4
_space_group_name_Hall           'P 2yb'
_space_group_name_H-M_alt        'P 1 21 1'
_symmetry_space_group_name_Hall  'P 2yb'
_symmetry_space_group_name_H-M   'P 1 21 1'
_atom_sites_solution_hydrogens   mixed
_atom_sites_solution_primary     direct
_audit_creation_date             2015-08-10
_audit_creation_method
;
Olex2 1.2
(compiled 2015.01.26 svn.r3150 for OlexSys, GUI svn.r4998)
;
_cell_angle_alpha                90
_cell_angle_beta                 108.460(3)
_cell_angle_gamma                90
_cell_formula_units_Z            2
_cell_length_a                   5.9781(18)
_cell_length_b                   19.198(6)
_cell_length_c                   7.657(2)
_cell_measurement_reflns_used    2783
_cell_measurement_temperature    173.1500
_cell_measurement_theta_max      27.4785
_cell_measurement_theta_min      2.1216
_cell_volume                     833.6(4)
_computing_cell_refinement       'CrystalClear (Rigaku Inc., 2007)'
_computing_data_collection       'CrystalClear (Rigaku Inc., 2007)'
_computing_data_reduction        'CrystalClear (Rigaku Inc., 2007)'
_computing_molecular_graphics    'Olex2 (Dolomanov et al., 2009)'
_computing_publication_material  'CIFTAB (Sheldrick, 2013)'
_computing_structure_refinement  'SHELXL (Sheldrick, 2014)'
_computing_structure_solution
;
'SHELXT (Sheldrick, 2014)'
;
_diffrn_ambient_temperature      173.1500
_diffrn_detector_area_resol_mean 28.5714
_diffrn_measured_fraction_theta_full 0.988
_diffrn_measured_fraction_theta_max 0.990
_diffrn_measurement_details
;
scan:
    Number of images: 360
               Slice: -110.0000 - 70.0000
         Image width: 0.5000
            Exp time: 6.0000
       Rotation axis: Omega
               Omega: 0.0000
                 Chi: 45.0000
                 Phi: 180.0000
                 XTD: 45.0986
              2theta: -19.9761
scan:
    Number of images: 330
               Slice: -110.0000 - 55.0000
         Image width: 0.5000
            Exp time: 6.0000
       Rotation axis: Omega
               Omega: 0.0000
                 Chi: 45.0000
                 Phi: 0.0000
                 XTD: 45.0986
              2theta: -19.9761
scan:
    Number of images: 328
               Slice: -110.0000 - 54.0000
         Image width: 0.5000
            Exp time: 6.0000
       Rotation axis: Omega
               Omega: 0.0000
                 Chi: 45.0000
                 Phi: 90.0000
                 XTD: 45.2416
              2theta: -19.8995
;
_diffrn_measurement_device
;
Saturn724+ (2x2 bin mode)
;
_diffrn_measurement_device_details
;
AFC10: Fixed Chi 2 circle
;
_diffrn_measurement_device_type  'Saturn724+ CCD'
_diffrn_measurement_method       '\w scans at fixed \c = 45\%'
_diffrn_orient_matrix_type       d*Trek
_diffrn_orient_matrix_UB_11      0.1678
_diffrn_orient_matrix_UB_12      0.0532
_diffrn_orient_matrix_UB_13      0.0103
_diffrn_orient_matrix_UB_21      0.0011
_diffrn_orient_matrix_UB_22      0.0065
_diffrn_orient_matrix_UB_23      -0.0517
_diffrn_orient_matrix_UB_31      0.0014
_diffrn_orient_matrix_UB_32      0.1366
_diffrn_orient_matrix_UB_33      0.0173
_diffrn_radiation_detector       CCD
_diffrn_radiation_monochromator  'Graphite Monochromator'
_diffrn_radiation_type           MoK\a
_diffrn_radiation_wavelength     0.71073
_diffrn_reflns_av_R_equivalents  0.0302
_diffrn_reflns_av_unetI/netI     0.0322
_diffrn_reflns_laue_measured_fraction_full 0.988
_diffrn_reflns_laue_measured_fraction_max 0.990
_diffrn_reflns_limit_h_max       7
_diffrn_reflns_limit_h_min       -7
_diffrn_reflns_limit_k_max       24
_diffrn_reflns_limit_k_min       -24
_diffrn_reflns_limit_l_max       9
_diffrn_reflns_limit_l_min       -9
_diffrn_reflns_number            8809
_diffrn_reflns_point_group_measured_fraction_full 0.988
_diffrn_reflns_point_group_measured_fraction_max 0.990
_diffrn_reflns_theta_full        26.000
_diffrn_reflns_theta_max         27.497
_diffrn_reflns_theta_min         2.999
_diffrn_source                   'Sealed Tube'
_diffrn_source_current           30.0000
_diffrn_source_power             1.5000
_diffrn_source_voltage           50.0000
_exptl_absorpt_coefficient_mu    2.602
_exptl_absorpt_correction_T_max  1.0000
_exptl_absorpt_correction_T_min  0.7216
_exptl_absorpt_correction_type   multi-scan
_exptl_absorpt_process_details   'CrystalClear (Rigaku Inc., 2007)'
_exptl_crystal_colour            Colorless
_exptl_crystal_density_diffrn    1.531
_exptl_crystal_description       block
_exptl_crystal_F_000             392
_exptl_crystal_size_max          0.24
_exptl_crystal_size_mid          0.21
_exptl_crystal_size_min          0.2
_refine_diff_density_max         0.394
_refine_diff_density_min         -0.414
_refine_diff_density_rms         0.049
_refine_ls_abs_structure_details
;
 Refined as an inversion twin.
;
_refine_ls_abs_structure_Flack   0.012(9)
_refine_ls_extinction_method     none
_refine_ls_goodness_of_fit_ref   1.111
_refine_ls_hydrogen_treatment    constr
_refine_ls_matrix_type           full
_refine_ls_number_parameters     201
_refine_ls_number_reflns         3548
_refine_ls_number_restraints     1
_refine_ls_restrained_S_all      1.111
_refine_ls_R_factor_all          0.0290
_refine_ls_R_factor_gt           0.0277
_refine_ls_shift/su_max          0.001
_refine_ls_shift/su_mean         0.000
_refine_ls_structure_factor_coef Fsqd
_refine_ls_weighting_details
'w=1/[\s^2^(Fo^2^)+(0.0299P)^2^+0.1872P] where P=(Fo^2^+2Fc^2^)/3'
_refine_ls_weighting_scheme      calc
_refine_ls_wR_factor_gt          0.0671
_refine_ls_wR_factor_ref         0.0678
_reflns_Friedel_coverage         0.943
_reflns_friedel_fraction_full    0.989
_reflns_friedel_fraction_max     0.990
_reflns_number_gt                3449
_reflns_number_total             3548
_reflns_threshold_expression     'I > 2\s(I)'
_cod_data_source_file            ol5b03459_si_006.cif
_cod_data_source_block           sa4201
_cod_database_code               1542723
_shelx_space_group_comment
;
The symmetry employed for this shelxl refinement is uniquely defined
by the following loop, which should always be used as a source of
symmetry information in preference to the above space-group names.
They are only intended as comments.
;
_diffrn_number_total             1960
_olex2_refinement_description
;
1. Twinned data refinement
 Scales: 0.988(9) 0.012(9)
2. Fixed Uiso
 At 1.2 times of:
  All C(H) groups, All C(H,H) groups, All N(H) groups
 At 1.5 times of:
  All C(H,H,H) groups, All O(H) groups
3.a Riding coordinates:
 O3(H3), N1(H1)
3.b Ternary CH refined with riding coordinates:
 C1(H1A), C2(H2)
3.c Secondary CH2 refined with riding coordinates:
 C3(H3A,H3B)
3.d Aromatic/amide H refined with riding coordinates:
 C5(H5), C6(H6), C7(H7), C8(H8), C9(H9), C11(H11), C12(H12), C14(H14), C15(H15)
3.e Idealised Me refined as rotating group:
 C16(H16A,H16B,H16C)
;
_shelx_res_file
;
    sa4201.res created by SHELXL-2014/7

TITL sa4201_a.res in P2(1)
CELL 0.71073 5.9781 19.1985 7.6574 90 108.46 90
ZERR 2 0.0018 0.0056 0.0023 0 0.003 0
LATT -1
SYMM -X,0.5+Y,-Z
SFAC C H Br N O S
UNIT 32 36 2 2 6 2
EQIV $1 +X,+Y,1+Z

L.S. 4 0 0
PLAN  20
HTAB O3 O2_$1
HTAB N1 O3
BOND $H
LIST 6
MORE -1
CONF
HTAB
fmap 2 53
acta 52
TWIN -1 0 0 0 -1 0 0 0 -1 2
OMIT 0 -2 0
OMIT 0 2 0
REM <olex2.extras>
REM <HklSrc "%.\\sa4201.hkl">
REM </olex2.extras>

WGHT    0.029900    0.187200
BASF   0.01179
FVAR       0.84005
BR1   3    0.871622    0.553910    0.615718    11.00000    0.06668    0.02665 =
         0.04374   -0.00569   -0.00464   -0.01148
S1    6    0.327689    0.495198    0.140004    11.00000    0.02381    0.02287 =
         0.01814   -0.00004    0.00538    0.00116
O1    5    0.088107    0.501675    0.137994    11.00000    0.02215    0.03554 =
         0.03052    0.00260    0.00630    0.00233
O2    5    0.380267    0.455484   -0.000647    11.00000    0.04246    0.02845 =
         0.02078   -0.00292    0.01195   -0.00008
O3    5    0.509865    0.440395    0.689737    11.00000    0.04237    0.07512 =
         0.02179    0.00200    0.01351    0.00655
AFIX   3  0.8200
H3    2    0.433415    0.440235    0.761747    11.00000   -1.50000
AFIX   0
N1    4    0.464948    0.458083    0.333118    11.00000    0.02426    0.02502 =
         0.01928   -0.00039    0.00745    0.00292
AFIX   3
H1    2    0.444938    0.481373    0.422968    11.00000   -1.20000
AFIX   0
C1    1    0.712583    0.436654    0.377941    11.00000    0.01863    0.02589 =
         0.02344    0.00091    0.00659   -0.00287
AFIX  13
H1A   2    0.785083    0.463907    0.301907    11.00000   -1.20000
AFIX   0
C2    1    0.845914    0.452357    0.582288    11.00000    0.02652    0.02302 =
         0.03064   -0.00406    0.00004   -0.00029
AFIX  13
H2    2    1.006508    0.434354    0.607887    11.00000   -1.20000
AFIX   0
C3    1    0.747837    0.420793    0.724355    11.00000    0.03751    0.03518 =
         0.01988   -0.00037    0.00403   -0.00261
AFIX  23
H3A   2    0.758933    0.370434    0.720938    11.00000   -1.20000
H3B   2    0.840697    0.436376    0.846262    11.00000   -1.20000
AFIX   0
C4    1    0.734482    0.359880    0.337618    11.00000    0.02266    0.02490 =
         0.02095    0.00010    0.00381    0.00074
C5    1    0.580571    0.310169    0.365189    11.00000    0.02921    0.02673 =
         0.02934    0.00098    0.01277   -0.00009
AFIX  43
H5    2    0.457734    0.323809    0.407668    11.00000   -1.20000
AFIX   0
C6    1    0.607917    0.240420    0.330115    11.00000    0.04158    0.02440 =
         0.03562   -0.00050    0.00764   -0.00500
AFIX  43
H6    2    0.504020    0.207482    0.349275    11.00000   -1.20000
AFIX   0
C7    1    0.790316    0.219833    0.266449    11.00000    0.04345    0.02556 =
         0.04390   -0.00719    0.00245    0.00719
AFIX  43
H7    2    0.808667    0.173053    0.242535    11.00000   -1.20000
AFIX   0
C8    1    0.943482    0.268310    0.238740    11.00000    0.03463    0.04579 =
         0.05765   -0.01521    0.01632    0.00817
AFIX  43
H8    2    1.065580    0.254455    0.195653    11.00000   -1.20000
AFIX   0
C9    1    0.916778    0.338315    0.274952    11.00000    0.02925    0.03630 =
         0.04485   -0.00657    0.01713   -0.00240
AFIX  43
H9    2    1.022320    0.370950    0.256917    11.00000   -1.20000
AFIX   0
C10   1    0.445113    0.578508    0.139591    11.00000    0.02581    0.02273 =
         0.02017    0.00327    0.00340    0.00603
C11   1    0.623319    0.589763    0.062458    11.00000    0.02824    0.02615 =
         0.03066    0.00722    0.01125    0.00658
AFIX  43
H11   2    0.673054    0.553875    0.001965    11.00000   -1.20000
AFIX   0
C12   1    0.726542    0.655334    0.076735    11.00000    0.03145    0.03354 =
         0.04054    0.00891    0.01166    0.00122
AFIX  43
H12   2    0.847090    0.662806    0.026345    11.00000   -1.20000
AFIX   0
C13   1    0.653220    0.709911    0.164760    11.00000    0.04645    0.02652 =
         0.03217    0.00528    0.00420   -0.00469
C14   1    0.473242    0.697632    0.239507    11.00000    0.05723    0.02508 =
         0.03349   -0.00398    0.01473    0.00604
AFIX  43
H14   2    0.421853    0.733731    0.298291    11.00000   -1.20000
AFIX   0
C15   1    0.368367    0.632308    0.228072    11.00000    0.03876    0.02790 =
         0.02963    0.00154    0.01736    0.00395
AFIX  43
H15   2    0.248389    0.624751    0.279022    11.00000   -1.20000
AFIX   0
C16   1    0.764509    0.780613    0.178874    11.00000    0.08006    0.03812 =
         0.06219   -0.00343    0.02513   -0.01649
AFIX 137
H16A  2    0.926753    0.775744    0.185317    11.00000   -1.50000
H16B  2    0.755582    0.803613    0.287791    11.00000   -1.50000
H16C  2    0.682397    0.807720    0.072545    11.00000   -1.50000
AFIX   0
HKLF 4

REM  sa4201_a.res in P2(1)
REM R1 =  0.0277 for    3449 Fo > 4sig(Fo)  and  0.0290 for all    3548 data
REM    201 parameters refined using      1 restraints

END

WGHT      0.0298      0.1867

REM Instructions for potential hydrogen bonds
HTAB O3 O2_$1
HTAB N1 O3
EQIV $2 x+1, y, z
HTAB C1 O1_$2
EQIV $3 x+1, y, z+1
HTAB C3 O1_$3
HTAB C11 O1_$2

REM Highest difference peak  0.394,  deepest hole -0.414,  1-sigma level  0.049
Q1    1   0.9625  0.5463  0.5554  11.00000  0.05    0.39
Q2    1   0.2748  0.3811  0.7766  11.00000  0.05    0.21
Q3    1   0.5380  0.4716  0.8155  11.00000  0.05    0.21
Q4    1   0.4069  0.4606  0.4227  11.00000  0.05    0.20
Q5    1   0.9638  0.3428  0.6838  11.00000  0.05    0.19
Q6    1   0.3851  0.5363  0.1268  11.00000  0.05    0.18
Q7    1   0.8087  0.5011  0.6740  11.00000  0.05    0.18
Q8    1   0.7305  0.7581  0.3777  11.00000  0.05    0.16
Q9    1   0.6520  0.4966  0.7260  11.00000  0.05    0.16
Q10   1   0.6562  0.8602  0.3465  11.00000  0.05    0.16
Q11   1   0.7903  0.6575  0.5387  11.00000  0.05    0.16
Q12   1   1.2556  0.5570  0.7413  11.00000  0.05    0.15
Q13   1   1.0740  0.1616  0.2682  11.00000  0.05    0.15
Q14   1   0.6124  0.4771  0.7038  11.00000  0.05    0.15
Q15   1   0.4109  0.6585  0.2281  11.00000  0.05    0.15
Q16   1   0.8469  0.4367  0.6525  11.00000  0.05    0.15
Q17   1   0.9659  0.5774  0.8856  11.00000  0.05    0.15
Q18   1   0.0065  0.5569 -0.0002  11.00000  0.05    0.15
Q19   1   0.6740  0.3390  0.3664  11.00000  0.05    0.14
Q20   1   0.8343  0.1162  0.4485  11.00000  0.05    0.14
;
_shelx_res_checksum              93884
_shelx_hkl_file
;
   0   0   2 2859.00   30.74
   0   0  -2 2889.74   31.04
   0   0   2 2856.55   30.39
   0   0   3 1299.09   15.15
   0   0  -3 1316.44   15.29
   0   0   3 1249.59   14.04
   0   0   4 2189.33   35.50
   0   0  -4 2219.49   35.88
   0   0   4 1982.06   31.66
   0   0   5  251.13    5.67
   0   0  -5  220.17    5.06
   0   0   6   20.61    3.00
   0   0  -6   26.29    3.28
   0   0   7   64.65    5.59
   0   0  -7   49.89    4.87
   0   0   7   63.04    4.00
   0   0   8  313.09   21.51
   0   0  -8  313.71   21.56
   0   0   8  308.74   20.67
   0   0   9   28.70    6.46
   0   0  -9   16.91    4.41
   0  -1   0    0.08    0.07
   0   1   0   -0.07    0.06
   0  -1   0   -0.33    0.09
   0   1   0   -0.22    0.10
   0   1  -1  231.81    2.87
   0  -1   2 9999.00  155.89
   0  -1   3   77.73    2.61
   0   1   3   95.66    2.71
   0  -1  -3   72.05    2.86
   0   1   3   95.81    2.43
   0  -1  -3   78.81    2.05
   0  -1   3   76.27    2.82
   0   1   3  103.01    3.57
   0  -1   4   86.70    3.49
   0   1   4   78.26    3.37
   0   1  -4   72.78    2.86
   0  -1  -4   93.33    3.62
   0  -1  -4   91.59    2.70
   0  -1   4   84.81    2.28
   0   1   4   58.20    4.44
   0  -1   5  178.20    5.09
   0   1   5  208.78    5.17
   0   1  -5  225.40    5.51
   0  -1  -5  172.61    4.53
   0  -1   6  471.31   17.53
   0   1   6  457.00   16.83
   0   1  -6  472.07   17.30
   0  -1  -6  499.62   18.44
   0  -1   6  480.50   17.27
   0  -1   7  109.47    6.89
   0   1   7  122.04    6.60
   0   1  -7  131.46    7.40
   0  -1  -7  121.56    6.75
   0  -1   7  129.06    6.28
   0  -1   8   25.38    3.25
   0   1   8   15.62    3.52
   0   1  -8   10.76    3.49
   0  -1  -8   16.97    3.32
   0  -1   8   12.26    2.33
   0   1   8    9.06    1.81
   0   1   9  113.54    9.95
   0  -1   9  111.89    9.63
   0   1  -9  122.86   10.55
   0  -1  -9  127.84   10.90
   0  -2   0    0.22    0.11
   0   2   0   -0.17    0.14
   0  -2   0    0.14    0.26
   0  -2   2 1437.25   15.99
   0  -2  -2 1405.14   15.65
   0   2  -2 1399.77   15.53
   0   2   2 1389.70   15.51
   0   2   2 1414.84   15.45
   0  -2   2 1465.48   16.14
   0  -2   3  535.82    6.61
   0   2   4 2340.90   37.92
   0  -2  -4 2419.54   38.99
   0  -2  -4 2454.96   39.38
   0   2   4 2133.29   34.01
   0  -2   4 2543.14   40.55
   0  -2   5  316.63   10.78
   0   2   5  349.84   12.01
   0   2  -5  369.45   12.21
   0  -2  -5  314.04   10.66
   0  -2  -5  304.63   10.14
   0  -2   5  320.30   10.67
   0  -2   6  184.14    7.82
   0   2   6  222.54    9.32
   0   2  -6  223.81    9.22
   0  -2  -6  169.50    7.26
   0  -2   6  193.15    7.67
   0  -2   7  195.19    9.93
   0   2   7  225.47   10.60
   0   2  -7  232.14   10.85
   0  -2  -7  203.65    9.80
   0  -2   7  199.40    9.13
   0  -2   8  199.91   14.52
   0   2   8  175.62   12.63
   0   2  -8  177.05   12.70
   0  -2  -8  201.64   14.44
   0  -2   8  197.78   13.52
   0  -2   9   27.83    5.99
   0   2   9   39.85    8.08
   0   2  -9   43.55    9.64
   0  -2  -9   45.92    6.09
   0  -3   0    0.52    0.44
   0   3   0    0.44    0.31
   0   3   0    0.38    0.26
   0  -3   0    0.66    0.19
   0  -3   0    2.06    0.85
   0  -3   2 4293.96   67.34
   0  -3  -2 4152.69   65.14
   0   3  -2 4043.00   42.96
   0   3   2 3888.27   41.44
   0   3   2 3827.19   40.56
   0  -3   2 4492.31   70.37
   0  -3   3  984.35   11.86
   0  -3  -3  963.20   12.08
   0   3   3 1105.08   12.58
   0  -3   3  992.94   11.72
   0  -3   4  329.62    7.13
   0   3   4  364.04    7.44
   0   3  -4  368.69    7.47
   0  -3  -4  312.02    6.61
   0  -3  -4  334.09    6.59
   0  -3   4  348.09    7.01
   0  -3   5  544.40   17.51
   0   3   5  641.84   20.46
   0   3  -5  662.59   21.09
   0  -3  -5  564.65   18.11
   0  -3  -5  550.37   17.29
   0  -3   5  576.30   18.24
   0  -3   6  977.25   34.31
   0   3   6  919.36   32.44
   0   3  -6  941.11   33.12
   0  -3  -6  942.64   33.00
   0  -3   6 1013.28   35.15
   0  -3   7  141.17    6.48
   0   3   7  147.13    7.29
   0   3  -7  128.03    5.95
   0  -3  -7  131.43    6.62
   0  -3   7  129.34    5.56
   0  -3   8   19.67    3.61
   0   3   8   27.31    3.71
   0   3  -8   22.41    3.50
   0  -3  -8   18.78    3.31
   0  -3   8   14.11    2.48
   0  -3   9   53.91    5.99
   0   3   9   46.51    5.10
   0   3  -9   47.62    5.74
   0  -3  -9   26.33    5.81
   0  -4   1  751.13    8.44
   0  -4   1  726.56    8.14
   0   4   1  831.23    9.39
   0  -4   2  297.66    4.18
   0   4  -2  322.23    4.40
   0   4   2  316.53    4.56
   0  -4  -2  287.21    4.06
   0   4  -2  327.85    4.58
   0  -4   2  289.96    4.01
   0  -4  -2  311.07    4.57
   0   4   2  319.89    4.60
   0   4   2  318.96    4.23
   0  -4   2  308.74    4.41
   0  -4   4 1956.46   31.90
   0   4  -4 1809.84   29.59
   0  -4  -4 1973.41   31.72
   0  -4   4 2071.88   33.53
   0  -4   5  430.04   14.11
   0   4   5  390.80   13.09
   0   4  -5  440.65   14.59
   0  -4  -5  445.67   14.39
   0  -4   5  443.10   14.27
   0  -4   6  188.41    8.63
   0   4   6  215.95   11.00
   0   4  -6  231.49   11.73
   0  -4  -6  179.42    8.26
   0  -4  -6  195.75    9.43
   0  -4   6  212.50   10.40
   0  -4   7  239.66    9.37
   0   4   7  287.21   10.95
   0   4  -7  265.25   10.11
   0  -4  -7  223.40    9.26
   0  -4   7  239.32    9.03
   0  -4   8  178.57   12.42
   0   4   8  118.99    8.67
   0   4  -8  133.91    9.50
   0  -4  -8  168.17   11.92
   0  -4   8  165.23   11.35
   0  -4   9   62.87    5.84
   0   4   9   68.04    7.22
   0   4  -9   59.21    5.57
   0  -4  -9   54.60    5.96
   0   5   0    0.70    0.35
   0   5   0    1.27    0.39
   0  -5   0    1.88    0.40
   0  -5   0    4.43    1.63
   0   5  -1 1968.06   21.11
   0  -5   1 1749.40   18.82
   0  -5  -1 1828.98   19.82
   0  -5  -1 1698.90   18.53
   0   5  -1 1959.32   21.26
   0   5  -2 1476.80   16.37
   0  -5   2 1683.01   18.45
   0   5   2 1485.25   16.45
   0  -5  -3  866.09   10.38
   0   5   3  763.11    9.12
   0  -5   3  839.09   10.42
   0   5  -3  774.22    9.39
   0  -5   4   95.17    3.36
   0   5   4  102.27    3.32
   0   5  -4  128.44    4.14
   0  -5  -4   92.44    3.91
   0  -5  -4   99.68    4.68
   0  -5   4   91.43    3.01
   0  -5   5  285.34   10.14
   0   5  -5  357.62   11.92
   0  -5  -5  279.77    9.85
   0  -5  -5  281.53    9.59
   0  -5   5  294.06   10.12
   0  -5   6  695.07   31.96
   0   5  -6  613.70   28.33
   0  -5  -6  656.91   29.87
   0  -5   6  701.23   32.03
   0  -5   7  235.79    9.64
   0   5  -7  270.49   10.43
   0  -5  -7  262.22    9.64
   0  -5   7  254.81    9.63
   0   5   8   61.08    5.35
   0  -5   8   36.80    5.64
   0  -5   9   71.84    9.06
   0   5   9   70.99    8.23
   0   5  -9   75.41    8.85
   0  -6   0  168.08    2.37
   0  -6   1 1918.17   20.74
   0   6  -1 1993.26   21.45
   0   6   1 2003.44   21.67
   0  -6  -1 1816.10   19.69
   0   6  -1 2057.60   22.13
   0  -6   1 1869.28   20.14
   0  -6  -1 1885.49   20.50
   0  -6  -1 1838.19   20.18
   0   6  -1 1948.20   21.31
   0  -6   2   24.12    1.37
   0   6  -2   27.19    1.13
   0   6   2   31.78    2.13
   0  -6  -2   21.57    1.46
   0   6  -2   30.35    1.45
   0  -6   2   22.02    1.22
   0  -6  -2   25.73    1.73
   0   6   2   25.80    1.26
   0  -6  -2   25.83    1.50
   0   6   2   28.42    1.14
   0  -6   2   24.59    1.53
   0  -6   3  667.90   11.47
   0  -6  -3  713.28   12.57
   0  -6  -3  714.03   12.17
   0  -6   3  704.26   12.21
   0  -6   4  561.21    9.28
   0   6  -4  458.79    7.87
   0  -6  -4  557.14    8.82
   0  -6   5  252.57    7.93
   0   6   5  320.01    9.90
   0   6  -5  320.00    9.34
   0  -6  -5  257.92    8.08
   0  -6  -5  249.65    7.56
   0  -6   5  248.49    7.63
   0  -6   6  101.67    8.43
   0   6   6  104.41    8.95
   0   6  -6  110.50    9.20
   0  -6  -6  104.59    8.82
   0  -6  -6   98.42    9.90
   0  -6   6  115.68    9.48
   0  -6   7   89.86    9.65
   0   6   7   93.65    9.94
   0   6  -7   86.50    9.09
   0  -6  -7   71.60    7.70
   0  -6  -7   78.20    8.28
   0  -6   7   83.10    8.91
   0  -6   8   75.43    6.78
   0   6   8   49.06    7.40
   0   6  -8   57.70    6.07
   0  -6  -8   74.26    6.06
   0  -6   8   77.06    5.94
   0  -6   9   79.18    9.37
   0   6  -9   69.19    8.03
   0  -6  -9   70.43    8.14
   0   7   0    2.45    0.46
   0  -7   0    2.25    0.35
   0  -7   0    2.12    1.43
   0  -7   1 4063.38   43.13
   0   7  -1 4141.10   64.84
   0   7   1 4179.79   65.50
   0  -7  -1 4010.35   42.58
   0   7  -1 4374.31   68.47
   0  -7   1 3965.48   42.01
   0  -7  -1 4091.97   43.50
   0  -7  -1 4046.65   43.28
   0   7  -2  984.66   11.38
   0   7   2 1028.39   12.15
   0  -7  -2 1043.28   11.98
   0   7  -2 1038.43   11.92
   0   7   2  963.99   11.17
   0  -7   3  852.93   14.38
   0   7   3  778.03   13.46
   0   7  -3  815.84   13.79
   0  -7  -3  764.83   13.30
   0  -7  -3  849.88   14.32
   0  -7   3  836.49   14.32
   0  -7   4    5.99    1.25
   0   7   4    6.71    3.06
   0   7  -4    2.85    1.72
   0  -7  -4    2.84    2.01
   0  -7  -4    2.58    1.32
   0  -7   4    8.43    2.59
   0  -7   5  369.49   10.64
   0   7   5  376.28   11.15
   0   7  -5  394.50   11.20
   0  -7  -5  393.77   11.58
   0  -7  -5  377.15   10.60
   0  -7   5  390.80   11.10
   0  -7   6  226.67   10.46
   0   7   6  132.98    6.88
   0   7  -6  134.86    6.58
   0  -7  -6  199.63    9.46
   0  -7  -6  199.02    8.77
   0  -7   6  206.10    9.28
   0  -7   7  147.37    8.52
   0   7   7  132.06    7.47
   0   7  -7  129.35    8.16
   0  -7  -7  132.48    7.42
   0  -7  -7  130.09    8.88
   0  -7   7  136.06    7.27
   0  -7   8   62.63    7.18
   0   7   8   67.72    7.09
   0   7  -8   81.23    9.15
   0  -7  -8   62.19    6.66
   0  -7  -8   67.72    6.66
   0  -7   8   61.89    6.44
   0  -7   9   44.01    7.99
   0   7   9   28.27    5.52
   0   7  -9   46.88    8.37
   0  -7  -9   23.13    4.66
   0  -8   1 2097.05   22.79
   0   8  -1 2133.28   23.11
   0   8   1 2148.73   23.49
   0  -8  -1 2057.25   22.38
   0   8  -1 2214.81   24.00
   0  -8   1 2015.82   21.84
   0  -8  -1 2110.49   23.18
   0  -8  -1 2079.78   23.10
   0  -8   2  171.12    3.77
   0   8  -2  151.10    2.63
   0   8   2  174.39    3.68
   0  -8   2  159.67    2.76
   0  -8  -2  166.31    3.36
   0  -8  -2  162.98    3.33
   0  -8   3 1624.46   26.38
   0   8   3 1850.26   30.14
   0   8  -3 1841.95   29.72
   0  -8  -3 1653.26   27.10
   0  -8  -3 1595.58   25.96
   0  -8   3 1635.80   26.78
   0  -8   4  221.17    4.67
   0   8   4  225.95    5.53
   0   8  -4  251.45    5.10
   0  -8  -4  237.04    5.25
   0  -8  -4  239.24    4.86
   0  -8   4  247.99    5.90
   0  -8   5  639.80   22.74
   0   8   5  650.97   23.43
   0   8  -5  714.80   25.23
   0  -8  -5  623.06   22.28
   0  -8  -5  654.02   22.90
   0  -8   5  686.51   24.26
   0  -8   6  165.29    7.76
   0   8   6  143.71    7.58
   0   8  -6  158.04    7.71
   0  -8  -6  166.46    8.26
   0  -8  -6  159.90    8.18
   0  -8   6  164.89    7.67
   0  -8   7  130.38    7.25
   0   8   7  128.34    7.40
   0   8  -7  135.87    7.75
   0  -8  -7  137.85    8.59
   0  -8  -7  132.73    7.09
   0  -8   7  134.82    7.64
   0  -8   8   24.38    5.55
   0   8   8   22.14    4.70
   0   8  -8   21.83    4.73
   0  -8  -8   29.20    6.27
   0  -8  -8   23.33    4.39
   0  -8   8   21.68    4.25
   0   9   0    2.21    0.65
   0  -9   0    9.18    2.41
   0   9   1 1893.13   20.70
   0   9  -1 1945.99   21.27
   0   9   1 1939.14   23.40
   0  -9  -1 2060.84   22.93
   0   9  -1 1990.56   21.70
   0  -9   1 2174.72   23.58
   0  -9  -1 2189.38   25.47
   0  -9  -1 2193.10   24.64
   0  -9   2  101.33    2.87
   0  -9   2   89.56    2.38
   0  -9  -2  103.09    3.14
   0  -9  -2   91.52    2.97
   0  -9   2   99.52    3.27
   0  -9   3  938.13   13.97
   0   9   3  986.04   14.95
   0   9  -3  925.85   13.71
   0  -9  -3  922.18   14.31
   0  -9  -3  912.34   13.74
   0  -9   3  896.58   13.70
   0  -9   4  365.21   11.91
   0   9   4  385.77   12.77
   0   9  -4  404.81   13.16
   0  -9  -4  382.34   12.78
   0  -9  -4  382.26   12.45
   0  -9   4  369.77   12.20
   0  -9   5  361.67   13.35
   0   9   5  347.81   13.16
   0   9  -5  371.82   13.68
   0  -9  -5  349.92   13.23
   0  -9  -5  354.20   12.99
   0  -9   5  376.48   14.09
   0  -9   6   32.40    3.54
   0   9   6   69.04    4.60
   0   9  -6   66.19    4.24
   0  -9  -6   44.22    4.27
   0  -9  -6   24.29    4.54
   0  -9   6   34.80    3.11
   0  -9   7  115.45    7.51
   0   9   7  134.22    8.84
   0   9  -7  150.21    8.98
   0  -9  -7  117.19    7.37
   0  -9  -7  126.37    7.49
   0  -9   7  131.75    8.30
   0  -9   8  119.87    8.73
   0   9   8  106.05    8.64
   0   9  -8  108.16    8.39
   0  -9  -8  106.91    8.73
   0  -9  -8  111.69    7.82
   0  -9   8  107.80    7.88
   0  10   0 1517.95   24.27
   0  10   0 1660.23   26.60
   0 -10   0 1582.13   25.24
   0 -10   0 1654.59   26.97
   0 -10   1 2318.52   36.81
   0  10  -1 1978.48   31.49
   0  10   1 1946.07   31.42
   0 -10  -1 2046.82   32.60
   0  10  -1 2106.81   33.48
   0 -10   1 2165.67   34.40
   0 -10  -1 2162.62   35.48
   0 -10   1 2197.89   35.39
   0 -10   2  236.90    5.24
   0  10   2  253.99    5.62
   0  10  -2  261.01    5.18
   0 -10  -2  252.73    5.59
   0 -10  -2  248.03    5.36
   0 -10   2  245.11    5.65
   0 -10   3 2705.06   82.25
   0  10   3 2590.79   78.57
   0  10  -3 2460.92   34.55
   0 -10  -3 2600.85   78.82
   0 -10  -3 2604.82   78.92
   0 -10   3 2553.55   35.91
   0 -10   4  149.41    4.96
   0 -10  -4  148.68    5.67
   0 -10  -4  135.38    4.56
   0 -10   4  147.96    5.25
   0 -10   5  411.03   19.27
   0  10   5  412.99   19.62
   0  10  -5  450.43   20.97
   0 -10  -5  410.74   19.41
   0 -10  -5  376.11   18.34
   0 -10   5  398.70   18.79
   0 -10   6   46.68    5.59
   0  10   6   39.06    5.59
   0  10  -6   22.57    3.56
   0 -10  -6   46.65    5.82
   0 -10  -6   38.98    5.40
   0 -10   6   45.33    5.38
   0 -10   7  159.45   11.59
   0  10   7  128.64    9.82
   0  10  -7  153.25   11.10
   0 -10  -7  149.25   10.88
   0 -10  -7  122.92   12.77
   0 -10   7  135.68    9.93
   0 -10   8    6.65    3.37
   0  10   8    4.51    2.56
   0  10  -8    4.12    2.27
   0 -10  -8    3.92    3.35
   0 -10  -8    3.29    1.52
   0 -10   8    5.56    2.70
   0  11   0    2.18    0.62
   0 -11   1 1347.24   21.89
   0  11   1 1167.59   19.17
   0  11  -1 1312.27   21.32
   0 -11  -1 1222.26   20.66
   0 -11  -1 1299.30   21.93
   0 -11   1 1293.70   21.53
   0 -11   2  371.11    7.14
   0 -11  -2  390.77    7.06
   0 -11   3 1253.77   38.33
   0  11   3 1135.75   35.10
   0  11  -3 1085.87   34.10
   0 -11  -3 1261.26   38.80
   0 -11  -3 1237.96   38.01
   0 -11   3 1219.23   37.66
   0 -11   4  183.05    5.82
   0  11   4  186.47    6.72
   0  11  -4  195.20    6.17
   0 -11  -4  208.40    7.19
   0 -11  -4  191.45    6.13
   0 -11   4  194.41    6.84
   0 -11   5  317.75   15.18
   0  11   5  289.13   14.20
   0  11  -5  311.74   14.76
   0 -11  -5  319.92   15.33
   0 -11  -5  317.96   15.40
   0 -11   5  336.38   16.03
   0 -11   6  126.83    5.60
   0  11   6  203.05    8.46
   0  11  -6  204.01    8.30
   0 -11  -6  136.53    6.57
   0 -11  -6  111.58   16.34
   0 -11   6  123.97    5.57
   0 -11   7  148.19   10.72
   0  11   7  148.67   10.67
   0  11  -7  160.64   11.40
   0 -11  -7  140.02    9.87
   0 -11  -7  116.36   14.51
   0 -11   7  143.65   10.22
   0 -11   8  125.23   10.09
   0  11   8  105.02    8.76
   0  11  -8  111.02    9.44
   0 -11  -8  122.42    9.82
   0 -11  -8   97.68   12.34
   0 -11   8  104.55    8.43
   0  12   0  589.15    9.15
   0 -12   0  583.08    9.83
   0 -12   1  970.51   14.04
   0  12  -1  841.92   12.28
   0 -12  -1  951.59   14.62
   0 -12  -1  969.39   14.69
   0 -12   1  987.62   15.13
   0 -12   2   71.88    4.89
   0  12   2   61.36    2.89
   0  12  -2   72.00    5.36
   0 -12  -2   64.84    2.56
   0 -12  -2   64.17    2.63
   0 -12   2   61.92    3.41
   0 -12   3  696.40   21.88
   0  12   3  602.69   19.31
   0  12  -3  573.92   18.57
   0 -12  -3  666.39   21.24
   0 -12  -3  639.93   20.29
   0 -12   3  651.90   20.79
   0 -12   4  366.76   13.35
   0  12   4  530.65   19.23
   0  12  -4  503.19   18.20
   0 -12  -4  361.27   13.59
   0 -12  -4  373.41   13.71
   0 -12   4  378.04   14.11
   0 -12   5  618.91   25.03
   0  12   5  546.16   22.49
   0  12  -5  545.19   22.29
   0 -12  -5  626.47   25.66
   0 -12  -5  620.40   25.02
   0 -12   5  609.51   24.76
   0 -12   6   23.62    3.81
   0  12   6   14.88    3.31
   0  12  -6   21.05    3.48
   0 -12  -6   13.81    2.91
   0 -12  -6   10.70    2.64
   0 -12   6   19.13    3.46
   0 -12   7  122.40    8.97
   0  12   7  116.10    9.40
   0  12  -7  115.33    8.43
   0 -12  -7  116.90    8.53
   0 -12  -7  108.84   12.18
   0 -12   7  119.67    8.68
   0 -12   8   38.12    5.12
   0  12   8   49.43    6.54
   0  12  -8   56.19    6.51
   0 -12  -8   44.41    6.03
   0 -12  -8   17.83    7.17
   0 -12   8   44.53    5.78
   0 -13   0    9.14    2.87
   0 -13   1  217.65    4.26
   0  13  -1  163.37    3.80
   0 -13  -1  220.27    4.69
   0 -13   2  970.88   29.80
   0  13   2 1276.36   39.06
   0  13  -2 1294.49   39.48
   0 -13  -2 1023.14   31.52
   0 -13  -2 1000.59   30.95
   0 -13   2  977.30   30.43
   0 -13   3  989.85   25.93
   0  13   3  884.93   23.21
   0  13  -3  903.27   23.23
   0 -13  -3 1017.49   26.55
   0 -13  -3 1010.42   26.32
   0 -13   3  979.88   25.72
   0 -13   4   54.69    6.68
   0  13   4   39.23    4.27
   0  13  -4   42.43    5.56
   0 -13  -4   51.58    5.09
   0 -13  -4   48.56    4.42
   0 -13   4   47.52    5.05
   0 -13   5  130.42    6.63
   0  13   5  115.51    6.24
   0  13  -5  120.69    9.45
   0 -13  -5  146.40    7.56
   0 -13  -5  128.09    6.40
   0 -13   5  133.49    7.20
   0 -13   6  207.66   11.85
   0  13   6  243.13   13.85
   0  13  -6  250.18   13.77
   0 -13  -6  216.88   12.43
   0 -13  -6  195.27   15.29
   0 -13   6  208.89   11.89
   0 -13   7  120.83   11.61
   0  13   7  109.22   10.91
   0  13  -7  105.20   10.02
   0 -13  -7  121.74   11.70
   0 -13   7  121.30   11.64
   0 -13   8   36.76    6.33
   0  13   8   29.07    5.61
   0  13  -8   26.60    5.10
   0 -13  -8   40.93    7.08
   0 -13   8   40.58    7.33
   0  14   0 1146.93   35.13
   0 -14   0  814.81   25.54
   0 -14   1  464.72   14.60
   0  14   1  357.84   11.69
   0  14  -1  363.46   11.55
   0 -14  -1  451.06   14.33
   0 -14  -1  443.37   14.40
   0 -14   1  439.28   14.62
   0 -14   2  214.06    6.63
   0  14   2  177.78    5.45
   0  14  -2  206.94    6.33
   0 -14  -2  184.98    5.73
   0 -14  -2  188.58    6.03
   0 -14   2  203.55    6.93
   0 -14   3  383.63   14.42
   0  14   3  277.99   10.84
   0  14  -3  285.63   10.60
   0 -14  -3  398.63   14.71
   0 -14  -3  401.57   15.01
   0 -14   3  366.21   13.96
   0 -14   4  185.61    8.18
   0  14   4  302.30   13.08
   0 -14  -4  206.52    9.50
   0 -14  -4  183.85    8.36
   0 -14   4  195.07    9.18
   0 -14   5  191.44    7.35
   0  14   5  167.23    7.44
   0  14  -5  165.95   10.23
   0 -14  -5  214.65    8.87
   0 -14  -5  206.75    7.89
   0 -14   5  210.87    8.71
   0 -14   6   58.00   10.03
   0  14   6   47.58    5.23
   0  14  -6   48.39    6.77
   0 -14  -6   66.70    6.25
   0 -14  -6   53.37    5.85
   0 -14   6   62.76    5.74
   0 -14   7   81.82    6.91
   0  14   7   56.57    6.02
   0  14  -7   53.75    4.50
   0 -14  -7   69.27    5.76
   0 -14  -7   48.99   11.17
   0 -14   7   77.21    6.55
   0 -15   0   18.05    3.03
   0 -15   1  446.14   11.90
   0 -15  -1  481.60   13.22
   0 -15  -1  453.33   12.66
   0 -15   1  456.14   12.88
   0 -15   2  643.39   22.60
   0  15   2  786.94   27.46
   0  15  -2  759.09   26.27
   0 -15  -2  687.21   24.09
   0 -15  -2  652.41   23.19
   0 -15   2  660.37   23.67
   0 -15   3  397.63   18.34
   0  15   3  340.92   16.12
   0  15  -3  367.25   16.99
   0 -15  -3  399.97   18.79
   0 -15  -3  398.03   18.84
   0 -15   3  393.79   18.67
   0 -15   4   44.57    6.58
   0  15   4   31.13    3.27
   0  15  -4   32.75    3.52
   0 -15  -4   41.36    3.05
   0 -15  -4   43.45    3.87
   0 -15   4   42.06    3.62
   0 -15   5  225.76   11.10
   0  15   5  186.80    9.83
   0  15  -5  176.35   12.19
   0 -15  -5  214.97   10.84
   0 -15  -5  224.04   10.95
   0 -15   5  238.60   12.30
   0 -15   6  191.25   20.72
   0  15   6  217.41   14.47
   0  15  -6  235.40   15.31
   0 -15  -6  237.62   15.96
   0 -15  -6  233.62   15.29
   0 -15   6  227.89   15.29
   0 -15   7   20.43    5.64
   0  15   7   27.00    6.36
   0  15  -7   17.08    4.89
   0 -15  -7   22.52    5.29
   0 -15  -7   21.02    5.40
   0 -15   7   26.50    5.94
   0  16   0  758.05   26.36
   0 -16   0  568.04   19.99
   0 -16   0  605.68   21.74
   0  16   1  428.95   15.47
   0  16  -1  455.93   16.18
   0 -16  -1  443.10   15.88
   0 -16  -1  452.44   16.87
   0 -16   1  417.22   15.34
   0 -16   2   -0.04    1.40
   0  16   2   -0.72    2.02
   0  16  -2    1.86    0.99
   0 -16  -2   -0.45    2.10
   0 -16  -2   10.61    3.36
   0 -16   2    4.59    3.19
   0 -16   3   95.44    9.24
   0  16   3   85.02    4.78
   0  16  -3   72.91    5.84
   0 -16  -3   85.35    4.59
   0 -16  -3  100.37    5.30
   0 -16   3  100.27    5.43
   0 -16   4  747.08   25.00
   0  16   4  841.06   27.59
   0  16  -4  804.28   26.04
   0 -16  -4  780.93   25.68
   0 -16  -4  786.63   25.95
   0 -16   4  720.85   23.92
   0 -16   5   50.40   11.66
   0  16   5  102.10    6.99
   0  16  -5   81.25    8.95
   0 -16  -5   50.36    7.80
   0 -16  -5   69.21   10.34
   0 -16   5   58.30    9.01
   0 -16   6    5.59    2.39
   0  16   6    3.21    3.11
   0  16  -6    2.97    1.53
   0 -16  -6    3.74    3.05
   0 -16  -6    5.13    2.46
   0 -16   6    2.77    2.29
   0 -16   7   17.31    6.14
   0  16   7   22.25    5.75
   0  16  -7   12.13    3.06
   0 -16  -7   22.51    5.35
   0 -16  -7   21.40    5.95
   0 -16   7   23.82    5.72
   0  17   0   19.97    2.61
   0 -17   0   14.47    2.38
   0 -17   0   11.10    3.59
   0  17   1  171.78    7.67
   0  17  -1  181.01    7.96
   0 -17  -1  198.53    9.61
   0 -17  -1  219.48   11.55
   0 -17   1  204.24   10.62
   0 -17   2  710.16   28.37
   0  17   2  744.12   29.73
   0  17  -2  760.35   30.16
   0 -17  -2  727.41   29.04
   0 -17  -2  716.96   28.92
   0 -17   2  760.34   30.68
   0 -17   3  123.35    9.35
   0  17   3  204.58    9.29
   0  17  -3  192.65    8.50
   0 -17  -3  112.71    5.94
   0 -17  -3  130.36    7.13
   0 -17   3  120.75    6.75
   0 -17   4    7.63    2.41
   0  17   4   11.63    3.31
   0  17  -4   15.83    2.86
   0 -17  -4   13.59    2.90
   0 -17  -4   14.14    3.57
   0 -17   4    6.34    2.19
   0 -17   5    6.54    2.00
   0  17   5   15.77    3.72
   0  17  -5   13.41    3.01
   0 -17  -5    3.56    2.12
   0 -17  -5   11.04    3.13
   0 -17   5    6.84    2.36
   0 -17   6  111.03   16.12
   0  17   6  184.14   11.61
   0  17  -6  188.71   11.58
   0 -17  -6  174.63   11.14
   0 -17  -6  125.31   17.73
   0 -17   6  174.65   11.28
   0  18   0  849.19   33.64
   0 -18   0  830.75   32.89
   0 -18   0  887.22   36.72
   0  18   1   91.39    4.84
   0  18  -1  110.02    5.34
   0 -18  -1   76.67    4.02
   0 -18  -1   71.77    4.52
   0 -18   1   80.46    5.17
   0 -18   2    9.90    1.76
   0  18   2   13.09    2.79
   0  18  -2   17.27    1.82
   0 -18  -2    9.28    1.77
   0 -18  -2    8.72    2.11
   0 -18   2    6.66    2.45
   0 -18   3    7.43    1.94
   0  18   3   21.00    3.41
   0  18  -3   19.01    3.41
   0 -18  -3   13.02    3.01
   0 -18  -3    8.42    3.57
   0 -18   3    5.90    2.45
   0 -18   4  416.18   22.58
   0  18   4  434.28   23.28
   0  18  -4  404.72   21.75
   0 -18  -4  455.00   24.27
   0 -18  -4  440.68   23.54
   0 -18   4  417.40   22.41
   0  18   5  115.93   11.28
   0  18  -5  108.58   12.73
   0 -18  -5  107.93   10.57
   0 -18  -5   96.31    9.58
   0 -18   5  104.92   10.42
   0 -18   6    5.07    1.39
   0  18   6    5.99    3.03
   0  18  -6    3.81    1.53
   0 -18  -6    2.37    2.25
   0 -18  -6    4.85    2.05
   0 -18   6    3.61    2.38
   0  19   0    7.63    2.19
   0 -19   0    8.11    3.72
   0  19   1   78.01    8.06
   0  19  -1   90.19    9.16
   0 -19  -1   71.97    7.54
   0 -19  -1   66.63    7.38
   0 -19   1   70.66    7.85
   0 -19   2  721.09   99.84
   0  19   2  644.93   29.22
   0 -19  -2  708.91   98.21
   0 -19  -2  666.66   30.44
   0 -19   2  727.25  100.88
   0 -19   3   95.14    5.80
   0  19   3  112.85    7.18
   0  19  -3  103.96    6.35
   0 -19  -3  101.48    6.48
   0 -19  -3   93.24    6.07
   0 -19   3  102.73    6.76
   0 -19   4   40.14    8.43
   0  19   4   49.32    7.55
   0  19  -4   38.43    7.74
   0 -19  -4   33.32    5.40
   0 -19  -4   34.10    5.35
   0 -19   4   48.86    7.59
   0 -19   5   27.54    8.69
   0  19   5   15.89    4.44
   0  19  -5   17.28    5.76
   0 -19  -5   39.65    4.02
   0 -19  -5   31.45    7.70
   0 -19   5   50.44    5.93
   0 -19   6  138.73   20.59
   0  19   6  169.44   17.44
   0  19  -6  160.05   20.69
   0 -19  -6  172.33   17.80
   0 -19  -6  174.23   17.94
   0 -19   6  185.66   19.13
   0  20   0  607.38   27.51
   0 -20   0  711.63   98.53
   0 -20   0  672.62   30.75
   0  20   1  129.94    6.79
   0  20  -1  130.99    6.63
   0 -20  -1  111.90    5.87
   0 -20  -1  110.34    6.72
   0 -20   1  100.06    5.93
   0  20   2   29.80    4.73
   0  20  -2   23.65    3.86
   0 -20  -2   38.00    6.05
   0 -20  -2   34.97    6.00
   0 -20   2   31.49    5.32
   0 -20   3   94.07    6.64
   0  20   3  108.08    7.57
   0  20  -3  110.38   11.09
   0 -20  -3   88.42    6.35
   0 -20  -3   88.76    6.96
   0 -20   3  104.31    8.42
   0 -20   4  284.79   26.14
   0  20   4  287.00   25.95
   0  20  -4  249.41   22.53
   0 -20  -4  316.56   28.38
   0 -20  -4  318.45   28.62
   0 -20   4  300.83   27.30
   0 -20   5   54.62    9.66
   0  20   5   75.96    6.64
   0  20  -5   56.56   10.66
   0 -20  -5   70.70    6.29
   0 -20  -5   77.33    6.58
   0 -20   5   70.83    6.26
   0 -21   0    7.67    2.62
   0  21   1  120.94    8.63
   0  21  -1  121.75    8.68
   0 -21  -1   82.62    6.49
   0 -21  -1   79.70    6.43
   0 -21   1   69.40    6.50
   0  21   2  232.74   15.13
   0  21  -2  228.14   14.72
   0 -21  -2  286.52   18.34
   0 -21   3  143.82   13.20
   0  21   3  153.07   14.06
   0  21  -3  148.11   13.44
   0 -21  -3  145.04   13.52
   0 -21  -3  160.42   14.91
   0 -21   3  141.31   13.44
   0 -21   4   29.02    8.07
   0  21   4   31.61    3.95
   0 -21  -4   21.60    4.95
   0 -21  -4   29.88    5.87
   0 -21   4   34.83    3.59
   0  21   5   32.99    6.15
   0 -21  -5   12.26    3.26
   0 -21  -5   13.68    3.29
   0 -21   5   14.49    3.88
   0  22   0  265.41   16.91
   0 -22   0  374.01   23.64
   0 -22   0  391.63   60.38
   0  22   1  134.15    9.03
   0  22  -1  126.01    8.47
   0 -22  -1  116.15    8.12
   0 -22   1  116.75    7.94
   0 -22  -1  116.46    8.45
   0 -22   1  111.91    8.86
   0  22   2    0.44    1.58
   0  22  -2    4.25    2.03
   0 -22  -2    0.40    1.59
   0 -22  -2   11.17    3.01
   0 -22   3   84.81    5.57
   0  22   3   93.39    6.58
   0 -22  -3   87.12    6.28
   0 -22  -3   76.02    6.27
   0 -22   3  103.10    8.48
   0  22   4   42.49    4.92
   0 -22  -4   76.87    8.32
   0 -22  -4   89.97   10.26
   0 -22   4   81.35    9.15
   0  23   0    2.81    1.68
   0 -23   0    6.99    3.04
   0  23   1  199.85   13.08
   0 -23  -1  210.30   14.12
   0 -23   1  193.85   13.40
   0  23   2   80.06    5.73
   0 -23  -2  115.35    8.37
   0  23   3  113.28   11.88
   0 -23  -3   98.80   10.82
   0 -23   3   93.59   10.45
   0 -24   0   77.75    6.84
   0 -24  -1  179.16   13.47
   0 -24   1  134.67   10.55
   0 -24  -2    3.79    2.47
  -1   0   9   -0.64    2.60
   1   0  -9    4.78    2.92
  -1   0   8  250.44   14.45
   1   0  -8  244.81   14.06
  -1   0   8  225.43   12.21
  -1   0   7  288.20   12.72
   1   0  -7  293.25   12.91
  -1   0   7  297.61   12.30
  -1   0   6  528.90   14.65
   1   0  -6  518.97   14.51
  -1   0   6  514.43   13.59
  -1   0   5   12.68    2.03
   1   0  -5   13.37    2.14
  -1   0   5    7.74    1.13
  -1   0   5    9.52    1.23
   1   0  -4 1058.73   17.86
  -1   0   4 1050.43   16.85
  -1   0   4 1057.27   17.00
   1   0  -3  187.51    3.33
   1   0  -3  198.96    3.76
  -1   0   3  197.59    3.48
  -1   0   3  199.90    2.57
  -1   0   3  202.77    2.67
  -1   0   2   14.65    0.95
   1   0  -2   15.66    1.34
   1   0  -2   15.62    1.48
  -1   0   2    9.06    0.35
  -1   0   1  426.03    4.93
   1   0  -1  401.12    4.65
   1   0  -1  415.13    4.83
  -1   0   1  411.05    4.55
   1   0   0  613.51    6.77
  -1   0   0  594.36    6.75
   1   0   0  589.75    6.53
   1   0   0  583.16    6.76
   1   0   1 2300.87   24.66
   1   0   1 2126.44   22.81
  -1   0  -1 2222.75   24.03
   1   0   2  438.34    6.14
  -1   0  -2  420.28    5.52
   1   0   2  404.91    5.46
  -1   0  -2  432.37    5.83
   1   0   2  418.76    5.54
   1   0   3  662.24    8.99
   1   0   4   51.11    2.60
  -1   0  -4   53.89    3.24
   1   0   5  867.00   22.88
  -1   0  -5  893.73   23.42
   1   0   6  208.45    9.84
  -1   0  -6  213.97    9.71
   1   0   7   96.32    7.00
  -1   0  -7   84.71    5.50
   1   0   8   28.83    5.56
  -1   0  -8   25.94    5.75
   1   0   8   31.05    5.67
  -1   1   9  227.75   15.57
  -1  -1   9  220.21   15.14
   1   1  -9  230.42   15.26
   1  -1  -9  238.12   16.13
  -1  -1   8   56.19    8.94
  -1   1   8   47.10    7.56
   1  -1  -8   42.55    6.71
   1   1  -8   49.84    8.24
  -1  -1   8   39.49    5.92
  -1   1   8   44.55    6.69
  -1  -1   7   28.85    3.26
  -1   1   7   58.63    4.96
   1   1  -7   61.10    4.16
   1  -1  -7   40.22    4.35
  -1  -1   7   43.09    2.88
  -1   1   7   59.38    3.32
  -1  -1   6  902.91   23.82
   1   1  -6  852.14   22.67
   1  -1  -6  944.52   24.93
  -1  -1   6  951.41   24.28
  -1  -1   5  763.86   12.58
   1   1  -5  650.35   10.75
   1  -1  -5  746.94   12.09
  -1  -1   5  676.59    9.87
  -1  -1   5  752.89   11.17
  -1  -1   4   57.76    2.47
   1  -1  -4   58.14    2.72
  -1  -1   4   50.97    1.82
  -1  -1   4   61.76    2.06
  -1  -1   3   22.13    2.00
  -1   1   3   25.99    1.80
   1   1  -3   23.15    1.50
   1  -1  -3   19.62    1.20
   1   1  -3   24.44    1.97
   1  -1  -3   19.38    1.50
  -1  -1   3   19.07    1.40
  -1   1   3   21.52    1.36
  -1  -1   3   18.99    0.74
  -1   1   3   22.76    0.77
  -1  -1   3   20.51    0.93
   1   1  -2 1320.53   14.62
  -1  -1   2 1313.42   14.41
   1  -1  -2 1344.19   14.95
   1  -1  -2 1366.98   14.39
  -1   1   2 1369.79   14.38
  -1  -1   2 1329.70   14.10
   1   1  -2 1370.95   14.53
   1   1   0  995.39   10.79
   1   1   0 1054.42   11.47
  -1   1   0  991.89   10.55
   1   1   0  969.53   10.40
   1  -1   0 1085.90   11.81
  -1   1  -1 2846.80   30.21
   1   1   1 2940.53   31.34
  -1  -1  -1 2851.02   30.32
  -1   1  -1 3014.40   32.12
   1  -1   1 2962.67   31.54
   1   1   1 2790.62   29.70
  -1  -1  -1 3064.34   32.98
   1   1   2 1378.64   15.66
   1  -1   2 1586.01   17.62
   1   1   3 4695.60   74.14
   1  -1   4  734.29   11.75
   1   1   4  838.98   13.23
  -1   1  -4  825.51   12.98
  -1  -1  -4  727.56   11.46
   1  -1   5  194.01    6.96
   1   1   5  235.66    7.56
  -1   1  -5  246.70    7.84
   1  -1   6    6.69    2.57
   1   1   6   12.29    2.72
  -1   1  -6    9.66    2.36
  -1  -1  -6    4.45    2.18
   1  -1   7  540.87   25.23
   1   1   7  529.73   24.66
  -1   1  -7  534.00   24.80
   1  -1   7  576.97   26.63
   1  -1   8   12.51    3.81
   1   1   8   11.59    3.88
  -1   1  -8   19.82    4.51
  -1  -1  -8    4.52    2.59
   1  -1   8   10.61    3.29
   1   1   8   12.51    3.38
  -1  -2   9   10.06    3.98
  -1   2   9   16.50    4.61
   1   2  -9   10.57    4.28
   1  -2  -9   13.84    4.92
  -1  -2   8  186.88   11.21
   1   2  -8  132.73    8.44
   1  -2  -8  193.29   11.54
  -1  -2   8  193.30   10.54
  -1   2   8  147.43    8.30
  -1  -2   7  305.83   13.76
   1   2  -7  280.02   12.39
   1  -2  -7  310.03   13.89
  -1  -2   7  305.57   12.58
  -1  -2   6  474.71   17.28
   1   2  -6  560.02   20.07
   1  -2  -6  483.98   17.68
  -1  -2   6  487.30   17.18
  -1  -2   5   47.58    2.45
  -1   2   5   39.03    2.59
   1   2  -5   43.34    2.33
   1  -2  -5   41.54    2.49
  -1  -2   5   32.94    4.21
  -1   2   5   41.56    1.46
  -1  -2   5   42.80    2.09
   1   2  -4 1791.30   29.10
   1  -2  -4 1867.62   30.49
  -1  -2   4 1708.81   27.09
   1  -2  -4 1801.15   28.54
  -1   2   4 1747.24   27.65
  -1  -2   4 1868.69   29.70
   1   2  -3 1658.89   18.54
  -1  -2   3 1629.28   18.15
   1  -2  -3 1635.53   18.47
   1  -2  -3 1655.01   17.77
  -1   2   3 1803.58   19.24
  -1  -2   3 1651.56   17.83
   1   2  -1 1869.25   20.04
  -1   2   1 1826.08   19.34
  -1  -2   1 1822.70   19.19
  -1   2   1 1856.33   19.66
   1   2   0  175.27    2.43
  -1   2   0  178.46    2.06
   1   2   0  177.94    2.56
   1  -2   0  154.67    2.22
  -1  -2   0  159.60    1.95
   1   2   0  178.03    2.52
   1  -2   0  152.63    2.46
   1  -2   2 1553.78   17.37
  -1  -2  -2 1591.09   17.90
   1   2   3  480.84    9.00
  -1   2  -3  428.85    8.32
   1  -2   4  192.08    5.12
   1   2   4  194.40    5.47
  -1   2  -4  186.25    4.49
  -1  -2  -4  197.63    4.69
  -1  -2  -4  192.00    4.55
   1  -2   5 1548.59   53.35
   1   2   5 1502.89   51.87
  -1   2  -5 1491.60   38.17
  -1  -2  -5 1449.88   36.91
   1  -2   6   87.37    5.22
   1   2   6   87.39    5.67
  -1   2  -6   94.08    6.03
  -1  -2  -6   78.52    4.82
   1  -2   6   76.75    4.45
   1  -2   7   12.19    2.86
   1   2   7   14.86    3.24
  -1   2  -7   22.22    4.17
   1  -2   8   39.53    7.66
   1   2   8   41.23    7.58
  -1   2  -8   42.89    9.86
   1  -2   8   44.99    5.26
  -1  -3   9   21.69    5.74
  -1   3   9   23.23    6.41
   1   3  -9   20.59    5.34
   1  -3  -9   29.50    7.54
  -1  -3   8   33.58    5.88
  -1   3   8   56.36    9.00
   1   3  -8   41.78    6.88
   1  -3  -8   24.68    4.74
  -1  -3   8   29.59    4.62
  -1   3   8   38.79    5.95
  -1  -3   7   33.66    3.36
  -1   3   7   58.88    3.99
   1   3  -7   54.09    4.57
   1  -3  -7   36.39    3.56
  -1  -3   7   41.71    2.99
  -1  -3   6  355.32   13.42
  -1   3   6  309.73   12.10
   1   3  -6  302.65   11.46
   1  -3  -6  336.85   12.78
  -1  -3   6  365.99   13.17
  -1  -3   5  915.90   14.31
  -1   3   5  820.25   13.24
   1   3  -5  808.14   12.75
   1  -3  -5  928.84   14.66
   1  -3  -5  902.97   13.01
  -1  -3   5  790.69   11.45
  -1   3   5  781.16   11.30
  -1  -3   5  943.19   13.80
  -1  -3   4  251.58    5.53
   1  -3  -4  252.27    5.61
   1  -3  -4  258.61    4.85
  -1  -3   4  252.07    4.82
  -1  -3   3    7.05    1.11
   1   3  -3    6.24    0.99
  -1   3   3    5.40    1.09
   1  -3  -3    6.54    0.98
   1   3  -3   13.42    1.20
  -1  -3   3    8.24    0.97
   1  -3  -3    8.61    1.40
   1  -3  -3    9.11    1.08
  -1   3   3    6.99    0.60
  -1  -3   3   10.69    0.98
   1   3  -3    5.44    0.69
  -1  -3   2 1798.63   19.74
   1   3  -2 1807.22   19.70
  -1   3   2 2054.89   22.28
   1  -3  -2 1883.96   20.44
   1   3  -2 2038.52   21.92
  -1  -3   2 1937.94   20.87
   1  -3  -2 1996.67   21.87
   1  -3  -2 1892.29   20.10
  -1   3   2 1924.37   20.43
  -1  -3   2 1850.60   19.81
   1   3  -2 1959.84   20.94
   1   3  -1 2914.70   30.99
  -1   3   1 2934.77   30.87
  -1   3   1 2964.06   31.31
   1  -3   1 1224.88   13.39
  -1   3  -1 1154.26   12.62
   1   3   1 1147.67   12.91
  -1   3  -1 1184.83   13.27
  -1  -3  -1 1248.49   13.76
   1   3   1 1175.93   12.99
  -1  -3  -1 1273.21   14.31
   1  -3   1 1130.16   12.91
  -1   3  -2  530.50    7.01
   1  -3   3 2499.81   40.02
   1   3   3 2508.03   40.28
  -1   3  -3 2578.95   41.27
  -1  -3  -3 2474.96   39.70
   1  -3   3 2462.09   39.51
   1  -3   4   25.22    2.31
  -1  -3  -4   23.50    2.48
  -1  -3  -4   26.36    2.89
   1  -3   4   26.26    2.63
   1  -3   5   69.99    3.58
   1   3   5   45.79    3.68
  -1   3  -5   46.77    3.05
  -1  -3  -5   64.96    3.40
  -1  -3  -5   70.24    3.72
   1  -3   5   58.89    3.23
   1  -3   6   84.35    5.41
   1   3   6  111.65    6.32
  -1   3  -6  127.39    7.25
  -1  -3  -6   84.81    5.17
   1  -3   6   80.16    4.80
   1  -3   7  255.53   13.09
   1   3   7  211.36   10.88
  -1   3  -7  220.34   11.61
  -1  -3  -7  249.28   12.75
   1  -3   7  248.78   12.22
   1  -3   8   65.86    7.12
   1   3   8   68.33    7.14
  -1   3  -8   73.19    8.08
  -1  -3  -8   59.80    6.68
   1  -3   8   53.84    5.65
  -1  -4   9   20.14    5.33
  -1   4   9   12.32    3.35
   1   4  -9   18.51    4.53
   1  -4  -9   11.79    3.34
  -1  -4   8   72.96    6.57
  -1   4   8   59.74    9.66
   1   4  -8   52.60    8.24
   1  -4  -8   64.48    9.65
  -1  -4   8   71.06    5.49
  -1  -4   7  185.33    9.01
  -1   4   7  158.67    7.93
   1   4  -7  146.01    7.28
   1  -4  -7  182.09    9.31
  -1  -4   7  188.96    8.72
  -1  -4   6  411.41   15.43
  -1   4   6  435.98   16.00
   1   4  -6  451.24   16.60
   1  -4  -6  398.26   15.13
   1  -4  -6  392.72   13.88
  -1  -4   6  377.58   13.54
  -1  -4   5   68.02    2.83
   1   4  -5   97.55    3.45
   1  -4  -5   75.91    3.15
   1  -4  -5   73.07    2.03
  -1   4   5   91.08    2.23
  -1  -4   5   72.16    2.37
  -1  -4   4  119.15    3.81
  -1   4   4  140.36    3.70
   1   4  -4  143.91    3.92
   1  -4  -4  124.03    4.44
   1  -4  -4  124.89    2.78
  -1   4   4  127.84    2.72
  -1  -4   4  117.17    2.85
  -1  -4   3 3343.09   36.25
  -1   4   3 3223.89   34.97
   1   4  -3 3331.88   35.84
  -1  -4   3 3245.12   34.86
   1  -4  -3 3065.35   33.50
   1  -4  -3 3425.20   36.35
  -1   4   3 3189.88   33.85
  -1  -4   3 3385.71   36.13
   1   4  -3 3180.55   33.92
  -1  -4   2 1933.66   21.22
  -1   4   2 2029.43   22.05
   1  -4  -2 1847.26   20.08
   1   4  -2 2031.80   21.79
  -1  -4   2 1876.66   20.20
  -1   4   2 1943.51   21.19
   1  -4  -2 1883.13   20.19
  -1  -4   2 1840.62   19.89
  -1   4   2 1948.81   20.83
   1   4  -2 1983.38   21.34
  -1  -4   1  254.00    3.58
  -1   4   1  235.80    2.93
   1  -4  -1  235.13    2.93
   1   4  -1  245.47    2.76
  -1  -4   1  237.48    2.72
  -1   4   1  243.38    3.35
  -1   4   0 3819.92   40.50
   1   4   0 3458.76   36.76
   1  -4   0 3609.25   38.41
   1  -4   1 1167.95   12.77
  -1   4  -1 1185.38   12.93
   1   4   1 1162.91   13.18
  -1  -4  -1 1080.91   12.21
  -1   4  -1 1192.39   13.40
   1  -4   1 1160.24   12.99
  -1  -4  -1 1217.99   13.48
   1   4   1 1206.81   13.34
  -1  -4  -1 1219.58   13.85
   1  -4   3 1065.49   17.78
   1   4   3  956.68   16.43
  -1   4  -3  983.24   16.59
  -1  -4  -3 1032.21   17.37
  -1  -4  -3 1033.97   17.35
   1  -4   3  974.29   16.55
   1  -4   4   15.89    2.08
   1   4   4    5.58    2.14
  -1   4  -4    6.02    1.84
  -1  -4  -4   22.10    2.21
  -1  -4  -4   17.80    2.17
   1  -4   4   23.05    2.79
   1  -4   5  833.66   22.15
   1   4   5  710.32   19.42
  -1   4  -5  710.50   19.06
  -1  -4  -5  808.53   21.44
  -1  -4  -5  802.17   20.97
   1  -4   5  840.27   22.21
   1  -4   6  180.58    8.83
   1   4   6  146.16    7.28
  -1   4  -6  153.20    7.84
  -1  -4  -6  170.86    8.36
  -1  -4  -6  169.78    7.83
   1  -4   6  175.37    8.27
   1  -4   7   68.71    8.68
   1   4   7   70.76    8.75
  -1   4  -7   63.25    7.58
  -1  -4  -7   68.25    8.32
   1  -4   7   52.05    6.40
   1  -4   8   12.30    3.66
   1   4   8    9.71    2.97
  -1   4  -8   13.39    4.46
  -1  -4  -8    5.24    2.61
   1  -4   8    7.33    2.71
  -1  -5   9    1.70    2.52
  -1   5   9    2.48    2.58
   1   5  -9    5.03    3.52
   1  -5  -9    2.03    2.90
  -1  -5   8   31.30    3.65
  -1   5   8   46.76    4.56
   1   5  -8   43.58    4.56
   1  -5  -8   36.20    3.96
  -1  -5   8   29.80    2.88
  -1  -5   7  120.57    7.09
  -1   5   7  131.12    7.17
   1   5  -7  126.43    6.59
   1  -5  -7  106.23    6.12
  -1  -5   7   97.39    5.07
  -1  -5   6   20.98    3.07
  -1   5   6   14.44    2.15
   1   5  -6   12.99    2.19
   1  -5  -6   21.76    2.81
   1  -5  -6   23.35    3.23
  -1  -5   6   24.39    2.28
  -1  -5   5  777.12   24.38
  -1   5   5  657.42   20.84
   1   5  -5  717.74   22.48
   1  -5  -5  808.77   25.50
   1  -5  -5  791.37   24.29
  -1   5   5  578.41   17.84
  -1  -5   4  235.47    5.55
   1  -5  -4  213.97    5.64
   1  -5  -4  213.27    4.21
  -1   5   4  258.61    4.79
   1   5  -4  271.69    5.07
  -1  -5   3  142.83    3.05
  -1   5   3  159.80    3.38
   1  -5  -3  139.49    2.72
  -1  -5   3  141.65    2.85
   1  -5  -3  137.11    2.40
  -1   5   3  159.79    2.61
  -1  -5   3  146.24    3.05
   1   5  -3  164.45    2.96
   1  -5   0 2742.48   28.71
   1   5   0 3110.62   33.25
  -1   5   0 3016.56   31.56
   1   5   0 3064.56   32.72
   1   5   0 3024.94   31.73
   1   5   0 2951.04   31.63
  -1   5   0 3154.42   33.77
   1  -5   1   58.05    1.31
  -1   5  -1   52.33    1.24
  -1  -5  -1   61.78    1.93
  -1   5  -1   62.72    5.71
  -1  -5  -1   60.65    1.65
   1   5   1   54.67    1.48
  -1  -5  -1   58.16    1.85
   1  -5   1   46.28    2.00
   1  -5   2  257.01    3.94
  -1   5  -2  251.97    4.11
  -1  -5  -2  262.86    4.20
   1   5   2  237.25    3.75
  -1  -5  -2  251.92    7.58
   1  -5   3  887.84   15.00
   1   5   3  876.98   15.21
  -1   5  -3  911.48   15.63
  -1  -5  -3  843.70   14.52
  -1  -5  -3  894.01   16.00
   1  -5   3  900.83   15.54
   1  -5   4  397.16    7.20
   1   5   4  400.71    7.78
  -1   5  -4  469.35    8.29
  -1  -5  -4  401.78    7.45
  -1  -5  -4  391.51    8.23
   1  -5   4  425.79    7.86
   1  -5   5  113.55    5.50
   1   5   5  100.05    5.86
  -1   5  -5  106.60    5.06
  -1  -5  -5  118.13    5.93
  -1  -5  -5  124.82    8.29
   1  -5   5  114.17    5.76
   1  -5   6  175.88    8.31
   1   5   6  186.04    9.27
  -1   5  -6  189.94    9.01
  -1  -5  -6  167.50    7.95
  -1  -5  -6  176.49    8.17
   1  -5   6  180.29    8.59
   1  -5   7  199.70   11.49
   1   5   7  152.33    9.25
  -1   5  -7  152.08    9.43
  -1  -5  -7  186.80   11.19
  -1  -5  -7  191.72   10.85
   1  -5   7  187.90   10.92
   1  -5   8  135.74   10.10
   1   5   8  153.37   11.39
  -1   5  -8  145.60   10.33
  -1  -5  -8  126.41    9.53
   1  -5   8  143.93   10.26
  -1  -6   9   46.90    4.62
  -1   6   9   52.78    4.95
   1   6  -9   51.05    4.65
   1  -6  -9   37.54    4.16
  -1  -6   8   65.00    5.75
  -1   6   8   62.87    5.50
   1   6  -8   65.02    5.48
   1  -6  -8   62.07    5.40
  -1  -6   8   55.46    4.52
  -1  -6   7  172.17    8.97
  -1   6   7  165.69    8.29
   1   6  -7  159.60    8.04
   1  -6  -7  151.90    8.31
   1  -6  -7  158.07    7.18
  -1  -6   7  159.16    7.44
  -1  -6   6  358.14   17.14
  -1   6   6  348.59   16.66
   1   6  -6  368.45   13.76
   1  -6  -6  371.20   17.82
   1  -6  -6  358.10   12.77
  -1  -6   6  375.41   17.46
  -1  -6   5  492.02   15.98
  -1   6   5  559.01   18.05
   1   6  -5  543.86   17.30
   1  -6  -5  514.08   16.92
   1  -6  -5  514.59   16.09
  -1  -6   5  509.28   16.03
  -1  -6   4  401.34    8.11
  -1   6   4  315.62    6.46
   1   6  -4  314.86    6.20
  -1   6   3 2797.27   30.54
   1  -6  -3 2832.40   30.72
   1   6  -3 2889.67   45.65
  -1  -6   3 2902.00   31.26
   1  -6  -3 3118.38   33.44
   1   6  -3 2738.08   29.62
  -1  -6   2  958.80   11.99
   1  -6  -2  932.20   10.72
  -1   6   2  994.15   11.25
  -1  -6   1  512.32    6.41
   1   6  -1  530.64    6.54
  -1   6   1  506.49    5.81
   1  -6  -1  508.63    5.80
   1  -6  -1  487.24    6.03
   1   6  -1  512.25    5.64
  -1  -6   1  505.45    5.58
  -1   6   1  483.66    6.13
  -1   6   0 1796.26   18.99
  -1   6   0 1831.36   20.11
   1  -6   0 1883.60   20.52
  -1  -6   0 1985.34   21.06
   1  -6   0 1962.63   21.62
  -1   6   0 1766.07   19.48
   1  -6   1  794.13    8.88
  -1   6  -1  806.02    9.05
  -1  -6  -1  799.05    9.51
  -1   6  -1  827.71    9.83
  -1  -6  -1  810.73    9.42
   1   6   1  811.68    9.26
  -1  -6  -1  810.28    9.83
   1  -6   1  767.68    9.56
  -1   6  -1  762.14    9.25
  -1   6  -2 1450.30   16.15
   1   6   2 1554.76   17.80
  -1  -6  -2 1392.30   15.96
   1   6   2 1459.35   16.44
  -1  -6  -2 1387.00   16.11
   1  -6   3   38.56    1.77
   1   6   3   54.37    3.33
  -1   6  -3   57.96    2.85
  -1  -6  -3   40.32    2.43
  -1  -6  -3   47.16    6.38
   1  -6   3   41.62    2.42
   1  -6   4  323.79   10.73
   1   6   4  332.52   11.33
  -1   6  -4  351.41   11.64
  -1  -6  -4  289.42    9.90
  -1  -6  -4  284.06   11.27
   1  -6   4  316.70   10.72
   1  -6   5  273.81   10.58
   1   6   5  238.21    9.63
  -1   6  -5  230.78    9.23
  -1  -6  -5  254.22   10.11
  -1  -6  -5  271.31   16.52
   1  -6   5  257.86   10.33
   1  -6   6  287.66   13.12
   1   6   6  324.08   14.37
  -1   6  -6  332.84   14.96
  -1  -6  -6  257.78   11.79
  -1  -6  -6  281.75   12.53
   1  -6   6  292.52   13.09
   1  -6   7   28.81    5.04
   1   6   7   13.61    3.30
  -1   6  -7   31.53    5.77
  -1  -6  -7   34.45    6.14
  -1  -6  -7   35.62    5.67
   1  -6   7   24.70    4.24
   1  -6   8   42.59    4.13
   1   6   8   66.92    7.01
  -1   6  -8   58.26    5.27
  -1  -6  -8   46.17    4.57
   1  -6   8   49.63    4.23
  -1  -7   9   63.18    6.80
  -1   7   9   82.80    8.25
   1   7  -9   82.05    7.49
   1  -7  -9   70.51    7.76
  -1  -7   8   66.00    5.61
  -1   7   8   86.18    7.52
   1   7  -8   66.42    5.96
   1  -7  -8   62.69    6.00
  -1  -7   8   58.81    4.58
  -1  -7   7  207.39    8.42
  -1   7   7  226.34    9.02
   1   7  -7  231.10    9.28
   1  -7  -7  226.39    9.82
   1  -7  -7  191.07    7.12
  -1  -7   7  198.44    7.52
  -1  -7   6  103.36    8.41
  -1   7   6  152.55   12.16
   1   7  -6  160.54   12.68
   1  -7  -6  118.19    9.79
   1  -7  -6  113.49    8.77
  -1  -7   6  115.62    9.13
  -1  -7   5  307.98   10.47
  -1   7   5  353.02   11.86
   1   7  -5  358.60   11.87
   1  -7  -5  301.37    9.74
  -1  -7   5  303.84   10.23
  -1  -7   4  454.18    7.93
  -1   7   4  510.53    8.68
   1   7  -4  540.11    8.76
   1  -7  -4  465.54    7.35
  -1   7   4  466.61    7.28
  -1  -7   4  460.51    7.65
  -1  -7   3  931.54   15.72
  -1   7   3  964.09   16.07
   1   7  -3  992.91   16.25
  -1  -7   3  868.07   14.25
   1  -7  -3  883.58   14.56
  -1   7   3  898.24   14.72
  -1  -7   3  918.93   15.32
  -1  -7   2  429.24    6.34
  -1   7   2  392.91    5.28
   1  -7  -2  407.06    5.16
   1   7  -2  384.31    4.73
  -1  -7   2  397.40    4.85
   1  -7  -2  435.12    6.21
   1  -7  -2  425.45    5.66
  -1  -7   2  415.70    5.91
  -1  -7   0 2337.29   24.70
   1  -7   0 2289.18   24.82
  -1  -7   0 2357.84   25.81
   1  -7   0 2388.00   26.20
   1  -7   1   78.81    1.64
  -1   7  -1   76.92    1.57
   1   7   1   79.52    2.48
  -1   7  -1   76.28    3.14
   1  -7   1   74.44    2.08
  -1  -7  -1   76.72    2.03
   1   7   1   75.38    1.80
  -1  -7  -1   87.98    2.64
   1  -7   1   81.29    2.50
   1  -7   2  363.72    6.53
  -1   7  -2  342.63    6.15
  -1   7  -2  349.57    7.38
  -1  -7  -2  365.63    6.91
   1   7   2  345.08    6.45
  -1  -7  -2  340.47    6.61
   1  -7   3  349.54    6.23
  -1   7  -3  348.18    6.36
  -1  -7  -3  375.92    6.91
  -1  -7  -3  365.38    7.14
   1  -7   3  382.06    7.57
   1  -7   4 1026.35   31.68
   1   7   4 1175.13   36.40
  -1   7  -4 1185.46   36.56
  -1  -7  -4  967.32   30.00
  -1  -7  -4  972.96   31.37
   1  -7   4 1048.86   32.63
   1  -7   5   69.85    4.40
   1   7   5   70.19    4.21
  -1   7  -5   79.19    4.34
  -1  -7  -5   68.30    3.98
  -1  -7  -5   74.70    7.69
   1  -7   5   73.92    4.09
   1  -7   6   92.27    5.26
   1   7   6   98.05    6.42
  -1   7  -6  107.16    6.44
  -1  -7  -6   82.73    5.37
  -1  -7  -6   97.26    7.80
   1  -7   6   93.38    6.00
   1  -7   7   33.28    3.79
   1   7   7   17.18    3.02
  -1   7  -7   20.83    3.14
  -1  -7  -7   37.86    4.20
  -1  -7  -7   32.49    3.74
   1  -7   7   37.93    4.48
   1  -7   8  219.12   13.84
   1   7   8  225.06   14.06
  -1   7  -8  230.83   14.33
  -1  -7  -8  199.97   12.86
   1  -7   8  214.49   13.30
  -1  -8   9  109.78   11.83
  -1   8   9  108.83   11.95
   1   8  -9  105.94   11.81
  -1  -8   8   24.99    4.40
  -1   8   8   10.52    3.65
   1   8  -8   10.66    2.50
  -1  -8   8   25.43    4.12
  -1  -8   7   46.04    6.14
  -1   8   7   38.70    5.12
   1   8  -7   33.62    4.61
   1  -8  -7   38.72    6.21
  -1  -8   7   39.48    4.57
  -1  -8   6  155.33   12.21
  -1   8   6  142.03   11.40
   1   8  -6  132.18   10.60
   1  -8  -6  169.71    8.50
   1  -8  -6  153.77   12.22
  -1  -8   6  162.59   12.59
  -1  -8   5  268.08    8.18
  -1   8   5  290.56    8.90
   1   8  -5  309.05    8.98
   1  -8  -5  287.74    8.83
   1  -8  -5  269.85    8.38
  -1  -8   5  293.92    8.45
  -1  -8   4  164.72    4.56
  -1   8   4  194.56    4.68
   1   8  -4  183.41    3.96
   1  -8  -4  176.54    4.82
   1  -8  -4  173.35    3.80
  -1  -8   4  170.84    3.94
  -1  -8   3  132.17    8.85
  -1   8   3  130.52    3.52
   1   8  -3  140.80    3.23
  -1  -8   3  114.28    2.71
   1  -8  -3  130.97    4.29
   1  -8  -3  123.25    3.06
  -1   8   3  116.36    2.70
  -1  -8   3  123.10    3.46
  -1   8   2 1451.24   16.25
   1  -8  -2 1408.46   15.59
   1   8  -2 1448.91   15.89
  -1  -8   2 1405.94   15.35
   1  -8  -2 1494.26   16.92
  -1  -8   2 1464.99   16.78
  -1   8   1  542.53    6.25
  -1  -8   1  537.18    6.98
  -1   8   1  544.96    6.41
   1   8  -1  534.53    6.03
  -1  -8   1  525.96    5.97
  -1   8   1  509.09    6.53
   1  -8   0 1533.33   17.09
   1  -8   1  740.12    8.44
  -1   8  -1  712.97    8.17
  -1  -8  -1  724.47    8.60
   1   8   1  708.28    8.23
  -1  -8  -1  723.12    9.21
   1  -8   1  726.15    9.41
   1  -8   2 2497.74   39.54
  -1   8  -2 2466.21   39.05
   1   8   2 2580.53   41.31
  -1  -8  -2 2540.48   40.47
   1   8   2 2369.47   37.64
   1  -8   3  130.51    3.42
   1   8   3  167.38    4.50
  -1   8  -3  171.34    4.24
  -1  -8  -3  135.84    3.92
  -1  -8  -3  137.58    8.12
   1  -8   3  143.74    4.20
   1  -8   4  611.94   16.25
  -1   8  -4  619.24   16.65
  -1  -8  -4  636.40   17.03
  -1  -8  -4  626.42   16.71
   1  -8   4  644.56   17.57
   1  -8   5   93.33    7.69
  -1   8  -5   82.35    7.05
  -1  -8  -5  103.67    8.56
  -1  -8  -5   97.49   11.58
   1  -8   5  126.58   10.61
   1  -8   6  320.02   11.71
  -1   8  -6  385.91   13.70
  -1  -8  -6  318.69   11.80
  -1  -8  -6  288.48   15.02
   1  -8   6  353.48   13.07
   1  -8   7    7.65    2.47
   1   8   7   14.03    3.61
  -1   8  -7   12.99    2.56
  -1  -8  -7    5.79    2.42
  -1  -8  -7   12.47    3.09
   1  -8   7   15.46    3.65
   1  -8   8   23.29    5.53
   1   8   8   30.35    7.10
  -1   8  -8   29.93    6.16
  -1  -8  -8   28.75    6.35
  -1  -8  -8   22.13    4.75
   1  -8   8   26.35    5.33
  -1  -9   9   72.26    9.18
  -1   9   9   48.68    6.01
   1   9  -9   67.51    8.00
   1  -9  -9   51.75    6.63
  -1  -9   8  152.88   14.41
  -1   9   8  162.29   15.40
   1   9  -8  155.74   14.40
   1  -9  -8  165.59   15.60
  -1  -9   8  151.02   13.81
  -1  -9   7  207.02   10.56
  -1   9   7  191.12    9.86
   1   9  -7  181.71    9.20
   1  -9  -7  203.84   10.60
   1  -9  -7  208.08   10.09
  -1  -9   7  213.52   10.57
  -1  -9   6  390.69   16.40
  -1   9   6  361.78   15.38
   1   9  -6  364.19   15.35
   1  -9  -6  393.79   16.63
   1  -9  -6  366.01   15.07
  -1  -9   6  390.88   16.23
  -1  -9   5  205.51    8.24
  -1   9   5  228.37    8.92
   1   9  -5  247.42    9.35
   1  -9  -5  195.88    8.42
   1  -9  -5  212.99   12.83
  -1  -9   5  207.20    8.16
  -1  -9   4  606.73   19.12
  -1   9   4  608.55   19.21
   1   9  -4  586.18   18.32
   1  -9  -4  597.36   19.35
   1  -9  -4  555.54   17.39
  -1  -9   4  576.25   18.12
  -1  -9   3  483.92    8.36
  -1   9   3  470.87    7.68
   1   9  -3  483.85    7.50
  -1  -9   3  424.80    6.62
   1  -9  -3  481.79    8.32
   1  -9  -3  468.86    7.73
  -1  -9   3  463.37    7.83
  -1  -9   2  680.21   11.73
   1  -9  -2  673.83   11.18
  -1  -9   2  665.69   10.89
   1  -9  -2  676.33   12.23
   1  -9  -2  651.88   11.50
  -1  -9   2  698.51   12.15
  -1   9   1 1155.79   18.40
  -1   9   1 1198.80   19.17
  -1  -9   1 1000.36   15.93
  -1   9   0 3745.10   39.65
  -1   9   0 3762.22   39.74
   1   9   0 3789.03   40.89
  -1   9   0 3740.44   40.21
  -1  -9   0 3655.69   38.73
  -1  -9   0 3811.39   40.33
   1  -9   0 3677.48   39.88
   1  -9   1   21.44    1.52
  -1   9  -1   14.28    0.90
   1   9   1   13.21    1.82
  -1   9  -1   16.69    1.65
  -1  -9  -1   17.30    1.09
  -1  -9  -1   19.03    1.62
   1  -9   1   16.90    2.02
   1  -9   2 1284.26   20.77
  -1   9  -2 1192.88   19.34
   1   9   2 1280.92   21.27
  -1   9  -2 1308.30   21.57
  -1  -9  -2 1281.88   21.14
  -1  -9  -2 1279.85   21.37
   1  -9   2 1261.67   21.32
   1  -9   3  539.61    8.61
   1   9   3  601.43   10.71
  -1   9  -3  614.40   10.04
  -1  -9  -3  574.00    9.49
  -1  -9  -3  587.20   10.53
   1  -9   3  583.06   10.19
   1  -9   4 1143.72   29.22
   1   9   4 1207.69   31.29
  -1   9  -4 1235.06   31.71
  -1  -9  -4 1210.30   31.13
  -1  -9  -4 1210.58   31.20
   1  -9   4 1233.91   31.96
   1  -9   5   11.99    2.07
   1   9   5    4.68    3.43
  -1   9  -5    0.14    2.12
  -1  -9  -5   11.00    2.06
  -1  -9  -5   14.80    2.82
   1  -9   5   19.18    3.31
   1  -9   6  125.69    5.78
   1   9   6  101.43   11.50
  -1   9  -6  125.12    6.58
  -1  -9  -6  127.89    6.43
  -1  -9  -6  120.90   10.02
   1  -9   6  112.46   12.72
   1  -9   7   20.09    3.53
   1   9   7   28.20    5.22
  -1   9  -7   34.45    6.04
  -1  -9  -7   22.12    4.44
  -1  -9  -7   23.98    5.80
   1  -9   7   29.49    5.15
   1  -9   8  101.80    8.24
  -1   9  -8   98.59    8.63
  -1  -9  -8   95.59    8.13
  -1  -9  -8   91.06    7.16
   1  -9   8  105.44    8.72
  -1 -10   8   69.59    7.23
  -1  10   8   61.71    6.63
   1  10  -8   75.47    7.98
   1 -10  -8   73.64    8.20
  -1 -10   8   60.64    6.12
  -1 -10   7   99.12    6.93
  -1  10   7  127.58    8.46
   1  10  -7  137.89    8.45
   1 -10  -7  101.16    7.34
   1 -10  -7   78.98    7.92
  -1 -10   7  102.60    6.52
  -1 -10   6   64.42    4.28
  -1  10   6   45.56    4.03
   1  10  -6   43.53    3.45
   1 -10  -6   55.96    4.73
   1 -10  -6   56.41    5.88
  -1 -10   6   49.57    3.69
  -1 -10   5  323.76   12.38
  -1  10   5  296.63   11.39
   1  10  -5  299.07   11.03
   1 -10  -5  319.26   12.65
   1 -10  -5  294.61   10.78
  -1 -10   5  306.35   11.38
  -1 -10   4  621.06   20.03
  -1  10   4  572.22   18.18
   1  10  -4  611.43   19.09
   1 -10  -4  600.67   19.32
   1 -10  -4  612.35   19.15
  -1 -10   4  581.72   18.41
  -1 -10   3  188.32    4.23
   1 -10  -3  199.28    5.02
   1 -10  -3  175.37    4.03
  -1 -10   3  184.31    4.50
  -1 -10   2 1204.51   19.88
  -1  10   2 1280.52   20.80
   1 -10  -2 1159.95   18.77
   1  10  -2 1254.11   20.15
  -1 -10   2 1129.03   18.14
   1 -10  -2 1128.61   18.98
   1 -10  -2 1070.58   17.86
  -1 -10   2 1180.68   19.69
  -1 -10   1  206.28    4.35
  -1  10   1  218.83    3.98
  -1  10   1  220.49    4.27
  -1 -10   1  209.13    3.74
  -1 -10   1  200.26    4.47
   1 -10  -1  211.82    4.72
  -1  10   0  656.36   10.71
   1  10   0  660.52   11.74
  -1  10   0  722.42   11.86
  -1  10   0  647.65   12.11
  -1 -10   0  640.17   10.49
  -1 -10   0  646.71   10.75
  -1 -10   0  653.11   11.52
   1 -10   0  637.32   11.26
   1 -10   1  571.22    9.71
  -1  10  -1  650.49   10.73
  -1 -10  -1  577.68    9.94
  -1 -10  -1  579.22   10.51
   1 -10   1  585.37   10.81
   1 -10   2  948.52   13.64
   1  10   2  891.91   14.04
  -1  10  -2  907.65   13.63
  -1 -10  -2  926.05   13.74
  -1 -10  -2  954.19   14.54
   1 -10   2  950.66   14.78
   1 -10   3  153.19    5.64
   1  10   3  159.16    6.35
  -1  10  -3  160.26    5.99
  -1 -10  -3  170.52    6.38
  -1 -10  -3  178.48    6.64
   1 -10   3  163.37    6.40
   1 -10   4  148.22    6.16
   1  10   4  127.77    6.72
  -1  10  -4  131.37    6.23
  -1 -10  -4  144.24    6.29
  -1 -10  -4  142.91    9.82
   1 -10   4  154.66    7.37
   1 -10   5  180.67    8.49
   1  10   5  273.78   12.09
  -1  10  -5  264.37   11.66
  -1 -10  -5  189.25    8.83
  -1 -10  -5  187.29    8.56
   1 -10   5  177.90    8.32
   1 -10   6  639.70   29.20
   1  10   6  581.74   26.93
  -1  10  -6  610.77   28.09
  -1 -10  -6  609.12   27.93
  -1 -10  -6  623.40   30.62
   1 -10   6  637.91   29.28
   1 -10   7   20.67    4.28
   1  10   7    7.63    2.60
  -1  10  -7   12.81    3.42
  -1 -10  -7   18.06    3.97
  -1 -10  -7   14.65    3.79
   1 -10   8   61.86    7.33
   1  10   8   58.51    7.85
  -1  10  -8   55.57    7.17
  -1 -10  -8   66.18    8.26
  -1 -10  -8   68.87    8.11
   1 -10   8   55.04    6.56
  -1 -11   8   56.36    5.04
  -1  11   8   69.83    5.90
   1  11  -8   53.97    5.14
   1 -11  -8   58.76    5.43
  -1 -11   8   60.63    5.10
  -1 -11   7   73.36    5.93
  -1  11   7   63.44    5.90
   1  11  -7   57.16    4.83
   1 -11  -7   84.95    8.07
   1 -11  -7   69.64    7.54
  -1 -11   7   74.36    5.88
  -1 -11   6   97.02    5.44
  -1  11   6  118.80    6.74
   1  11  -6  113.58    5.68
   1 -11  -6  108.18    6.57
   1 -11  -6   81.28    9.90
  -1 -11   6   95.94    5.15
  -1 -11   5  221.03   10.99
  -1  11   5  233.01   11.46
   1  11  -5  257.09   12.12
   1 -11  -5  222.01   11.58
   1 -11  -5  223.90   10.86
  -1 -11   5  216.22   10.52
  -1 -11   4  746.72   19.64
  -1  11   4  681.91   18.11
   1  11  -4  698.24   18.08
   1 -11  -4  760.86   20.62
   1 -11  -4  730.87   19.01
  -1 -11   4  724.00   19.12
  -1 -11   3  272.40    9.25
  -1  11   3  252.17    8.47
   1  11  -3  240.88    8.76
  -1 -11   3  236.96    7.69
   1 -11  -3  258.40    9.11
   1 -11  -3  262.76    8.76
  -1 -11   3  254.91    8.91
  -1 -11   2  982.34   16.39
  -1  11   2 1052.45   15.21
   1 -11  -2  964.67   13.76
   1  11  -2 1000.28   14.05
  -1 -11   2  931.00   13.16
   1 -11  -2  937.49   14.40
   1 -11  -2  966.53   14.49
  -1 -11   2  972.37   14.76
  -1 -11   1  840.13   14.26
  -1  11   1  850.99   17.95
  -1  11   1  882.51   14.46
  -1 -11   1  820.12   13.26
  -1 -11   1  842.76   14.59
   1 -11  -1  818.86   14.17
  -1  11   0  569.79    9.58
   1  11   0  571.95   10.32
  -1  11   0  541.37    9.59
  -1 -11   0  656.73   11.10
   1 -11   0  661.50   11.78
   1 -11   1   37.30    3.72
  -1  11  -1   26.79    1.11
   1  11   1   28.51    4.22
  -1  11  -1   28.91    3.29
  -1 -11  -1   35.73    1.56
  -1 -11  -1   39.96    2.19
   1 -11   1   34.76    2.53
   1 -11   2  417.61    7.66
   1  11   2  343.59    7.12
  -1  11  -2  368.95    6.81
  -1 -11  -2  417.00    7.21
  -1 -11  -2  432.53    8.07
   1 -11   2  411.83    7.87
   1 -11   3  314.54    8.70
   1  11   3  390.70   11.21
  -1  11  -3  398.73   11.33
  -1 -11  -3  300.81    8.66
  -1 -11  -3  313.64    9.20
   1 -11   3  297.70    9.39
   1 -11   4 1112.58   43.85
   1  11   4 1022.87   46.59
  -1  11  -4  964.37   43.65
  -1 -11  -4 1142.10   45.21
  -1 -11  -4 1140.45   45.17
   1 -11   4 1174.18   46.74
   1 -11   5   10.59    1.98
   1  11   5    6.90    2.00
  -1  11  -5   10.36    2.29
  -1 -11  -5    4.88    2.16
  -1 -11  -5   12.53    2.52
   1 -11   5   10.14    2.63
   1 -11   6  154.26    9.02
   1  11   6  136.10    8.52
  -1  11  -6  139.76    8.69
  -1 -11  -6  169.97   10.29
  -1 -11  -6  164.33   13.31
   1 -11   6  169.06   10.36
   1 -11   7   39.91    6.74
   1  11   7   78.63    8.16
  -1  11  -7   82.40    8.85
  -1 -11  -7   51.89    6.07
  -1 -11  -7   37.30   10.41
   1 -11   7   44.21    5.57
  -1 -12   8   26.87    6.52
  -1  12   8   19.58    4.94
   1  12  -8   38.38    3.93
   1 -12  -8   11.40    4.16
  -1 -12   8    7.51    2.51
  -1 -12   7   61.77    5.83
  -1  12   7   72.89    6.35
   1  12  -7   64.59    5.44
   1 -12  -7   67.07    5.87
   1 -12  -7   56.75    6.75
  -1 -12   7   65.54    5.67
  -1 -12   6  164.74    7.25
  -1  12   6  134.71    5.91
   1  12  -6  159.54    6.32
   1 -12  -6  176.08    8.14
   1 -12  -6  144.03    7.38
  -1 -12   6  165.57    6.72
  -1 -12   5  195.55   17.50
  -1  12   5  150.86    7.29
   1  12  -5  136.06    6.16
   1 -12  -5  182.96    9.05
   1 -12  -5  177.56    7.88
  -1 -12   5  175.40    8.05
  -1 -12   4  347.71   13.38
  -1  12   4  326.92   12.17
   1  12  -4  305.16   11.90
   1 -12  -4  338.21   12.75
   1 -12  -4  331.87   12.18
  -1 -12   4  341.62   12.63
  -1 -12   3  620.82   19.45
  -1  12   3  750.75   23.40
   1  12  -3  719.81   22.12
   1 -12  -3  645.14   20.48
   1 -12  -3  603.81   18.99
  -1 -12   3  618.98   19.57
  -1 -12   2  493.49    8.29
   1  12  -2  418.33    6.57
  -1 -12   2  465.05    7.05
   1 -12  -2  454.70    7.85
   1 -12  -2  491.91    8.37
  -1 -12   2  474.42    8.36
  -1 -12   1  174.95    4.11
  -1  12   1  158.23    2.93
  -1 -12   1  164.63    2.92
  -1 -12   1  169.91    4.35
   1 -12  -1  179.53    4.62
  -1  12   0  121.59    2.45
  -1  12   0  135.98    2.83
   1  12   0  141.95    4.25
  -1  12   0  131.79    3.38
  -1 -12   0  107.45    2.38
  -1 -12   0  117.67    3.66
   1 -12   0  122.33    3.80
   1 -12   1  693.19   10.44
  -1  12  -1  752.88   10.85
   1  12   1  826.90   12.79
  -1  12  -1  823.98   12.41
  -1 -12  -1  720.73   10.78
  -1 -12  -1  692.48   11.19
   1 -12   1  724.90   11.89
   1 -12   2 1341.94   33.71
   1  12   2 1158.63   35.59
  -1  12  -2 1251.13   38.33
  -1 -12  -2 1328.47   33.66
  -1 -12  -2 1371.12   35.07
   1 -12   2 1371.78   35.20
   1 -12   3   80.65    5.52
   1  12   3   54.43    3.95
  -1  12  -3   50.62    5.55
  -1 -12  -3   68.31    3.78
  -1 -12  -3   61.20    3.77
   1 -12   3   65.86    3.92
   1 -12   4  455.37   20.91
   1  12   4  407.03   19.24
  -1  12  -4  384.28   17.96
  -1 -12  -4  464.61   21.56
  -1 -12  -4  502.89   30.90
   1 -12   4  473.37   22.38
   1 -12   5  207.24    7.80
  -1  12  -5  319.59   18.15
  -1 -12  -5  196.95    7.64
  -1 -12  -5  200.38   16.84
   1 -12   5  198.90    8.42
   1 -12   6  416.42   54.84
   1  12   6  363.73   24.72
  -1  12  -6  364.95   24.61
  -1 -12  -6  417.43   55.00
  -1 -12  -6  419.28   55.23
   1 -12   6  402.26   53.17
   1 -12   7   32.90    7.16
   1  12   7   20.41    5.72
  -1  12  -7   30.85    7.38
  -1 -12  -7   30.82    7.32
  -1 -12  -7   27.24    7.80
   1 -12   7   29.27    7.29
  -1 -13   8   83.42    7.70
  -1  13   8   62.50    6.40
   1  13  -8   73.11    6.47
   1 -13  -8   77.75    7.54
  -1 -13   8   61.75    5.47
  -1 -13   7   76.54    6.20
  -1  13   7   64.76    5.23
   1  13  -7   74.83    6.17
   1 -13  -7   88.86    7.55
   1 -13  -7   76.70    8.31
  -1 -13   7   71.46    5.70
  -1 -13   6   28.26    5.19
  -1  13   6   29.56    4.00
   1  13  -6   37.98    4.98
   1 -13  -6   24.34    3.76
   1 -13  -6   28.05    4.83
  -1 -13   6   31.26    4.05
  -1 -13   5  340.42   14.85
  -1  13   5  370.49   16.08
   1  13  -5  362.23   15.29
   1 -13  -5  344.40   15.05
   1 -13  -5  334.58   14.28
  -1 -13   5  323.96   14.01
  -1 -13   4  465.92   21.55
  -1  13   4  372.89   17.50
   1  13  -4  381.07   17.47
   1 -13  -4  451.38   21.01
   1 -13  -4  470.55   21.66
  -1 -13   4  442.77   20.62
  -1 -13   3  127.86    8.75
  -1  13   3   99.00    4.11
   1  13  -3  102.15    5.52
   1 -13  -3   93.05    3.93
   1 -13  -3  112.78    4.29
  -1 -13   3  111.75    4.71
  -1 -13   2  555.75   18.51
  -1  13   2  502.43   15.84
   1  13  -2  473.71   14.98
  -1 -13   2  513.44   15.83
   1 -13  -2  549.18   17.58
   1 -13  -2  566.05   18.04
  -1 -13   2  576.87   18.57
  -1 -13   1 1138.04   34.87
  -1  13   1  866.50   26.38
  -1  13   1 1045.15   31.83
  -1 -13   1 1015.82   30.82
  -1 -13   1 1136.98   35.10
   1 -13  -1 1109.67   34.24
  -1  13   0  193.91    6.25
  -1  13   0  207.77    6.81
   1  13   0  225.82    8.12
  -1 -13   0  233.74   10.48
  -1 -13   0  252.98    8.04
  -1 -13   0  271.14    9.30
   1 -13   0  266.49    9.09
   1 -13   1  154.01    5.14
  -1  13  -1  149.36    4.99
   1  13   1  140.26    5.48
  -1  13  -1  165.50    7.77
  -1 -13  -1  163.44    5.85
  -1 -13  -1  152.14    6.24
   1 -13   1  157.51    6.36
   1 -13   2  594.01   15.33
  -1  13  -2  510.99   15.59
  -1 -13  -2  630.61   16.57
  -1 -13  -2  650.81   17.48
   1 -13   2  632.01   17.06
   1 -13   3  292.81   10.78
  -1 -13  -3  287.86   10.74
  -1 -13  -3  284.04   10.85
   1 -13   3  297.61   11.74
   1 -13   4  408.23   16.60
   1  13   4  342.16   15.01
  -1  13  -4  345.77   14.60
  -1 -13  -4  399.90   16.60
  -1 -13  -4  426.14   25.07
   1 -13   4  407.80   17.40
   1 -13   5   16.02    2.82
   1  13   5   12.82    2.50
  -1  13  -5   16.94    3.32
  -1 -13  -5   18.92    3.41
  -1 -13  -5   17.22    3.31
   1 -13   5   16.32    3.04
   1 -13   6  149.85   10.35
   1  13   6  146.37   10.70
  -1  13  -6  138.45   14.23
  -1 -13  -6  147.53   10.48
  -1 -13  -6  126.49   14.19
   1 -13   6  160.33   11.09
   1 -13   7   26.94    6.19
   1  13   7   62.07    5.83
  -1  13  -7   50.28    4.40
  -1 -13  -7   34.02    4.71
  -1 -13  -7   25.97    6.61
   1 -13   7   27.79    6.20
  -1 -14   8   16.05    4.38
  -1  14   8   30.25    6.89
   1  14  -8   36.88    4.87
   1 -14  -8   10.30    4.35
  -1 -14   8   13.20    3.58
  -1 -14   7  126.48   18.59
  -1  14   7  179.52   16.56
   1  14  -7  157.69   14.55
   1 -14  -7  135.69   13.35
   1 -14  -7  104.17   15.35
  -1 -14   7  134.19   12.58
  -1 -14   6  148.52   12.30
  -1  14   6  141.75    8.49
   1  14  -6  142.76    8.13
   1 -14  -6  155.77    9.31
   1 -14  -6  147.22    8.69
  -1 -14   6  148.54    8.80
  -1 -14   5   13.49    2.59
  -1  14   5    4.03    1.87
   1  14  -5    3.54    1.22
   1 -14  -5    9.95    2.07
   1 -14  -5    8.60    1.82
  -1 -14   5   12.23    2.49
  -1 -14   4  128.54   13.55
  -1  14   4  119.91    9.65
   1  14  -4  119.72   10.32
   1 -14  -4  115.93    9.64
   1 -14  -4  116.13    9.15
  -1 -14   4  110.95    9.05
  -1 -14   3 1248.07   43.01
  -1  14   3 1390.22  102.68
   1  14  -3 1315.57   97.04
   1 -14  -3 1214.31   41.93
   1 -14  -3 1212.36   41.88
  -1 -14   3 1249.24   43.24
  -1 -14   2  369.61   10.23
  -1  14   2  271.24    7.73
   1  14  -2  274.68    8.08
  -1 -14   2  320.44    8.46
   1 -14  -2  369.59   10.48
   1 -14  -2  353.88   10.27
  -1 -14   1   44.78    2.57
  -1  14   1   37.54    3.13
  -1 -14   1   41.59    1.74
  -1 -14   1   47.83    3.07
   1 -14  -1   48.86    3.26
  -1  14   0  597.09   18.33
  -1  14   0  747.85   23.01
   1  14   0  753.27   23.57
  -1 -14   0  631.61   19.34
  -1 -14   0  719.28   22.13
  -1 -14   0  734.27   23.10
   1 -14   0  708.84   22.39
   1 -14   1 1062.28   26.77
   1  14   1 1126.26   28.99
  -1  14  -1 1105.86   28.70
  -1 -14  -1 1095.73   27.76
  -1 -14  -1 1089.81   28.22
   1 -14   1 1039.38   27.03
   1 -14   2  332.80   11.76
   1  14   2  255.08    9.76
  -1  14  -2  275.79   10.96
  -1 -14  -2  345.27   12.49
  -1 -14  -2  340.43   12.78
   1 -14   2  349.02   13.12
   1 -14   3   27.28    3.62
   1  14   3   15.30    3.82
  -1  14  -3   18.58    3.02
  -1 -14  -3   18.91    2.58
  -1 -14  -3   22.32    3.44
   1 -14   3   21.40    3.26
   1 -14   4  228.63   11.08
   1  14   4  229.61   10.99
  -1  14  -4  235.64   10.63
  -1 -14  -4  228.41   10.33
  -1 -14  -4  248.96   11.46
   1 -14   4  232.63   11.05
   1 -14   5  132.76    9.55
   1  14   5  201.76   10.72
  -1  14  -5  181.68   13.19
  -1 -14  -5  144.72    7.88
  -1 -14  -5  152.40   11.28
   1 -14   5  152.40    8.50
   1 -14   6  125.68   11.73
   1  14   6   78.20    8.30
  -1  14  -6   79.37   10.58
  -1 -14  -6  127.99   12.18
  -1 -14  -6   98.95   14.31
   1 -14   6  119.25   11.60
   1 -14   7   16.98    4.26
   1  14   7   19.12    4.74
  -1  14  -7    9.46    2.41
  -1 -14  -7   15.38    3.86
  -1 -14  -7   12.50    4.77
   1 -14   7    9.41    3.26
  -1 -15   7   23.45    6.27
  -1  15   7   12.22    3.41
   1  15  -7   13.24    3.47
   1 -15  -7   28.33    7.06
   1 -15  -7   12.26    4.14
  -1 -15   7   15.56    4.13
  -1 -15   6   43.87    9.17
  -1  15   6   42.81    4.59
   1  15  -6   40.33    4.40
   1 -15  -6   52.39    5.01
   1 -15  -6   43.11    8.12
  -1 -15   6   46.07    4.68
  -1 -15   5  148.58   12.25
  -1  15   5  184.61    9.31
   1  15  -5  173.77   12.76
   1 -15  -5  151.32    8.28
   1 -15  -5  141.97    7.26
  -1 -15   5  149.88    7.90
  -1 -15   4   57.96    4.56
  -1  15   4   20.97    2.71
   1  15  -4   16.44    2.12
   1 -15  -4   34.95    2.86
   1 -15  -4   37.77    3.13
  -1 -15   4   37.51    3.57
  -1 -15   3  304.39   14.46
  -1  15   3  291.87   13.83
   1 -15  -3  277.99   13.24
   1 -15  -3  297.21   14.35
  -1 -15   3  289.41   13.90
  -1 -15   2  114.87    6.70
  -1  15   2  135.57    5.76
   1  15  -2  120.54    4.61
   1 -15  -2  120.91    5.41
   1 -15  -2  122.57    5.73
  -1 -15   2  118.69    6.31
  -1  15   1 1175.63   40.24
   1  15  -1 1169.11   40.29
  -1 -15   1  808.53   27.69
   1 -15  -1  960.42   33.30
  -1 -15   1  969.22   33.93
   1 -15  -1  952.17   33.20
   1  15   0  101.64    5.22
  -1  15   0  106.16    4.63
  -1 -15   0   94.71    3.94
  -1 -15   0  116.12    5.64
   1 -15   0  110.91    5.44
   1  15   1   78.24    3.89
  -1  15  -1   91.36    6.64
  -1 -15  -1   97.95    4.38
  -1 -15  -1   88.35    4.42
   1 -15   1   95.61    5.25
   1 -15   2  165.52   12.51
   1  15   2  147.85   11.60
  -1  15  -2  157.14   13.13
  -1 -15  -2  162.21   12.40
  -1 -15  -2  169.48    7.91
   1 -15   2  163.90   12.91
   1 -15   3  677.92   26.91
   1  15   3  740.06   29.86
  -1  15  -3  756.23   30.19
  -1 -15  -3  721.18   28.87
  -1 -15  -3  694.56   28.06
   1 -15   3  684.81   27.82
   1 -15   4   77.56    8.98
   1  15   4   96.95   10.16
  -1  15  -4   96.43   11.08
  -1 -15  -4   68.54    7.30
  -1 -15  -4   65.77    7.62
   1 -15   4   76.58    8.40
   1 -15   5   47.60    5.80
   1  15   5   50.18    5.47
  -1  15  -5   54.53    6.48
  -1 -15  -5   43.36    3.90
  -1 -15  -5   46.26    7.51
   1 -15   5   56.20    5.88
   1 -15   6   14.43    3.74
   1  15   6   13.50    3.72
  -1  15  -6   19.31    5.20
  -1 -15  -6   10.69    3.40
  -1 -15  -6   11.72    3.07
   1 -15   6   13.48    4.17
   1 -15   7  119.57   18.51
   1  15   7  160.19   24.89
  -1  15  -7  104.49   22.98
  -1 -15  -7  102.59   16.11
  -1 -15  -7   71.06   17.65
   1 -15   7  119.68   18.70
  -1 -16   7   58.56   12.73
  -1  16   7   76.92    6.55
   1  16  -7   52.37   11.78
   1 -16  -7   82.12    7.36
   1 -16  -7   42.25   13.11
  -1 -16   7   71.09    6.13
  -1 -16   6   19.31    3.78
  -1  16   6   11.88    3.20
   1  16  -6    8.74    2.23
   1 -16  -6   27.45    4.94
   1 -16  -6   23.94    5.30
  -1 -16   6   18.37    3.34
  -1 -16   5   18.69    4.10
  -1  16   5   20.40    3.70
   1  16  -5   16.71    3.26
   1 -16  -5   25.94    5.25
   1 -16  -5   14.14    2.93
  -1 -16   5   23.33    4.10
  -1 -16   4  195.41    9.86
  -1  16   4  205.17    7.74
   1  16  -4  194.06    6.91
   1 -16  -4  196.64    8.15
   1 -16  -4  187.05    7.45
  -1 -16   4  187.15    7.41
  -1 -16   3  365.43   15.24
  -1  16   3  372.71   15.53
   1  16  -3  326.73   13.23
   1 -16  -3  376.10   15.94
   1 -16  -3  365.54   15.26
  -1 -16   3  357.50   15.13
  -1 -16   2  235.04   12.24
  -1  16   2  183.15    7.96
   1 -16  -2  256.60   12.45
   1 -16  -2  257.49   12.76
  -1 -16   2  240.59   11.85
  -1  16   1  202.01    9.64
   1  16  -1  247.28   11.80
  -1 -16   1  255.43   11.94
   1 -16  -1  266.14   13.03
  -1 -16   1  263.35   12.88
  -1  16   0  252.74   11.71
   1  16   0  250.10   12.19
  -1 -16   0  297.47   13.74
  -1 -16   0  288.55   13.96
   1 -16   0  306.63   15.00
   1  16   1  785.92   35.71
  -1  16  -1  762.17   34.32
  -1  16  -1  773.72   35.05
  -1 -16  -1  687.95   31.09
  -1 -16  -1  671.33   30.84
   1 -16   1  657.87   30.28
   1 -16   2   28.20    4.18
   1  16   2   21.85    2.37
  -1  16  -2   23.02    3.36
  -1 -16  -2   41.83    3.22
  -1 -16  -2   26.47    2.67
   1 -16   2   37.33    3.16
   1 -16   3   33.22    5.45
   1  16   3   32.84    3.01
  -1  16  -3   46.02    4.57
  -1 -16  -3   40.41    3.27
  -1 -16  -3   35.08    3.18
   1 -16   3   35.88    3.71
   1 -16   4   22.29    4.21
   1  16   4   17.28    2.83
  -1  16  -4   17.00    3.45
  -1 -16  -4   19.49    2.93
  -1 -16  -4   23.78    3.94
   1 -16   4   18.49    3.53
   1 -16   5  171.29   15.94
   1  16   5  212.04   14.20
  -1  16  -5  195.20   16.56
  -1 -16  -5  203.84   13.51
  -1 -16  -5  168.92   16.80
   1 -16   5  197.98   13.83
   1 -16   6    8.24    2.91
   1  16   6    6.82    2.74
  -1  16  -6    9.95    2.43
  -1 -16  -6    6.16    2.28
  -1 -16  -6    4.37    1.38
   1 -16   6   11.59    3.33
  -1 -17   7   11.55    2.82
  -1  17   7   11.83    3.37
   1 -17  -7   13.56    3.91
  -1 -17   7    9.73    3.30
  -1 -17   6  100.89   11.99
  -1  17   6  128.60    9.22
   1  17  -6  120.65   11.45
   1 -17  -6  125.05    9.56
   1 -17  -6  106.10    8.23
  -1 -17   5  335.00   22.55
  -1  17   5  369.52   24.69
   1  17  -5  330.22   21.91
   1 -17  -5  355.49   24.03
   1 -17  -5  355.40   23.72
  -1 -17   5  329.45   22.34
  -1 -17   4   26.50    5.46
  -1  17   4   14.75    2.69
   1  17  -4    7.39    1.61
   1 -17  -4   28.64    4.05
   1 -17  -4   31.83    4.15
  -1 -17   4   27.28    4.53
  -1 -17   3    6.21    2.27
  -1  17   3   10.17    1.96
   1  17  -3    8.26    1.26
   1 -17  -3    2.30    2.16
   1 -17  -3    7.88    2.15
  -1 -17   3    3.02    2.34
  -1 -17   2  265.39   11.34
  -1  17   2  305.15   12.65
   1 -17  -2  296.80   12.66
   1 -17  -2  274.98   11.86
  -1 -17   2  298.37   13.22
  -1  17   1  502.91   20.04
   1  17  -1  524.58   21.19
   1 -17  -1  477.24   19.48
  -1 -17   1  490.79   19.56
   1 -17  -1  508.19   21.06
  -1  17   0  118.59    5.40
   1  17   0  122.39    6.06
  -1 -17   0  197.14    8.37
  -1 -17   0  197.59    9.35
   1 -17   0  191.32    9.14
   1  17   1  251.42   11.10
  -1  17  -1  273.20   11.28
  -1  17  -1  257.78   10.90
  -1 -17  -1  247.24   10.30
  -1 -17  -1  231.99   10.48
   1 -17   1  254.02   11.28
   1 -17   2   91.81    4.41
   1  17   2  105.05    5.67
  -1  17  -2   96.14    6.62
  -1 -17  -2  109.73    5.33
  -1 -17  -2  114.45    6.38
   1 -17   2  108.37    6.49
   1 -17   3  629.28   20.43
   1  17   3  662.15   22.06
  -1  17  -3  660.90   21.69
  -1 -17  -3  672.80   22.16
  -1 -17  -3  676.13   22.72
   1 -17   3  672.14   22.53
   1 -17   4   96.26    6.40
   1  17   4  107.90    7.41
  -1  17  -4  103.00    8.15
  -1 -17  -4   95.28    6.11
  -1 -17  -4   97.16    6.54
   1 -17   4   95.84    7.00
   1 -17   5   57.38    6.73
   1  17   5   63.67    7.45
  -1  17  -5   44.99    9.60
  -1 -17  -5   63.98    6.70
  -1 -17  -5   53.87    7.01
   1 -17   5   77.88    8.47
   1 -17   6   29.37    6.79
   1  17   6   27.13    6.02
  -1  17  -6   22.78    5.07
  -1 -17  -6   38.74    7.48
  -1 -17  -6   30.36    8.39
   1 -17   6   47.60    5.95
  -1 -18   6    3.41    2.48
  -1  18   6    0.06    1.95
   1 -18  -6    5.29    2.64
   1 -18  -6    8.04    3.36
  -1 -18   6    5.16    2.30
  -1 -18   5   22.55    3.80
  -1  18   5   33.63    5.40
   1  18  -5   20.19    4.65
   1 -18  -5   21.24    4.88
   1 -18  -5   20.68    4.19
  -1 -18   5   17.18    3.50
  -1 -18   4   79.49    9.78
  -1  18   4   96.06    6.19
   1  18  -4   78.69    8.15
   1 -18  -4   75.06    5.31
   1 -18  -4   88.11    5.88
  -1 -18   4   81.35    6.38
  -1 -18   3  598.96   19.85
  -1  18   3  609.27   20.07
   1  18  -3  547.29   17.69
   1 -18  -3  618.14   20.68
   1 -18  -3  591.48   19.96
  -1 -18   3  612.95   20.96
  -1 -18   2  112.71    5.78
  -1  18   2  134.52    6.44
   1 -18  -2  119.25    6.22
   1 -18  -2  114.13    6.02
  -1 -18   2  118.82    7.15
  -1  18   1    3.73    1.57
   1  18  -1    4.82    1.85
  -1 -18   1    9.69    1.64
   1 -18  -1    7.10    1.96
   1 -18  -1    9.70    2.34
  -1  18   0  409.10   16.90
   1  18   0  433.43   18.27
  -1 -18   0  406.25   16.87
  -1 -18   0  425.30   18.46
   1 -18   0  404.99   17.49
   1  18   1  425.69   18.14
  -1  18  -1  419.97   17.37
  -1 -18  -1  417.58   17.37
  -1 -18  -1  423.00   18.22
   1 -18   1  409.90   17.76
   1 -18   2   43.50    4.61
   1  18   2   56.72    6.15
  -1  18  -2   59.77    9.05
  -1 -18  -2   49.45    5.34
  -1 -18  -2   49.38    6.41
   1 -18   2   44.52    5.57
   1 -18   3  177.76    9.83
   1  18   3  204.53   11.65
  -1  18  -3  194.60   10.91
  -1 -18  -3  195.77   11.03
  -1 -18  -3  187.20   10.86
   1 -18   3  187.97   11.26
   1 -18   4   17.07    4.01
   1  18   4   24.57    4.68
  -1  18  -4   31.96    6.38
  -1 -18  -4   24.79    4.26
  -1 -18  -4   17.64    3.17
   1 -18   4   30.88    5.62
   1  18   5  357.58   23.17
  -1  18  -5  344.19   21.96
  -1 -18  -5  367.74   71.73
   1 -18   5  369.40   72.07
   1  18   6  113.67   17.90
  -1  18  -6   69.27   16.07
  -1 -18  -6   72.32   11.71
  -1 -18  -6   47.94   11.23
   1 -18   6   73.76   11.84
  -1 -19   6   87.15   17.01
  -1  19   6   94.79   10.32
   1 -19  -6  118.24   12.81
   1 -19  -6  107.97   11.44
  -1 -19   6  114.43   12.05
  -1 -19   5  140.95   15.84
  -1  19   5  179.94   12.20
   1 -19  -5  173.50   12.04
   1 -19  -5  164.68   11.18
  -1 -19   5  191.40   12.97
  -1 -19   4   48.44    9.68
  -1  19   4   76.43    5.80
   1 -19  -4   65.96    5.82
   1 -19  -4   71.35    6.14
  -1 -19   4   57.35    5.34
  -1 -19   3   14.71    3.33
  -1  19   3   22.77    3.88
   1  19  -3   15.97    2.58
   1 -19  -3   15.98    3.11
   1 -19  -3   16.19    3.40
  -1 -19   3   12.93    3.08
  -1  19   2  260.56   12.25
   1 -19  -2  213.28   10.55
   1 -19  -2  235.63   11.84
  -1 -19   2  240.88   12.03
  -1  19   1  444.90   14.61
   1  19  -1  460.90   15.78
   1 -19  -1  448.00   15.11
  -1 -19   1  426.16   13.93
   1 -19  -1  450.78   15.82
  -1  19   0   89.53    8.98
   1  19   0   91.75    9.72
  -1 -19   0   77.15    7.83
  -1 -19   0   79.98    8.69
   1 -19   0   87.60    9.41
   1  19   1   21.60    3.11
  -1  19  -1   24.84    3.23
  -1 -19  -1   24.98    3.16
  -1 -19  -1   26.72    4.40
   1 -19   1   24.59    3.84
   1  19   2  165.40    9.87
  -1  19  -2  167.40    9.45
  -1 -19  -2  110.23    6.52
  -1 -19  -2  121.50    7.83
   1 -19   2  120.74    7.54
   1 -19   3  314.82   20.80
   1  19   3  287.39   19.64
  -1  19  -3  276.86   19.92
  -1 -19  -3  333.84   22.31
   1 -19   3  332.64   22.55
   1  19   4  113.60   10.96
  -1  19  -4  116.70   10.99
  -1 -19  -4  110.74   10.45
  -1 -19  -4  136.53   13.10
   1 -19   4   89.88    8.96
   1  19   5   20.66    5.05
  -1  19  -5   12.45    3.26
  -1 -19  -5   18.63    4.33
  -1 -19  -5   19.14    5.60
   1 -19   5   19.30    4.24
  -1 -20   5   21.65    5.83
  -1  20   5   20.46    4.98
   1 -20  -5   11.39    3.43
   1 -20  -5   19.03    4.63
  -1 -20   5   12.57    3.40
  -1 -20   4  240.29   21.61
  -1  20   4  217.93   19.68
   1 -20  -4  249.76   22.74
   1 -20  -4  242.89   22.00
  -1 -20   4  236.92   21.60
  -1 -20   3  152.45   10.74
  -1  20   3  130.20    9.14
   1 -20  -3  169.48   12.12
   1 -20  -3  143.04   10.25
  -1 -20   3  171.98   12.58
  -1  20   2  146.80    8.30
   1 -20  -2  112.96    7.48
  -1 -20   2  116.29    7.77
   1  20  -1    2.15    2.08
   1 -20  -1    6.07    3.05
   1 -20  -1   14.12    3.91
  -1  20   0   77.55    8.40
   1  20   0   92.68    5.45
  -1 -20   0   70.72    7.79
  -1 -20   0   62.08    7.39
   1 -20   0   72.67    8.45
   1  20   1  333.86   17.97
  -1  20  -1  306.79   16.18
  -1 -20  -1  404.45   21.26
  -1 -20  -1  423.72   22.84
   1 -20   1  400.06   21.93
   1  20   2  190.62   13.37
  -1  20  -2  178.94   12.41
  -1 -20  -2  146.43   10.10
  -1 -20  -2  148.50   10.76
   1 -20   2  145.89   10.59
   1  20   3   58.42    4.82
  -1  20  -3   55.83    9.36
  -1 -20  -3   62.04    4.79
  -1 -20  -3   68.87    5.80
   1 -20   3   65.50    5.52
   1  20   4   15.28    4.54
  -1  20  -4   10.38    3.11
  -1 -20  -4    6.70    2.41
  -1 -20  -4    8.38    4.40
   1 -20   4   11.59    3.51
   1  20   5  131.06   13.79
  -1  20  -5   85.36   16.15
  -1 -20  -5  140.67   14.51
  -1 -20  -5  130.51   17.43
   1 -20   5  141.54   15.07
  -1 -21   5   36.86    6.94
   1 -21  -5   50.53    6.77
   1 -21  -5   53.69    6.41
  -1 -21   5   53.69    6.95
  -1 -21   4   34.01    7.17
  -1  21   4   48.96    4.13
   1 -21  -4   41.34    3.65
   1 -21  -4   32.23    3.28
  -1 -21   4   49.20    4.41
  -1 -21   3   14.86    3.00
  -1  21   3   11.81    2.48
   1 -21  -3   15.87    3.63
   1 -21  -3   13.50    3.10
  -1 -21   3   10.09    3.05
   1  21  -2  167.00   11.16
   1 -21  -2  169.93   11.44
   1 -21  -2  171.04   11.81
  -1 -21   2  174.93   12.07
   1  21  -1  306.08   20.53
   1 -21  -1  356.06   23.74
   1 -21  -1  368.94   24.82
   1  21   0  198.04   13.67
   1 -21   0  166.84   11.63
  -1 -21   0  138.46   10.45
   1 -21   0  177.90   12.94
   1  21   1    5.32    2.65
  -1 -21  -1    7.58    2.68
   1 -21   1    9.93    3.16
   1  21   2  209.26   13.92
  -1 -21  -2  196.85   13.62
   1 -21   2  189.14   13.30
  -1  21  -3  133.62   12.11
   1 -21   3  195.99   13.23
   1  21   4   63.95    6.23
  -1  21  -4   33.62    8.38
   1 -21   4   44.57    5.57
  -1 -22   4   95.69   16.37
   1 -22  -4  119.74    9.46
   1 -22  -4  111.03    8.77
  -1 -22   4  137.16   10.59
  -1 -22   3   55.60    4.66
   1 -22  -3   46.06    4.48
   1 -22  -3   41.86    4.34
  -1 -22   3   64.28    5.16
   1  22  -2  188.37   17.22
   1 -22  -2  151.36   13.97
   1 -22  -2  144.37   13.77
  -1 -22   2  157.56   14.99
   1  22  -1    5.55    2.38
   1 -22  -1    9.18    3.04
   1 -22  -1    9.28    2.75
   1  22   0  134.79   12.54
   1 -22   0  103.82    9.88
  -1 -22   0  116.44   11.15
   1 -22   0  104.98   10.65
   1  22   1  189.15   17.30
  -1 -22  -1  240.98   22.19
   1 -22   1  249.20   22.73
   1  22   2  258.36   16.80
  -1 -22  -2  245.84   16.23
   1 -22   2  236.49   16.00
   1  22   3   29.04    6.08
  -1  22  -3   26.84    6.78
  -1 -22  -3   40.85    8.95
   1 -22   3   39.96    7.69
   1  23  -3    8.39    2.64
   1 -23  -3    9.04    2.85
   1 -23  -3    6.13    2.56
  -1 -23   3   11.66    3.99
   1  23  -2  107.95    7.35
   1 -23  -2  124.62    8.47
   1 -23  -2  118.46    8.30
  -1 -23   2  118.60    8.96
   1  23  -1   82.47    5.88
   1 -23  -1  126.69    8.95
   1  23   0  161.50   10.89
   1 -23   0  131.40    9.08
  -1 -23   0  140.78   10.00
   1 -23   0  152.57   11.12
   1  23   1    6.53    2.70
  -1 -23  -1   -0.21    2.64
   1 -23   1   10.14    5.54
   1  23   2   74.81    6.40
  -1 -23  -2   79.74    6.88
   1 -23   2  100.67    8.49
   1  23   3   38.52    6.79
  -1  23  -3   42.91    7.25
  -1 -23  -3   60.01   10.41
   1 -23   3   52.31    8.98
   1  24  -2  121.46   12.76
   1 -24  -2  126.91   13.16
   1 -24  -2  124.03   13.53
  -1 -24   2  115.39   12.28
   1  24  -1    2.91    1.74
   1 -24  -1    1.94    1.98
   1 -24  -1    7.84    3.53
   1  24   0  143.99   10.69
   1 -24   0  147.78   10.87
  -1 -24   0  145.76   12.08
   1 -24   0  149.55   12.11
   1  24   1   78.14    8.77
  -1 -24  -1  146.92   15.61
   1 -24   1  136.19   14.35
  -2   0   9    5.75    2.29
   2   0  -9    3.56    2.71
  -2   0   8    5.05    2.30
   2   0  -8   10.01    3.81
  -2   0   7   87.16    5.25
   2   0  -7   96.05    5.58
  -2   0   7   90.62    4.08
  -2   0   6  816.36   21.64
   2   0  -6  744.66   19.89
  -2   0   6  717.99   18.01
  -2   0   6  780.71   19.60
  -2   0   5  206.87    5.30
   2   0  -5  224.46    5.30
  -2   0   5  209.47    3.12
  -2   0   5  211.86    3.21
  -2   0   4   31.58    1.80
   2   0  -4   40.62    2.74
  -2   0   3 3808.35   40.89
   2   0  -3 3951.59   42.39
  -2   0   3 3628.08   38.76
  -2   0   2 3528.36   37.81
   2   0  -2 3205.92   34.19
   2   0  -2 3477.42   37.02
  -2   0   2 3437.29   36.09
   2   0  -2 3407.65   35.78
  -2   0   1   36.36    2.91
   2   0  -1   31.49    2.36
  -2   0   1   32.48    2.10
   2   0  -1   30.39    0.99
  -2   0   1   28.56    1.07
   2   0  -1   28.55    1.09
   2   0   0   43.97    2.90
   2   0   0   49.44    1.73
  -2   0   0   48.63    2.27
   2   0   0   49.52    1.36
   2   0   1  507.17    6.42
  -2   0  -1  499.93    6.17
  -2   0  -1  525.45    6.72
   2   0   1  504.34    6.32
  -2   0  -1  507.28    6.83
   2   0   2 1477.33   24.07
  -2   0  -2 1510.42   24.55
  -2   0  -2 1463.50   24.02
   2   0   3 1158.11   17.25
  -2   0  -3 1206.11   17.89
   2   0   4   79.59    4.26
  -2   0  -4   64.27    3.47
   2   0   5   53.94    5.11
  -2   0  -5   52.28    4.81
   2   0   6  409.63   14.52
  -2   0  -6  419.94   14.97
   2   0   7   25.67    4.57
  -2   0  -7   29.82    5.45
   2   0   8   19.97    4.94
  -2   0  -8   20.32    4.63
   2   0   8   12.78    3.47
  -2   1   9    2.94    3.07
   2   1  -9    3.29    2.47
   2  -1  -9    9.05    3.88
  -2  -1   8  196.43   10.41
  -2   1   8  194.91   10.42
   2   1  -8  188.22    9.71
   2  -1  -8  194.91   10.06
  -2  -1   7   70.31    4.51
  -2   1   7   94.85    5.61
   2   1  -7   95.23    5.27
   2  -1  -7   67.36    4.64
  -2  -1   7   67.39    3.11
  -2   1   7   87.28    3.92
  -2  -1   6    1.72    2.21
  -2   1   6    9.36    3.28
   2   1  -6   14.63    3.51
   2  -1  -6   12.72    3.76
  -2  -1   6    5.89    0.72
  -2   1   6    5.20    0.55
  -2  -1   6    5.51    0.75
  -2   1   6    7.84    0.77
  -2  -1   5  902.27   14.15
  -2   1   5  821.03   12.89
   2   1  -5  870.26   13.58
   2  -1  -5  897.02   13.97
  -2  -1   5  865.84   11.90
  -2   1   5  824.31   11.21
  -2  -1   5  873.48   12.02
  -2   1   5  849.70   11.59
  -2  -1   4  724.65   12.56
  -2   1   4  720.76   12.54
   2   1  -4  817.84   14.05
   2  -1  -4  710.18   12.40
  -2  -1   4  749.32   11.79
  -2  -1   4  742.58   11.68
  -2  -1   3   67.22    2.34
   2   1  -3   96.72    2.34
   2  -1  -3   74.40    2.62
  -2  -1   3   71.38    1.93
  -2   1   3   99.02    2.37
  -2  -1   2  145.56    2.95
  -2   1   2  135.96    2.47
   2   1  -2  126.80    2.28
   2  -1  -2  138.27    2.35
   2   1  -2  133.57    2.45
  -2  -1   2  145.24    2.27
   2  -1  -2  141.09    2.01
   2   1  -2  127.11    1.80
   2  -1  -2  140.04    1.97
  -2  -1   1 1179.17   13.08
   2  -1  -1 1150.76   12.64
  -2  -1   1 1191.83   12.97
  -2  -1   1 1159.87   12.95
   2   1  -1 1311.24   14.53
   2  -1   0 3942.58   41.56
   2   1   0 3785.13   40.16
   2  -1   0 3971.09   41.90
  -2   1   0 4024.56   42.85
  -2  -1   0 4116.01   64.49
   2  -1   0 3847.97   40.85
   2   1   0 3820.43   40.43
   2  -1   1  713.45    8.58
   2   1   1  764.37    9.20
  -2   1  -1  750.07    8.66
  -2  -1  -1  685.80    8.19
  -2   1  -1  783.02    9.36
  -2  -1  -1  733.81    8.79
   2   1   1  745.15    8.79
  -2  -1  -1  715.48    9.32
   2  -1   2   40.83    2.39
   2   1   2   44.25    2.42
  -2   1  -2   35.28    1.36
  -2  -1  -2   37.57    1.76
  -2  -1  -2   43.03    6.36
   2  -1   3  422.29    7.73
   2   1   3  449.56    8.12
  -2   1  -3  429.64    7.52
  -2  -1  -3  407.28    7.15
  -2  -1  -3  398.74    7.48
   2  -1   4  597.23   19.12
   2   1   4  664.14   21.28
  -2   1  -4  665.13   21.11
  -2  -1  -4  594.85   19.06
  -2  -1  -4  553.39   17.71
   2  -1   5  258.85   13.05
   2   1   5  247.09   12.46
  -2   1  -5  253.06   12.52
  -2  -1  -5  230.16   11.61
   2  -1   6    9.03    3.63
   2   1   6    6.28    3.61
  -2  -1  -6    9.54    2.73
   2  -1   7   47.17    7.03
   2   1   7   59.08    5.32
  -2  -1  -7   55.76    6.22
   2  -1   7   47.43    7.73
   2  -1   8  150.22   11.58
   2   1   8  151.00   12.19
   2  -1   8  142.48   11.22
  -2  -2   9    7.70    3.33
  -2   2   9    8.36    3.43
   2   2  -9    7.42    2.80
   2  -2  -9    2.25    2.85
  -2   2   8  115.72    7.46
   2   2  -8  115.46    6.61
   2  -2  -8   99.29    6.12
  -2   2   7  196.27    9.10
   2   2  -7  198.89    9.33
   2  -2  -7  256.12   11.37
  -2  -2   7  233.22    9.50
  -2   2   7  195.20    7.96
  -2   2   6  613.96   22.07
   2   2  -6  602.70   21.44
   2  -2  -6  673.41   23.99
  -2  -2   6  574.57   19.69
  -2   2   6  535.00   18.30
  -2  -2   6  626.38   21.49
  -2   2   6  582.05   19.93
  -2   2   5   42.30    2.76
   2   2  -5   46.54    2.75
   2  -2  -5   22.99    2.64
  -2  -2   5   22.08    2.02
  -2   2   5   39.00    0.91
  -2   2   5   42.70    1.03
  -2  -2   4   42.36    2.08
  -2   2   4   34.73    2.19
   2   2  -4   31.66    1.74
   2  -2  -4   38.96    2.41
  -2  -2   4   40.45    1.07
  -2   2   3  417.28    5.72
   2  -2  -3  406.03    5.47
   2   2  -3  430.89    5.84
  -2  -2   3  426.04    5.55
  -2  -2   3  435.73    4.97
   2   2  -3  410.35    4.70
  -2   2   2 1410.10   15.45
   2  -2  -2 1430.66   15.68
   2   2  -2 1418.27   15.47
   2  -2  -2 1409.77   15.08
  -2  -2   2 1509.02   16.28
   2   2  -2 1347.18   14.53
   2  -2  -2 1507.07   16.12
  -2  -2   1  503.95    6.20
  -2   2   1  453.68    5.23
   2  -2  -1  476.08    5.74
  -2  -2   1  506.04    6.21
   2   2  -1  450.11    5.52
   2  -2  -1  480.82    5.97
   2   2   0   10.80    1.40
   2  -2   0    4.51    0.68
   2   2   0    9.74    1.25
  -2  -2   0    8.01    0.80
   2  -2   0    9.57    1.20
   2   2   0    8.29    0.67
   2  -2   1  302.64    4.32
  -2   2  -1  312.86    4.08
  -2  -2  -1  290.46    4.15
   2  -2   1  286.81    4.17
  -2  -2  -1  304.04    4.25
   2   2   1  317.83    4.31
  -2  -2  -1  309.81    4.81
  -2   2  -2  928.00   15.22
  -2   2  -2  991.01   16.56
  -2  -2  -2 1133.74   18.70
  -2  -2  -2 1157.52   19.33
   2  -2   3  456.90    7.96
  -2  -2  -3  465.30    7.95
  -2  -2  -3  465.91    8.18
   2  -2   4   69.02    3.86
   2   2   4   52.94    3.24
  -2  -2  -4   62.75    3.25
  -2  -2  -4   72.74    4.19
   2  -2   5  135.67   11.09
   2   2   5  165.82   13.27
  -2  -2  -5  118.92    9.62
   2  -2   6  197.63    8.37
   2   2   6  193.70    8.78
  -2   2  -6  195.16    8.01
  -2  -2  -6  203.41    8.26
   2  -2   6  212.14    8.88
   2  -2   7  125.12    9.36
   2   2   7  115.38    8.56
  -2   2  -7  110.55    8.16
  -2  -2  -7  120.26    8.73
   2  -2   7  129.46    9.68
   2  -2   8   53.84    6.48
   2   2   8   35.95    7.27
  -2   2  -8   37.29    7.76
  -2  -2  -8   49.10    5.08
   2  -2   8   49.01    5.61
  -2  -3   9   68.21    5.78
  -2   3   9   78.44    6.48
   2   3  -9   80.95    6.96
   2  -3  -9   87.01    7.94
  -2  -3   8   83.64    6.48
  -2   3   8   78.92    5.81
   2   3  -8   89.63    6.34
   2  -3  -8   81.40    5.73
  -2  -3   7   73.71    4.96
  -2   3   7   93.92    5.33
   2   3  -7   86.23    5.66
   2  -3  -7   75.74    4.59
  -2  -3   7   59.56    2.98
  -2   3   7   84.39    3.78
  -2  -3   6  139.28    6.36
  -2   3   6  166.12    6.95
   2   3  -6  168.73    7.18
   2  -3  -6  137.02    6.73
  -2  -3   6  105.02    6.00
  -2   3   6  152.27    5.45
  -2  -3   6  136.45    5.14
  -2   3   5   90.66    3.02
   2   3  -5   94.01    3.40
  -2   3   4  976.25   16.51
   2   3  -4  984.40   16.51
   2  -3  -4  990.96   16.96
   2  -3  -4  957.06   15.10
  -2  -3   4  997.18   15.93
  -2   3   4  939.84   14.79
   2   3  -4  923.00   14.76
   2  -3  -3  493.35    6.34
  -2  -3   2  311.14    5.27
   2   3  -2  289.07    4.12
  -2   3   2  293.56    3.86
   2  -3  -2  297.63    3.96
   2   3  -2  296.30    3.87
   2  -3  -2  298.38    4.73
  -2  -3   2  308.03    4.00
   2   3  -2  285.56    3.67
   2  -3  -2  300.50    3.77
  -2   3   1  754.18    8.25
   2   3  -1  757.81    8.92
   2  -3  -1  847.57    9.20
  -2   3   1  753.19    8.82
   2  -3  -1  806.72    9.33
   2   3  -1  737.97    8.06
   2   3  -1  733.49    8.53
   2  -3   0 1898.96   20.17
   2   3   0 1717.77   19.06
  -2   3   0 1691.25   18.71
   2  -3   0 1753.00   19.22
   2  -3   0 1866.58   20.67
   2  -3   1 1223.89   13.72
  -2   3  -1 1333.28   14.57
  -2  -3  -1 1231.06   13.82
   2   3   1 1317.99   14.68
  -2  -3  -1 1228.83   14.64
   2  -3   2  286.21    5.60
   2   3   2  250.86    5.33
  -2  -3  -2  293.61    5.70
  -2  -3  -2  314.98    7.87
   2  -3   3   40.48    2.29
   2   3   3   16.69    1.98
  -2   3  -3   23.08    2.15
  -2  -3  -3   42.52    2.21
  -2  -3  -3   45.46    5.24
   2  -3   4 1170.66   30.23
   2   3   4  983.74   25.70
  -2   3  -4 1023.37   26.56
  -2  -3  -4 1151.01   29.62
  -2  -3  -4 1150.70   30.08
   2  -3   5  607.58   28.13
   2   3   5  595.02   27.70
  -2   3  -5  663.81   30.70
  -2  -3  -5  601.02   27.73
  -2  -3  -5  611.40   28.17
   2  -3   5  619.25   28.61
   2  -3   6   61.06    7.42
   2   3   6   66.86    7.67
  -2   3  -6   68.42    7.53
  -2  -3  -6   67.29    7.89
   2  -3   6   61.87    7.42
   2  -3   7   19.03    3.72
   2   3   7   20.54    4.51
  -2   3  -7   24.30    4.40
  -2  -3  -7   23.65    4.07
   2  -3   7   16.49    3.51
   2  -3   8  175.08   18.14
   2   3   8  155.78   16.32
  -2   3  -8  148.42   15.67
  -2  -3  -8  161.09   16.75
   2  -3   8  190.77   19.70
  -2   4   9    8.24    2.87
   2   4  -9    8.38    3.26
   2  -4  -9    2.26    4.03
  -2  -4   8   45.10    6.94
  -2   4   8   72.75    6.31
   2   4  -8   60.60    9.18
   2  -4  -8   53.77    8.36
  -2  -4   7  161.36    8.41
  -2   4   7  125.14    6.54
   2   4  -7  102.63    5.60
   2  -4  -7  164.46    8.23
  -2  -4   7  149.01    6.50
  -2  -4   6  136.76    6.03
  -2   4   6  112.47    5.35
   2   4  -6  115.33    5.45
   2  -4  -6  115.72    6.29
  -2  -4   6  103.14    5.85
  -2   4   6   93.45    3.58
  -2  -4   6  125.83    4.84
  -2  -4   5   51.55    3.50
  -2   4   5   37.30    2.46
   2   4  -5   42.67    2.70
   2  -4  -5   43.16    2.72
   2  -4  -5   43.03    1.60
  -2   4   5   33.42    1.33
  -2  -4   5   52.54    2.20
  -2  -4   4    9.15    2.44
  -2   4   4    1.96    1.32
   2   4  -4    4.74    1.86
   2  -4  -4    0.56    2.22
   2  -4  -4    1.28    0.63
  -2  -4   4    4.96    1.12
  -2   4   4    1.31    0.54
   2   4  -4    2.34    0.73
   2  -4  -3  505.42    6.47
  -2   4   2 1285.49   14.07
   2  -4  -2 1322.79   14.49
   2   4  -2 1294.71   14.04
  -2  -4   2 1397.17   15.40
   2   4  -2 1265.26   13.97
   2  -4  -2 1411.20   15.38
  -2   4   2 1273.15   13.96
   2  -4  -1  676.63    7.36
   2  -4  -1  653.37    7.82
  -2  -4   1  710.55    8.52
   2   4  -1  713.59    8.38
   2  -4  -1  715.83    8.66
   2  -4   0   92.86    1.51
   2   4   0   93.94    2.09
   2  -4   0   89.72    1.40
   2   4   0   97.97    2.74
   2  -4   0   93.33    4.90
  -2  -4   0   96.07    1.66
   2   4   0   92.98    1.62
   2  -4   0   93.29    2.75
   2   4   1  418.52    6.08
  -2  -4  -1  489.91    9.19
   2  -4   2 1524.99   24.66
  -2   4  -2 1413.75   22.73
  -2   4  -2 1536.48   25.12
  -2  -4  -2 1543.27   24.97
  -2  -4  -2 1608.55   26.40
   2  -4   2 1600.80   26.59
   2  -4   3  819.87   12.82
  -2  -4  -3  846.61   13.08
  -2  -4  -3  848.76   13.87
   2  -4   4   41.41    2.53
   2   4   4   25.70    2.64
  -2   4  -4   29.85    2.54
  -2  -4  -4   40.17    2.91
  -2  -4  -4   52.76    5.58
   2  -4   4   38.14    3.24
   2  -4   5   61.70    5.85
   2   4   5   73.66    6.92
  -2   4  -5   85.96    7.75
  -2  -4  -5   61.09    5.47
  -2  -4  -5   48.73    4.79
   2  -4   5   64.33    6.33
   2  -4   6  450.67   21.08
   2   4   6  465.52   22.10
  -2   4  -6  414.81   19.71
  -2  -4  -6  460.85   21.50
  -2  -4  -6  458.09   21.33
   2  -4   6  487.80   22.95
   2  -4   7  138.46    9.76
   2   4   7  194.47   13.59
  -2   4  -7  205.10   14.08
  -2  -4  -7  137.33    9.78
   2  -4   7  156.44   11.00
   2  -4   8    5.80    2.61
   2   4   8    4.16    2.68
  -2   4  -8   12.32    3.75
  -2  -4  -8    9.55    3.34
   2  -4   8    8.55    3.08
  -2  -5   9   81.86    6.79
  -2   5   9   71.35    5.80
   2   5  -9   81.04    6.87
   2  -5  -9   76.91    7.03
  -2  -5   8   92.22    6.53
  -2   5   8  102.73    7.24
   2   5  -8   99.36    6.83
   2  -5  -8   84.52    6.81
  -2  -5   7  132.50    7.33
  -2   5   7  118.95    6.47
   2   5  -7  118.90    6.47
   2  -5  -7  119.07    6.73
  -2  -5   7  115.53    5.26
  -2  -5   6  110.74    5.58
  -2   5   6  149.75    6.37
   2   5  -6  142.51    6.55
   2  -5  -6  127.65    6.58
   2  -5  -6  122.94    4.60
  -2  -5   6  112.03    4.26
  -2   5   6  117.18    4.35
  -2  -5   6  128.89    4.95
  -2  -5   5   65.10    3.54
  -2   5   5   49.49    2.79
   2   5  -5   65.52    3.14
   2  -5  -5   75.13    4.55
   2  -5  -5   66.31    3.89
  -2  -5   5   63.24    2.74
  -2   5   5   55.24    2.07
  -2  -5   4  765.35   12.07
  -2   5   4  807.13   12.30
   2   5  -4  796.93   11.91
  -2  -5   4  709.58   10.56
   2  -5  -4  768.41   13.66
   2  -5  -4  757.08   10.65
  -2  -5   4  752.07   10.88
  -2   5   4  787.55   11.04
   2   5  -4  771.71   11.06
  -2   5   3  466.96    8.19
   2   5  -3  452.24    7.73
  -2  -5   3  431.43    7.36
   2  -5  -3  480.80    9.21
  -2  -5   3  432.82    7.47
   2  -5  -3  447.65    7.49
   2   5  -3  453.76    7.72
  -2   5   3  458.77    7.68
  -2  -5   2   75.47    2.17
  -2   5   2   85.87    1.75
   2  -5  -2   75.48    1.65
   2   5  -2   85.18    1.48
  -2  -5   2   73.21    1.26
   2  -5  -2   69.68    2.14
  -2  -5   2   72.11    1.81
   2   5  -2   84.46    1.97
   2  -5  -2   70.75    1.87
  -2   5   2   88.75    1.89
  -2  -5   1 1285.24   15.41
  -2   5   1 1285.49   13.50
   2  -5  -1 1273.64   13.41
  -2  -5   1 1262.20   14.36
   2   5  -1 1323.40   14.85
   2  -5  -1 1257.15   14.25
  -2   5   1 1347.35   15.08
   2  -5   0  423.14    4.56
   2  -5   0  413.09    4.47
   2   5   0  421.61    5.97
  -2  -5   0  432.87    4.99
   2   5   0  392.97    4.65
   2  -5   1 1371.83   15.05
  -2   5  -1 1253.49   13.67
   2   5   1 1327.64   15.40
  -2  -5  -1 1381.00   15.34
   2   5   1 1265.11   14.18
   2  -5   1 1414.61   16.68
   2  -5   2  268.71    5.37
  -2   5  -2  224.46    4.38
   2   5   2  246.58    5.91
  -2   5  -2  252.11    5.63
  -2  -5  -2  262.02    5.21
  -2  -5  -2  269.02    5.80
   2  -5   2  269.00    6.57
   2   5   3  129.72    4.57
  -2  -5  -3  179.44    4.46
  -2  -5  -3  185.97    4.48
   2  -5   4  816.48   21.38
   2   5   4  797.71   21.28
  -2   5  -4  818.84   21.59
  -2  -5  -4  828.29   21.73
  -2  -5  -4  812.23   22.35
   2  -5   4  860.93   22.96
   2  -5   5  141.67    7.13
   2   5   5  200.82    9.85
  -2   5  -5  216.81   10.34
  -2  -5  -5  134.14    6.75
  -2  -5  -5  153.61   10.90
   2  -5   5  155.90    8.47
   2  -5   6   35.79    4.64
   2   5   6   25.73    4.58
  -2   5  -6   24.59    4.03
  -2  -5  -6   42.78    5.35
  -2  -5  -6   48.96    6.30
   2  -5   6   44.95    5.96
   2  -5   7   14.39    4.10
   2   5   7   15.69    3.46
  -2  -5  -7   16.14    4.50
   2  -5   7   18.73    4.76
   2  -5   8   43.13    6.34
   2   5   8   28.11    6.74
  -2   5  -8   18.49    4.82
  -2  -5  -8   37.37    5.03
   2  -5   8   48.32    6.81
  -2  -6   9   33.66    3.98
  -2   6   9   42.28    4.87
   2   6  -9   42.83    4.11
   2  -6  -9   22.93    5.21
  -2  -6   8   35.19    3.92
  -2   6   8   25.22    2.78
   2   6  -8   25.87    3.37
   2  -6  -8   20.40    2.74
  -2  -6   7   19.98    3.06
  -2   6   7    8.09    2.09
   2   6  -7   12.87    2.46
   2  -6  -7   13.60    2.98
  -2  -6   7   16.82    1.74
  -2  -6   6   70.40    6.21
  -2   6   6  121.04    9.77
   2   6  -6  126.87    9.96
   2  -6  -6   74.13    6.52
   2  -6  -6   81.06    7.35
  -2  -6   6   82.40    6.49
  -2  -6   5  189.12    7.02
  -2   6   5  215.97    7.76
   2   6  -5  209.98    7.29
   2  -6  -5  197.93    7.62
   2  -6  -5  185.39    6.12
  -2  -6   5  173.85    5.90
  -2   6   5  191.07    6.10
   2   6  -5  196.17    6.46
  -2  -6   4  108.24    3.24
  -2   6   4  120.37    3.44
   2   6  -4  121.41    3.09
  -2  -6   4   99.80    2.55
   2  -6  -4  109.81    3.50
   2  -6  -4  109.50    2.29
  -2  -6   4  105.68    2.52
  -2   6   4  113.95    2.36
   2   6  -4  116.83    2.70
  -2  -6   3   30.90    4.91
   2  -6  -3   33.96    2.42
   2  -6  -2  263.86    3.58
  -2  -6   2  249.92    3.91
   2   6  -2  286.74    4.06
   2   6   0   63.98    2.01
  -2   6   0   76.86    7.02
  -2  -6   0   81.14    1.40
   2   6   0   72.88    1.37
   2  -6   1  392.38    6.59
  -2   6  -1  384.44    6.43
   2   6   1  393.22    7.49
  -2   6  -1  405.88    7.59
  -2  -6  -1  404.06    7.03
   2   6   1  392.85    6.92
  -2  -6  -1  420.38    8.22
   2  -6   1  417.36    8.11
   2  -6   2  828.84   13.78
  -2   6  -2  801.65   13.26
   2   6   2  825.74   14.32
  -2   6  -2  847.37   14.66
  -2  -6  -2  820.86   13.83
  -2  -6  -2  817.27   14.23
   2  -6   2  870.52   15.59
   2  -6   3  952.35   29.32
   2   6   3  997.74   31.05
  -2   6  -3 1015.44   31.38
  -2  -6  -3  956.07   29.50
  -2  -6  -3  985.95   30.94
   2  -6   4   57.38    3.38
   2   6   4   36.60    3.92
  -2   6  -4   42.05    3.37
  -2  -6  -4   58.38    3.56
  -2  -6  -4   63.96    9.54
   2  -6   4   53.40    3.79
   2  -6   5  285.16   12.38
   2   6   5  239.46   10.79
  -2   6  -5  258.07   11.72
  -2  -6  -5  249.34   11.00
  -2  -6  -5  281.13   18.37
   2  -6   5  268.61   11.95
   2  -6   6  278.45   13.43
   2   6   6  199.27   10.32
  -2   6  -6  237.36   12.23
  -2  -6  -6  283.94   13.74
  -2  -6  -6  284.33   13.99
   2  -6   6  285.55   14.23
   2  -6   7   92.56    9.48
   2   6   7  100.81   10.58
  -2   6  -7   99.94    9.91
  -2  -6  -7   71.48    7.67
  -2  -6  -7   76.27    7.74
   2  -6   7   81.20    8.32
   2  -6   8   20.38    4.89
   2   6   8   25.51    5.29
  -2   6  -8   19.05    4.27
  -2  -6  -8   27.41    5.63
   2  -6   8   21.51    4.59
  -2  -7   9   79.26    6.38
  -2   7   9   57.32    4.98
   2   7  -9   57.96    5.13
   2  -7  -9   78.38    6.41
  -2  -7   8   52.67    5.64
  -2   7   8   42.69    5.12
   2   7  -8   36.60    3.86
   2  -7  -8   51.68    4.90
  -2  -7   7  194.04    7.89
  -2   7   7  170.92    7.03
   2   7  -7  201.83    7.90
   2  -7  -7  225.03    9.40
  -2  -7   7  198.60    7.10
  -2  -7   6  156.95   12.58
  -2   7   6  146.44   11.65
   2   7  -6  142.56   11.15
   2  -7  -6  160.53   12.76
   2  -7  -6  153.05   11.56
  -2  -7   6  149.49   11.40
  -2  -7   5  244.80    7.81
  -2   7   5  241.98    7.57
   2   7  -5  244.94    7.34
   2  -7  -5  265.44    8.13
   2  -7  -5  258.04    7.42
  -2  -7   5  244.18    6.81
  -2   7   5  218.50    5.93
  -2  -7   4  590.58    9.75
  -2   7   4  566.50    9.16
   2   7  -4  559.18    8.58
  -2  -7   4  547.44    8.36
   2  -7  -4  599.89   10.16
   2  -7  -4  597.06    8.81
  -2  -7   4  614.17    9.44
  -2   7   4  518.39    7.76
  -2  -7   3  254.12    5.50
  -2  -7   3  236.64    4.36
   2  -7  -3  225.93    5.69
   2  -7  -3  247.99    4.70
  -2  -7   3  242.06    4.84
   2   7  -3  293.45    5.42
  -2  -7   2  580.59   10.19
  -2   7   2  586.70    9.64
   2  -7  -2  549.11    8.99
   2   7  -2  568.60    8.98
  -2  -7   2  559.26    8.86
  -2  -7   2  556.60    9.67
   2   7  -2  527.67    9.06
   2  -7  -2  549.48    9.40
  -2   7   2  585.08    9.94
  -2  -7   1  360.33    5.33
   2   7   0  168.07    3.83
  -2   7   0  204.36    5.31
  -2  -7   0  153.16    3.68
   2  -7   1 1941.72   30.54
  -2   7  -1 2030.31   31.92
   2   7   1 2153.48   34.77
  -2   7  -1 2147.60   34.59
  -2  -7  -1 1988.92   31.55
   2   7   1 2057.26   32.61
  -2  -7  -1 2061.16   33.50
   2  -7   1 2091.48   33.96
   2  -7   2    3.67    0.76
  -2   7  -2    7.25    0.81
   2   7   2    3.62    2.14
  -2   7  -2   10.74    1.71
  -2  -7  -2    5.26    1.03
  -2  -7  -2    5.22    1.58
   2  -7   2    5.25    3.68
   2  -7   3  490.80   15.59
   2   7   3  486.69   15.81
  -2   7  -3  483.60   15.47
  -2  -7  -3  483.76   15.38
  -2  -7  -3  467.16   15.14
   2  -7   4  298.65   11.05
   2   7   4  297.55   11.80
  -2   7  -4  293.39   11.38
  -2  -7  -4  290.35   10.93
  -2  -7  -4  294.77   11.18
   2  -7   4  322.47   12.71
   2  -7   5  233.75   10.54
   2   7   5  235.55   11.00
  -2   7  -5  284.23   12.94
  -2  -7  -5  221.62   10.12
  -2  -7  -5  218.64   11.63
   2  -7   5  250.37   11.84
   2  -7   6   39.15    6.23
   2   7   6   23.00    4.64
  -2   7  -6   22.84    4.34
  -2  -7  -6   42.36    6.71
  -2  -7  -6   33.67    6.87
   2  -7   6   27.61    4.59
   2  -7   7   68.21    6.26
   2   7   7   61.28    5.65
  -2   7  -7   48.59    4.73
  -2  -7  -7   55.34    5.34
  -2  -7  -7   53.33    5.13
   2  -7   7   66.65    6.59
  -2  -8   9  133.47   11.16
  -2   8   9   97.47    8.14
   2   8  -9  107.61    8.81
   2  -8  -9  113.08    9.34
  -2  -8   8   59.56    5.20
  -2   8   8   38.69    5.83
   2   8  -8   45.14    6.98
   2  -8  -8   58.76    6.01
  -2  -8   7  126.83    6.12
  -2   8   7  112.42   12.58
   2   8  -7  114.95    5.47
   2  -8  -7  135.34    6.80
  -2  -8   7  120.09    4.89
  -2  -8   6  381.69   18.09
  -2   8   6  421.38   19.80
   2   8  -6  430.32   19.90
   2  -8  -6  306.93   15.20
   2  -8  -6  353.14   16.09
  -2  -8   6  361.69   16.63
  -2  -8   5  296.47    9.12
  -2   8   5  306.34    8.88
   2   8  -5  305.36    8.65
   2  -8  -5  270.53    8.38
   2  -8  -5  282.61    7.69
  -2  -8   5  249.42    7.12
  -2   8   5  253.73    6.91
  -2  -8   4  348.17    6.86
  -2   8   4  321.51    5.89
   2   8  -4  349.67    5.86
   2  -8  -4  340.69    6.95
   2  -8  -4  320.56    5.33
  -2  -8   4  325.91    5.86
  -2   8   4  318.99    5.28
  -2  -8   3  626.12   10.50
  -2   8   3  700.48   10.43
   2  -8  -3  586.94    8.80
   2   8  -3  698.92    9.95
  -2  -8   3  615.94    8.87
   2  -8  -3  655.17   11.12
   2  -8  -3  646.68    9.78
  -2  -8   3  643.59    9.93
  -2   8   3  633.24    9.39
  -2  -8   2 1007.12   16.88
  -2   8   2 1046.37   16.78
   2  -8  -2  977.24   15.61
   2   8  -2 1004.89   15.72
  -2  -8   2  994.44   15.58
  -2  -8   2 1021.13   16.98
   2  -8  -2  990.78   16.34
  -2   8   2  986.41   16.22
  -2  -8   1  911.32   15.47
  -2  -8   1  879.30   14.83
   2  -8  -1  894.12   15.09
   2   8   0  224.07    5.06
  -2   8   0  223.90    4.74
  -2  -8   0  213.00    3.66
   2   8   0  217.94    3.73
  -2  -8   0  221.22    4.80
   2  -8   1  756.93   12.16
  -2   8  -1  717.30   11.58
   2   8   1  735.88   13.26
  -2   8  -1  761.75   13.31
  -2  -8  -1  738.02   12.21
   2   8   1  728.85   12.03
  -2  -8  -1  764.65   13.57
   2  -8   1  770.15   13.77
   2  -8   2  435.16    6.77
  -2   8  -2  355.13    5.73
   2   8   2  376.97    7.11
  -2   8  -2  384.07    7.16
  -2  -8  -2  433.21    7.18
   2  -8   2  359.70    7.27
   2  -8   3  600.69   18.78
   2   8   3  539.57   17.44
  -2   8  -3  608.73   19.30
  -2  -8  -3  607.80   19.14
  -2  -8  -3  620.58   20.18
   2  -8   4   69.55    5.70
   2   8   4   80.39    7.06
  -2   8  -4   70.71    6.09
  -2  -8  -4   70.27    5.96
  -2  -8  -4   70.44    9.19
   2  -8   4   74.85    6.53
   2  -8   5  122.42    6.09
   2   8   5   91.96    5.65
  -2   8  -5  100.36    6.47
  -2  -8  -5  119.72    6.21
  -2  -8  -5  123.41   11.87
   2  -8   5  122.04    6.73
   2  -8   6   29.95    4.83
   2   8   6   49.01    8.14
  -2   8  -6   47.58    8.08
  -2  -8  -6   32.97    5.83
  -2  -8  -6   23.90    6.25
   2  -8   6   30.07    5.66
   2  -8   7  225.30   14.88
   2   8   7  245.48   16.66
  -2   8  -7  210.27   14.45
  -2  -8  -7  210.05   14.02
  -2  -8  -7  202.45   13.33
   2  -8   7  233.80   15.57
  -2  -9   9    3.51    2.67
  -2   9   9    2.61    2.35
   2   9  -9    5.51    2.34
   2  -9  -9    3.60    3.18
  -2  -9   8   34.31    6.04
  -2   9   8   53.75    8.99
   2   9  -8   54.49    5.04
   2  -9  -8   41.81    7.52
  -2  -9   7   29.61    4.40
  -2   9   7   18.63    3.23
   2   9  -7   16.80    2.59
   2  -9  -7   34.63    5.11
  -2  -9   7   27.48    3.62
  -2  -9   6  108.37    5.79
  -2   9   6  107.95    5.74
   2   9  -6  105.61    5.12
   2  -9  -6  101.47    5.64
   2  -9  -6   99.29    4.52
  -2  -9   6   96.68    4.78
  -2  -9   5  132.33    5.87
  -2   9   5  180.23    7.31
   2   9  -5  194.64    7.48
   2  -9  -5  146.40    6.57
   2  -9  -5  137.16    5.35
  -2  -9   5  143.74    5.76
  -2  -9   4  211.11    7.72
  -2   9   4  231.69    8.06
   2   9  -4  242.15    7.90
  -2  -9   4  185.35    6.22
   2  -9  -4  247.15    8.93
   2  -9  -4  221.74    7.36
  -2  -9   4  220.94    7.71
  -2  -9   3  622.32   11.07
  -2   9   3  606.28    9.19
   2  -9  -3  577.46    8.66
   2   9  -3  641.51    9.14
  -2  -9   3  593.08    8.57
   2  -9  -3  609.26   10.28
   2  -9  -3  638.66    9.79
  -2  -9   3  612.08    9.68
  -2  -9   2  118.35    3.34
  -2   9   2  130.61    2.73
   2  -9  -2  120.29    2.52
  -2  -9   2  111.59    1.93
  -2  -9   2  118.99    3.50
   2  -9  -2  120.86    3.13
  -2  -9   1  657.67   11.79
  -2   9   1  644.35   10.18
  -2   9   1  627.03    9.93
  -2  -9   1  624.41   10.96
   2  -9  -1  620.71   11.02
   2   9   0 1468.84   24.16
  -2   9   0 1440.56   24.09
  -2  -9   0 1259.83   19.89
  -2  -9   0 1352.77   22.48
   2  -9   0 1360.14   22.63
   2  -9   1  274.89    4.17
  -2   9  -1  292.96    4.47
   2   9   1  285.84    5.98
  -2   9  -1  319.65    5.94
  -2  -9  -1  264.86    4.49
   2   9   1  306.25    4.95
  -2  -9  -1  283.78    5.88
   2  -9   1  279.50    6.33
   2  -9   2   45.16    2.08
  -2   9  -2   44.39    2.05
   2   9   2   48.17    3.52
  -2   9  -2   51.37    4.40
  -2  -9  -2   57.10    7.03
   2  -9   2   43.84    3.82
   2  -9   3  183.97    5.57
   2   9   3  206.48    7.41
  -2   9  -3  199.62    6.31
  -2  -9  -3  200.79    6.33
  -2  -9  -3  204.72    6.61
   2  -9   4   90.39    7.20
   2   9   4  112.60    9.23
  -2   9  -4  119.53    9.91
  -2  -9  -4   92.93    7.62
  -2  -9  -4  112.22   13.34
   2  -9   4   97.83    8.19
   2  -9   5  518.17   17.41
   2   9   5  465.82   16.31
  -2   9  -5  561.74   19.11
  -2  -9  -5  508.13   17.27
  -2  -9  -5  504.74   19.69
   2  -9   5  570.25   19.63
   2  -9   6    7.79    2.07
   2   9   6   16.19    2.91
  -2   9  -6   19.73    3.41
  -2  -9  -6   14.77    2.46
  -2  -9  -6   15.45    3.78
   2  -9   6   14.69    3.84
   2  -9   7   60.56    5.36
   2   9   7   49.61    5.09
  -2   9  -7   45.40    6.03
  -2  -9  -7   55.69    5.34
  -2  -9  -7   42.28    8.49
   2  -9   7   62.26    5.89
  -2 -10   9   23.47    5.71
  -2  10   9   24.97    6.25
   2  10  -9   29.66    6.76
   2 -10  -9   40.76    5.78
  -2 -10   8   29.53    5.86
  -2  10   8   32.56    5.94
   2  10  -8   37.27    6.57
   2 -10  -8   42.42   10.10
  -2 -10   7   11.56    3.61
  -2  10   7    5.13    1.93
   2  10  -7   13.10    2.21
  -2 -10   7    7.48    1.75
  -2 -10   6  181.94    8.79
  -2  10   6  156.66    7.67
   2  10  -6  149.90    6.96
   2 -10  -6  173.15    9.11
   2 -10  -6  159.94   10.89
  -2 -10   6  166.61    7.53
  -2 -10   5  449.58   20.28
  -2  10   5  425.01   15.36
   2  10  -5  432.13   15.33
   2 -10  -5  438.09   15.39
  -2 -10   5  487.97   17.36
  -2 -10   4  185.66   12.45
  -2  10   4  136.15    4.63
   2  10  -4  131.25    3.94
  -2 -10   4  127.36    3.97
   2 -10  -4  152.72    4.71
  -2 -10   4  158.40    5.33
  -2 -10   3  483.40    9.17
  -2  10   3  441.90    7.07
   2 -10  -3  434.85    6.70
   2  10  -3  423.60    6.67
  -2 -10   3  440.69    6.55
   2 -10  -3  452.00    8.20
   2 -10  -3  481.68    7.85
  -2 -10   3  500.65    8.47
  -2 -10   2 1193.99   19.17
  -2  10   2 1247.81   17.30
   2 -10  -2 1238.88   17.05
  -2 -10   2 1180.39   15.93
  -2 -10   2 1184.68   17.44
   2 -10  -2 1166.50   16.91
  -2 -10   1  454.33    7.75
  -2  10   1  394.25    5.51
  -2  10   1  377.74    5.36
  -2 -10   1  445.67    7.66
   2 -10  -1  450.49    7.71
  -2  10   0   12.04    0.50
  -2  10   0   11.66    0.48
  -2 -10   0    8.99    1.00
  -2  10   0   17.34    3.04
  -2 -10   0    9.62    0.66
  -2 -10   0    9.05    1.72
   2 -10   0    8.00    1.62
   2 -10   1  281.71    4.26
  -2  10  -1  238.88    3.79
  -2  10  -1  267.89    5.38
  -2 -10  -1  278.16    4.71
  -2 -10  -1  297.06    6.51
   2 -10   1  286.80    6.51
   2 -10   2  336.27   10.58
  -2  10  -2  292.02    9.26
   2  10   2  309.15   10.46
  -2  10  -2  349.86   11.58
  -2 -10  -2  330.06   10.60
  -2 -10  -2  335.84   11.14
   2 -10   2  319.77   10.89
   2 -10   3  633.79   22.01
   2  10   3  628.72   22.61
  -2  10  -3  606.27   22.94
  -2 -10  -3  687.14   24.04
  -2 -10  -3  659.51   24.58
   2 -10   4   80.64    4.31
   2  10   4   85.12    5.73
  -2  10  -4   79.21    7.34
  -2 -10  -4   78.72    4.58
  -2 -10  -4   98.45    8.87
   2 -10   4   78.84    5.19
   2 -10   5  134.38    5.54
   2  10   5  112.53   12.64
  -2  10  -5  124.78    6.45
  -2 -10  -5  148.56    6.45
  -2 -10  -5  162.56   11.37
   2 -10   5  161.41    7.65
   2 -10   6   30.07    4.98
   2  10   6   76.27    6.46
  -2  10  -6   64.91    5.55
  -2 -10  -6   26.05    4.40
  -2 -10  -6   20.01    4.74
   2 -10   6   29.29    5.40
   2 -10   7  233.65   16.95
   2  10   7  235.80   17.46
  -2  10  -7  243.66   17.77
  -2 -10  -7  210.50   15.42
  -2 -10  -7  236.88   17.33
   2 -10   7  250.17   18.24
  -2 -11   8   23.87    6.15
  -2  11   8   23.99    5.85
   2  11  -8   24.88    6.00
  -2 -11   7  146.78    8.88
  -2  11   7  119.00    7.68
   2  11  -7  118.49    7.15
  -2 -11   7  115.59    6.70
  -2 -11   6  135.17   10.13
  -2  11   6  101.09    5.53
   2  11  -6  107.69    5.69
   2 -11  -6  126.46    6.74
   2 -11  -6  113.06    5.30
  -2 -11   6  116.48    5.71
  -2 -11   5  269.48   13.05
  -2  11   5  191.26    9.49
   2  11  -5  206.29    9.84
   2 -11  -5  265.58   13.39
   2 -11  -5  275.45   12.83
  -2 -11   5  258.89   12.24
  -2 -11   4  518.50   14.25
  -2  11   4  568.53   19.99
   2  11  -4  576.67   19.93
  -2 -11   4  412.11   14.37
   2 -11  -4  498.93   14.07
   2 -11  -4  482.14   12.78
  -2 -11   4  515.03   13.87
  -2 -11   3  682.41   21.54
  -2  11   3  620.73   19.21
   2 -11  -3  569.70   17.51
   2  11  -3  606.43   18.47
  -2 -11   3  612.36   18.71
   2 -11  -3  657.60   21.17
  -2 -11   3  666.60   20.93
   2 -11  -3  684.27   21.28
  -2 -11   2  265.70    7.45
  -2  11   2  253.82    4.18
  -2 -11   2  246.57    3.60
   2 -11  -2  252.41    5.43
  -2 -11   2  258.02    5.56
   2 -11  -2  253.93    5.29
  -2  11   0 1374.02   18.58
  -2  11   0 1384.31   18.69
   2  11   0 1475.78   21.60
  -2  11   0 1413.72   20.45
  -2 -11   0 1352.32   18.37
  -2 -11   0 1401.42   19.17
   2 -11   0 1474.25   21.69
   2 -11   1  447.87   13.67
  -2  11  -1  420.92   12.92
   2  11   1  433.32   14.03
  -2  11  -1  469.49   15.00
  -2 -11  -1  470.47   14.60
   2  11   1  419.36   12.98
  -2 -11  -1  479.39   15.63
   2 -11   1  466.20   15.26
   2 -11   2   99.50    3.08
  -2  11  -2   86.91    2.88
   2  11   2   85.78    3.90
  -2  11  -2  116.27    8.84
  -2 -11  -2   97.15    3.33
  -2 -11  -2   93.80    4.31
   2 -11   2   95.31    4.46
   2 -11   3  511.09   17.83
  -2  11  -3  497.65   17.95
  -2 -11  -3  570.82   20.24
  -2 -11  -3  537.41   19.79
   2 -11   3  543.78   19.93
   2 -11   4  166.97    7.30
  -2  11  -4  271.16   14.77
  -2 -11  -4  170.81    7.98
  -2 -11  -4  180.80   16.13
   2 -11   4  186.15    8.84
   2 -11   5  440.79   20.26
   2  11   5  458.32   21.57
  -2  11  -5  457.63   21.53
  -2 -11  -5  439.54   20.50
  -2 -11  -5  459.39   21.49
   2 -11   5  489.89   23.18
   2 -11   6   20.36    3.67
   2  11   6   16.51    4.22
  -2  11  -6   18.85    4.13
  -2 -11  -6   15.32    2.92
  -2 -11  -6   17.46    5.13
   2 -11   6   23.70    5.05
   2 -11   7   63.25    5.96
   2  11   7   56.30    6.19
  -2  11  -7   72.54    7.15
  -2 -11  -7   55.04    5.02
  -2 -11  -7   36.65    9.82
   2 -11   7   59.29    6.29
  -2 -12   8   82.52   14.30
  -2  12   8   86.27    6.65
   2  12  -8   88.79    6.29
   2 -12  -8  110.81    8.32
  -2 -12   7   83.78    8.14
  -2  12   7   88.04    7.01
   2 -12  -7   83.00    8.01
  -2 -12   7   78.85    5.98
  -2 -12   6  194.68    7.95
  -2  12   6  241.12    8.88
   2  12  -6  235.41    8.44
   2 -12  -6  197.60    8.52
   2 -12  -6  178.86    6.76
  -2 -12   6  184.83    7.09
  -2 -12   5  222.92   18.19
  -2  12   5  173.54    7.82
   2  12  -5  174.70    7.51
   2 -12  -5  211.79   10.16
   2 -12  -5  211.16    9.09
  -2 -12   5  201.69    9.01
  -2 -12   4  213.53   14.25
  -2  12   4  192.14    7.41
   2  12  -4  178.01    6.59
  -2 -12   4  163.27    6.08
   2 -12  -4  186.27    7.67
   2 -12  -4  190.54    7.40
  -2 -12   4  187.62    7.59
  -2 -12   3  425.27   12.13
  -2  12   3  370.93    9.95
   2  12  -3  361.68    9.28
  -2 -12   3  380.51    9.82
   2 -12  -3  397.00   11.06
   2 -12  -3  420.26   11.37
  -2 -12   3  417.11   11.66
  -2  12   2  432.32   13.26
  -2 -12   2  435.73   14.26
  -2  12   2  476.39   14.71
  -2 -12   2  411.90   12.53
   2 -12  -2  445.42   14.51
  -2 -12   2  430.31   13.93
   2 -12  -2  433.85   13.98
  -2 -12   1  265.75    9.00
  -2  12   1  206.62    6.43
  -2  12   1  221.59    6.94
  -2 -12   1  267.41    8.15
  -2 -12   1  269.38    8.24
  -2 -12   1  267.24    9.27
   2 -12  -1  260.84    9.00
  -2  12   0   48.52    1.73
   2  12   0   44.05    3.51
  -2  12   0   59.34    4.05
  -2 -12   0   48.14    2.16
  -2 -12   0   50.74    2.02
  -2 -12   0   54.40    3.46
   2 -12   0   47.13    3.51
  -2  12  -1  409.47   12.62
   2  12   1  408.09   13.31
  -2  12  -1  440.97   14.26
  -2 -12  -1  428.09   13.38
  -2 -12  -1  437.26   14.29
   2 -12   1  430.17   14.33
   2 -12   2  686.08   23.60
  -2  12  -2  684.60   23.53
   2  12   2  761.66   26.78
  -2  12  -2  763.65   27.04
  -2 -12  -2  682.31   23.69
  -2 -12  -2  679.12   24.08
   2 -12   2  697.98   24.82
   2 -12   3  204.27    9.66
   2  12   3  188.19    8.66
  -2  12  -3  212.99   15.26
  -2 -12  -3  224.94   10.95
  -2 -12  -3  222.19   11.14
   2 -12   3  238.53   11.82
   2 -12   4   53.40    3.36
   2  12   4   26.73    2.58
  -2  12  -4   37.47    4.23
  -2 -12  -4   50.76    3.41
  -2 -12  -4   54.30    7.31
   2 -12   4   53.73    4.09
   2 -12   5  107.86    6.44
   2  12   5  112.84    7.42
  -2  12  -5  113.06   10.46
  -2 -12  -5  100.85   10.29
   2 -12   5  111.99    8.32
   2 -12   6   43.29    4.93
  -2  12  -6   62.07    7.77
  -2 -12  -6   41.99    7.34
  -2 -12  -6   30.54    6.61
   2 -12   6   38.20    7.29
   2 -12   7   51.05    6.07
  -2  12  -7   33.57    8.68
  -2 -12  -7   45.43    5.52
  -2 -12  -7   48.47    9.79
   2 -12   7   59.51    7.76
  -2 -13   8   34.15    7.84
  -2  13   8   51.15    5.28
   2  13  -8   53.17    5.05
   2 -13  -8   27.55    5.74
  -2 -13   7   44.23    8.31
  -2  13   7   49.31    7.40
   2  13  -7   44.37    6.35
   2 -13  -7   57.00    6.35
  -2 -13   7   43.76    6.20
  -2 -13   6   33.88    5.19
  -2  13   6   43.77    5.54
   2  13  -6   31.69    4.05
   2 -13  -6   45.95    6.71
   2 -13  -6   30.15    4.08
  -2 -13   6   32.67    4.22
  -2 -13   5   99.71    8.84
  -2  13   5  100.95    5.25
   2  13  -5   96.65    4.64
   2 -13  -5   97.08    5.78
   2 -13  -5   99.90    5.05
  -2 -13   5   97.90    5.27
  -2 -13   4  110.76   12.39
  -2  13   4  161.26   12.42
   2  13  -4  147.70   11.50
   2 -13  -4   95.42    8.28
   2 -13  -4  103.92    8.33
  -2 -13   4   93.74    7.70
  -2 -13   3  384.14   17.10
  -2  13   3  298.34   10.71
   2  13  -3  287.71   10.14
  -2 -13   3  351.79   12.22
   2 -13  -3  385.69   14.35
  -2 -13   3  394.15   14.35
   2 -13  -3  392.64   14.26
  -2 -13   2  203.24    6.41
  -2  13   2  167.23    4.54
  -2  13   2  192.31    5.39
  -2 -13   2  192.52    5.02
   2 -13  -2  203.83    6.62
  -2 -13   2  196.63    5.11
  -2 -13   2  209.73    6.74
   2 -13  -2  206.11    6.70
  -2  13   1   90.86    2.58
  -2  13   1   98.93    2.92
   2  13  -1   90.82    4.50
  -2 -13   1   87.15    2.41
  -2 -13   1   87.74    2.50
  -2 -13   1   91.78    4.44
   2 -13  -1   80.69    3.60
  -2  13   0  640.70   16.08
  -2  13   0  671.49   16.83
   2  13   0  700.41   18.62
  -2  13   0  704.19   18.64
  -2 -13   0  626.91   15.75
  -2 -13   0  657.58   16.62
   2 -13   0  676.05   18.04
   2 -13   1  370.65    9.48
  -2  13  -1  352.33    9.10
   2  13   1  369.19   10.66
  -2  13  -1  389.44   11.21
  -2 -13  -1  407.52   10.71
  -2 -13  -1  400.03   11.65
   2 -13   1  376.61   11.08
   2 -13   2  174.31    6.49
  -2  13  -2  138.16    5.24
   2  13   2  118.14    5.29
  -2  13  -2  143.76    9.89
  -2 -13  -2  172.62    6.62
  -2 -13  -2  185.27    7.99
   2 -13   2  179.82    7.82
   2 -13   3   93.93    6.70
   2  13   3  112.37    6.39
  -2  13  -3  102.24    9.47
  -2 -13  -3   85.84    4.48
  -2 -13  -3   98.82   13.53
   2 -13   3   84.25    4.92
   2 -13   4  429.74   14.40
   2  13   4  470.06   16.41
  -2  13  -4  490.56   16.86
  -2 -13  -4  414.22   14.05
  -2 -13  -4  415.51   14.69
   2 -13   4  442.63   15.69
   2 -13   5  221.11   14.93
   2  13   5  176.68   12.94
  -2  13  -5  175.53   12.41
  -2 -13  -5  250.20   17.12
  -2 -13  -5  218.60   17.26
   2 -13   5  263.64   18.53
   2 -13   6   75.30    5.79
   2  13   6   69.17    7.08
  -2  13  -6   53.39    7.46
  -2 -13  -6   76.43    6.14
  -2 -13  -6   60.11   10.12
   2 -13   6   94.92    7.37
  -2 -14   8   20.01    5.31
  -2  14   8   10.91    3.19
   2 -14  -8   17.08    4.61
  -2 -14   7   62.06    9.12
  -2  14   7   64.96    6.92
   2  14  -7   65.21    6.41
   2 -14  -7   82.60    9.20
  -2 -14   7   73.69    7.37
  -2 -14   6    2.10    1.38
  -2  14   6    8.00    3.07
   2  14  -6    3.84    1.69
   2 -14  -6    2.84    2.63
   2 -14  -6    7.53    2.67
  -2 -14   6    4.88    1.74
  -2 -14   5   53.82    8.40
  -2  14   5   39.32    4.71
   2  14  -5   33.34    5.01
   2 -14  -5   44.95    5.93
   2 -14  -5   46.64    5.09
  -2 -14   5   51.52    5.80
  -2 -14   4   67.95    6.42
  -2  14   4   44.15    2.88
   2  14  -4   41.65    3.30
   2 -14  -4   52.90    3.88
   2 -14  -4   52.29    3.02
  -2 -14   4   46.95    3.04
  -2 -14   3  234.46   16.96
  -2  14   3  177.04    7.53
   2  14  -3  159.58   11.92
   2 -14  -3  200.78   10.02
   2 -14  -3  189.35    8.29
  -2 -14   3  209.69   10.28
  -2 -14   2  424.57   15.69
  -2  14   2  337.08   11.69
  -2  14   2  390.03   13.67
  -2 -14   2  365.93   12.56
  -2 -14   2  395.15   13.56
   2 -14  -2  403.24   14.83
  -2 -14   2  423.58   15.45
   2 -14  -2  412.36   14.99
  -2  14   1    5.93    0.83
   2  14  -1    6.59    2.57
   2 -14  -1   24.78    2.86
  -2  14   0  253.94    8.84
  -2  14   0  261.47    9.08
   2  14   0  281.23   10.84
  -2  14   0  295.67   11.11
  -2 -14   0  237.06    8.25
  -2 -14   0  278.15    9.78
   2 -14   0  277.23   10.81
   2  14   1   65.08    4.56
  -2 -14  -1   94.61    3.61
  -2  14  -1   61.18    8.30
   2 -14   1  100.79    5.75
   2  14   2  553.83   25.53
  -2  14  -2  549.17   25.39
  -2 -14  -2  482.04   21.98
  -2 -14  -2  492.92   23.06
   2 -14   2  475.20   22.28
   2 -14   3  125.41    6.76
   2  14   3  150.74    7.63
  -2  14  -3  158.16    7.61
  -2 -14  -3  134.56    6.24
  -2 -14  -3  153.76    9.97
   2 -14   3  147.91    8.22
   2 -14   4   84.45    5.76
   2  14   4   83.46    5.36
  -2  14  -4   99.34    8.60
  -2 -14  -4   90.91    5.16
  -2 -14  -4   99.62    9.23
   2 -14   4  101.99    6.83
   2 -14   5   75.94    5.43
   2  14   5   79.81    6.59
  -2  14  -5   74.12    8.67
  -2 -14  -5   80.53    6.26
  -2 -14  -5   71.56    8.62
   2 -14   5   77.57    6.76
   2  14   6  218.08   13.90
  -2  14  -6  195.06   17.22
  -2 -14  -6  171.98   10.72
  -2 -14  -6  173.76   12.59
   2 -14   6  206.02   13.46
  -2 -15   7   35.33    5.53
  -2  15   7   30.30    7.11
   2 -15  -7   22.00    5.89
  -2 -15   7   27.65    6.58
  -2 -15   6    5.41    1.27
  -2  15   6    5.20    2.23
   2  15  -6    5.18    1.71
   2 -15  -6    4.91    2.44
   2 -15  -6   -0.17    1.35
  -2 -15   6    6.67    2.79
  -2 -15   5  190.61   15.26
  -2  15   5  211.31   10.25
   2  15  -5  197.73    9.27
   2 -15  -5  189.85   10.26
   2 -15  -5  188.73    9.18
  -2 -15   5  183.47    9.56
  -2 -15   4  376.05   16.55
  -2  15   4  373.23   15.78
   2  15  -4  336.94   14.14
   2 -15  -4  372.42   16.35
   2 -15  -4  367.55   15.63
  -2 -15   4  382.63   16.59
  -2 -15   3   88.41    8.64
  -2  15   3   46.78    2.83
   2  15  -3   38.07    1.87
   2 -15  -3   83.56    4.77
   2 -15  -3   72.32    3.98
  -2 -15   3   62.86    3.80
  -2 -15   2    6.84    1.71
  -2  15   2    7.46    1.13
  -2 -15   2    6.17    0.76
   2 -15  -2    7.34    2.30
  -2 -15   2   10.68    3.10
   2 -15  -2    9.45    3.15
  -2  15   1  266.14   12.17
   2  15  -1  261.93   12.80
  -2 -15   1  245.60   11.12
  -2 -15   1  259.46   12.70
   2 -15  -1  243.32   11.95
  -2  15   0  614.54   27.54
   2  15   0  657.25   30.12
  -2  15   0  654.21   29.89
  -2 -15   0  663.11   29.77
   2 -15   0  667.25   30.74
   2  15   1   90.50    7.88
  -2  15  -1   85.40    6.53
  -2  15  -1   92.55    9.97
  -2 -15  -1  155.22   12.24
   2 -15   1  162.59   12.82
   2 -15   2   15.15    2.55
   2  15   2   21.96    3.72
  -2  15  -2   30.39    4.56
  -2 -15  -2   14.12    1.49
  -2 -15  -2   19.48    3.12
   2 -15   2   13.82    2.74
   2 -15   3  138.36    5.52
   2  15   3  114.45    6.12
  -2  15  -3  117.96    7.79
  -2 -15  -3  143.45    5.61
  -2 -15  -3  148.12    6.69
   2 -15   3  145.07    6.88
   2 -15   4  320.29   16.99
   2  15   4  313.81   17.57
  -2  15  -4  314.68   21.84
  -2 -15  -4  304.56   16.37
  -2 -15  -4  277.32   25.30
   2 -15   4  312.44   17.32
   2  15   5    4.61    2.47
  -2  15  -5    4.20    1.65
  -2 -15  -5   14.87    3.23
  -2 -15  -5   20.41    4.40
   2  15   6   40.48    5.79
  -2  15  -6   32.12    9.25
  -2 -15  -6   39.41    5.15
  -2 -15  -6   24.90    9.47
   2 -15   6   44.12    6.38
  -2 -16   7   57.27    8.30
  -2  16   7   81.03    6.10
   2 -16  -7   87.76    6.84
  -2 -16   7   79.37    5.58
  -2 -16   6   63.40   10.07
  -2  16   6   57.06    4.72
   2 -16  -6   73.15    6.14
   2 -16  -6   79.92    6.10
  -2 -16   6   68.43    5.59
  -2 -16   5   16.68    3.37
  -2  16   5   22.17    3.53
   2 -16  -5   25.52    4.46
   2 -16  -5   18.07    3.37
  -2 -16   5   12.91    2.74
  -2 -16   4   43.04    6.08
  -2  16   4   33.57    3.91
   2 -16  -4   36.99    5.06
   2 -16  -4   33.82    4.22
  -2 -16   4   33.67    4.09
  -2 -16   3   48.85    3.95
  -2  16   3   70.17    3.76
   2 -16  -3   42.63    3.36
   2 -16  -3   50.50    3.69
  -2 -16   3   51.05    4.01
  -2 -16   2  693.55   27.88
  -2  16   2  770.05   30.28
  -2 -16   2  609.47   23.85
   2 -16  -2  669.22   26.96
  -2 -16   2  657.82   26.76
   2 -16  -2  655.84   26.53
  -2  16   1  178.10    7.35
   2  16  -1  168.02    7.67
  -2 -16   1  175.20    7.08
  -2 -16   1  179.81    8.32
   2 -16  -1  189.33    8.87
  -2  16   0  106.52    4.49
   2  16   0  113.56    5.80
  -2 -16   0  125.90    5.33
   2 -16   0  130.47    6.79
   2  16   1  205.48    9.50
  -2  16  -1  207.69    8.43
  -2  16  -1  201.67   10.66
  -2 -16  -1  205.84    8.54
  -2 -16  -1  182.55    8.58
   2 -16   1  201.21    9.30
   2 -16   2  928.11   29.31
   2  16   2  998.61   32.37
  -2  16  -2 1022.99   33.93
  -2 -16  -2 1023.24   32.62
  -2 -16  -2 1051.04  110.11
   2 -16   2 1027.06  107.68
   2  16   3   61.32    7.58
  -2  16  -3   58.96    9.06
  -2 -16  -3   53.51    6.17
  -2 -16  -3   68.96    8.36
   2  16   4   47.02    4.65
  -2  16  -4   51.86    6.54
  -2 -16  -4   32.30    3.31
   2 -16   4   41.81    5.65
   2  16   5   61.17    5.40
  -2  16  -5   49.38    8.92
  -2 -16  -5   57.72    4.69
  -2 -16  -5   49.84    8.09
   2 -16   5   60.18    5.56
   2  16   6  190.98   29.57
  -2  16  -6  183.07   28.17
  -2 -16  -6  166.89   25.71
  -2 -16  -6  148.88   24.10
   2 -16   6  166.57   25.78
  -2 -17   7    3.11    2.16
  -2  17   7   -0.04    1.76
   2 -17  -7    7.41    3.10
  -2 -17   7    1.61    2.36
  -2 -17   6    8.32    2.82
  -2  17   6    9.60    2.74
   2 -17  -6    5.69    2.87
   2 -17  -6    7.49    2.76
  -2 -17   6   11.55    3.51
  -2 -17   5  108.51    9.69
  -2  17   5  118.67    8.67
   2 -17  -5  118.22    9.53
   2 -17  -5  111.75    8.16
  -2 -17   5  118.30    8.86
  -2 -17   4  227.72   14.00
   2 -17  -4  274.70   13.54
   2 -17  -4  252.89   12.04
  -2 -17   4  276.08   13.33
  -2 -17   3   69.21    9.51
  -2  17   3  111.48   11.99
   2 -17  -3   61.72    6.79
   2 -17  -3   63.63    7.30
  -2 -17   3   69.64    7.49
  -2 -17   2    5.63    1.99
  -2  17   2    1.70    1.27
   2 -17  -2    4.59    2.18
  -2 -17   2    6.86    3.15
   2 -17  -2    5.64    3.39
  -2  17   1  249.65   10.38
   2  17  -1  280.17   12.36
  -2 -17   1  257.82   11.63
   2 -17  -1  270.37   12.00
   2  17   0  666.36   64.17
   2 -17   0  503.05   48.71
   2  17   1   54.69    6.12
  -2  17  -1   50.30    9.63
  -2 -17  -1   18.98    2.45
  -2 -17  -1   13.85    2.95
   2 -17   1   19.71    3.88
   2  17   2   18.78    4.18
  -2  17  -2   29.69    4.53
  -2 -17  -2   40.87    4.69
  -2 -17  -2   41.80    5.45
   2 -17   2   39.57    5.55
   2  17   3   21.74    4.02
  -2  17  -3   22.91    4.74
  -2 -17  -3   26.02    3.97
  -2 -17  -3   20.42    3.78
   2 -17   3   26.87    4.84
   2  17   4  323.70   21.11
  -2  17  -4  263.39   25.52
  -2 -17  -4  300.99   19.16
  -2 -17  -4  297.91   19.38
   2 -17   4  300.76   19.83
   2  17   5   42.82    5.30
  -2  17  -5   32.06    7.80
  -2 -17  -5   21.93    4.71
  -2 -17  -5   13.26    3.40
   2 -17   5   21.09    5.37
  -2 -18   6   71.76   13.03
  -2  18   6   92.07    6.37
   2 -18  -6   91.86    6.66
   2 -18  -6  103.99    7.08
  -2 -18   6   95.06    6.52
  -2 -18   5   22.69    4.72
  -2  18   5   39.04    5.74
   2 -18  -5   34.00    5.67
   2 -18  -5   17.15    3.04
  -2 -18   5   28.83    4.75
  -2 -18   4   26.12    3.78
  -2  18   4   33.58    3.19
   2 -18  -4   22.88    3.07
   2 -18  -4   31.38    3.40
  -2 -18   4   42.35    4.59
  -2 -18   3  226.20   14.98
   2 -18  -3  235.57   11.75
  -2 -18   3  227.30   11.60
   2 -18  -3  220.89   11.12
   2 -18  -2  303.14   11.02
  -2 -18   2  302.85   11.09
   2 -18  -2  304.81   11.12
   2  18  -1   25.97    3.82
  -2 -18   1   15.46    2.89
   2 -18  -1   13.85    3.23
   2  18   0   51.99    6.27
   2 -18   0   61.62    7.22
   2  18   1  110.61    6.57
  -2  18  -1  109.56    6.24
  -2 -18  -1  119.36    6.77
   2 -18   1  115.51    6.66
   2  18   2  293.64   16.12
  -2  18  -2  316.09   21.60
  -2 -18  -2  315.09   17.60
   2 -18   2  303.33   16.88
   2  18   3   41.54    6.93
  -2  18  -3   27.58    6.45
  -2 -18  -3   24.57    4.79
   2 -18   3   30.11    5.20
   2  18   4   99.13    7.50
  -2  18  -4   69.46    9.79
   2 -18   4  103.58    8.34
   2  18   5   13.25    4.43
  -2  18  -5    8.58    3.43
  -2 -18  -5   23.33    6.03
   2 -18   5   10.69    3.44
  -2 -19   6    6.88    2.68
   2 -19  -6   13.30    4.51
   2 -19  -6    8.62    2.92
  -2 -19   6    7.02    2.40
  -2 -19   5   81.12   12.10
   2 -19  -5  121.78    9.43
   2 -19  -5  101.53    7.35
  -2 -19   5  107.52    8.13
  -2 -19   4  158.00   10.76
   2 -19  -4  172.43   12.02
   2 -19  -4  173.67   11.77
  -2 -19   4  164.15   11.40
  -2 -19   3  106.45   12.21
   2 -19  -3  127.60    8.20
   2 -19  -3  122.66    7.44
  -2 -19   3  125.25    8.09
   2  19  -2   16.58    3.19
   2 -19  -2    6.51    1.76
  -2 -19   2   10.92    3.20
   2 -19  -2   10.07    3.61
   2  19  -1  203.40   10.45
  -2 -19   1  202.39   10.54
   2 -19  -1  206.77   10.56
   2  19   0  254.37   12.40
   2 -19   0  293.44   14.45
   2  19   1   78.35    5.79
  -2  19  -1   76.41    5.57
  -2 -19  -1   58.51    8.73
   2 -19   1   58.97    9.15
   2  19   2  183.60   13.02
  -2  19  -2  176.67   12.31
  -2 -19  -2  201.49   14.35
   2 -19   2  170.26   12.25
   2  19   3  119.10   11.55
  -2  19  -3   98.11   11.09
  -2 -19  -3   83.61    9.02
   2 -19   3  111.21   10.96
   2  19   4  176.33   11.53
  -2  19  -4  139.12   11.66
  -2 -19  -4  164.35   16.81
   2 -19   4  154.31   10.18
  -2 -20   5    3.32    1.87
   2 -20  -5    4.90    2.57
   2 -20  -5    2.87    2.73
  -2 -20   5    3.07    2.27
  -2 -20   4   77.18   12.25
   2 -20  -4   87.62    8.75
   2 -20  -4   94.73    9.30
  -2 -20   4   86.21    9.03
  -2 -20   3  136.88    9.72
   2 -20  -3  150.78   10.42
  -2 -20   3  154.53   11.06
   2 -20  -3  160.99   11.22
   2  20  -2  279.19   19.03
   2 -20  -2  337.26   22.72
  -2 -20   2  328.10   22.13
   2 -20  -2  337.67   22.77
   2  20  -1  146.28   10.64
   2 -20  -1  140.86   10.41
  -2 -20   1  125.95    9.67
   2 -20  -1  127.29    9.77
   2  20   0   12.74    3.85
  -2 -20   0    1.61    2.40
   2 -20   0   10.15    3.39
   2  20   1  205.91   13.84
  -2 -20  -1  197.86   13.34
   2 -20   1  189.19   12.76
   2  20   2   91.11    9.25
  -2  20  -2   97.69   12.98
  -2 -20  -2  133.79   12.69
   2  20   3  109.17    7.92
  -2  20  -3   77.37    9.34
  -2 -20  -3   72.88    5.98
   2 -20   3   65.11    5.47
   2  20   4   51.41    6.33
  -2  20  -4   29.22    7.91
  -2 -20  -4   44.47    8.02
   2 -20   4   81.41    9.96
  -2 -21   5   70.71   10.18
   2 -21  -5   82.43    9.58
   2 -21  -5   86.00    9.53
  -2 -21   5   77.71    8.85
  -2 -21   4   59.78    8.67
   2 -21  -4   79.98    6.45
   2 -21  -4   72.86    5.64
  -2 -21   4   77.68    6.15
  -2 -21   3   92.02    9.00
   2 -21  -3  107.68   10.53
  -2 -21   3   96.31    9.40
   2 -21  -3   94.91    9.41
   2  21  -2   14.10    3.01
   2 -21  -2    8.90    2.05
  -2 -21   2    7.47    3.28
   2  21  -1   86.32    6.76
   2 -21  -1   79.01    6.13
  -2 -21   1   70.00    5.81
   2 -21  -1   81.64    6.49
   2  21   0  257.16   16.90
   2 -21   0  300.97   19.53
   2  21   1  230.52   20.91
  -2 -21  -1  202.96   18.85
   2 -21   1  195.99   18.16
   2  21   2   52.93    4.64
  -2  21  -2   49.88    4.34
  -2 -21  -2   53.78    5.05
   2 -21   2   52.48    5.52
   2  21   3   84.02    7.67
  -2  21  -3  116.21    9.20
  -2 -21  -3   83.61    7.88
   2 -21   3   82.99    7.43
  -2 -22   4    2.30    2.08
   2 -22  -4    7.43    3.43
   2 -22  -4    9.75    3.56
  -2 -22   4    5.67    2.50
   2  22  -3   93.12    6.82
   2 -22  -3  106.35    7.66
  -2 -22   3   97.84    7.00
   2 -22  -3  104.88    7.61
   2  22  -2   82.68    6.74
   2 -22  -2   77.14    5.92
  -2 -22   2   83.89    6.83
   2 -22  -2   65.12    5.35
   2  22  -1  104.15    7.76
  -2 -22   1   85.08    7.42
   2 -22  -1   84.12    6.50
   2  22   0   -0.72    2.24
  -2 -22   0    4.06    2.73
   2 -22   0   -0.28    2.63
   2  22   1  106.03    7.55
  -2 -22  -1   91.39    7.28
   2 -22   1   81.01    6.14
   2  22   2   95.84    7.74
  -2  22  -2   88.72    7.38
  -2 -22  -2  145.64   11.46
   2 -22   2  146.85   11.42
   2  23  -3   60.25    7.12
   2 -23  -3   67.55    7.57
  -2 -23   3   67.65    7.78
   2 -23  -3   69.36    8.05
   2  23  -2    2.55    2.11
   2 -23  -2   12.96    4.38
  -2 -23   2   -0.08    2.52
   2 -23  -2    6.95    4.15
   2  23  -1   51.77    5.34
   2 -23  -1   49.70    5.36
  -2 -23   1   51.78    5.08
   2 -23  -1   44.82    4.54
   2  23   0   64.74    6.26
  -2 -23   0   98.74    8.58
   2 -23   0   95.13    7.89
   2  23   1  190.77   19.53
  -2 -23  -1  200.33   31.06
   2 -23   1  205.40   31.74
   2  24  -1   99.31   15.48
   2 -24  -1   95.91   15.32
  -2 -24   1  117.94   18.69
   2 -24  -1  100.43   15.81
  -2 -24   0    6.28    2.95
   2 -24   0    7.88    2.88
  -3   0   9   12.41    4.03
   3   0  -9    2.10    2.68
  -3   0   8   13.26    3.65
   3   0  -8   17.75    3.65
  -3   0   7    8.20    2.11
   3   0  -7    9.36    3.56
  -3   0   6  220.08    8.85
   3   0  -6  212.29    8.50
  -3   0   5  374.23   12.26
   3   0  -5  373.52   12.35
  -3   0   4   15.84    2.15
   3   0  -4   13.90    1.76
  -3   0   3    6.79    1.08
   3   0  -3    6.20    1.22
   3   0  -3    3.89    0.38
  -3   0   2    8.43    1.00
   3   0  -2    6.03    0.72
   3   0  -2    7.56    1.20
  -3   0   2    5.68    0.71
   3   0  -2    8.60    1.20
  -3   0   1 4215.79   66.16
  -3   0   1 4287.40   68.29
   3   0  -1 3807.38   40.68
  -3   0   1 4145.37   65.23
   3   0  -1 3840.98   41.55
   3   0   0   88.93    2.16
   3   0   0   90.25    2.59
  -3   0   0   89.25    2.37
   3   0   0   85.68    2.25
  -3   0   0   90.42    2.70
   3   0   1  189.68    4.21
  -3   0  -1  185.82    7.24
  -3   0  -1  197.68    4.87
   3   0   2  216.21    4.86
  -3   0  -2  223.36    4.95
  -3   0  -2  190.78    4.74
   3   0   3 1456.42   37.19
  -3   0  -3 1451.28   36.95
   3   0   4  133.75   10.90
  -3   0  -4  148.39   11.85
   3   0   5    7.68    2.51
  -3   0  -5    3.48    2.11
   3   0   6   -1.61    2.43
  -3   0  -6    1.52    2.13
   3   0   7  116.78    8.09
  -3   0  -7  107.99    8.14
  -3   1   9    0.94    2.15
  -3  -1   9    8.43    3.55
   3   1  -9    6.53    2.71
   3  -1  -9    5.21    3.67
  -3   1   8   46.68    7.45
  -3  -1   8   54.00    8.85
   3   1  -8   50.77    8.35
   3  -1  -8   48.43    7.38
  -3  -1   7  160.70    7.80
  -3   1   7  136.68    6.92
   3   1  -7  143.97    7.71
   3  -1  -7  162.66    7.90
  -3  -1   6   59.59    3.71
  -3   1   6   77.79    4.03
   3   1  -6   83.55    4.78
   3  -1  -6   69.60    5.05
  -3  -1   5   23.48    2.57
  -3   1   5   24.28    2.55
   3   1  -5   25.04    2.35
   3  -1  -5   22.95    2.11
  -3  -1   4  248.16    5.13
  -3   1   4  234.60    4.79
   3   1  -4  221.44    4.64
   3  -1  -4  228.99    5.07
  -3  -1   3  969.12   16.15
  -3   1   3 1027.95   16.94
   3   1  -3 1007.72   16.60
   3  -1  -3  969.65   16.19
  -3  -1   3  928.41   14.83
   3   1  -3  957.85   15.23
   3  -1  -3  972.28   15.45
  -3  -1   1  198.00    7.54
   3   1  -1  198.91    3.90
   3  -1  -1  207.68    4.45
  -3  -1   1  206.85    4.05
  -3   1   1  191.87    3.93
   3  -1  -1  204.31    4.05
   3   1  -1  188.62    3.90
  -3  -1   1  209.25    4.46
   3  -1  -1  202.21    4.04
   3   1  -1  197.40    4.01
   3  -1   0   35.86    3.31
   3   1   0   18.89    1.58
   3   1   0   27.61    1.85
  -3  -1   0   47.68    4.28
  -3   1   0   30.54    2.64
   3   1   0   23.80    1.22
  -3  -1   0   53.85    6.30
   3  -1   1 2413.34   38.41
   3   1   1 2367.99   37.87
  -3   1  -1 2297.67   36.47
  -3   1  -1 2346.17   37.53
  -3  -1  -1 2431.85   38.77
  -3  -1  -1 2418.58   39.01
   3  -1   2  202.85    4.55
   3   1   2  224.94    5.14
  -3   1  -2  215.23    4.69
  -3  -1  -2  196.34    4.30
  -3  -1  -2  196.64    4.83
   3  -1   3  207.65    6.51
   3   1   3  196.52    6.40
  -3   1  -3  202.61    6.69
  -3  -1  -3  199.23    6.38
  -3  -1  -3  202.53    6.70
   3  -1   4    2.78    3.52
   3   1   4   11.38    2.65
  -3   1  -4    9.37    2.21
  -3  -1  -4    8.03    1.91
   3  -1   5  375.04   13.29
   3   1   5  340.80   12.56
  -3   1  -5  371.43   13.48
  -3  -1  -5  381.19   13.64
   3  -1   6  106.19    8.30
   3   1   6   87.83    7.35
  -3   1  -6   85.24    7.18
  -3  -1  -6  101.58    7.77
   3  -1   7   25.05    6.32
   3   1   7   12.49    3.60
  -3  -1  -7   11.75    3.49
  -3   1  -7   20.36    4.81
   3  -1   7   18.08    5.14
  -3  -2   9   30.41    7.31
  -3   2   9   34.73    3.95
   3   2  -9   49.34    5.31
   3  -2  -9   36.82    3.96
  -3  -2   8   92.27    6.83
  -3   2   8  105.69    7.07
   3   2  -8   97.52    6.51
   3  -2  -8   75.71    5.39
  -3  -2   7  128.94    6.94
  -3   2   7  130.54    6.52
   3   2  -7  133.95    6.76
   3  -2  -7  125.58    6.82
  -3  -2   6   75.55    4.59
  -3   2   6   60.32    3.96
   3   2  -6   63.16    4.01
   3  -2  -6   82.12    5.50
  -3  -2   5  460.92   15.03
  -3   2   5  411.78   13.36
   3   2  -5  387.51   12.69
   3  -2  -5  456.94   14.89
  -3  -2   4   89.77    3.13
  -3   2   4   74.77    2.72
   3   2  -4   76.38    2.71
   3  -2  -4   79.45    3.35
  -3  -2   4   79.49    1.39
   3   2  -4   74.31    1.34
  -3  -2   3   43.10    5.56
  -3   2   3   49.35    2.19
   3  -2  -3   38.95    1.58
   3   2  -3   42.72    1.89
   3  -2  -3   41.61    2.39
  -3  -2   3   45.81    3.13
   3   2  -3   42.88    1.28
   3  -2  -3   41.26    1.27
  -3  -2   2  337.29    6.25
  -3   2   2  302.36    5.44
   3  -2  -2  323.86    5.72
   3   2  -2  290.78    5.10
   3   2  -2  289.03    5.27
   3  -2  -2  323.70    5.72
  -3  -2   2  346.85    6.89
   3   2  -2  289.77    5.23
   3  -2  -2  336.36    6.00
  -3  -2   1 3350.31   45.52
   3  -2  -1 3219.15   43.53
   3  -2  -1 3331.13   44.92
  -3   2   1 3196.62   50.73
  -3  -2   1 3439.55   46.48
   3   2  -1 2943.77   46.26
  -3  -2   1 3333.47   45.60
   3  -2  -1 3009.55   47.67
   3  -2   0  165.45    3.77
   3  -2   0  181.69    3.77
   3   2   0  177.36    4.15
  -3   2   0  183.49    4.17
  -3  -2   0  185.17    3.90
   3   2   0  165.42    3.39
  -3  -2   0  180.43    4.23
   3  -2   1   66.71    2.33
   3   2   1   56.34    2.35
  -3   2  -1   54.33    1.71
  -3   2  -1   56.11    5.72
  -3  -2  -1   71.13    2.33
  -3  -2  -1   82.75    7.71
   3  -2   2  413.67    7.25
   3   2   2  342.82    6.50
  -3   2  -2  370.68    6.76
  -3  -2  -2  433.96    7.42
  -3  -2  -2  400.52   10.02
   3  -2   3 1013.49   26.20
   3   2   3  841.04   22.12
  -3   2  -3  850.25   22.22
  -3  -2  -3 1002.12   25.82
  -3  -2  -3  991.20   25.86
   3  -2   4  192.18    9.61
   3   2   4  215.56   10.81
  -3   2  -4  215.42   10.83
  -3  -2  -4  202.69    9.99
  -3  -2  -4  201.26   10.16
   3  -2   5   85.04    9.29
   3   2   5  110.96   12.52
  -3   2  -5  111.35   12.55
  -3  -2  -5   88.31    9.19
   3  -2   6    5.78    2.55
   3   2   6   10.57    3.85
  -3   2  -6    6.89    3.16
  -3  -2  -6    6.06    2.55
   3  -2   6    5.12    3.12
   3  -2   7  154.43   12.04
   3   2   7  160.37   12.27
  -3   2  -7  172.18   13.13
  -3  -2  -7  163.74   12.76
   3  -2   7  182.44   13.97
  -3  -3   9   34.11    3.89
  -3   3   9   39.35    4.01
   3   3  -9   45.17    4.45
   3  -3  -9   38.52    4.84
  -3  -3   8   34.12    5.75
  -3   3   8   19.76    3.91
   3   3  -8   27.44    5.10
   3  -3  -8   38.93    6.29
  -3  -3   7  309.70   13.77
  -3   3   7  263.69   12.01
   3   3  -7  257.60   11.55
   3  -3  -7  284.43   12.86
  -3  -3   6  254.06   10.07
  -3   3   6  320.20   12.18
   3   3  -6  321.27   11.99
   3  -3  -6  265.14   10.44
  -3  -3   5  190.13    7.24
  -3   3   5  200.03    7.08
   3   3  -5  196.03    7.02
   3  -3  -5  184.39    6.89
  -3  -3   5  185.39    5.71
  -3   3   4  214.50    4.39
   3   3  -4  220.86    4.42
   3  -3  -4  273.82    5.74
  -3  -3   3 1509.27   25.56
  -3   3   3 1472.28   23.71
   3  -3  -3 1338.03   21.60
   3   3  -3 1501.91   24.12
   3  -3  -3 1484.59   24.34
   3  -3  -3 1354.20   21.44
  -3  -3   3 1454.60   23.17
   3   3  -3 1416.51   22.51
   3  -3  -3 1397.28   22.09
  -3  -3   2  209.85    4.44
   3   3  -2  249.32    4.62
  -3  -3   2  212.03    4.22
   3   3  -2  256.05    4.76
   3  -3  -2  226.88    4.47
   3  -3  -1   88.70    1.93
   3  -3  -1   89.97    2.20
  -3   3   1   85.95    4.63
   3   3  -1   84.86    1.96
   3  -3  -1   70.42    6.10
  -3  -3   1   93.05    4.27
   3   3  -1   74.82    2.20
   3  -3  -1   85.25    2.89
   3  -3   0 1074.12   17.31
   3  -3   0 1118.08   17.94
  -3   3   0 1267.85   20.79
  -3  -3   0 1171.36   19.03
   3   3   0 1220.14   19.61
  -3  -3   0 1052.06   19.00
   3  -3   1  964.96   15.91
   3   3   1  888.66   15.21
  -3   3  -1  886.88   14.51
  -3   3  -1  880.70   15.24
  -3  -3  -1  970.29   16.05
  -3  -3  -1  975.72   16.76
   3  -3   2  217.70    4.53
   3   3   2  225.11    5.33
  -3   3  -2  203.48    4.63
  -3  -3  -2  202.86    4.27
  -3  -3  -2  189.31    7.54
   3  -3   3  185.70    6.14
   3   3   3  144.99    5.75
  -3   3  -3  146.47    5.10
  -3  -3  -3  182.94    6.13
  -3  -3  -3  178.99    6.21
   3  -3   4   61.54    5.65
   3   3   4   83.69    7.36
  -3   3  -4   78.53    6.65
  -3  -3  -4   50.29    4.55
  -3  -3  -4   61.36    6.08
   3  -3   5  268.32   10.61
   3   3   5  214.35    8.89
  -3   3  -5  205.92    8.50
  -3  -3  -5  261.95   10.10
  -3  -3  -5  240.82    9.33
   3  -3   5  284.01   11.60
   3  -3   6   98.83    7.63
   3   3   6  119.26    8.96
  -3   3  -6  125.65    9.36
  -3  -3  -6   94.35    7.11
   3  -3   6  107.04    8.70
   3  -3   7   12.23    4.13
   3   3   7    2.92    2.54
  -3   3  -7    5.56    3.40
  -3  -3  -7   12.51    4.04
   3  -3   7    6.92    3.83
  -3  -4   9   35.16    4.36
  -3   4   9   43.46    4.35
   3   4  -9   38.51    4.40
  -3  -4   8  126.56    7.93
  -3   4   8  156.62    9.85
   3   4  -8  168.39    9.93
   3  -4  -8  134.40    9.12
  -3  -4   7  106.57    5.96
  -3   4   7  124.71    6.62
   3   4  -7  109.69    6.01
   3  -4  -7   97.25    5.72
  -3  -4   6   60.71    5.33
  -3   4   6   28.51    2.97
   3   4  -6   30.21    3.28
   3  -4  -6   60.66    5.54
  -3  -4   6   45.75    4.21
  -3  -4   6   57.04    4.33
  -3  -4   5  695.71   18.56
  -3   4   5  688.31   18.04
   3   4  -5  702.82   18.45
   3  -4  -5  666.80   17.87
  -3  -4   5  649.25   16.31
   3   4  -5  647.83   16.26
  -3  -4   4  166.28    4.47
   3  -4  -4  165.97    4.67
   3  -4  -4  157.70    2.37
  -3  -4   4  164.91    2.96
   3  -4  -4  168.76    2.51
  -3  -4   3  270.86    5.64
  -3   4   3  279.58    5.21
   3  -4  -3  231.72    4.50
   3   4  -3  272.32    5.13
   3  -4  -3  259.81    6.07
   3  -4  -3  239.02    4.25
  -3  -4   3  251.99    4.73
   3   4  -3  263.69    4.81
   3  -4  -3  254.63    4.54
  -3  -4   2  271.13    5.43
   3  -4  -2  263.27    4.74
   3   4  -2  320.42    5.42
  -3  -4   2  266.11    5.09
   3   4  -2  298.20    5.48
   3  -4  -2  286.48    5.36
   3  -4   0  156.43    2.90
   3  -4   0  163.69    3.21
   3   4   0  204.89    5.02
  -3   4   0  198.05    4.44
  -3  -4   0  174.76    3.57
   3   4   0  185.75    3.60
  -3  -4   0  162.11    3.95
   3  -4   0  161.38    4.17
   3  -4   1   84.65    2.62
   3   4   1   66.57    2.95
  -3   4  -1   62.96    1.65
  -3   4  -1   74.15    5.55
  -3  -4  -1   80.79    2.21
   3   4   1   59.28    1.72
  -3  -4  -1   84.23    7.44
   3  -4   1   82.72    3.91
   3  -4   2    8.36    1.46
   3   4   2    3.13    2.27
  -3   4  -2    9.42    1.83
  -3  -4  -2   11.91    1.51
  -3  -4  -2   10.17    1.72
   3  -4   2    5.78    2.01
   3  -4   3  419.83   11.76
  -3   4  -3  313.12    9.20
  -3  -4  -3  415.31   11.48
  -3  -4  -3  419.58   12.04
   3  -4   3  429.60   12.76
   3  -4   4  525.12   21.48
   3   4   4  570.72   23.43
  -3   4  -4  589.58   24.02
  -3  -4  -4  533.00   21.70
  -3  -4  -4  532.36   21.98
   3  -4   4  554.72   22.90
   3  -4   5   53.58    6.18
   3   4   5   32.13    4.33
  -3   4  -5   41.13    5.03
  -3  -4  -5   50.44    6.05
  -3  -4  -5   53.80    6.46
   3  -4   5   52.07    7.03
   3  -4   6   52.56    9.00
   3   4   6   54.00    5.06
  -3   4  -6   74.47    6.96
  -3  -4  -6   52.61    9.03
   3  -4   6   42.87    6.81
   3  -4   7  152.83   11.86
   3   4   7  110.06    8.97
  -3  -4  -7  164.56   12.78
   3  -4   7  167.01   13.29
  -3  -5   9   26.95    6.22
  -3   5   9   30.07    6.40
   3   5  -9   20.00    4.54
   3  -5  -9   21.19    5.75
  -3   5   8  128.97    9.63
   3   5  -8  121.71    9.04
   3  -5  -8  160.12   11.73
  -3   5   7   40.96    4.93
   3   5  -7   36.19    4.17
   3  -5  -7   50.97    6.54
  -3  -5   6  114.25    9.27
  -3   5   6  165.57   12.78
   3   5  -6  156.63   12.03
   3  -5  -6  120.84   10.21
  -3  -5   6  108.95    8.20
  -3  -5   5  161.06    5.80
  -3   5   5  168.35    5.59
   3   5  -5  151.66    5.19
   3  -5  -5  145.83    6.14
  -3  -5   5  136.59    3.97
   3   5  -5  150.07    4.25
  -3  -5   4   97.36   10.19
  -3  -5   3  763.96   11.74
  -3   5   3  697.15   10.16
   3  -5  -3  703.27   10.25
   3   5  -3  699.62   10.09
   3  -5  -3  769.82   12.03
  -3  -5   3  774.92   11.28
   3  -5  -3  761.65   10.84
  -3  -5   2  207.56    4.73
  -3   5   2  239.67    4.22
  -3  -5   2  203.14    4.29
   3   5  -2  217.60    4.23
   3  -5  -2  199.25    4.11
  -3  -5   1   28.51    1.59
   3  -5  -1   29.23    0.83
   3  -5  -1   30.64    0.93
  -3  -5   1   32.93    1.05
  -3   5   1   40.08    3.32
   3   5  -1   29.71    0.92
  -3  -5   1   33.14    4.51
   3  -5  -1   34.73    2.39
   3  -5   0  811.19   13.04
   3   5   0  750.15   13.20
  -3   5   0  767.36   13.22
  -3  -5   0  829.95   13.49
  -3  -5   0  803.61   13.91
   3  -5   0  842.99   14.75
  -3   5  -1  220.82    7.02
   3  -5   2 1085.60   33.21
   3   5   2 1281.03   39.41
  -3   5  -2 1242.12   38.19
  -3  -5  -2 1116.50   34.21
  -3  -5  -2 1064.13   34.88
   3  -5   2 1127.13   35.10
   3  -5   3   10.63    1.64
   3   5   3   12.39    2.33
  -3   5  -3   13.93    1.92
  -3  -5  -3   13.80    1.85
  -3  -5  -3    8.63    2.13
   3  -5   3    5.81    2.93
   3  -5   4   78.59    4.53
   3   5   4  103.73    5.92
  -3  -5  -4   71.62    4.21
  -3  -5  -4   77.94    8.91
   3  -5   4   72.35    4.67
   3  -5   5  347.48   16.46
   3   5   5  253.82   12.71
  -3  -5  -5  335.11   15.88
  -3  -5  -5  325.69   15.63
   3  -5   5  349.16   17.12
   3  -5   6  280.12   18.40
   3   5   6  304.17   20.11
  -3   5  -6  281.37   18.46
  -3  -5  -6  256.57   16.92
  -3  -5  -6  263.93   17.56
   3  -5   6  259.45   17.37
   3  -5   7    3.92    2.38
   3   5   7    9.52    3.79
  -3   5  -7    8.69    3.14
  -3  -5  -7    1.35    2.57
   3  -5   7    4.97    3.02
  -3  -6   9   43.51    4.56
  -3   6   9   41.88    3.89
   3   6  -9   40.40    3.68
   3  -6  -9   53.66    6.65
  -3  -6   8  129.01    9.56
  -3   6   8  123.87    9.49
   3   6  -8  110.13    8.30
   3  -6  -8  134.99   10.41
  -3  -6   7  172.83    7.87
  -3   6   7  180.40    7.48
   3   6  -7  179.75    7.02
   3  -6  -7  181.76    8.12
  -3   6   6  175.89    8.01
   3   6  -6  182.89    8.16
   3  -6  -6  256.47   13.22
  -3  -6   6  221.45   10.18
  -3   6   5  287.49    8.32
   3   6  -5  281.31    8.01
   3  -6  -5  322.51    9.89
   3  -6  -5  295.08    7.56
  -3  -6   5  288.86    7.68
   3   6  -5  269.57    7.23
  -3   6   5  273.28    7.03
   3   6  -4  135.10    4.85
   3  -6  -4  103.37    4.86
  -3  -6   4   94.75    3.42
  -3  -6   4  100.38    3.59
   3  -6  -4  102.18    3.47
   3   6  -4  136.63    4.66
  -3   6   4  135.34    4.47
  -3  -6   3  153.15    4.70
  -3   6   3  176.97    3.33
   3  -6  -3  150.87    3.02
   3   6  -3  164.29    2.92
   3  -6  -3  146.51    4.51
  -3  -6   3  149.21    3.34
   3   6  -3  148.09    2.99
   3  -6  -3  153.87    3.01
  -3  -6   2  414.09    7.92
  -3   6   2  410.12    6.75
   3  -6  -2  410.99    6.82
   3   6  -2  406.26    6.50
   3   6  -2  396.33    6.41
  -3  -6   2  413.66    7.64
   3  -6  -2  414.24    7.51
  -3   6   1  137.79    3.54
   3  -6   0  706.24    9.62
   3  -6   0  706.37    9.70
   3   6   0  805.54   12.54
  -3  -6   0  756.66   10.73
   3   6   0  785.43   11.12
  -3  -6   0  766.39   11.96
   3  -6   0  751.95   11.85
   3  -6   1   46.97    1.62
   3   6   1   51.13    3.15
  -3   6  -1   48.68    1.26
  -3  -6  -1   53.42    1.99
   3   6   1   46.46    1.65
  -3  -6  -1   51.98    4.71
   3  -6   1   43.34    2.70
   3  -6   2  274.15    8.95
   3   6   2  319.26   10.93
  -3   6  -2  278.81    8.91
  -3  -6  -2  292.32    9.61
  -3  -6  -2  284.35    9.87
   3  -6   2  299.44   10.62
   3  -6   3  244.14    9.20
   3   6   3  171.12    7.48
  -3   6  -3  164.23    6.88
  -3  -6  -3  242.69    9.18
  -3  -6  -3  227.06   10.59
   3  -6   3  225.82    9.47
   3  -6   4  413.16   16.96
   3   6   4  522.68   21.84
  -3   6  -4  520.20   21.33
  -3  -6  -4  422.48   17.47
  -3  -6  -4  400.91   16.86
   3  -6   4  445.11   18.89
   3  -6   5   65.56    7.73
   3   6   5   47.49    6.78
  -3   6  -5   34.64    5.42
  -3  -6  -5   54.30    6.63
  -3  -6  -5   46.30   10.29
   3  -6   5   54.23    7.16
   3  -6   6   22.79    5.00
   3   6   6   33.72    6.75
  -3   6  -6   35.86    6.41
  -3  -6  -6   21.66    4.74
  -3  -6  -6   13.40    3.16
   3  -6   6   33.78    6.65
   3  -6   7  101.16   11.06
   3   6   7   58.54    7.13
  -3   6  -7   68.97    8.75
  -3  -6  -7   89.86   10.27
   3  -6   7   91.23   10.22
  -3  -7   9   65.67    6.37
  -3   7   9   64.37    5.80
   3   7  -9   56.41    4.48
   3  -7  -9   62.74    5.92
  -3  -7   8   11.05    3.41
  -3   7   8   12.50    3.88
   3   7  -8    2.60    1.84
   3  -7  -8    6.54    2.75
  -3  -7   7   55.15    6.29
  -3   7   7   73.54    8.24
   3   7  -7   83.96    8.77
   3  -7  -7   57.74    6.77
  -3  -7   6  225.33   10.08
  -3   7   6  216.76    9.57
   3   7  -6  208.81    8.95
   3  -7  -6  204.32    9.91
  -3  -7   6  214.68    8.80
  -3  -7   5  112.76   10.17
  -3   7   5  107.50    4.91
   3   7  -5   98.83    4.12
   3  -7  -5   97.89    5.24
   3  -7  -5   90.86    3.45
  -3  -7   5   90.69    3.69
   3   7  -5   87.38    3.52
  -3   7   5   93.14    3.53
  -3  -7   4   98.61    7.45
  -3   7   4  108.70    3.99
   3   7  -4  104.88    3.78
   3  -7  -4   85.25    4.74
  -3  -7   4   74.41    2.84
  -3  -7   4   80.77    3.18
   3  -7  -4   88.63    3.16
   3   7  -4   94.95    3.52
  -3   7   4   99.40    3.53
  -3   7   3  237.27    4.02
   3  -7  -3  280.82    4.72
   3   7  -3  235.10    3.67
   3  -7  -3  285.70    4.88
  -3   7   2  948.82   13.00
  -3  -7   2  879.25   13.09
   3  -7  -2  867.71   12.78
  -3  -7   1   10.01    1.47
  -3   7   1   11.25    1.28
  -3  -7   1   17.05    2.02
   3  -7  -1   10.93    1.94
   3   7   0  509.26    9.47
  -3   7   0  593.97    9.70
  -3  -7   0  524.10    7.52
   3   7   0  552.08    8.01
  -3  -7   0  539.98    9.31
   3  -7   0  542.63    9.31
   3  -7   1  295.05    4.65
   3   7   1  264.20    5.52
  -3   7  -1  259.65    4.01
  -3   7  -1  264.69    5.53
  -3  -7  -1  303.09    5.08
   3   7   1  250.89    4.53
  -3  -7  -1  310.13    6.40
   3  -7   1  307.94    6.55
   3  -7   2  853.88   21.76
   3   7   2  881.85   23.13
  -3   7  -2  749.84   18.96
  -3   7  -2  891.75   23.43
  -3  -7  -2  848.16   21.75
  -3  -7  -2  894.81   23.69
   3  -7   2  870.22   23.12
   3  -7   3   16.85    1.98
   3   7   3   28.16    3.55
  -3   7  -3   28.10    3.85
  -3  -7  -3   14.94    1.99
  -3  -7  -3   22.77    3.72
   3  -7   3   24.86    4.27
   3  -7   4  165.70    7.92
   3   7   4  145.82    7.47
  -3   7  -4  146.46    9.19
  -3  -7  -4  138.79    6.83
  -3  -7  -4  141.80   15.31
   3  -7   4  160.41    8.41
   3  -7   5  230.43   12.80
   3   7   5  183.93   11.31
  -3   7  -5  171.26    9.92
  -3  -7  -5  224.19   12.53
  -3  -7  -5  239.79   17.16
   3  -7   5  241.48   13.92
   3  -7   6  141.72   13.28
   3   7   6  180.85   17.11
  -3   7  -6  175.36   16.31
  -3  -7  -6  159.67   14.92
  -3  -7  -6  156.59   14.80
   3  -7   6  180.30   17.12
   3  -7   7    7.56    2.66
   3   7   7    0.74    2.59
  -3   7  -7    2.97    3.61
  -3  -7  -7    2.75    2.39
  -3  -7  -7    3.08    2.48
   3  -7   7    5.24    3.12
  -3  -8   9    2.62    2.92
  -3   8   9   -0.86    2.10
   3   8  -9   -0.88    1.85
   3  -8  -9    6.21    3.06
  -3  -8   8   15.16    4.18
  -3   8   8   12.68    2.80
   3   8  -8   20.43    3.48
   3  -8  -8   29.88    6.04
  -3  -8   7   74.47    8.84
  -3   8   7   84.29    5.33
   3   8  -7   77.80   11.20
   3  -8  -7   71.90    8.63
  -3  -8   6   21.47    3.75
  -3   8   6   17.51    2.16
   3   8  -6   26.50    2.63
   3  -8  -6   17.02    3.03
  -3  -8   6   17.43    1.67
  -3  -8   5   55.63    7.87
  -3   8   5   36.53    2.66
   3   8  -5   38.25    2.42
   3  -8  -5   47.79    3.62
   3  -8  -5   47.63    2.15
  -3  -8   5   48.67    2.40
  -3   8   5   33.79    1.64
  -3  -8   4  319.54    9.41
  -3   8   4  311.57    8.53
   3   8  -4  297.24    7.86
   3  -8  -4  318.02    9.47
  -3  -8   4  288.67    7.62
  -3  -8   4  295.67    8.07
   3  -8  -4  312.73    8.35
  -3   8   4  295.08    7.90
  -3  -8   3  178.27    6.42
  -3   8   3  175.99    5.70
   3  -8  -3  176.80    5.77
   3   8  -3  164.89    5.13
   3   8  -3  168.70    5.23
   3  -8  -3  183.71    6.57
  -3  -8   3  186.71    6.51
   3  -8  -3  170.82    5.75
  -3   8   3  161.63    5.54
  -3  -8   2   65.29    6.28
  -3   8   2   45.20    0.99
   3  -8  -2   55.75    1.06
  -3  -8   2   59.89    2.53
   3  -8  -2   58.62    2.52
  -3  -8   1  279.41    5.44
   3  -8  -1  288.44    5.74
   3   8   0 1516.73   21.92
  -3   8   0 1536.67   22.58
  -3  -8   0 1431.48   19.49
   3   8   0 1428.68   19.52
  -3  -8   0 1422.12   21.07
   3  -8   0 1465.13   21.70
   3  -8   1   39.51    1.54
   3   8   1   43.38    2.99
  -3   8  -1   31.99    1.24
  -3   8  -1   52.91    5.18
  -3  -8  -1   41.15    1.99
   3   8   1   44.95    2.07
  -3  -8  -1   42.79    3.98
   3  -8   1   42.20    3.74
   3  -8   2  438.45   11.50
   3   8   2  570.34   15.83
  -3   8  -2  490.79   12.66
  -3   8  -2  554.65   15.01
  -3  -8  -2  413.04   11.04
  -3  -8  -2  462.28   13.35
   3  -8   2  477.64   13.78
   3   8   3  187.81    9.20
  -3   8  -3  156.77   12.25
  -3  -8  -3  218.41   10.48
  -3  -8  -3  221.37   14.59
   3  -8   3  247.18   12.95
   3  -8   4  483.39   20.30
   3   8   4  511.92   49.68
  -3   8  -4  478.51   20.46
  -3  -8  -4  491.29   20.81
  -3  -8  -4  509.42   49.28
   3  -8   5    8.66    2.27
   3   8   5    4.21    2.49
  -3   8  -5    1.71    2.12
  -3  -8  -5    9.09    2.34
  -3  -8  -5   10.94    3.19
   3  -8   5   11.91    4.91
   3  -8   6  108.00    7.90
   3   8   6   80.37    6.63
  -3   8  -6   93.01    7.20
  -3  -8  -6  106.49    7.87
  -3  -8  -6   98.22    7.80
   3  -8   6  103.31    7.89
  -3  -9   9   90.22   10.92
  -3   9   9   84.28    9.37
   3   9  -9   83.50    8.90
   3  -9  -9   78.67    9.04
  -3  -9   8    6.48    3.80
  -3   9   8    0.81    2.01
   3   9  -8    3.15    1.77
   3  -9  -8    7.04    4.58
  -3  -9   7   40.72    6.67
  -3   9   7   25.34    3.39
   3   9  -7   29.00    4.12
   3  -9  -7   38.56    6.03
  -3  -9   6  258.49   19.01
  -3   9   6  183.32    8.34
   3   9  -6  191.41    8.49
   3  -9  -6  239.29   11.46
   3  -9  -6  210.59    8.81
  -3  -9   6  228.12    9.79
  -3  -9   5  106.65   11.86
  -3   9   5   76.95    6.24
   3   9  -5   84.50    6.62
   3  -9  -5   89.77    7.97
   3  -9  -5   85.08    6.56
  -3  -9   5   93.12    7.32
  -3  -9   4  144.21   11.42
  -3   9   4  119.59    4.07
   3   9  -4  110.02    3.24
   3  -9  -4  135.44    5.28
  -3  -9   4  112.52    3.26
  -3  -9   4  129.80    4.17
   3  -9  -4  140.27    4.40
  -3   9   4  100.69    3.29
  -3  -9   3  225.97    7.90
  -3   9   3  256.40    8.10
   3  -9  -3  208.77    6.71
   3  -9  -3  213.62    7.62
  -3  -9   3  216.43    7.58
   3  -9  -3  220.76    7.44
  -3  -9   2 1121.81   35.20
  -3  -9   2 1090.52   33.50
   3  -9  -2 1132.30   34.73
   3   9  -1  207.93    4.99
  -3   9   1  210.92    5.05
  -3  -9   1  194.78    4.63
   3  -9  -1  188.41    4.74
   3   9   0   67.91    4.08
  -3   9   0   77.79    9.26
  -3  -9   0   83.76    2.78
   3   9   0   77.83    2.65
  -3  -9   0   91.19    4.41
   3  -9   0   89.57    4.30
   3  -9   1  291.55    8.93
   3   9   1  281.06    9.83
  -3   9  -1  265.31    8.15
  -3   9  -1  271.48    8.99
  -3  -9  -1  316.31   10.00
   3   9   1  258.97    8.32
   3  -9   1  313.42   11.18
   3  -9   2  873.40   29.90
  -3   9  -2  797.71   27.31
   3   9   2  886.18   31.28
  -3   9  -2  929.35   32.55
  -3  -9  -2  831.80   28.67
  -3  -9  -2  896.84   31.36
   3  -9   2  959.31   33.84
   3  -9   3   88.85    4.22
   3   9   3  102.26    5.83
  -3   9  -3  117.80    9.75
  -3  -9  -3   89.47    4.50
  -3  -9  -3  102.97   10.46
   3  -9   3   94.45    5.67
   3  -9   4  219.38    8.07
   3   9   4  190.65    8.01
  -3   9  -4  205.47   15.90
  -3  -9  -4  192.63    7.50
  -3  -9  -4  187.55   17.42
   3  -9   5   26.69    2.96
   3   9   5    9.96    2.62
  -3   9  -5    7.43    2.50
  -3  -9  -5   24.56    3.19
  -3  -9  -5   23.07    3.98
   3  -9   5   26.00    3.77
   3  -9   6  214.03   14.38
   3   9   6  203.59   13.85
  -3   9  -6  233.44   15.57
  -3  -9  -6  185.70   15.64
   3  -9   6  224.62   15.46
  -3 -10   9   13.39    3.72
  -3  10   9   18.17    4.36
   3 -10  -9   20.95    5.39
  -3 -10   8   18.88    4.48
  -3  10   8   16.39    3.44
   3  10  -8    9.80    2.73
   3 -10  -8   14.01    3.81
  -3 -10   7   99.51   12.97
  -3  10   7   91.09    5.97
   3  10  -7   87.36    5.46
   3 -10  -7   88.26    6.25
  -3 -10   6   70.63   10.96
  -3  10   6   58.34    6.33
   3  10  -6   54.17    5.70
   3 -10  -6   73.01    8.16
   3 -10  -6   59.05    7.01
  -3 -10   6   66.53    6.80
  -3 -10   5  188.78    8.69
  -3  10   5  243.85   11.54
   3  10  -5  247.19   11.45
   3 -10  -5  190.43    9.99
   3 -10  -5  166.73   12.52
  -3 -10   5  172.10    7.47
  -3 -10   4  776.07   28.05
  -3  10   4  776.39   26.79
   3  10  -4  751.01   25.63
  -3 -10   4  630.44   21.53
   3 -10  -4  785.08   27.80
  -3 -10   4  734.38   25.54
   3 -10  -4  787.82   27.16
  -3 -10   3  344.76   11.89
  -3  10   3  382.77    9.90
   3 -10  -3  331.22    8.60
   3 -10  -3  309.81    9.36
  -3 -10   3  355.07    9.82
   3 -10  -3  345.88    9.44
  -3 -10   2  319.90   11.99
  -3 -10   2  365.06   11.97
   3 -10  -2  356.89   11.60
   3  10  -1  579.56   18.40
  -3  10   1  666.63   20.94
  -3 -10   1  559.54   17.76
   3 -10  -1  564.43   17.98
   3  10   0  698.21   22.02
  -3  10   0  672.86   23.20
  -3 -10   0  692.38   20.93
  -3 -10   0  688.33   21.74
   3 -10   0  702.31   22.33
   3 -10   1    5.18    0.62
   3  10   1    2.65    2.61
  -3  10  -1    6.74    0.42
  -3  10  -1    6.99    1.83
  -3 -10  -1    6.04    0.82
   3  10   1    4.38    0.78
   3 -10   1    9.42    2.90
   3  10   2  353.53   13.52
  -3  10  -2  361.62   13.43
  -3 -10  -2  331.98   11.93
  -3 -10  -2  349.05   13.20
   3 -10   2  360.84   14.06
   3 -10   3  193.30    8.10
   3  10   3  213.69    9.85
  -3  10  -3  202.27    9.13
  -3 -10  -3  218.43    9.40
  -3 -10  -3  207.19   14.20
   3 -10   3  198.91    9.51
   3 -10   4  398.67   18.33
   3  10   4  403.76   19.52
  -3  10  -4  378.90   17.92
  -3 -10  -4  388.33   17.96
  -3 -10  -4  422.50   20.12
   3 -10   5    2.34    1.62
   3  10   5   12.62    3.34
  -3  10  -5   15.69    3.02
  -3 -10  -5    7.09    2.85
   3 -10   5    7.08    4.55
   3 -10   6  123.09    8.00
   3  10   6  111.83    8.12
  -3  10  -6  114.16   13.47
  -3 -10  -6  111.09    7.51
  -3 -10  -6   97.58   15.79
   3 -10   6  161.68   11.40
  -3 -11   8   13.49    4.20
  -3  11   8   35.28    3.95
   3 -11  -8   22.29    6.07
  -3 -11   7   57.65    7.45
  -3  11   7   85.89    6.72
   3  11  -7   90.28    6.64
   3 -11  -7   63.51    5.81
  -3 -11   6   39.47    5.40
  -3  11   6   27.63    3.57
   3  11  -6   34.15    3.88
   3 -11  -6   32.10    5.23
   3 -11  -6   31.12    3.30
  -3 -11   6   30.50    3.70
  -3 -11   5  215.04   18.87
  -3  11   5  217.07    9.36
   3  11  -5  207.80    8.54
   3 -11  -5  211.32    9.98
   3 -11  -5  183.55    7.71
  -3 -11   5  193.00    8.45
  -3 -11   4  241.49   11.79
  -3  11   4  269.07   12.54
   3  11  -4  223.12   10.13
   3 -11  -4  215.27   10.80
  -3 -11   4  222.44   10.59
   3 -11  -4  245.43   11.52
  -3 -11   3  117.53   11.68
   3 -11  -3   97.11    3.66
   3 -11  -3   93.87    4.54
  -3 -11   3  101.24    4.68
   3 -11  -3   99.34    4.53
  -3 -11   2  678.17   18.97
  -3 -11   2  664.40   17.65
   3 -11  -2  669.73   17.61
   3  11  -1   25.85    2.85
  -3 -11   1   18.73    2.04
   3 -11  -1   17.35    1.90
   3  11   0   69.35    3.43
  -3  11   0   99.61    7.76
  -3 -11   0   97.53    2.61
  -3 -11   0   93.10    4.42
   3 -11   0   87.51    4.12
   3  11   1  266.23   10.44
  -3  11  -1  336.40   12.64
  -3 -11  -1  324.90   11.38
   3  11   1  291.65   10.24
   3 -11   1  331.89   12.69
   3 -11   2  272.60   12.38
   3  11   2  236.31   12.10
  -3  11  -2  268.08   22.05
  -3 -11  -2  272.75   12.71
  -3 -11  -2  274.40   13.42
   3 -11   2  266.16   13.51
   3 -11   3   71.58    3.58
   3  11   3   61.15    4.36
  -3  11  -3   65.28    5.37
  -3 -11  -3   71.82    4.10
  -3 -11  -3   77.17   12.45
   3 -11   3   68.19    5.90
   3 -11   4   14.01    2.09
   3  11   4   17.80    3.61
  -3  11  -4   22.20    3.62
  -3 -11  -4   17.57    2.81
  -3 -11  -4   27.60    4.25
   3 -11   5   35.71    5.49
  -3  11  -5   57.76    6.44
  -3 -11  -5   27.63    4.60
  -3 -11  -5   18.07    6.62
   3 -11   5   31.15    5.69
   3  11   6  207.78   15.98
  -3  11  -6  189.85   21.19
  -3 -11  -6  212.08   15.53
  -3 -11  -6  202.02   23.23
   3 -11   6  254.02   18.76
  -3 -12   8   14.18    4.96
  -3  12   8    9.49    2.75
   3 -12  -8   15.65    5.31
  -3 -12   7   15.14    3.35
  -3  12   7   18.12    3.58
   3 -12  -7   20.68    5.08
  -3 -12   6   53.17    9.91
  -3  12   6   47.90    5.78
   3  12  -6   48.24    5.39
   3 -12  -6   52.42    6.83
  -3 -12   6   55.51    6.50
  -3 -12   5   12.10    3.18
   3 -12  -5   21.82    3.67
  -3 -12   5   16.92    2.12
  -3 -12   4  446.26   20.79
  -3  12   4  395.82   18.11
   3  12  -4  355.34   15.95
   3 -12  -4  449.02   20.99
  -3 -12   4  420.06   19.45
   3 -12  -4  451.69   20.69
  -3 -12   3   77.01    9.50
  -3  12   3   56.55    2.34
   3 -12  -3   63.21    2.54
   3 -12  -3   74.23    4.56
  -3 -12   3   71.81    3.77
   3 -12  -3   76.40    3.74
  -3 -12   2  268.87   10.77
  -3 -12   2  274.84   10.52
   3 -12  -2  262.77    9.83
   3  12  -1  609.86   21.61
  -3 -12   1  658.35   23.20
   3 -12  -1  663.70   23.54
   3  12   0  358.35   13.28
  -3  12   0  367.37   13.53
  -3 -12   0  400.51   13.60
  -3 -12   0  433.21   14.72
  -3 -12   0  432.51   15.73
   3 -12   0  432.23   15.94
   3  12   1  103.12    8.36
  -3  12  -1  135.13   16.95
  -3 -12  -1  115.06    8.70
   3 -12   1  121.31   10.22
   3 -12   2  344.79   13.67
   3  12   2  294.84   12.84
  -3  12  -2  310.14   13.45
  -3 -12  -2  328.76   13.35
  -3 -12  -2  318.63   15.18
   3 -12   2  389.00   16.53
   3 -12   3  119.23    4.39
   3  12   3  164.66    7.28
  -3  12  -3  171.89    7.14
  -3 -12  -3  116.84    4.78
  -3 -12  -3  136.39   12.44
   3 -12   3  115.31    6.59
   3  12   4  118.66    8.08
  -3  12  -4  160.98   14.35
  -3 -12  -4  155.63    8.78
  -3 -12  -4  159.34   13.58
   3  12   5  148.08   14.06
  -3  12  -5  156.26   14.73
  -3 -12  -5  135.98   12.83
  -3 -12  -5  134.01   14.60
   3 -12   5  150.90   14.41
   3  12   6    7.97    3.26
  -3  12  -6   14.81    4.41
  -3 -12  -6   20.65    5.00
  -3 -12  -6   16.42    6.47
   3 -12   6   17.80    5.46
  -3 -13   8   47.67    8.74
  -3  13   8   49.15    4.48
   3 -13  -8   47.05    5.27
  -3 -13   7   20.02    4.13
  -3  13   7   18.17    3.64
   3 -13  -7   26.81    5.54
  -3 -13   6   63.93   10.31
  -3  13   6   50.86    7.43
   3 -13  -6   63.53    9.60
  -3 -13   6   55.87    8.27
  -3 -13   5   34.81    5.24
  -3  13   5   26.33    3.14
   3 -13  -5   31.19    3.66
  -3 -13   5   35.16    4.03
  -3 -13   4  563.87   33.33
  -3  13   4  476.07   18.98
  -3 -13   4  509.32   20.68
   3 -13  -4  513.39   20.70
  -3 -13   3  345.67   16.41
  -3  13   3  350.05   15.85
  -3 -13   3  346.61   16.31
   3 -13  -3  341.07   15.89
  -3 -13   2  123.45    9.93
  -3 -13   2  131.40   10.42
   3 -13  -2  121.34    9.65
  -3 -13   1  228.85    8.97
   3 -13  -1  214.27    8.54
  -3  13   0  373.27   19.60
  -3 -13   0  384.82   18.22
   3 -13   0  374.24   18.03
   3  13   1  513.83   23.79
  -3  13  -1  554.45   25.83
  -3 -13  -1  445.20   20.10
   3 -13   1  441.84   20.78
   3  13   2   82.87    4.91
  -3  13  -2   88.32   10.01
  -3 -13  -2  129.34    5.91
  -3 -13  -2  125.16   14.13
   3 -13   2  130.73    7.09
   3  13   3   13.46    3.15
  -3  13  -3   15.01    2.66
  -3 -13  -3    6.60    1.49
  -3 -13  -3   14.23    2.80
   3 -13   3    3.81    2.97
   3  13   4  132.98   10.13
  -3  13  -4  141.89   12.92
  -3 -13  -4  146.16   10.32
  -3 -13  -4  151.09   14.89
   3  13   5  151.37   11.01
  -3  13  -5  133.52   16.89
  -3 -13  -5  103.05    7.31
   3 -13   5  119.18    9.64
  -3  14   8   12.20    3.30
  -3 -14   7   23.46    6.34
  -3  14   7   25.71    6.32
   3 -14  -7   27.36    6.52
  -3 -14   6  163.35   21.55
  -3  14   6  182.81   12.57
   3 -14  -6  183.36   13.48
  -3 -14   6  167.33   11.62
  -3 -14   5  147.90   13.39
  -3  14   5  169.08    8.39
   3 -14  -5  151.89    8.24
   3 -14  -5  156.70    7.88
  -3 -14   5  154.35    7.80
  -3 -14   4   84.30    9.30
  -3  14   4   47.47    2.61
   3 -14  -4   79.09    4.99
  -3 -14   4   82.91    4.47
   3 -14  -4   75.15    4.17
  -3 -14   3   48.50    4.58
  -3  14   3   36.04    1.91
   3 -14  -3   37.34    3.48
  -3 -14   3   33.50    2.70
   3 -14  -3   44.11    3.01
  -3 -14   2  273.79   13.32
  -3 -14   2  292.76   14.05
   3 -14  -2  272.86   13.03
   3  14  -1  293.06   14.35
  -3 -14   1  182.08    8.59
   3 -14  -1  164.63   12.92
   3  14   0   87.77    5.74
  -3  14   0   90.32    8.67
  -3 -14   0  141.12    7.20
   3 -14   0  124.64    6.86
   3  14   1   18.88    2.36
  -3  14  -1   19.64    2.53
  -3 -14  -1   36.92    2.02
   3 -14   1   36.08    3.30
  -3  14  -2   60.55    8.53
  -3 -14  -2   68.85    6.97
  -3 -14  -2   79.99   15.17
   3 -14   2   65.53    7.41
  -3  14  -3  478.17   25.56
  -3 -14  -3  381.40   20.96
   3 -14   3  406.42   22.13
   3  14   4   90.76    7.21
  -3  14  -4   94.48   11.55
  -3 -14  -4  132.01    8.95
  -3 -14  -4  139.27   14.71
   3  14   5   12.26    3.71
  -3  14  -5   16.40    4.62
  -3 -14  -5   24.59    5.51
  -3 -14  -5   17.59    5.49
   3 -14   5   24.45    6.28
  -3 -15   7    9.48    2.91
  -3  15   7    4.45    2.14
   3 -15  -7   16.22    4.62
  -3 -15   6    9.37    2.05
  -3  15   6   11.70    2.45
   3 -15  -6    6.23    2.77
  -3 -15   6    8.64    2.12
  -3 -15   5  105.87   10.13
  -3  15   5  104.87    6.19
   3 -15  -5  116.29    7.57
   3 -15  -5  101.44    6.02
  -3 -15   5  113.43    7.06
  -3 -15   4  134.63    8.91
   3 -15  -4  141.94    6.78
  -3 -15   4  136.75    5.83
   3 -15  -4  138.64    5.73
  -3 -15   3  162.15   10.76
   3 -15  -3  170.70    8.73
  -3 -15   3  163.56    7.96
   3 -15  -3  179.55    8.48
  -3 -15   2   22.25    2.69
  -3 -15   2   21.84    2.08
   3 -15  -2   25.09    2.91
   3  15  -1  122.37    7.11
  -3 -15   1  122.73    6.18
   3 -15  -1  131.48    6.78
   3  15   0  129.82    6.80
  -3  15   0  139.66    7.07
  -3 -15   0  182.16    8.82
   3 -15   0  155.27    7.69
   3  15   1  310.95   13.84
  -3  15  -1  306.82   14.17
   3 -15   1  247.93   11.49
   3  15   2  142.88    7.74
  -3  15  -2  149.38   11.02
  -3 -15  -2  159.45   18.48
   3 -15   2  134.22    8.42
   3  15   3   45.83    4.87
  -3  15  -3   50.93    6.36
  -3 -15  -3   57.87    4.50
  -3 -15  -3   56.54    6.56
   3 -15   3   65.31    5.74
  -3  15  -4   38.11    8.17
  -3 -15  -4   41.20    6.79
  -3 -15  -4   33.25    6.65
  -3  15  -5  344.96   70.08
  -3 -15  -5  261.80   21.81
  -3 -16   7    8.24    2.67
   3 -16  -7    2.71    2.66
  -3 -16   6   95.88   13.97
   3 -16  -6  122.04   11.81
  -3 -16   6  107.37   10.19
  -3 -16   5   78.31    8.16
   3 -16  -5   72.30    6.17
   3 -16  -5   70.47    5.34
  -3 -16   5   76.85    6.14
  -3 -16   4   18.84    3.17
   3 -16  -4   15.54    2.74
  -3 -16   4   13.71    2.65
   3 -16  -4   14.06    2.17
  -3 -16   3   38.63    7.08
   3 -16  -3   40.14    5.07
  -3 -16   3   40.19    4.64
   3 -16  -3   36.59    4.19
  -3 -16   2  171.87    6.89
   3 -16  -2  175.42    7.29
   3  16  -1  169.64    8.31
  -3 -16   1  143.42    7.12
   3 -16  -1  134.66    6.80
   3  16   0    9.56    2.83
  -3  16   0    5.08    2.02
  -3 -16   0   10.74    2.36
   3 -16   0    5.18    2.67
   3  16   1   20.67    3.88
  -3  16  -1   18.36    3.42
   3 -16   1   27.97    4.33
   3  16   2   38.96    6.43
  -3  16  -2   37.26    8.29
  -3 -16  -2   51.30    9.38
   3 -16   2   62.24    9.45
   3  16   3  276.34   18.52
  -3  16  -3  255.56   18.21
  -3 -16  -3  253.18   22.12
   3 -16   3  262.41   17.72
   3  16   4   18.78    5.51
  -3  16  -4   18.77    5.26
  -3 -16  -4    4.50    2.13
   3 -16   4   19.10    6.68
   3  16   5   39.85    7.88
  -3  16  -5   33.41    6.82
  -3 -16  -5   35.82    9.73
   3 -16   5   59.74    9.96
  -3 -17   7   31.50    8.07
   3 -17  -7   37.92    6.74
  -3 -17   6    8.55    3.72
   3 -17  -6    0.49    2.84
  -3 -17   6    8.70    3.23
  -3 -17   5   28.79    6.30
   3 -17  -5   32.02    5.36
   3 -17  -5   26.47    4.20
  -3 -17   5   29.41    4.69
  -3 -17   4   67.99   10.50
   3 -17  -4   61.86    5.92
  -3 -17   4   61.63    5.36
   3 -17  -4   61.78    5.20
  -3 -17   3  206.12   10.40
   3 -17  -3  190.03   10.14
  -3 -17   3  189.76    9.54
   3 -17  -3  191.36    9.56
   3  17  -2   58.89    7.18
   3 -17  -2   40.51    5.39
  -3 -17   2   35.95    4.65
   3 -17  -2   40.60    5.42
   3  17  -1   78.81   12.08
  -3 -17   1   85.76    5.83
   3 -17  -1   81.81    5.41
   3  17   0  128.61    7.70
  -3 -17   0  135.20    7.74
   3 -17   0  152.90    8.28
   3  17   1  488.23   26.02
  -3  17  -1  510.66   33.80
   3 -17   1  489.93   26.26
   3  17   2   34.16    3.85
  -3  17  -2   33.05    5.19
  -3 -17  -2   33.47    3.92
   3 -17   2   20.27    3.86
   3  17   3   22.78    4.76
  -3  17  -3   23.80    5.48
  -3 -17  -3   27.79    5.57
   3 -17   3   35.68    7.53
   3  17   4   46.95    4.88
  -3  17  -4   34.50   10.70
  -3 -17  -4   61.92   11.24
   3 -17   4   69.14    7.35
  -3 -18   6   66.48    7.69
   3 -18  -6   98.54    8.71
  -3 -18   6   78.94    6.94
  -3 -18   5   53.19    8.63
   3 -18  -5   60.93    6.37
   3 -18  -5   66.54    5.55
  -3 -18   5   64.99    5.79
  -3 -18   4   27.68    4.52
   3 -18  -4   16.53    3.59
  -3 -18   4   24.03    4.37
   3 -18  -4   18.62    3.33
  -3 -18   3   11.50    2.14
   3 -18  -3   15.48    3.49
  -3 -18   3    7.52    2.15
   3 -18  -3   12.94    3.15
   3  18  -2  107.05    6.77
   3 -18  -2  128.95    8.57
  -3 -18   2  111.86    7.01
   3 -18  -2  113.60    7.04
   3  18  -1  369.64   19.99
  -3 -18   1  349.36   19.10
   3 -18  -1  335.03   18.17
   3  18   0   83.76    6.16
  -3 -18   0   53.87    8.16
   3 -18   0   51.97    7.92
   3  18   1   15.15    2.19
  -3  18  -1   19.84    3.50
  -3 -18  -1   30.86    4.19
   3 -18   1   26.95    3.44
   3  18   2   64.60    5.52
  -3  18  -2   56.37    8.11
  -3 -18  -2   76.20    6.36
   3 -18   2   75.39    6.21
   3  18   3  329.65   19.74
  -3  18  -3  358.62   62.20
  -3 -18  -3  338.17   29.80
   3 -18   3  337.89   20.38
   3  18   4   61.52    7.76
  -3  18  -4   58.84   10.27
  -3 -18  -4   32.27    8.43
   3 -18   4   26.43    6.61
  -3 -19   6    4.18    1.77
   3 -19  -6   14.77    4.69
  -3 -19   6   10.93    3.37
  -3 -19   5   72.12    9.22
   3 -19  -5   82.23    6.86
   3 -19  -5   79.74    5.87
  -3 -19   5   71.46    5.59
  -3 -19   4   51.90    7.98
   3 -19  -4   54.65    6.00
  -3 -19   4   49.99    5.97
   3 -19  -4   45.17    5.00
  -3 -19   3  219.86   14.71
   3 -19  -3  227.67   15.16
  -3 -19   3  229.59   15.34
   3 -19  -3  227.15   15.04
   3  19  -2  114.52    8.57
   3 -19  -2   92.08    7.19
  -3 -19   2  110.05    8.57
   3 -19  -2   97.55    7.39
   3  19  -1   34.46    4.64
  -3 -19   1   35.99    3.93
   3 -19  -1   38.97    3.91
   3  19   0  123.83    9.04
  -3 -19   0  122.73    9.35
   3 -19   0  120.22    8.61
   3  19   1  381.17   58.79
  -3  19  -1  371.35   23.84
  -3 -19  -1  388.98   60.04
   3 -19   1  363.62   23.59
   3  19   2   37.95    4.00
  -3  19  -2   39.81    7.29
   3 -19   2   18.49    5.53
   3  19   3   42.57    9.47
  -3  19  -3   43.69    6.78
  -3 -19  -3   52.60   11.00
   3 -19   3   69.92    7.73
  -3 -20   5   37.73    6.62
   3 -20  -5   50.38    6.93
   3 -20  -5   52.66    6.00
  -3 -20   5   46.81    5.58
  -3 -20   4  102.49   16.41
   3 -20  -4  123.19    8.73
   3 -20  -4  121.00    7.95
  -3 -20   4  124.92    8.60
   3 -20  -3   12.26    3.95
  -3 -20   3   10.69    3.51
   3 -20  -3    7.41    2.51
   3  20  -2   55.99    6.64
   3 -20  -2   44.73    5.45
  -3 -20   2   50.43    5.65
   3 -20  -2   55.57    6.37
   3  20  -1  330.33   71.22
   3 -20  -1  323.02   29.07
   3  20   0  122.69   11.87
  -3 -20   0   98.29   10.20
   3 -20   0   95.03    9.83
   3  20   1   22.18    5.53
  -3  20  -1   20.43    5.40
  -3 -20  -1   31.83    7.10
   3 -20   1   38.92    5.26
   3  20   2   61.18    5.47
  -3  20  -2   42.84    7.48
  -3 -20  -2   58.94    6.03
   3 -20   2   43.03    5.42
   3  20   3  149.50   23.18
  -3  20  -3  122.29   21.81
  -3 -20  -3  143.12   24.90
   3 -20   3  160.64   25.02
  -3 -21   4   99.02    7.89
   3 -21  -4  113.79    9.05
  -3 -21   4  105.72    8.48
   3 -21  -4  109.60    8.53
   3  21  -3   65.15    5.23
   3 -21  -3   69.74    5.45
  -3 -21   3   86.62    6.56
   3 -21  -3   85.05    6.48
   3  21  -2   74.14    6.82
   3 -21  -2   32.91    7.33
  -3 -21   2   51.90    5.33
   3 -21  -2   36.25    4.56
   3  21  -1   20.71    5.26
  -3 -21   1   37.41    5.20
   3 -21  -1   20.67    5.50
   3  21   0    3.93    2.36
  -3 -21   0    8.51    3.07
   3 -21   0   12.04    3.70
   3  21   1   79.80    6.50
  -3 -21  -1  124.91    8.65
   3 -21   1   92.54    7.34
   3  21   2   78.57    9.37
  -3  21  -2   40.10    8.46
  -3 -21  -2   46.84    6.04
   3 -21   2   43.89    5.93
   3  22  -3   30.63    7.26
   3 -22  -3   42.19    5.76
  -3 -22   3   32.34    7.04
   3 -22  -3   38.35    4.87
   3  22  -2   20.58    4.55
   3 -22  -2   42.47    9.54
  -3 -22   2   37.01    7.56
   3 -22  -2   31.53    6.47
   3  22  -1  129.54   10.20
  -3 -22   1  151.82   11.60
   3 -22  -1  161.90   12.54
   3  22   0  117.41    9.16
   3 -22   0  102.94    8.33
   3  22   1    3.21    2.48
  -3 -22  -1    4.29    2.98
   3 -22   1   11.88    3.51
  -3 -23   1    9.80    2.49
   3 -23  -1   12.45    3.72
  -4   0   9   58.63    4.94
   4   0  -9   59.10    4.90
  -4   0   8   29.20    3.90
   4   0  -8   18.55    3.10
  -4   0   7    9.90    2.41
   4   0  -7   12.46    2.83
  -4   0   6   53.27    3.52
   4   0  -6   51.90    3.87
  -4   0   5  806.32   28.32
   4   0  -5  788.76   27.55
  -4   0   4  107.86    8.88
   4   0  -4   97.03    4.26
   4   0  -4   94.37    3.04
   4   0  -4   92.81    3.08
  -4   0   3   27.36    3.77
   4   0  -3   19.41    1.64
   4   0  -3   23.91    1.27
  -4   0   2    0.72    0.91
   4   0  -1    6.54    1.94
  -4   0   1    4.29    0.95
   4   0   0  487.09   15.38
  -4   0   0  537.47   17.66
   4   0   1   25.11    2.18
  -4   0  -1   23.06    3.41
   4   0   2  582.78   20.65
  -4   0  -2  537.83   19.03
   4   0   3   17.05    2.45
  -4   0  -3   13.15    2.40
   4   0   4  308.10   14.90
  -4   0  -4  312.56   15.20
   4   0   5   73.03    6.42
  -4   0  -5   76.60    6.21
   4   0   6   56.97    5.63
  -4   0  -6   49.79    5.17
  -4  -1   9    6.35    2.92
  -4   1   9    2.60    2.16
   4   1  -9   10.25    4.50
   4  -1  -9    3.00    2.62
  -4  -1   8   68.16    6.27
  -4   1   8   47.48    4.78
   4   1  -8   52.19    5.13
   4  -1  -8   67.43    6.05
  -4   1   7  201.43    8.10
  -4  -1   7  219.18    8.81
   4   1  -7  194.62    7.64
   4  -1  -7  219.69    9.13
  -4  -1   6  132.31    6.66
  -4   1   6  123.94    6.15
   4   1  -6  118.13    6.18
   4  -1  -6  131.91    6.90
  -4  -1   5   20.50    2.59
  -4   1   5   22.24    1.99
   4   1  -5   30.22    2.66
   4  -1  -5   17.84    2.11
  -4   1   4   63.23    7.25
  -4  -1   4   65.34    6.03
   4   1  -4   59.66    3.21
   4  -1  -4   55.26    3.44
   4  -1  -4   51.99    1.78
   4   1  -4   53.72    1.90
   4  -1  -4   59.21    2.06
  -4   1   3  870.32   26.75
  -4  -1   3  904.26   27.82
   4  -1  -3  930.57   28.66
   4   1  -3  861.45   26.49
   4  -1  -3  843.79   25.72
   4   1  -3  830.14   25.29
   4  -1  -3  896.38   27.32
  -4  -1   2  912.51   13.90
  -4   1   2  883.37   12.87
  -4  -1   2  908.97   13.42
   4  -1  -1   65.69    2.45
  -4  -1   1   67.81    2.42
  -4   1   1  127.82    9.11
  -4  -1   1   63.33    2.51
   4  -1   0   55.61    2.57
   4   1   0   53.98    3.01
  -4  -1   0   65.77    7.32
  -4   1   0   72.75    7.34
  -4  -1   0   57.89    3.19
   4  -1   1  114.80    4.51
   4   1   1  107.25    4.14
  -4  -1  -1  119.18    4.08
  -4   1  -1  118.96    4.24
  -4  -1  -1  108.37    4.30
   4  -1   2  696.00   24.46
   4   1   2  649.27   22.97
  -4   1  -2  611.48   22.64
  -4  -1  -2  656.34   23.08
  -4  -1  -2  632.14   22.58
   4  -1   3   35.68    3.41
   4   1   3   60.45    4.47
  -4   1  -3   50.22    3.68
  -4  -1  -3   35.86    2.87
   4  -1   4  124.84    7.02
   4   1   4  113.35    6.61
  -4  -1  -4  133.22    7.21
  -4   1  -4  110.99    6.50
   4  -1   5   29.54    4.78
   4   1   5   26.60    4.77
  -4   1  -5   19.42    3.92
  -4  -1  -5   17.25    3.63
   4  -1   6  165.23   12.68
   4   1   6  151.00   11.79
  -4   1  -6  151.42   11.84
  -4  -1  -6  177.00   13.35
  -4  -2   9   64.16    5.33
  -4   2   9   52.43    4.50
   4   2  -9   38.39    3.95
   4  -2  -9   51.05    4.93
  -4  -2   8    6.43    2.38
  -4   2   8    8.49    2.65
   4   2  -8   11.61    3.04
   4  -2  -8   12.76    3.12
  -4  -2   7   67.12    7.43
  -4   2   7   74.30    7.97
   4   2  -7   75.09    8.12
   4  -2  -7   60.92    7.01
  -4  -2   6   39.31    3.77
  -4   2   6   40.65    3.00
   4   2  -6   46.31    3.39
   4  -2  -6   31.21    3.39
  -4  -2   5  322.91   11.98
  -4   2   5  255.86    9.56
   4   2  -5  259.82    9.70
   4  -2  -5  297.78   11.44
  -4  -2   4  143.37    4.94
   4   2  -4  173.92    5.81
   4  -2  -4  139.11    5.06
  -4  -2   4  137.60    3.79
   4  -2  -4  130.27    3.45
   4  -2  -4  135.63    3.64
  -4  -2   3  189.06    6.77
   4  -2  -3  200.50    7.12
  -4  -2   3  186.21    6.43
   4  -2  -3  173.80    5.66
   4   2  -3  230.73    7.39
   4  -2  -3  195.22    6.45
  -4   2   2  189.46    3.63
  -4  -2   2  182.61    3.75
   4  -2  -2  170.85    3.25
   4   2  -2  180.13    3.31
  -4  -2   2  189.99    3.93
   4  -2  -2  189.47    3.97
   4  -2  -1  196.92    3.84
  -4  -2   1  187.11    3.72
  -4  -2   1  208.35    6.60
   4  -2   0  787.33   24.18
   4   2   0  826.77   25.59
  -4  -2   0  827.10   26.31
  -4   2   0  855.27   26.44
  -4  -2   0  797.45   25.19
   4  -2   1   97.67    3.55
  -4  -2  -1  106.64    3.90
  -4  -2  -1  105.05    4.33
   4  -2   2  800.69   27.91
   4   2   2  774.04   27.25
  -4   2  -2  736.22   25.85
  -4  -2  -2  793.29   27.68
  -4  -2  -2  795.14   28.07
   4  -2   3   22.89    2.79
   4   2   3   33.56    3.70
  -4   2  -3   41.42    4.26
  -4  -2  -3   24.00    2.87
  -4  -2  -3   20.48    3.09
   4  -2   4  267.92   13.09
   4   2   4  245.79   12.39
  -4   2  -4  248.01   12.26
  -4  -2  -4  261.91   12.65
   4  -2   5   69.72    6.30
   4   2   5   58.52    5.80
  -4   2  -5   65.58    5.56
  -4  -2  -5   55.59    4.62
   4  -2   6   98.66    8.31
   4   2   6   87.06    8.15
  -4   2  -6   86.21    7.36
  -4  -2  -6   91.08    7.38
   4  -2   6  100.53    9.06
  -4  -3   9    3.84    2.26
  -4   3   9    5.05    2.58
   4   3  -9    4.13    2.12
   4  -3  -9    3.90    2.86
  -4  -3   8   46.06    5.16
  -4   3   8   37.09    4.13
   4   3  -8   41.09    4.18
   4  -3  -8   36.45    4.16
  -4  -3   7  230.60    9.22
  -4   3   7  203.34    8.09
   4   3  -7  199.35    7.97
   4  -3  -7  220.98    9.20
  -4  -3   6  112.10   10.57
  -4   3   6   69.50    4.33
   4   3  -6   72.96    4.23
   4  -3  -6  105.38    5.65
  -4  -3   5   88.86    8.78
  -4   3   5  120.32    5.14
   4   3  -5  114.32    5.24
   4  -3  -5   78.88    4.23
   4   3  -5  106.95    3.72
  -4  -3   4   11.89    2.35
  -4   3   4   12.55    1.77
   4   3  -4   10.99    1.33
   4  -3  -4    6.95    2.96
  -4  -3   4   10.90    1.50
   4  -3  -4    8.94    0.61
   4   3  -4   10.64    0.86
   4  -3  -4    8.06    0.66
  -4  -3   3  359.77   12.13
  -4   3   3  272.83    8.82
   4   3  -3  280.10    9.17
   4  -3  -3  370.30   12.20
  -4  -3   3  351.91   11.14
   4  -3  -3  328.26   10.40
   4  -3  -3  373.09   11.72
  -4   3   2  182.31    3.45
  -4  -3   2  205.40    4.36
   4  -3  -2  189.18    3.40
  -4  -3   2  220.66    4.97
   4  -3  -2  208.64    4.43
   4  -3  -1  225.18    7.14
   4  -3  -1  221.53    7.16
  -4  -3   1  242.93    4.34
   4   3  -1  270.10    4.49
  -4  -3   1  237.69    5.88
   4  -3  -1  238.80    5.53
   4  -3   0  340.72   10.64
   4  -3   0  373.27   11.75
   4   3   0  351.47   11.60
  -4   3   0  372.07   12.98
  -4  -3   0  367.94   12.13
   4  -3   1  222.62    6.63
   4   3   1  170.75    5.59
  -4   3  -1  183.69    6.01
  -4  -3  -1  220.33    6.98
  -4  -3  -1  217.04    8.69
   4  -3   2  660.91   30.09
   4   3   2  557.63   25.76
  -4   3  -2  531.47   25.12
  -4  -3  -2  645.18   29.40
  -4  -3  -2  632.91   29.19
   4  -3   3  173.51    7.82
   4   3   3  250.95   11.53
  -4   3  -3  230.51   12.86
  -4  -3  -3  158.62    7.16
  -4  -3  -3  163.72    8.29
   4  -3   4   91.20    5.70
   4   3   4   73.98    8.82
  -4   3  -4   75.24    8.57
  -4  -3  -4   89.04    5.20
  -4  -3  -4   88.06    5.77
   4  -3   4   92.85    5.99
   4  -3   5   16.98    3.87
   4   3   5   10.51    2.30
  -4   3  -5    4.85    2.08
  -4  -3  -5   13.38    2.93
   4  -3   5   17.35    4.95
   4  -3   6   95.53    8.01
   4   3   6   74.93    7.01
  -4   3  -6   66.44    6.07
  -4  -3  -6   95.28    7.75
   4  -3   6  106.49    9.56
  -4  -4   9   80.72    6.91
  -4   4   9   53.82    4.80
   4   4  -9   59.79    5.20
   4  -4  -9   68.43    5.58
  -4  -4   8   26.33    4.39
  -4   4   8   39.72    6.43
   4   4  -8   37.72    5.86
   4  -4  -8   27.74    4.78
  -4  -4   7  115.12    6.52
  -4   4   7  132.07    7.33
   4   4  -7  129.56    7.04
   4  -4  -7  124.05    7.59
  -4  -4   6  461.67   19.15
  -4   4   6  433.39   17.83
   4   4  -6  437.15   17.82
   4  -4  -6  439.53   18.47
  -4  -4   5  136.93   14.32
  -4   4   5  105.04    4.47
   4   4  -5   96.10    4.20
   4  -4  -5  139.79    6.62
  -4  -4   5  132.49    5.66
   4   4  -5   93.57    3.45
  -4  -4   4  338.83   10.85
  -4   4   4  287.64    8.24
   4   4  -4  301.78    8.35
   4  -4  -4  345.17   10.25
  -4  -4   4  349.63    9.16
   4  -4  -4  322.57    8.28
   4   4  -4  268.12    7.08
   4  -4  -4  331.31    8.50
  -4  -4   3  183.05    6.51
  -4   4   3  203.90    6.99
   4  -4  -3  154.80    5.25
   4   4  -3  188.33    6.02
   4   4  -3  213.24    7.05
   4  -4  -3  170.62    6.27
   4  -4  -3  155.27    5.16
  -4  -4   3  167.86    6.42
   4   4  -3  185.87    6.12
   4  -4  -3  170.51    5.89
  -4   4   2  130.04    4.35
  -4  -4   2  140.63   12.03
   4  -4  -2  117.45    3.98
   4   4  -2  119.74    4.03
   4   4  -2  134.40    4.65
  -4  -4   2  122.56    4.76
   4  -4  -2  125.25    4.85
   4  -4  -1  527.94   16.16
   4  -4  -1  530.98   16.30
   4   4  -1  515.39   16.33
  -4  -4   1  571.69   17.60
  -4   4   1  515.65   16.74
   4   4  -1  485.13   14.96
  -4  -4   1  553.83   17.66
   4  -4  -1  561.15   18.01
   4  -4   0  762.97   23.22
   4  -4   0  854.39   26.10
   4   4   0  805.31   25.21
  -4   4   0  822.49   25.68
  -4  -4   0  901.48   27.59
  -4  -4   0  879.99   27.57
   4  -4   0  882.49   27.71
   4  -4   1  351.16    9.50
   4   4   1  407.91   11.59
  -4   4  -1  435.87   12.04
  -4  -4  -1  334.87    9.15
  -4  -4  -1  352.89   10.54
   4  -4   1  328.99   10.31
   4  -4   2  261.75   12.41
   4   4   2  230.69   11.59
  -4   4  -2  237.42   11.54
  -4  -4  -2  255.09   12.03
  -4  -4  -2  254.69   12.46
   4  -4   2  266.88   13.33
   4  -4   3  341.59   14.72
   4   4   3  350.52   15.40
  -4   4  -3  339.49   14.76
  -4  -4  -3  336.74   14.39
  -4  -4  -3  339.43   15.24
   4  -4   3  339.81   15.81
   4  -4   4  251.05   12.11
   4   4   4  201.06   10.37
  -4   4  -4  214.62   17.89
  -4  -4  -4  266.80   12.95
  -4  -4  -4  264.52   13.03
   4  -4   4  255.74   12.79
   4   4   5   99.79    8.05
  -4   4  -5   96.60    7.42
  -4  -4  -5   40.65    6.16
   4  -4   5   50.95    8.80
   4  -4   6    6.28    3.28
   4   4   6    8.37    4.04
  -4   4  -6   11.09    3.72
  -4  -4  -6   10.76    3.30
   4  -4   6   19.02    5.23
  -4  -5   9   10.91    3.61
  -4   5   9   11.12    3.25
   4   5  -9   10.64    2.86
   4  -5  -9    4.70    2.71
  -4  -5   8  109.43    8.58
  -4   5   8  107.77    7.90
   4   5  -8  124.14    8.81
   4  -5  -8  102.45    7.61
  -4  -5   7   98.55   11.52
  -4   5   7   70.45    8.20
   4   5  -7   73.38    8.43
   4  -5  -7   89.16    6.44
  -4  -5   6   64.29    8.40
  -4   5   6   75.31    4.42
   4   5  -6   76.66    4.33
   4  -5  -6   58.47    4.89
  -4  -5   5  381.80   18.21
  -4   5   5  437.33   20.10
   4  -5  -5  414.83   19.68
  -4  -5   5  359.94   16.37
  -4  -5   4  668.63   17.82
  -4   5   4  679.01   18.03
   4   5  -4  554.95   14.13
   4   5  -4  670.41   17.24
   4  -5  -4  675.23   18.11
   4  -5  -4  576.25   16.10
  -4  -5   4  654.14   16.71
   4   5  -4  602.86   15.37
   4  -5  -4  624.34   15.78
  -4  -5   3   31.34    3.10
  -4   5   3    8.12    1.19
   4  -5  -3   20.41    1.33
   4   5  -3    5.87    0.85
   4   5  -3    6.32    1.08
   4  -5  -3   16.17    2.49
   4  -5  -3   17.71    2.34
  -4  -5   3   22.36    3.67
  -4  -5   2  514.32   16.37
   4  -5  -2  493.49   15.13
   4   5  -2  410.87   12.62
   4   5  -2  430.60   13.27
  -4  -5   2  523.65   16.55
   4  -5  -2  532.62   16.74
   4  -5  -1  411.25   12.59
   4   5  -1  494.80   15.77
  -4   5   1  506.87   16.16
  -4  -5   1  448.99   13.89
   4   5  -1  461.42   14.22
  -4  -5   1  458.15   14.88
   4  -5  -1  451.39   14.58
   4  -5   0   68.36    2.29
   4  -5   0   70.98    2.45
   4   5   0   67.97    3.31
  -4   5   0   87.55    7.87
  -4  -5   0   70.33    2.81
   4   5   0   57.62    2.17
  -4  -5   0   83.13    7.85
   4  -5   0   75.45    3.62
   4  -5   1  159.00    5.76
   4  -5   1  186.98    7.07
   4   5   1  166.62    6.93
  -4   5  -1  192.43    7.69
  -4  -5  -1  186.01    7.10
  -4  -5  -1  185.10    8.26
   4  -5   1  195.45    8.49
   4   5   2  245.27   12.08
  -4   5  -2  238.14   11.82
  -4  -5  -2  262.78   12.39
   4  -5   2  247.76   12.58
   4  -5   3  246.86   10.83
   4   5   3  305.83   13.61
  -4   5  -3  339.34   15.04
  -4  -5  -3  247.66   10.88
  -4  -5  -3  260.79   19.72
   4  -5   3  257.00   11.91
   4  -5   4   45.68    6.90
   4   5   4   26.51    4.56
  -4   5  -4   36.56    6.33
  -4  -5  -4   40.92    5.21
  -4  -5  -4   47.52    7.31
   4  -5   4   52.45    6.57
   4  -5   5   36.43    6.42
   4   5   5   63.10    7.51
  -4   5  -5   44.61    5.26
  -4  -5  -5   41.77    7.38
  -4  -5  -5   33.51    6.44
   4  -5   5   37.21    6.82
   4  -5   6  103.52   11.62
   4   5   6   58.10    7.10
  -4   5  -6   58.33    7.43
  -4  -5  -6   73.21    8.32
   4  -5   6   81.49   10.05
  -4   6   9   70.65    6.47
   4   6  -9   70.88    6.11
   4  -6  -9  106.90    9.34
  -4  -6   8    3.06    1.27
  -4   6   8    8.14    2.37
   4   6  -8   12.42    3.36
   4  -6  -8    4.63    2.84
  -4  -6   7  151.38   14.14
  -4   6   7  155.27    8.07
   4   6  -7  165.25    8.23
   4  -6  -7  154.93    8.84
  -4  -6   6   92.31    7.92
  -4   6   6   85.83    4.46
   4   6  -6   84.90    4.26
   4  -6  -6   86.79    6.03
  -4  -6   5  118.89    9.57
  -4   6   5  100.56    7.98
   4   6  -5   89.64    7.04
   4  -6  -5  131.36   11.08
  -4  -6   5  124.15   10.76
   4  -6  -5  113.61    8.41
  -4  -6   4  536.85   19.17
  -4   6   4  527.65   18.71
   4   6  -4  429.76   14.80
   4   6  -4  523.68   18.19
   4  -6  -4  545.16   20.12
  -4  -6   4  524.60   18.24
   4  -6  -4  508.08   17.51
  -4  -6   3  431.66   11.86
  -4   6   3  499.47   12.76
   4  -6  -3  388.94   10.11
   4   6  -3  452.58   11.46
   4  -6  -3  425.53   11.83
  -4  -6   3  427.93   11.41
   4  -6  -3  431.21   11.39
  -4  -6   2  405.67   13.14
   4  -6  -2  386.61   11.89
   4  -6  -2  394.20   12.08
   4   6  -2  401.94   12.29
   4   6  -2  435.57   13.35
  -4  -6   2  397.98   12.83
   4  -6  -2  421.12   13.68
   4  -6  -1  279.12    8.56
   4  -6  -1  302.90    9.32
   4   6  -1  230.50    8.00
  -4  -6   1  312.59    9.71
  -4   6   1  245.87    9.85
   4   6  -1  219.59    6.96
  -4  -6   1  320.46   11.06
   4  -6  -1  308.55   10.50
   4  -6   0  164.82    4.37
   4  -6   0  172.27    4.73
   4   6   0  128.12    4.94
  -4   6   0  155.85   14.66
  -4  -6   0  183.07    5.17
  -4  -6   0  180.53    6.08
   4  -6   0  198.58    6.73
   4  -6   1  356.41   12.36
   4  -6   1  396.61   13.90
   4   6   1  468.86   17.14
  -4   6  -1  478.16   18.23
  -4  -6  -1  416.92   14.64
  -4  -6  -1  410.89   15.61
   4  -6   1  429.09   16.23
   4  -6   2   41.76    3.80
   4   6   2   38.03    4.45
  -4   6  -2   47.92    6.75
  -4  -6  -2   37.40    3.56
   4  -6   2   34.23    5.04
   4  -6   3   46.77    3.27
   4   6   3   35.86    3.25
  -4   6  -3   45.45    5.22
  -4  -6  -3   44.25    3.30
  -4  -6  -3   46.80    8.19
   4  -6   3   48.88    4.67
   4  -6   4  172.60   10.06
   4   6   4  127.96    8.50
  -4   6  -4  130.41   11.52
  -4  -6  -4  166.67   18.25
   4  -6   4  185.49   10.97
   4  -6   5  255.82   23.06
   4   6   5  293.72   26.67
  -4   6  -5  304.06   27.44
  -4  -6  -5  230.24   20.98
  -4  -6  -5  243.63   22.29
   4  -6   5  293.63   26.86
   4  -6   6    8.28    3.86
   4   6   6    0.95    2.54
  -4   6  -6    4.77    1.76
  -4  -6  -6   -0.01    2.07
   4  -6   6    6.89    4.29
  -4  -7   9   31.93    8.33
  -4   7   9   33.59    7.56
   4   7  -9   22.09    5.05
   4  -7  -9   33.30    7.66
  -4  -7   8   99.22   14.25
  -4   7   8   83.85    8.32
   4   7  -8   87.61    8.45
   4  -7  -8   99.13   10.43
  -4  -7   7   37.37    6.87
  -4   7   7   26.92    4.79
   4   7  -7   30.13    4.91
   4  -7  -7   42.54    7.09
  -4  -7   6  112.17   11.31
  -4   7   6  113.20    5.54
   4   7  -6  117.84    5.78
   4  -7  -6  123.14    7.60
  -4  -7   5   67.52    7.45
  -4   7   5   83.56    6.58
   4   7  -5   76.28    6.01
   4  -7  -5   65.63    5.80
  -4  -7   5   56.14    4.55
   4  -7  -5   51.10    3.92
  -4  -7   4  394.89   14.38
  -4   7   4  416.69   14.57
   4   7  -4  341.49   11.78
   4   7  -4  404.37   14.07
   4  -7  -4  408.50   15.35
  -4  -7   4  385.38   13.68
   4  -7  -4  372.38   13.01
  -4  -7   3   54.68    5.70
  -4   7   3   22.65    2.99
   4   7  -3   22.79    1.48
   4   7  -3   23.70    1.03
   4  -7  -3   39.78    2.61
  -4  -7   3   58.24    6.57
  -4  -7   2  205.53    6.39
   4  -7  -2  189.47    4.91
   4  -7  -2  191.54    4.93
   4   7  -2  231.00    5.88
   4   7  -2  240.36    6.13
  -4  -7   2  191.10    5.91
   4  -7  -2  210.05    6.36
   4   7  -1  490.08   13.44
  -4   7   1  507.04   13.75
   4   7  -1  464.16   11.77
  -4  -7   1  455.94   12.51
   4  -7  -1  492.77   13.47
   4  -7   0  224.88    5.73
   4  -7   0  231.30    5.96
   4   7   0  234.50    7.31
  -4   7   0  250.44    7.62
  -4  -7   0  241.32    6.46
   4   7   0  219.82    6.02
  -4  -7   0  233.18    7.43
   4  -7   0  254.88    8.22
   4  -7   1   65.58    3.28
   4  -7   1   80.10    3.32
  -4   7  -1   58.12    4.71
  -4  -7  -1   81.54    3.67
  -4  -7  -1   87.02    7.67
   4  -7   1   75.75    4.63
   4  -7   2   74.54    3.67
   4   7   2   43.61    4.27
  -4   7  -2   43.89    5.52
  -4  -7  -2   72.71    3.86
   4  -7   2   77.82    5.81
   4  -7   3  558.18   18.36
   4   7   3  624.68   21.03
  -4   7  -3  606.38   20.34
  -4  -7  -3  573.37   18.93
  -4  -7  -3  575.07   19.60
   4  -7   3  620.57   21.38
   4  -7   4    4.23    2.57
   4   7   4    7.80    3.78
  -4   7  -4    5.51    1.41
  -4  -7  -4    4.29    1.70
  -4  -7  -4    8.76    2.46
   4  -7   4    5.99    2.94
   4  -7   5   18.86    4.71
   4   7   5   20.20    5.74
  -4   7  -5   18.88    5.47
  -4  -7  -5    9.49    2.75
   4  -7   5   21.92    5.73
   4   7   6   42.13    7.63
  -4   7  -6   36.53    8.26
  -4  -7  -6   70.07   11.14
  -4  -7  -6   68.33   11.57
   4  -7   6   78.88   13.68
  -4  -8   9    9.00    2.80
  -4   8   9   14.32    4.21
   4  -8  -9   13.75    4.06
  -4  -8   8   58.57    8.45
  -4   8   8   68.14    7.23
   4  -8  -8   64.79    7.15
  -4  -8   7   82.09    9.89
  -4   8   7   62.34    9.05
   4   8  -7   70.26   10.09
   4  -8  -7   92.84    6.75
  -4  -8   6  118.71   10.92
  -4   8   6  121.51    4.95
   4   8  -6  118.81    4.96
   4  -8  -6  117.23    5.92
  -4  -8   5   29.99    3.17
  -4   8   5   18.47    1.74
   4   8  -5   18.55    1.48
   4  -8  -5   32.90    3.18
  -4  -8   5   31.02    2.01
   4  -8  -5   29.89    1.56
  -4  -8   4  193.83    9.75
  -4   8   4  182.87    7.64
   4   8  -4  170.92    6.93
   4  -8  -4  187.47    8.51
  -4  -8   4  190.59    9.04
   4  -8  -4  178.23    7.45
  -4  -8   3  374.64   13.68
  -4   8   3  374.61   12.91
   4  -8  -3  370.03   12.82
   4  -8  -3  368.72   13.68
  -4  -8   3  375.94   13.51
   4  -8  -3  356.37   12.72
  -4  -8   2  481.89   13.21
  -4  -8   2  460.37   13.08
   4  -8  -2  481.97   13.00
   4   8  -1  221.85    7.39
  -4   8   1  240.99    7.47
   4   8  -1  218.84    5.62
   4   8   0   30.98    2.91
  -4   8   0   46.00    5.68
  -4  -8   0   21.23    2.82
  -4  -8   0   20.41    3.82
   4  -8   0   22.67    2.95
   4  -8   1  685.12   30.68
   4   8   1  693.49   31.89
  -4   8  -1  735.48   33.55
  -4  -8  -1  724.41   32.60
  -4  -8  -1  727.61   33.27
   4  -8   1  737.10   33.90
   4  -8   2   61.06    3.15
   4   8   2   66.54    4.33
  -4   8  -2   73.93    8.28
  -4  -8  -2   65.32    3.41
   4  -8   2   73.50    5.78
   4  -8   3   48.48    5.16
   4   8   3   31.16    4.37
  -4   8  -3   34.13    5.78
  -4  -8  -3   45.42    5.11
  -4  -8  -3   36.85    7.45
   4  -8   3   54.45    6.65
   4  -8   4   63.78    5.05
   4   8   4   37.48    4.30
  -4  -8  -4   65.25    5.42
  -4  -8  -4   69.27    9.11
   4  -8   4   70.28    6.33
   4   8   5  393.48   76.78
  -4  -8  -5  330.66   21.08
  -4  -8  -5  353.32   22.98
   4  -8   5  355.94   23.46
  -4  -9   8   60.08   11.36
  -4   9   8   70.46    5.64
   4  -9  -8   64.20    5.88
  -4  -9   7    0.99    1.85
  -4   9   7   10.70    1.96
   4  -9  -7    9.25    3.83
  -4   9   6  159.09    6.39
   4   9  -6  154.38    5.81
   4  -9  -6  176.07    8.16
  -4  -9   5  218.60   10.00
  -4   9   5  200.75    8.61
   4   9  -5  199.13    8.37
   4  -9  -5  209.25   10.25
  -4  -9   5  202.09    8.80
   4  -9  -5  199.08    8.37
  -4  -9   4  321.52   15.27
  -4   9   4  342.00   15.52
   4   9  -4  340.65   15.28
   4  -9  -4  345.49   16.70
  -4  -9   4  336.36   15.54
   4  -9  -4  325.87   14.89
  -4  -9   3  186.55    7.57
  -4   9   3  162.80    5.72
   4  -9  -3  176.65    6.22
   4  -9  -3  179.23    7.60
  -4  -9   3  187.17    7.20
   4  -9  -3  187.83    7.21
  -4  -9   2   89.74    4.24
  -4  -9   2   90.57    9.30
   4  -9  -2   94.93    4.48
   4   9  -1  706.75   25.01
  -4   9   1  691.16   24.38
  -4  -9   1  637.50   22.85
   4  -9  -1  671.90   23.75
   4   9   0  100.47    5.45
  -4  -9   0   87.19    3.60
  -4  -9   0   86.68   11.85
   4  -9   0   86.69    5.33
   4  -9   1   58.42    4.40
   4   9   1   61.71    5.52
  -4  -9  -1   61.84    4.90
  -4  -9  -1   66.76    8.60
   4  -9   1   62.18    6.80
   4  -9   2   53.44    2.70
   4   9   2   47.91    4.22
  -4  -9  -2   63.53    3.38
   4  -9   2   53.89    4.42
   4   9   3  503.20   23.52
  -4  -9  -3  550.01   24.96
  -4  -9  -3  448.01   21.01
   4  -9   3  588.33   27.69
   4   9   4   15.12    3.94
  -4   9  -4   15.71    3.03
  -4  -9  -4    8.39    2.08
  -4  -9  -4    5.52    2.90
   4  -9   4   14.70    4.73
   4   9   5   15.12    4.65
  -4   9  -5   16.02    4.27
  -4  -9  -5   16.90    4.45
  -4  -9  -5    6.66    3.24
   4  -9   5   21.49    5.74
  -4 -10   8   89.71   13.64
  -4  10   8   80.71    5.72
   4 -10  -8   93.36    7.23
  -4 -10   7   11.53    3.24
  -4  10   7    9.44    2.37
   4 -10  -7   10.41    3.16
  -4  10   6  122.55    6.25
   4 -10  -6  132.80    8.63
  -4 -10   6  112.77    5.61
  -4 -10   5   31.39    4.19
  -4  10   5   29.38    2.11
   4 -10  -5   20.71    3.22
  -4 -10   5   24.58    1.96
   4 -10  -5   19.01    1.30
  -4  10   4   11.48    1.08
   4 -10  -4    5.02    2.80
  -4 -10   4    7.36    1.34
   4 -10  -4    4.35    0.98
  -4  10   3  288.86   12.92
   4 -10  -3  318.88   15.19
  -4 -10   3  332.63   15.57
   4 -10  -3  325.67   15.05
  -4 -10   2   18.59    2.39
  -4 -10   2   23.02    2.79
   4 -10  -2   22.88    3.07
   4  10  -1    1.26    3.18
  -4  10   1    0.48    1.80
  -4 -10   1   10.68    2.13
   4 -10  -1   11.78    1.80
   4  10   0   76.78    6.47
  -4  10   0   93.52   10.00
  -4 -10   0   90.47    7.21
  -4 -10   0   95.16   11.40
   4 -10   0   94.80    8.24
   4  10   1  676.73   27.62
  -4  10  -1  698.15   28.34
  -4 -10  -1  703.39   27.65
  -4 -10  -1  727.28   29.37
   4 -10   1  742.65   30.19
   4  10   2   62.95    7.08
  -4  10  -2   66.99    8.82
  -4 -10  -2   60.89    6.30
   4 -10   2   62.84    7.32
   4  10   3   18.72    4.08
  -4  10  -3   15.85    3.36
  -4 -10  -3    6.73    1.61
  -4 -10  -3    6.34    2.47
   4 -10   3    8.58    3.34
   4  10   4   13.25    3.88
  -4  10  -4    8.49    2.83
  -4 -10  -4    1.27    1.50
  -4 -10  -4    3.47    2.45
   4 -10   4    8.65    3.40
   4  10   5  284.72   20.86
  -4  10  -5  294.39   31.39
  -4 -10  -5  315.34   63.96
  -4 -10  -5  304.91   23.44
   4 -10   5  334.53   68.13
  -4 -11   8   51.41    8.82
  -4  11   8   50.47    4.89
   4 -11  -8   38.70    7.73
  -4 -11   7    3.97    1.92
  -4  11   7    5.01    1.80
   4 -11  -7    0.81    2.85
  -4 -11   6  102.98   10.20
  -4  11   6   76.31    4.65
   4 -11  -6   95.38    6.68
  -4 -11   6   88.25    5.29
  -4 -11   5  132.60   12.71
  -4  11   5  125.55    4.69
   4 -11  -5  147.26    7.22
  -4 -11   5  144.99    5.61
   4 -11  -5  120.14    4.49
  -4 -11   4   61.04    7.20
  -4  11   4   52.54    2.57
   4 -11  -4   59.59    4.44
  -4 -11   4   58.48    3.56
   4 -11  -4   59.41    3.39
  -4 -11   3  175.80   13.42
   4 -11  -3  169.80    8.19
  -4 -11   3  173.93    7.97
   4 -11  -3  162.21    7.30
  -4 -11   2  343.58   16.19
   4 -11  -2  335.97   15.89
   4  11  -1  555.49   25.89
  -4  11   1  535.47   24.69
  -4 -11   1  530.04   24.49
   4 -11  -1  539.80   24.90
   4  11   0  315.16   13.33
  -4  11   0  327.63   13.88
  -4 -11   0  287.24   14.09
   4 -11   0  293.39   12.71
   4  11   1  125.62    6.59
  -4  11  -1  136.48   11.27
  -4 -11  -1  115.07    5.04
  -4 -11  -1  124.31   12.12
   4 -11   1  116.01    6.41
   4  11   2  181.78    8.25
  -4  11  -2  171.62   10.32
  -4 -11  -2  144.58    5.47
   4 -11   2  141.06    6.70
   4  11   3  275.72   15.26
  -4  11  -3  250.12   13.93
  -4 -11  -3  320.87   17.11
  -4 -11  -3  312.96   17.30
   4 -11   3  330.50   18.77
   4  11   4   71.32    7.55
  -4  11  -4   63.41   14.33
  -4 -11  -4   51.28    5.28
  -4 -11  -4   47.61    8.43
   4 -11   4   63.83    7.35
   4  11   5   29.14    6.96
  -4  11  -5   24.64    6.18
  -4 -11  -5   20.41    4.81
  -4 -11  -5   33.32    9.05
   4 -11   5   46.42    7.33
  -4 -12   8   35.42   10.13
   4 -12  -8   37.54    6.15
  -4 -12   7    6.22    2.67
  -4  12   7    3.27    1.97
   4 -12  -7   -1.99    3.05
  -4 -12   6   63.07    7.82
  -4  12   6   61.93    4.78
   4 -12  -6   79.96    6.74
  -4 -12   6   67.77    5.02
  -4 -12   5   40.32    7.66
   4 -12  -5   46.10    5.86
  -4 -12   5   43.80    5.21
   4 -12  -5   38.51    4.48
  -4 -12   4  115.17   11.10
   4 -12  -4  113.85    6.52
  -4 -12   4  106.05    5.40
   4 -12  -4  107.09    5.44
  -4 -12   3  206.59   15.53
   4 -12  -3  205.95    9.89
  -4 -12   3  203.83    8.99
   4 -12  -3  193.84    8.45
  -4 -12   2  190.48    8.87
   4 -12  -2  170.95    7.87
   4  12  -1  423.38   18.08
  -4  12   1  388.62   16.48
  -4 -12   1  327.75   14.98
   4 -12  -1  333.59   14.09
   4  12   0  328.55   14.63
  -4  12   0  289.75   12.84
  -4 -12   0  284.78   12.72
   4 -12   0  276.21   12.44
   4  12   1  158.50    6.77
  -4  12  -1  157.22   13.03
  -4 -12  -1  196.21    8.09
   4 -12   1  206.55    8.73
   4  12   2   21.54    3.18
  -4  12  -2   30.96    5.89
  -4 -12  -2   21.77    3.50
   4 -12   2   27.65    5.24
   4  12   3   33.75    4.55
  -4  12  -3   27.53    4.42
  -4 -12  -3   13.43    1.85
  -4 -12  -3   18.83    3.96
   4 -12   3   19.82    4.96
   4  12   4   87.17    6.86
  -4  12  -4   82.03   12.89
  -4 -12  -4   46.50    7.46
   4 -12   4   70.01    6.83
   4  12   5  192.95   29.93
  -4  12  -5  143.23   28.22
  -4 -12  -5  182.68   33.51
   4 -12   5  238.85   36.77
  -4 -13   8   19.63    5.25
   4 -13  -8   37.10    7.41
  -4 -13   7   15.03    4.24
   4 -13  -7   10.35    3.87
  -4 -13   6   20.82    4.38
   4 -13  -6   22.37    4.51
  -4 -13   6   25.48    4.05
  -4 -13   5   19.53    3.72
   4 -13  -5   13.65    3.22
  -4 -13   5   23.50    4.06
   4 -13  -5   13.50    2.34
  -4 -13   4  129.74   13.14
   4 -13  -4  124.00    6.39
  -4 -13   4  113.54    5.13
   4 -13  -4  132.01    5.71
  -4 -13   3   77.40    9.08
   4 -13  -3   78.04    5.32
  -4 -13   3   80.64    4.67
   4 -13  -3   80.75    4.36
   4  13  -2   89.49    5.68
  -4 -13   2   73.76    5.00
   4 -13  -2   66.03    4.36
   4  13  -1  158.38    8.06
  -4 -13   1  205.38    9.69
   4 -13  -1  213.34   10.07
   4  13   0   32.87    4.50
  -4  13   0   31.35    4.95
  -4 -13   0   30.70    5.16
   4 -13   0   37.59    5.44
   4  13   1   15.09    3.06
  -4  13  -1   15.15    2.81
  -4 -13  -1   32.19    4.38
   4 -13   1   30.97    5.12
   4  13   2   70.44    6.21
  -4  13  -2   70.35    7.30
  -4 -13  -2   64.47   12.15
   4 -13   2   76.08    5.79
   4  13   3  122.34    9.56
  -4  13  -3  107.18   11.21
  -4 -13  -3  120.60   15.72
   4 -13   3  124.66    9.36
   4  13   4   61.13    5.52
  -4  13  -4   58.73    9.96
  -4 -13  -4   49.80    7.77
   4 -13   4   54.97    5.28
  -4 -14   7   19.01    5.13
   4 -14  -7   37.59    5.57
  -4 -14   6   56.79   11.60
   4 -14  -6   70.55    7.46
  -4 -14   6   64.70    6.26
  -4 -14   5   75.95   10.06
   4 -14  -5   76.62    6.68
  -4 -14   5   79.68    6.17
  -4 -14   4   91.57    9.30
   4 -14  -4   89.56    5.63
  -4 -14   4   92.31    5.40
   4 -14  -4   92.58    5.39
  -4 -14   3   85.02    8.86
   4 -14  -3   96.45   10.53
  -4 -14   3   83.67    8.59
   4 -14  -3   85.67    8.82
   4  14  -2  121.76    5.63
  -4 -14   2  135.51    6.10
   4 -14  -2  131.22    5.81
   4  14  -1   96.39   10.19
  -4 -14   1   92.73    9.80
   4 -14  -1   86.21    9.14
   4  14   0  116.67    5.92
  -4  14   0  144.23    9.40
  -4 -14   0  151.29   16.96
   4 -14   0  153.29    6.62
   4  14   1  103.05    6.70
  -4  14  -1   86.28   11.36
  -4 -14  -1  133.31   13.25
   4 -14   1  137.94    8.33
   4  14   2   84.91    7.30
  -4  14  -2   82.17    9.46
  -4 -14  -2   64.93   10.51
   4 -14   2   72.88    6.30
   4  14   3  125.59   12.57
  -4  14  -3  115.68   12.68
  -4 -14  -3  118.33   17.29
   4 -14   3  149.54   14.68
   4  14   4  152.79   12.83
  -4  14  -4  154.41   15.69
  -4 -14  -4  122.03   14.42
   4 -14   4  119.20   10.05
  -4 -15   7   44.78    7.39
   4 -15  -7   74.91    8.95
  -4 -15   6   27.03    6.54
   4 -15  -6   28.23    7.33
  -4 -15   6   19.43    4.71
  -4 -15   5   34.23    8.78
   4 -15  -5   40.39    6.61
  -4 -15   5   29.46    4.45
  -4 -15   4   53.47   11.66
   4 -15  -4   51.74    7.94
  -4 -15   4   56.12    8.36
   4 -15  -4   57.46    8.45
  -4 -15   3  127.20    7.32
  -4 -15   3  126.54    7.00
   4 -15  -3  113.06    6.22
   4  15  -2  122.20    7.14
  -4 -15   2  103.78    6.20
   4 -15  -2  107.49    5.97
   4  15  -1   12.63    2.93
  -4 -15   1   40.70    5.10
   4 -15  -1   46.20    5.88
   4  15   0  161.72    8.89
  -4  15   0  160.18   13.26
  -4 -15   0  168.14   12.19
   4 -15   0  163.31    8.69
   4  15   1  105.77    7.99
  -4  15  -1  103.47   11.93
  -4 -15  -1  115.06   17.67
   4 -15   1  142.76   10.50
   4  15   2  236.39   15.99
  -4  15  -2  238.84   15.77
  -4 -15  -2  181.58   23.80
   4 -15   2  218.14   15.25
   4  15   3    4.65    2.81
  -4  15  -3    5.44    2.17
  -4 -15  -3    9.89    3.72
   4 -15   3   13.72    4.46
   4  15   4   39.85    5.62
  -4  15  -4   29.46    7.55
  -4 -15  -4   21.77   10.46
   4 -15   4   39.35    6.83
  -4 -16   6   39.99    7.79
  -4 -16   5   60.65    9.20
  -4 -16   5   86.71    8.32
  -4 -16   4   86.22   10.38
  -4 -16   4   84.39    6.26
   4 -16  -4   95.70    6.83
  -4 -16   3   14.72    3.51
   4 -16  -3    8.50    2.32
  -4 -16   3   21.05    4.49
   4 -16  -3   12.73    2.64
  -4 -16   2  133.49    8.06
   4 -16  -2  123.00    7.55
  -4 -16   1  307.11   16.85
   4 -16  -1  303.66   16.66
   4  16   0  143.93   10.72
  -4  16   0  160.47   11.30
  -4 -16   0  119.39    9.17
   4 -16   0  126.63    9.66
   4  16   1    5.61    2.44
  -4  16  -1    4.09    1.24
  -4 -16  -1    4.63    2.21
   4  16   2   64.05    7.31
  -4  16  -2   61.49   10.94
  -4 -16  -2   51.91    8.31
   4 -16   2   57.90    6.47
   4  16   3   21.91    5.29
  -4  16  -3   29.73    8.08
  -4 -16  -3   22.67    5.21
   4 -16   3   18.53    4.75
  -4 -17   6   10.97    3.64
   4 -17  -6    5.68    3.10
  -4 -17   5    4.93    2.40
   4 -17  -5    5.74    2.81
  -4 -17   5    9.76    2.93
  -4 -17   4   45.52    6.02
   4 -17  -4   34.14    6.08
  -4 -17   4   45.27    5.07
   4 -17  -4   43.52    4.85
  -4 -17   3  155.04   10.83
   4 -17  -3  164.71   11.68
  -4 -17   3  149.31   10.44
   4 -17  -3  151.62   10.34
   4  17  -2  112.71    8.69
  -4 -17   2   85.39    6.82
   4 -17  -2   87.44    7.02
   4  17  -1    9.97    2.70
  -4 -17   1    5.46    2.26
   4 -17  -1    3.16    2.41
  -4  17   0   90.22    6.93
  -4 -17   0  102.17    7.48
   4 -17   0  109.87    8.79
  -4  17  -1   76.11   11.44
  -4 -17  -1   65.86   10.92
   4 -17   1   88.02    8.90
  -4  17  -2  149.86   13.72
  -4 -17  -2  125.17   20.49
   4 -17   2  163.43   11.20
   4  17   3    6.91    3.04
  -4  17  -3    5.38    2.40
  -4 -17  -3    5.98    2.49
   4 -17   3   10.80    5.23
  -4 -18   5   63.20   11.00
   4 -18  -5   79.32    7.80
  -4 -18   5   77.76    6.60
  -4 -18   4   60.85    5.22
   4 -18  -4   51.89    5.55
  -4 -18   4   48.91    4.71
   4 -18  -4   46.42    4.21
   4  18  -3   51.74    6.14
   4 -18  -3   22.80    4.60
  -4 -18   3   28.14    4.98
   4 -18  -3   33.25    6.01
   4  18  -2   94.91    7.92
  -4 -18   2  110.15    8.31
   4 -18  -2  102.38    7.56
   4  18  -1  101.32    7.83
  -4 -18   1  102.57    8.01
   4 -18  -1  109.19    8.29
   4  18   0  142.07   13.55
  -4 -18   0  122.39   11.75
   4 -18   0  126.57   12.25
   4  18   1   29.88    7.08
  -4  18  -1   31.58    8.72
  -4 -18  -1   15.57    4.11
   4 -18   1   10.83    3.28
   4  18   2   74.34    6.56
  -4  18  -2   71.52   14.20
  -4 -18  -2   74.98   13.72
   4 -18   2   86.39    8.42
  -4 -19   5   39.95    8.34
   4 -19  -5   49.87    6.51
  -4 -19   5   48.71    5.95
  -4 -19   4   17.51    4.40
   4 -19  -4   23.84    5.95
  -4 -19   4   16.69    4.33
   4 -19  -4   20.77    4.69
   4  19  -3  155.14   11.26
   4 -19  -3  147.30   10.58
  -4 -19   3  134.70    9.70
   4 -19  -3  162.35   11.14
   4  19  -2  103.44    8.38
  -4 -19   2   89.44    7.22
   4 -19  -2   79.83    6.45
   4  19  -1   60.99    6.85
  -4 -19   1   36.05    4.01
   4 -19  -1   44.15    4.20
   4  19   0   19.44    4.82
  -4 -19   0   37.13    3.91
   4 -19   0   34.31    4.62
  -4  19  -1   42.80    9.36
  -4 -19  -1   39.81   10.20
   4 -19   1   55.70    6.64
   4  19   2  108.05   17.03
  -4  19  -2   78.01   17.18
  -4 -19  -2   91.81   24.74
   4 -19   2  111.21   17.59
  -4 -20   4   29.90    6.89
   4 -20  -4   33.74    7.99
  -4 -20   4   29.44    6.60
   4 -20  -4   33.23    7.29
   4  20  -3    9.65    3.14
   4 -20  -3    5.15    2.80
  -4 -20   3    3.34    2.15
   4 -20  -3    2.64    2.32
   4  20  -2   38.64    4.09
   4 -20  -2   42.64    4.76
  -4 -20   2   31.07    3.74
   4 -20  -2   33.89    3.65
   4  20  -1   36.80    3.89
  -4 -20   1   33.49    3.75
   4 -20  -1   34.76    3.92
   4  20   0  110.23    8.73
  -4 -20   0  140.56   10.85
   4 -20   0  136.43   10.52
   4  20   1   39.09    5.31
  -4  20  -1   63.78    7.73
  -4 -20  -1   25.45    8.40
   4 -20   1   41.50    6.48
   4  21  -3   21.15    4.43
   4 -21  -3   44.29    7.66
  -4 -21   3   29.87    5.29
   4 -21  -3   32.32    5.60
   4  21  -2   79.23    9.39
   4 -21  -2   98.01   10.64
  -4 -21   2  120.93   13.19
   4 -21  -2   93.18   10.17
   4  21  -1  125.74   13.53
  -4 -21   1  115.79   12.61
   4 -21  -1  103.70   11.05
  -5   0   9    5.62    2.23
   5   0  -9    7.85    2.69
  -5   0   8   12.92    3.06
   5   0  -8   23.56    4.68
  -5   0   7    8.91    2.67
   5   0  -7    8.21    2.60
  -5   0   6   37.62    6.96
   5   0  -6   46.43    5.37
  -5   0   5   78.52    8.09
   5   0  -5   75.43    4.08
  -5   0   4  519.34   23.77
   5   0  -4  536.20   24.56
  -5   0   3   50.24    6.09
   5   0  -3   44.44    2.87
   5   0  -2  145.81    5.78
   5   0  -1   64.95    3.57
  -5   0   1   65.30    3.11
   5   0   0  260.37   12.22
  -5   0   0  278.53   13.79
   5   0   1  199.40    8.66
  -5   0  -1  211.05    9.10
   5   0   2   17.58    2.95
  -5   0  -2   18.27    3.35
   5   0   3  116.35    7.31
  -5   0  -3  106.25   13.67
   5   0   4   65.15    7.18
  -5   0  -4   41.20    8.83
   5   0   5   16.90    4.43
  -5   0  -5   16.19    4.12
  -5   1   9   24.88    5.96
  -5  -1   9   27.78    7.21
   5   1  -9   23.86    5.60
   5  -1  -9   16.37    4.75
  -5  -1   8    4.63    1.73
  -5   1   8    2.46    1.88
   5   1  -8    4.34    2.05
   5  -1  -8    8.11    3.39
  -5   1   7   43.33    8.38
  -5  -1   7   46.67    7.91
   5   1  -7   44.49    7.12
   5  -1  -7   36.07    5.85
  -5   1   6  123.61    5.32
  -5  -1   6  121.10   12.11
   5   1  -6  104.50   11.49
   5  -1  -6  135.95    6.07
  -5   1   5    3.40    1.60
  -5  -1   5    1.84    0.92
   5   1  -5    4.44    1.65
   5  -1  -5    6.62    2.78
  -5   1   4   66.46    8.75
  -5  -1   4   87.40   11.74
   5   1  -4   65.83    5.39
   5  -1  -4   93.71    7.71
   5  -1  -4   88.55    6.77
  -5  -1   3   48.29    7.93
  -5   1   3   48.40    5.52
   5   1  -3   58.67    4.84
   5  -1  -3   43.11    3.87
   5  -1  -3   41.48    3.63
   5  -1  -2  341.03   12.32
   5   1  -2  270.15    9.95
   5   1  -1   62.80    5.35
   5  -1  -1   61.25    5.01
  -5   1   1   58.78    8.67
  -5  -1   1   61.12    7.20
   5  -1   0   96.25    7.69
   5   1   0  125.68    9.73
  -5  -1   0   98.00   11.45
  -5   1   0  145.23   11.28
   5  -1   1  161.30    7.17
   5   1   1  157.16    7.50
  -5  -1  -1  189.71    8.29
  -5   1  -1  175.89    7.79
   5  -1   2   72.00    7.65
   5   1   2   80.34    8.49
  -5  -1  -2   69.63   10.38
  -5   1  -2   76.39   12.63
   5  -1   3   54.83    8.39
   5   1   3   67.75   10.12
  -5  -1  -3   46.34    9.47
  -5   1  -3   56.87    9.06
   5  -1   4   17.12    3.47
   5   1   4   36.46    6.66
  -5   1  -4   32.27    7.83
  -5  -1  -4   23.05    5.58
   5  -1   5   97.34   10.71
   5   1   5   82.67    9.32
  -5   1  -5   63.41   12.91
  -5  -1  -5   88.69    9.78
  -5  -2   9   11.57    3.44
  -5   2   9    2.06    2.02
   5   2  -9    6.58    2.82
   5  -2  -9    7.12    3.56
  -5  -2   8   77.12   14.41
  -5   2   8   78.05    7.97
   5  -2  -8   81.12    8.46
  -5  -2   7    7.69    2.22
  -5   2   7    5.19    1.52
   5   2  -7   11.02    2.46
   5  -2  -7    7.11    2.56
  -5  -2   6   36.46    4.67
  -5   2   6   31.30    4.74
   5   2  -6   31.03    4.24
   5  -2  -6   41.86    5.35
  -5  -2   5  139.36    6.62
  -5   2   5  127.16   10.61
   5   2  -5  129.89    6.00
   5  -2  -5  143.35    7.20
  -5   2   4  601.58   28.03
  -5  -2   4  647.50   29.51
   5   2  -4  639.33   29.01
   5  -2  -4  676.33   30.83
  -5   2   3   67.75    9.01
  -5  -2   3  103.86   11.52
   5   2  -3   83.08    6.68
   5  -2  -3  116.02    9.26
  -5  -2   3  100.28    7.78
   5  -2  -3  109.71    8.64
   5  -2  -2   50.94    2.77
   5   2  -2   31.79    2.55
  -5  -2   2   52.52    3.16
   5  -2  -2   51.06    2.91
   5  -2  -1    4.67    1.68
   5   2  -1    0.57    1.63
  -5  -2   1    6.20    1.18
  -5   2   1    1.37    1.06
  -5  -2   1    2.65    1.51
   5  -2   0  316.06   14.71
   5   2   0  279.40   13.22
  -5  -2   0  332.00   16.10
  -5   2   0  289.75   13.94
  -5  -2   0  338.16   16.10
   5  -2   1   92.46    5.08
   5   2   1   70.79    4.49
  -5   2  -1   79.89    7.62
  -5  -2  -1   98.04    9.68
  -5  -2  -1   92.82    5.35
   5  -2   2   80.72    8.41
   5   2   2  115.65    5.39
  -5  -2  -2   72.26    9.70
  -5   2  -2  132.07   13.78
   5  -2   3   76.43    6.11
   5   2   3   76.31    6.42
  -5   2  -3   70.97    9.64
  -5  -2  -3   71.14   11.08
   5  -2   4   38.97    6.81
   5   2   4   43.28    5.37
  -5   2  -4   35.99    6.95
  -5  -2  -4   35.45    6.27
   5  -2   5   28.69    6.59
   5   2   5   25.48    6.03
  -5   2  -5   28.64    7.64
  -5  -2  -5   34.11    7.60
   5  -2   5   33.91    7.91
  -5  -3   9   80.27   16.43
  -5   3   9  105.19   11.31
   5   3  -9   96.80   10.40
   5  -3  -9   96.03   10.84
  -5  -3   8   10.38    2.76
  -5   3   8    8.78    3.08
   5   3  -8   12.97    3.79
   5  -3  -8   10.50    3.42
  -5  -3   7  105.58   11.19
  -5   3   7  127.59    9.25
   5   3  -7  115.61    8.35
   5  -3  -7  107.00    8.04
  -5  -3   6   88.21   13.61
  -5   3   6   83.11   10.86
   5   3  -6   71.87    7.76
   5  -3  -6   85.75    8.96
  -5  -3   5   58.32    6.64
  -5   3   5   91.94    9.31
   5   3  -5   81.47    4.24
   5  -3  -5   58.50    4.24
  -5  -3   4  115.29   12.46
  -5   3   4   96.27    7.52
   5   3  -4   99.92    7.83
   5  -3  -4  111.21    9.15
  -5  -3   4  104.58    8.00
   5  -3  -4  101.46    7.75
  -5  -3   3  247.11   11.67
  -5   3   3  226.56   10.79
   5   3  -3  255.35   11.88
  -5  -3   3  252.73   11.81
   5  -3  -3  250.47   11.76
   5  -3  -2  231.31   10.77
   5   3  -2  219.48   10.60
  -5  -3   2  217.39   10.44
   5  -3  -2  238.33   11.39
   5  -3  -1  207.09    9.69
   5   3  -1  207.40   10.04
  -5   3   1  224.50   10.78
  -5  -3   1  221.65   10.36
  -5  -3   1  224.27   10.90
   5  -3  -1  219.87   10.87
   5  -3   0   96.46    7.47
   5   3   0  113.79    9.11
  -5  -3   0  105.05    8.36
  -5   3   0  108.74    8.62
  -5  -3   0  113.82    9.26
   5  -3   1  149.94    6.91
   5   3   1  142.86    7.17
  -5   3  -1  144.36   14.21
  -5  -3  -1  155.69    7.20
  -5  -3  -1  163.22    7.91
   5  -3   2  114.52    5.16
   5   3   2  102.22   11.49
  -5   3  -2  112.56   15.06
  -5  -3  -2  118.56   11.44
  -5  -3  -2  119.46    5.72
   5  -3   3  160.94   11.46
   5   3   3  152.75   11.11
  -5   3  -3  146.28   18.11
  -5  -3  -3  151.18   10.62
   5  -3   3  147.68   11.18
   5  -3   4   36.32    4.08
   5   3   4   44.46    4.37
  -5   3  -4   39.26    6.90
  -5  -3  -4   32.33    6.99
   5  -3   4   39.05    4.73
   5  -3   5   43.68    5.77
   5   3   5   39.98    5.79
  -5   3  -5   39.29    7.18
  -5  -3  -5   43.94    5.29
   5  -3   5   54.75    7.02
  -5  -4   9    8.08    2.36
  -5   4   9   10.78    2.45
   5   4  -9   16.45    3.51
   5  -4  -9   22.87    5.06
  -5  -4   8  101.84   14.50
  -5   4   8   93.36    7.02
   5   4  -8   98.56    7.28
   5  -4  -8  114.63    8.76
  -5  -4   7    4.89    1.44
  -5   4   7   10.55    2.53
   5   4  -7   10.32    2.02
   5  -4  -7    8.99    2.65
  -5  -4   6   15.30    3.40
  -5   4   6   25.09    4.10
   5   4  -6   19.00    3.01
   5  -4  -6   14.43    2.90
  -5  -4   5   11.94    2.13
  -5   4   5   10.73    1.87
   5   4  -5   10.00    1.43
   5  -4  -5    4.23    2.34
  -5  -4   4  239.83   19.04
  -5   4   4  187.46    8.10
   5   4  -4  204.52    8.59
   5  -4  -4  248.80   11.20
  -5  -4   4  225.74    9.23
   5  -4  -4  229.78    9.34
  -5   4   3   48.42    6.30
  -5  -4   3   31.79    4.75
   5   4  -3   55.91    4.61
  -5  -4   3   28.13    4.21
   5  -4  -3   27.34    2.90
   5  -4  -2  139.16   10.53
   5   4  -2  169.22   13.11
  -5  -4   2  142.05   10.98
   5  -4  -2  147.36   11.38
   5  -4  -1  114.40    8.76
   5   4  -1  117.90    9.46
  -5   4   1  122.49    9.66
  -5  -4   1  128.08    9.74
  -5  -4   1  123.65    9.66
   5  -4  -1  117.18    9.51
   5  -4   0   64.17    3.27
   5   4   0   36.22    2.84
  -5  -4   0   63.81    5.87
  -5   4   0   37.33    4.95
  -5  -4   0   65.89    8.05
   5  -4   0   61.69    3.99
   5  -4   1  150.52    6.87
   5   4   1  173.53    8.15
  -5   4  -1  163.50    7.63
  -5  -4  -1  154.13    6.89
  -5  -4  -1  165.60    8.28
   5  -4   1  167.21    8.45
   5  -4   2  186.90    9.23
   5   4   2  224.23   11.09
  -5   4  -2  205.79   10.23
  -5  -4  -2  174.77   15.16
  -5  -4  -2  180.67    9.46
   5  -4   2  190.50   10.27
   5  -4   3  110.32    8.15
   5   4   3   96.60    7.81
  -5   4  -3   87.25   12.98
  -5  -4  -3   93.34   11.29
   5  -4   3  113.04    9.77
   5  -4   4   11.26    3.10
   5   4   4   16.27    4.37
  -5   4  -4   13.91    3.77
  -5  -4  -4   15.44    3.87
   5  -4   4   25.42    7.28
   5   4   5   48.70    8.59
  -5   4  -5   42.15   11.79
  -5  -4  -5   58.27    9.64
   5  -4   5   55.90   10.13
  -5  -5   8   36.12    4.57
  -5   5   8   25.09    6.12
   5  -5  -8   30.70    7.27
  -5  -5   7   32.04    6.57
  -5   5   7   30.56    3.01
   5   5  -7   31.82    3.34
   5  -5  -7   34.07    3.75
  -5  -5   6  200.14    9.99
  -5   5   6  186.56    9.18
   5   5  -6  173.35    8.58
   5  -5  -6  188.81    9.81
  -5  -5   5   89.73    9.15
  -5   5   5   81.55    7.76
   5   5  -5   82.35    4.40
   5  -5  -5   86.28    5.57
  -5  -5   4   44.01    4.45
  -5   5   4   65.14    3.22
   5   5  -4   68.43    3.37
   5  -5  -4   47.83    3.55
  -5  -5   4   45.25    4.73
   5  -5  -4   47.04    2.43
  -5   5   3  155.38   11.64
  -5  -5   3  172.14   13.29
  -5  -5   3  157.04   12.53
   5  -5  -2   94.05    7.17
   5   5  -2   74.71    6.50
  -5  -5   2  105.97   11.69
   5  -5  -2   99.08    7.99
   5  -5  -1   18.90    1.83
   5   5  -1   45.20    4.23
  -5  -5   1   17.92    3.11
  -5   5   1   52.10    7.90
  -5  -5   1   21.25    3.36
   5  -5  -1   19.87    2.48
   5  -5   0  164.16    7.00
   5   5   0  165.38    7.88
  -5   5   0  175.27   14.95
  -5  -5   0  145.06    6.32
  -5  -5   0  148.82   15.92
   5  -5   0  160.11    8.09
   5  -5   1  159.33    7.12
   5   5   1  153.24    7.75
  -5   5  -1  178.27   15.39
  -5  -5  -1  180.70    7.99
  -5  -5  -1  168.67   11.68
   5  -5   1  171.74    8.45
   5  -5   2  172.51    8.39
   5   5   2  123.67    6.77
  -5   5  -2  125.76   13.93
  -5  -5  -2  166.99    8.35
  -5  -5  -2  162.92    9.14
   5  -5   2  203.50   11.15
   5  -5   3  112.10    8.05
   5   5   3   98.23    8.10
  -5   5  -3   97.29   13.17
  -5  -5  -3  115.17    8.35
   5  -5   3  144.60   11.28
   5   5   4   96.96    7.77
  -5   5  -4  100.32   17.40
  -5  -5  -4   78.10    5.79
  -5  -5  -4   58.98    5.80
   5  -5   4   75.70    7.46
  -5  -6   8   27.32    8.37
   5  -6  -8   29.29    7.05
  -5  -6   7   56.99   10.69
  -5   6   7   79.79    5.72
   5  -6  -7   76.55    7.92
  -5  -6   6   29.38    4.52
  -5   6   6   35.49    7.10
   5   6  -6   35.22    4.19
   5  -6  -6   24.76    3.52
  -5  -6   5  136.02   12.75
  -5   6   5  145.31    9.73
   5   6  -5  138.72    5.35
   5  -6  -5  136.74    6.64
  -5  -6   5  123.25    4.37
  -5  -6   4   41.46    5.07
  -5   6   4   44.28    3.82
   5   6  -4   45.37    2.40
   5  -6  -4   38.47    3.14
  -5  -6   4   31.27    4.67
   5  -6  -4   41.41    2.40
  -5   6   3   97.89    4.17
  -5  -6   3   88.36    7.88
   5   6  -3  105.98    4.65
  -5  -6   3   91.83    7.24
   5  -6  -3   90.67    4.34
   5  -6  -2  154.40   11.52
   5   6  -2  184.44    8.71
   5   6  -2  171.36    7.03
  -5  -6   2  170.80    7.82
   5  -6  -2  165.35   12.78
   5  -6  -1  259.61   10.38
   5   6  -1  263.96   11.36
  -5  -6   1  267.60   10.73
  -5   6   1  265.80   11.57
  -5  -6   1  262.93   11.84
   5  -6  -1  283.87   12.42
   5  -6   0  131.35    5.59
   5   6   0   89.34    5.41
  -5   6   0   95.87   10.57
  -5  -6   0  134.64    5.82
  -5  -6   0  124.31   11.73
   5  -6   0  150.53    8.02
   5  -6   1   31.10    3.42
   5   6   1   34.85    4.70
  -5   6  -1   44.29    6.05
  -5  -6  -1   30.58    5.04
  -5  -6  -1   31.11    6.30
   5  -6   1   41.20    5.16
   5   6   2  303.78   14.90
  -5   6  -2  298.27   16.33
  -5  -6  -2  290.59   13.51
  -5  -6  -2  283.40   17.24
   5  -6   2  327.21   16.34
   5   6   3   41.27    6.93
  -5   6  -3   24.29    5.18
  -5  -6  -3   31.71    4.70
   5  -6   3   29.81    5.15
   5   6   4   55.87    5.54
  -5   6  -4   65.56    8.62
  -5  -6  -4   68.95    6.53
   5  -6   4   81.27    7.58
  -5  -7   8   24.62    5.66
  -5   7   8   10.00    2.60
   5  -7  -8   18.77    4.81
  -5  -7   7    2.16    1.62
  -5   7   7    1.04    1.34
   5  -7  -7    5.18    2.84
  -5  -7   6   79.17    9.87
  -5   7   6   64.83   11.04
   5  -7  -6   79.03    5.61
  -5  -7   5  170.27    6.87
  -5   7   5  154.74    6.09
   5  -7  -5  160.61    7.09
  -5  -7   5  155.57    5.59
  -5  -7   4  200.92    9.20
  -5   7   4  217.81    9.15
   5  -7  -4  215.31   10.39
  -5  -7   4  188.20    8.73
   5  -7  -4  202.06    8.60
  -5  -7   3  195.72    8.72
   5  -7  -3  178.13    7.22
  -5  -7   3  175.77    8.27
   5  -7  -3  199.87    8.58
   5   7  -2   67.01    4.54
   5   7  -2   67.83    2.99
  -5  -7   2   96.20    4.98
   5  -7  -2  111.17    5.74
   5   7  -1   95.14    5.12
  -5   7   1   98.32   11.58
  -5  -7   1   80.54    9.55
   5  -7  -1   87.70    5.21
   5   7   0  381.97   16.58
  -5   7   0  391.13   16.78
  -5  -7   0  338.09   14.09
  -5  -7   0  361.44   15.67
   5  -7   0  383.36   17.06
   5   7   1   75.30    8.36
  -5   7  -1   88.52   11.48
  -5  -7  -1   63.70    8.22
  -5  -7  -1   66.74   10.82
   5  -7   1   64.80    7.53
   5   7   2   39.95    6.52
  -5   7  -2   43.01    8.18
  -5  -7  -2   47.67    9.12
  -5  -7  -2   62.83   13.27
   5  -7   2   63.72    9.75
   5   7   3   42.92    6.50
  -5   7  -3   38.05    7.66
  -5  -7  -3   43.79    6.43
   5  -7   3   57.11    5.47
   5   7   4  125.98    9.14
  -5   7  -4   98.97   14.74
  -5  -7  -4  103.70    6.82
  -5  -7  -4  108.75    8.81
   5  -7   4  125.10    9.06
  -5  -8   8   17.70    3.80
  -5   8   8   27.84    5.44
   5  -8  -8   17.20    4.17
  -5  -8   7   74.27    9.67
  -5   8   7   88.22    8.30
   5  -8  -7   81.81    9.17
  -5  -8   6   28.90    5.91
  -5   8   6   19.72    3.19
   5  -8  -6   19.46    3.47
  -5  -8   5   16.75    3.05
  -5   8   5   16.28    3.09
   5  -8  -5   17.34    3.43
  -5  -8   5   14.53    3.05
  -5  -8   4    3.85    1.47
  -5   8   4    2.56    0.54
   5  -8  -4    6.84    2.70
  -5  -8   4    9.85    1.45
   5  -8  -4    8.61    1.59
  -5  -8   3  356.50   15.47
  -5  -8   3  342.75   14.54
   5  -8  -3  358.51   15.17
   5   8  -2  425.97   17.81
  -5  -8   2  369.63   15.61
   5  -8  -2  358.06   14.81
   5   8  -1  249.19   11.20
  -5   8   1  258.79   13.25
  -5  -8   1  255.62   12.32
   5  -8  -1  242.26   11.00
   5   8   0   15.30    2.62
  -5   8   0   20.05    3.89
  -5  -8   0   23.59    3.63
  -5  -8   0   25.01    3.24
   5  -8   0   26.35    3.94
   5   8   1   71.61    8.26
  -5   8  -1   81.47   13.69
  -5  -8  -1   66.85    9.39
  -5  -8  -1   83.75   10.64
   5  -8   1   84.62    5.80
   5   8   2  149.93    9.47
  -5   8  -2  152.19   14.43
  -5  -8  -2  131.64    8.03
  -5  -8  -2  127.54   13.33
   5  -8   2  136.71    8.52
   5   8   3    5.49    2.54
  -5   8  -3    4.09    2.03
  -5  -8  -3    4.40    1.42
   5  -8   3    5.33    3.05
   5   8   4    8.87    4.03
  -5   8  -4    4.80    1.83
  -5  -8  -4   11.21    2.75
  -5  -8  -4   14.88    4.99
   5  -8   4   10.95    5.65
  -5  -9   8   -3.50    2.09
   5  -9  -8    5.18    4.90
  -5  -9   7   14.93    3.70
   5  -9  -7   13.96    3.81
  -5  -9   6   25.67    4.42
   5  -9  -6   29.86    3.80
  -5  -9   5  137.65   12.63
   5  -9  -5  167.29    9.01
  -5  -9   5  137.84    9.70
  -5  -9   4   50.40    6.76
   5  -9  -4   58.44    7.18
  -5  -9   4   53.08    8.72
   5  -9  -4   48.52    5.11
  -5  -9   3   34.47    3.68
  -5  -9   3   28.11    4.81
   5  -9  -3   29.54    2.42
   5   9  -2   16.91    2.68
  -5  -9   2   40.30    5.49
   5  -9  -2   41.07    3.19
   5   9  -1  263.80   11.79
  -5   9   1  273.98   12.18
  -5  -9   1  307.66   13.78
   5  -9  -1  299.71   13.28
   5   9   0  192.02    7.69
  -5   9   0  200.64   16.00
  -5  -9   0  149.75    6.39
   5  -9   0  182.01    8.24
   5   9   1   46.23    6.61
  -5   9  -1   35.49    6.65
  -5  -9  -1   31.33    7.58
   5  -9   1   58.38    7.96
   5   9   2    6.19    2.41
  -5   9  -2   -2.30    1.92
  -5  -9  -2    6.90    2.94
   5  -9   2    7.46    2.78
   5   9   3   31.47    6.32
  -5   9  -3   16.34    4.19
   5  -9   3    8.95    3.68
   5   9   4  145.24   15.54
  -5  -9  -4  128.69   17.63
   5  -9   4  147.16   16.10
  -5 -10   8   11.25    3.32
   5 -10  -8   13.25    4.19
  -5 -10   7  130.56   18.02
   5 -10  -7  169.88   12.27
  -5 -10   6    8.64    2.23
   5 -10  -6    5.98    2.76
  -5 -10   5   56.24    9.98
   5 -10  -5   59.04    9.28
  -5 -10   5   53.33    8.69
  -5 -10   4   12.16    2.71
   5 -10  -4   11.72    3.36
  -5 -10   4    8.57    1.48
   5 -10  -4   11.18    1.92
  -5 -10   3  261.59   10.10
  -5 -10   3  266.77    9.56
   5 -10  -3  251.03    8.87
   5  10  -2   79.08    8.64
  -5 -10   2   81.28   12.33
   5 -10  -2   82.87    8.65
   5  10  -1   43.97    5.33
  -5  10   1   49.17    5.61
  -5 -10   1   38.52    5.89
   5 -10  -1   38.20    4.59
   5  10   0    7.74    2.63
  -5  10   0   13.79    2.19
  -5 -10   0   10.49    2.56
   5 -10   0   11.75    3.11
   5  10   1  226.92   12.82
  -5  10  -1  244.41   13.93
  -5 -10  -1  247.21   13.87
   5 -10   1  250.47   14.20
   5  10   2   74.27    6.41
  -5  10  -2   70.93   13.11
  -5 -10  -2   79.57   14.20
   5 -10   2  110.07    8.35
   5  10   3   35.78    4.61
  -5  10  -3   25.91    8.91
   5 -10   3   31.58    7.25
   5  10   4    4.10    3.67
  -5  10  -4    5.65    2.01
  -5 -10  -4    4.49    3.97
   5 -10   4   10.04    5.15
  -5 -11   7   56.87    9.52
   5 -11  -7   67.41    6.69
  -5 -11   6   57.28   11.73
   5 -11  -6   53.74    9.27
  -5 -11   5   50.40    7.27
   5 -11  -5   44.36    4.39
  -5 -11   5   30.80    5.88
  -5 -11   4   34.90    5.91
   5 -11  -4   39.02    5.28
  -5 -11   4   32.75    6.16
   5 -11  -4   26.99    3.43
  -5 -11   3   57.87    6.85
  -5 -11   3   47.53    8.92
   5 -11  -3   58.25    6.73
   5  11  -2   31.73    4.45
  -5 -11   2   22.26    3.60
   5 -11  -2   20.85    3.15
   5  11  -1  192.10    9.90
  -5  11   1  178.21    9.07
  -5 -11   1  171.31   10.75
   5 -11  -1  182.65    9.33
   5  11   0   73.93    9.02
  -5  11   0   86.37    7.13
  -5 -11   0   78.33   14.54
   5 -11   0   80.71    5.31
   5  11   1   15.14    2.77
  -5  11  -1   10.72    2.53
  -5 -11  -1   13.85    2.64
   5 -11   1    6.10    2.77
   5  11   2   38.04    7.38
  -5  11  -2   26.34    6.16
  -5 -11  -2   15.70    4.20
   5 -11   2   20.18    5.00
   5  11   3   43.70    5.08
  -5  11  -3   39.83    8.70
  -5 -11  -3   32.50    5.50
   5 -11   3   38.35    4.68
  -5 -12   7   73.99   14.62
   5 -12  -7  110.40    9.53
  -5 -12   6   17.06    4.78
   5 -12  -6   20.42    4.56
  -5 -12   5   31.44    7.31
   5 -12  -5   32.20    5.23
  -5 -12   5   38.42    5.50
  -5 -12   4    9.40    2.43
   5 -12  -4    8.44    2.74
  -5 -12   4    4.94    1.13
   5 -12  -4    7.94    1.88
  -5 -12   3   91.10    5.44
  -5 -12   3   86.74    8.56
   5 -12  -3   83.68    4.90
   5  12  -2   22.36    4.33
  -5 -12   2   37.52    7.78
   5 -12  -2   33.64    4.42
   5  12  -1  112.46    6.52
  -5  12   1  114.64    6.68
  -5 -12   1  114.74   10.54
   5 -12  -1  125.98    6.94
   5  12   0    5.71    2.70
  -5  12   0   13.14    2.99
  -5 -12   0    7.59    2.93
   5 -12   0    6.12    2.47
   5  12   1   55.28    5.42
  -5 -12  -1   76.42   12.64
   5 -12   1   78.93    6.94
   5  12   2   94.84    9.40
  -5 -12  -2  100.41   13.03
   5 -12   2  124.25   12.52
   5  12   3   83.47    7.72
  -5  12  -3   63.77   10.73
  -5 -12  -3   60.64    9.91
   5 -12   3   74.52    8.51
  -5 -13   7   13.53    4.53
   5 -13  -7   17.58    5.48
   5 -13  -6   17.96    5.20
   5 -13  -5   66.82    5.66
  -5 -13   5   65.33    5.21
  -5 -13   4    7.90    2.42
   5 -13  -4   11.14    3.47
  -5 -13   4    6.77    1.72
   5 -13  -4    8.25    1.30
  -5 -13   3   29.60    5.37
   5 -13  -3   25.67    4.33
   5  13  -2  128.63    8.38
  -5 -13   2   91.17   12.40
   5 -13  -2   94.44    6.12
   5  13  -1  161.36    9.57
  -5 -13   1  160.70   12.78
   5 -13  -1  190.12   11.02
   5  13   0   84.23    7.07
  -5  13   0   72.84   10.26
  -5 -13   0  106.63   11.21
   5 -13   0  102.13    8.24
   5  13   1   82.49    7.31
  -5  13  -1   57.96   12.43
  -5 -13  -1   60.49   10.67
   5 -13   1   77.00    6.44
   5  13   2   67.43    6.31
  -5  13  -2   57.26    8.26
  -5 -13  -2   50.90    8.43
   5 -13   2   55.05    5.37
   5  13   3  108.98   11.90
  -5  13  -3   76.55   15.69
  -5 -13  -3   84.73   15.48
   5 -13   3  113.20   12.43
  -5 -14   6   17.31    4.52
   5 -14  -6    9.53    3.62
  -5 -14   5   28.51    5.71
   5 -14  -5   21.83    4.95
  -5 -14   5   16.19    3.32
  -5 -14   4   26.42    5.52
   5 -14  -4   27.95    5.12
  -5 -14   4   18.67    3.28
   5 -14  -4   20.38    3.17
   5  14  -3   27.74    4.37
   5 -14  -3   25.09    4.04
  -5 -14   3   27.45    3.94
   5 -14  -3   30.47    3.16
   5  14  -2    7.14    3.60
  -5 -14   2    3.14    1.79
   5 -14  -2    7.52    3.25
   5  14  -1   95.97    7.25
  -5 -14   1   97.61   12.67
   5 -14  -1   97.55    7.52
   5  14   0  119.31    8.56
  -5  14   0  117.69   12.56
  -5 -14   0   90.53   11.96
   5 -14   0   99.80    7.56
   5  14   1   62.15    5.35
  -5  14  -1   63.60    8.10
  -5 -14  -1   51.59    9.27
   5 -14   1   65.31    6.44
   5  14   2    5.70    2.79
  -5  14  -2    7.88    2.43
  -5 -14  -2    4.28    2.73
   5 -14   2    3.89    2.92
  -5 -15   6   44.91    7.85
   5 -15  -6   47.44    6.15
  -5 -15   5   17.80    4.18
   5 -15  -5   12.72    3.40
  -5 -15   5   12.29    2.99
  -5 -15   4    8.25    3.10
   5 -15  -4   -0.07    2.53
  -5 -15   4    2.21    1.68
   5 -15  -3   44.47    6.75
  -5 -15   3   49.68    7.20
   5 -15  -3   43.80    6.39
  -5 -15   2   97.33   13.38
   5 -15  -2  123.69    8.95
   5  15  -1   13.74    3.38
  -5 -15   1   24.31    4.58
   5 -15  -1   18.03    4.00
   5  15   0    7.20    3.57
  -5  15   0    8.31    3.23
  -5 -15   0    2.05    1.54
   5 -15   0    5.48    3.84
   5  15   1   16.96    4.50
  -5  15  -1   23.67    5.84
  -5 -15  -1   17.53    5.58
   5 -15   1   15.18    4.10
   5  15   2   32.74    8.29
  -5  15  -2   18.51    4.94
  -5 -15  -2    5.50    2.40
   5 -15   2   12.24    3.80
  -5 -16   5   51.39    8.88
   5 -16  -5   71.74    7.23
  -5 -16   5   63.90    5.59
  -5 -16   4   44.12    5.28
   5 -16  -4   48.60    5.46
   5  16  -3   37.50    4.71
   5 -16  -3   36.45    4.64
  -5 -16   3   44.44    4.53
   5 -16  -3   39.33    3.51
   5  16  -2   33.48    6.46
  -5 -16   2   15.55    3.68
   5 -16  -2   13.98    3.37
   5  16  -1   92.14    7.11
  -5 -16   1   83.55   11.54
   5 -16  -1  102.16    7.92
   5  16   0   87.54    6.66
  -5  16   0   96.84    6.97
  -5 -16   0   70.90   11.04
   5 -16   0   75.49    5.75
   5  16   1   48.69    4.93
  -5  16  -1   39.44   10.73
  -5 -16  -1   37.00    9.97
   5 -16   1   52.00    5.89
  -5 -17   5    8.93    3.06
   5 -17  -5   19.94    5.57
  -5 -17   4   19.24    4.54
   5 -17  -4   26.40    6.06
  -5 -17   4   13.18    3.05
   5  17  -3   70.82    7.26
   5 -17  -3   73.33    6.15
  -5 -17   3   65.57    5.44
   5 -17  -3   59.84    4.82
   5  17  -2  120.32    8.32
  -5 -17   2   99.97   16.08
   5 -17  -2  121.47    7.91
   5  17  -1   39.55    4.60
  -5 -17   1   23.12    5.78
   5 -17  -1   30.01    6.03
   5  17   0   23.62    5.26
  -5  17   0   32.44    6.41
  -5 -17   0   13.78    3.78
   5 -17   0   15.55    4.40
   5  17   1   71.92    9.20
  -5  17  -1   57.15   11.18
  -5 -17  -1   56.57   11.59
   5 -17   1   82.34    9.82
   5 -18  -4   97.12   10.74
  -5 -18   4   99.58   10.61
   5  18  -3   19.11    4.51
   5 -18  -3   17.71    4.30
  -5 -18   3   23.54    4.95
   5 -18  -3   27.44    5.51
   5  18  -2    4.88    2.79
  -5 -18   2    5.02    1.59
   5 -18  -2    0.04    2.19
   5  18  -1   37.23    7.33
  -5 -18   1   33.38    9.08
   5 -18  -1   50.62    5.15
   5  18   0   98.49   10.80
  -5 -18   0   73.48   12.95
   5 -18   0  109.01   11.69
   5  19  -2   24.82    5.37
  -5 -19   2   30.61    5.68
   5 -19  -2   27.21    5.35
  -6   0   8   10.21    2.93
   6   0  -8    5.28    2.65
  -6   0   7   17.69    5.36
   6   0  -7   23.49    5.77
  -6   0   6   15.15    2.81
   6   0  -6   19.20    3.31
  -6   0   5   16.31    4.04
   6   0  -5   23.85    3.96
  -6   0   4   23.28    4.21
   6   0  -4   36.35    4.63
   6   0  -3  109.66   11.84
   6   0  -3  111.20   12.23
   6   0  -2   18.81    2.95
   6   0  -1   82.68    5.02
  -6   0   1   76.04    9.66
   6   0   0    2.02    1.63
  -6   0   0    1.75    1.90
   6   0   1  135.62    9.82
  -6   0  -1  134.91    9.58
   6   0   2    6.25    2.19
  -6   0  -2    2.41    1.51
   6   0   3    9.79    3.39
  -6   0  -3    5.26    1.77
  -6   1   8    3.33    1.58
  -6  -1   8    5.37    2.46
   6   1  -8    5.51    2.64
   6  -1  -8    0.88    2.12
  -6   1   7    6.72    2.09
  -6  -1   7    1.64    1.61
   6   1  -7    5.67    2.61
   6  -1  -7    8.31    3.14
  -6   1   6   12.79    2.41
  -6  -1   6   10.00    2.16
   6   1  -6   10.52    2.51
   6  -1  -6    9.11    2.28
  -6   1   5  102.72   11.97
  -6  -1   5  114.23    6.88
   6  -1  -5  123.50    7.35
   6   1  -5  122.09    7.32
  -6   1   4    6.77    1.60
  -6  -1   4    4.34    1.12
   6  -1  -4   11.48    3.22
   6   1  -4    8.49    2.51
   6   1  -3   85.07    8.75
   6  -1  -3   77.73    7.88
   6  -1  -3   81.37    8.33
   6   1  -3   74.93    7.64
   6  -1  -3   84.58    8.96
   6  -1  -2   40.83    4.53
   6   1  -2   40.02    4.71
   6  -1  -1   71.32    8.01
   6   1  -1   93.47    5.40
  -6   1   1  108.09    5.76
  -6  -1   1   81.21    8.84
   6  -1   0   45.22    6.92
   6   1   0   41.85    6.36
  -6  -1   0   35.09    7.41
  -6   1   0   39.90    6.93
   6  -1   1   58.65    5.20
   6   1   1   50.80    4.35
  -6   1  -1   37.43    5.91
  -6  -1  -1   55.88    6.61
   6  -1   2  100.46    9.77
   6   1   2   88.85    8.93
  -6   1  -2   79.58   13.66
  -6  -1  -2   91.10   12.64
   6   1   3   32.71    6.62
  -6   1  -3   18.71    4.06
  -6  -1  -3   13.06    3.26
  -6  -2   8    3.39    1.74
  -6   2   8    3.96    1.28
   6  -2  -8    4.58    3.71
  -6  -2   7    4.96    1.97
  -6   2   7    1.30    1.42
   6   2  -7    3.70    1.84
   6  -2  -7    1.34    2.25
  -6   2   6   17.82    4.25
  -6  -2   6   18.20    3.09
   6   2  -6   16.55    2.96
   6  -2  -6   17.12    3.65
  -6   2   5   24.13    5.44
   6   2  -5   35.53    5.50
   6  -2  -5   29.07    4.63
  -6  -2   4   46.77    8.48
  -6   2   4   45.12    8.71
   6   2  -4   50.66    5.84
   6  -2  -4   56.40    6.71
   6  -2  -3   79.21    8.16
   6   2  -3   76.79    8.00
   6   2  -3   64.69    6.67
   6  -2  -3   79.13    8.14
   6  -2  -2    1.59    1.27
   6   2  -2    3.13    2.33
   6  -2  -2    6.28    3.32
   6  -2  -1   44.04    5.07
   6   2  -1   44.22    5.12
  -6   2   1   46.31    9.40
  -6  -2   1   44.95    6.62
   6  -2  -1   56.47    6.91
   6  -2   0   82.78    5.12
   6   2   0   81.57    5.39
  -6  -2   0   77.48    9.64
  -6   2   0   75.72   10.24
   6  -2   1    6.86    1.58
   6   2   1   13.78    3.03
  -6   2  -1   14.38    1.90
  -6  -2  -1   13.55    2.75
   6   2   2   59.17    6.08
  -6   2  -2   44.80    9.82
  -6  -2  -2   42.42   11.50
   6   2   3   65.82    5.62
  -6   2  -3   51.04    8.98
  -6  -2  -3   49.03   10.93
   6  -2   3   73.03    6.74
  -6  -3   8    2.23    1.53
  -6   3   8   -0.06    1.70
   6  -3  -8    0.23    2.33
  -6  -3   7   12.44    3.52
  -6   3   7   16.12    5.09
   6  -3  -7   11.29    3.34
  -6   3   6    2.06    0.97
  -6  -3   6    4.16    1.63
   6  -3  -6    2.46    2.24
  -6  -3   5   95.33   11.27
  -6   3   5   84.60    9.43
   6   3  -5  111.56    6.56
   6  -3  -5  135.63    8.40
  -6   3   4   14.19    2.21
  -6  -3   4   13.48    2.85
   6   3  -4   10.56    1.97
   6  -3  -4   12.73    2.06
   6  -3  -3    3.84    1.59
   6   3  -3    3.12    1.89
   6   3  -3    0.87    1.33
   6  -3  -3    1.92    1.56
   6  -3  -2    4.29    1.65
   6   3  -2    0.87    1.85
  -6  -3   2    2.72    1.92
   6  -3  -2    2.78    2.00
   6  -3  -1   82.28    4.53
   6   3  -1   72.50    8.08
  -6   3   1   65.57    9.33
  -6  -3   1   80.24    4.28
  -6  -3   1   86.11    5.30
   6  -3  -1   80.07    4.80
   6   3   0    0.06    1.85
  -6  -3   0    3.67    1.38
  -6   3   0    2.46    1.36
  -6  -3   0    7.38    2.71
   6  -3   0    8.41    3.78
   6   3   1   58.61    4.88
  -6   3  -1   64.45    9.55
  -6  -3  -1   44.08    8.02
   6  -3   1   48.63    7.78
   6   3   2   16.81    4.35
  -6   3  -2   30.51    7.77
  -6  -3  -2   24.31    6.17
   6  -3   2   24.02    6.01
   6   3   3    7.84    3.29
  -6   3  -3    9.49    2.51
  -6  -3  -3   10.53    2.92
   6  -3   3   14.33    4.09
  -6  -4   8   11.86    3.80
  -6   4   8   13.90    3.22
   6  -4  -8   23.61    6.03
  -6  -4   7   29.62    8.45
  -6   4   7   24.43    6.84
   6  -4  -7   38.65    3.95
  -6  -4   6   50.69   11.02
  -6   4   6   50.13   10.01
   6  -4  -6   68.28    5.72
  -6  -4   5    5.19    1.43
  -6   4   5    3.57    0.94
   6  -4  -5    5.49    3.10
  -6   4   4   33.59    6.07
  -6  -4   4   50.72    8.86
   6  -4  -4   52.79    6.37
  -6  -4   4   47.62    5.29
   6  -4  -3   50.09    5.67
   6   4  -3   61.48    7.27
   6   4  -3   55.68    6.29
  -6  -4   3   50.61    5.71
   6  -4  -3   61.29    6.97
   6   4  -2   37.63    4.94
  -6  -4   2   33.89    4.23
   6  -4  -2   36.87    4.79
   6   4  -1   26.40    3.87
  -6   4   1   25.10    5.87
  -6  -4   1   37.22    4.39
  -6  -4   1   42.38    5.18
   6  -4  -1   45.34    5.86
   6   4   0   74.72    5.24
  -6  -4   0   54.87    9.96
  -6   4   0   66.82   12.46
  -6  -4   0   83.10    5.52
   6  -4   0   81.97    5.88
   6   4   1   91.66    7.00
  -6   4  -1   86.27   15.37
  -6  -4  -1  120.68    8.19
  -6  -4  -1  119.66    9.05
   6  -4   1  122.89    9.67
   6   4   2    6.35    3.47
  -6   4  -2   10.08    3.52
  -6  -4  -2   19.91    5.27
   6  -4   2   30.48    7.66
   6   4   3   69.26    8.14
  -6   4  -3   46.57    8.60
  -6  -4  -3   33.42   10.10
   6  -4   3   49.39    6.34
  -6  -5   8   21.63    6.65
   6  -5  -8   20.52    5.60
  -6  -5   7   14.31    4.01
   6  -5  -7   15.41    4.02
  -6  -5   6   11.47    2.80
   6  -5  -6    9.54    2.14
  -6  -5   5   29.33    5.47
   6  -5  -5   41.23    4.50
  -6  -5   4   28.05    6.27
   6  -5  -4   39.60    6.58
  -6  -5   4   29.35    4.45
   6   5  -3   13.12    3.13
  -6  -5   3   15.50    3.20
   6  -5  -3   12.99    2.72
   6   5  -2   19.39    3.25
  -6  -5   2   17.32    3.13
   6  -5  -2   22.36    3.41
   6   5  -1   36.89    4.77
  -6   5   1   35.96    6.47
  -6  -5   1   36.22    5.00
   6  -5  -1   45.96    5.92
   6   5   0   20.01    2.60
  -6  -5   0   14.66    2.68
  -6   5   0   24.33    4.16
  -6  -5   0   15.72    2.93
   6  -5   0   25.88    3.93
   6   5   1  123.72    9.01
  -6   5  -1  113.00   14.84
  -6  -5  -1  109.68    7.32
  -6  -5  -1  119.41    8.70
   6  -5   1  126.73    9.64
   6   5   2   50.99    4.93
  -6   5  -2   34.30    5.84
  -6  -5  -2   38.68    7.24
  -6  -5  -2   47.89    4.98
   6  -5   2   42.07    4.65
   6   5   3   33.62    7.72
  -6   5  -3   30.36    9.92
   6  -5   3   34.73    8.26
  -6  -6   7   37.19    5.52
   6  -6  -7   41.71    4.06
  -6  -6   6   37.30    8.30
   6  -6  -6   42.56   10.10
  -6  -6   5    7.35    2.04
   6  -6  -5    9.14    2.97
  -6  -6   4   16.54    3.46
   6  -6  -4   11.10    2.60
  -6  -6   4   14.92    3.04
   6   6  -3   26.22    3.84
  -6  -6   3   40.80    6.52
   6  -6  -3   42.89    5.40
   6   6  -2   15.75    2.71
  -6  -6   2   19.39    3.44
   6  -6  -2   24.20    3.78
   6   6  -1   94.39    6.27
  -6   6   1   90.08   10.34
  -6  -6   1   80.26    9.08
   6  -6  -1   84.19    5.87
   6   6   0    6.26    2.02
  -6   6   0   10.43    1.74
  -6  -6   0    9.67    2.29
   6  -6   0    3.39    2.66
   6   6   1   22.18    4.02
  -6   6  -1   21.92    4.56
  -6  -6  -1   22.78    4.49
   6  -6   1   22.38    4.31
   6   6   2   12.30    3.77
  -6   6  -2    9.55    2.26
  -6  -6  -2   15.42    4.05
   6  -6   2   10.16    3.32
   6   6   3   60.38    7.57
  -6   6  -3   39.08    8.02
  -6  -6  -3   52.87    6.98
   6  -6   3   43.47    6.65
  -6  -7   7    4.85    1.52
   6  -7  -7    4.20    2.75
  -6  -7   6    4.65    1.56
   6  -7  -6    0.51    2.54
  -6  -7   5   20.50    3.76
   6  -7  -5   24.87    4.75
  -6  -7   4  101.79   13.27
   6  -7  -4  112.93    8.87
  -6  -7   4  104.77    8.57
   6   7  -3   80.42    5.73
  -6  -7   3   64.12   11.87
   6  -7  -3   75.34    4.82
   6   7  -2   40.17    6.62
  -6  -7   2   33.09    6.33
   6  -7  -2   40.08    6.23
   6   7  -1   19.91    4.42
  -6   7   1   15.89    3.58
  -6  -7   1   14.40    3.65
   6  -7  -1   11.40    2.78
   6   7   0   23.50    4.34
  -6   7   0   23.77    4.36
  -6  -7   0   27.68    5.28
   6  -7   0   19.50    4.01
   6   7   1   68.57    7.39
  -6   7  -1   70.97   10.01
  -6  -7  -1   47.30    6.58
   6  -7   1   66.74    7.56
   6   7   2   13.10    4.15
  -6   7  -2    2.70    1.53
  -6  -7  -2    9.31    3.72
   6  -7   2   16.39    5.13
  -6  -8   7   15.09    3.74
   6  -8  -7   10.94    3.39
  -6  -8   6   19.12    5.35
   6  -8  -6   13.33    4.36
  -6  -8   5    0.70    1.62
   6  -8  -5    5.12    2.47
  -6  -8   4   41.73    4.26
   6  -8  -4   47.78    4.62
  -6  -8   4   31.57    6.34
   6   8  -3   46.22    5.13
  -6  -8   3   32.01    5.98
   6  -8  -3   29.99    3.12
   6   8  -2   52.98    5.54
  -6  -8   2   39.01    7.01
   6  -8  -2   39.82    3.70
   6   8  -1  100.56    7.89
  -6   8   1   79.45    6.28
  -6  -8   1   72.81   11.25
   6  -8  -1   79.22    6.67
   6   8   0   20.72    4.00
  -6   8   0   16.11    4.02
  -6  -8   0   18.25    4.22
   6  -8   0   10.84    3.11
   6   8   1    6.79    2.58
  -6   8  -1    5.49    1.75
  -6  -8  -1    7.04    2.68
   6  -8   1   10.78    3.81
   6   8   2   28.04    5.63
  -6   8  -2   23.19    5.79
  -6  -8  -2   24.53    5.49
   6  -8   2   34.71    7.85
  -6  -9   7   11.76    3.37
   6  -9  -7    9.39    3.32
  -6  -9   6   23.14    5.77
   6  -9  -6   18.56    4.65
  -6  -9   5   10.47    2.63
   6  -9  -5    8.96    2.85
  -6  -9   4   50.73    8.31
   6  -9  -4   55.76    5.44
  -6  -9   4   43.81    9.84
   6   9  -3   32.00    3.81
  -6  -9   3   33.62    6.11
   6  -9  -3   34.23    3.48
   6   9  -2   38.74    4.08
  -6  -9   2   35.14    5.88
   6  -9  -2   29.24    3.38
   6   9  -1   27.35    4.68
  -6   9   1   45.54    7.05
  -6  -9   1   41.07    7.04
   6  -9  -1   44.87    7.36
   6   9   0  146.84   13.75
  -6   9   0  102.79   13.25
  -6  -9   0  123.73   19.10
   6  -9   0  163.29   15.27
   6   9   1   81.88    6.96
  -6   9  -1   79.81   13.23
  -6  -9  -1   86.39   13.57
   6  -9   1   97.41    7.71
   6   9   2   18.03    4.19
  -6   9  -2   23.73    4.92
  -6  -9  -2   18.74    5.83
   6  -9   2   33.84    7.78
  -6 -10   7   19.31    4.57
   6 -10  -7   23.49    4.95
  -6 -10   6   15.51    4.15
   6 -10  -6   15.35    4.66
  -6 -10   5   28.04    6.87
   6 -10  -5   35.05    4.00
  -6 -10   4    2.76    2.10
   6 -10  -4    4.47    2.43
  -6 -10   4    3.56    1.41
   6  10  -3    6.76    2.43
  -6 -10   3    8.49    2.00
   6  10  -2  150.59   10.69
  -6 -10   2  147.62   10.16
   6 -10  -2  132.97    9.38
   6  10  -1   58.47    5.13
  -6  10   1   72.92    5.79
  -6 -10   1   53.31   10.97
   6 -10  -1   75.82    6.29
   6  10   0   22.62    4.46
  -6  10   0   14.48    4.09
  -6 -10   0   28.76    6.99
   6 -10   0   26.55    5.13
   6  10   1    7.77    3.98
  -6  10  -1   13.53    3.47
  -6 -10  -1    7.34    2.03
   6 -10   1   16.83    5.32
   6  10   2   42.18    5.59
  -6  10  -2   28.86    8.99
  -6 -10  -2   46.42    7.63
   6 -10   2   45.64    6.30
  -6 -11   6   21.10    4.86
   6 -11  -6   31.38    6.77
  -6 -11   5    2.18    1.63
   6 -11  -5    7.16    3.06
  -6 -11   4   34.87    6.70
   6 -11  -4   20.94    4.45
  -6 -11   4   14.36    3.79
   6  11  -3   25.91    4.98
  -6 -11   3   18.59    3.95
   6 -11  -3   25.18    4.46
   6  11  -2   26.45    5.55
  -6 -11   2    7.16    2.64
   6 -11  -2   11.74    2.91
   6  11  -1   10.07    2.81
  -6 -11   1   19.60    4.79
   6 -11  -1   12.47    3.29
   6  11   0  113.58    8.73
  -6  11   0   89.84   15.54
  -6 -11   0  101.19   18.28
   6 -11   0  124.38    9.07
   6  11   1   10.60    4.02
  -6  11  -1   11.46    4.64
  -6 -11  -1   19.93    5.75
   6 -11   1   20.93    4.97
  -6 -12   6   23.29    8.44
   6 -12  -6   48.44    7.01
  -6 -12   5   28.75    8.81
   6 -12  -5   37.76    4.16
  -6 -12   4   18.83    5.12
   6 -12  -4   20.98    5.63
  -6 -12   4    9.63    3.03
  -6 -12   3   27.85    8.20
   6 -12  -3   38.06    3.71
   6  12  -2   49.85    5.79
  -6 -12   2   35.00    8.09
   6 -12  -2   41.14    4.37
   6  12  -1    9.26    4.27
  -6 -12   1   18.89    6.26
   6 -12  -1   20.33    5.46
   6  12   0    7.30    4.78
  -6  12   0    9.05    3.18
  -6 -12   0    9.07    2.89
   6 -12   0   14.65    4.77
   6  12   1   18.03    5.17
  -6  12  -1   16.41    4.55
  -6 -12  -1    9.54    3.37
   6 -12   1    6.99    3.30
  -6 -13   5   15.91    3.69
   6 -13  -5   17.87    4.93
   6 -13  -4   12.15    4.28
  -6 -13   4   14.15    4.22
   6  13  -3    4.60    2.56
  -6 -13   3    3.15    1.59
   6 -13  -3    2.84    1.88
   6  13  -2   26.82    6.05
  -6 -13   2   22.03    5.54
   6 -13  -2   19.92    4.43
   6  13  -1   27.24    6.07
  -6 -13   1   14.48    4.00
   6  13   0    7.50    3.08
  -6  13   0    7.77    2.81
  -6 -13   0   15.06    3.60
   6 -13   0   17.75    4.39
  -6 -14   5    5.49    2.68
   6 -14  -5    8.50    4.34
   6  14  -4   10.57    4.55
   6 -14  -4   12.03    3.56
  -6 -14   4    5.08    1.33
   6  14  -3   20.43    4.78
  -6 -14   3    9.92    4.03
   6  14  -2   41.08    9.32
  -6 -14   2   40.57   11.77
   6 -14  -2   54.19    5.09
   6  14  -1    4.98    2.63
  -6 -14   1    5.07    2.00
   6 -14  -1    5.87    3.51
   6  14   0   14.30    3.58
  -6  14   0   22.91    5.73
   6 -14   0   18.14    4.69
   6  15  -4   15.00    4.70
   6 -15  -4   22.90    6.30
  -6 -15   4   15.18    3.75
   6  15  -3   32.32    7.30
   6 -15  -3   21.04    5.48
  -6 -15   3   14.24    4.49
   6  15  -2   58.19    7.69
  -6 -15   2   46.19    9.87
   6 -15  -2   62.14    7.15
   6  15  -1   63.81    7.94
  -6 -15   1   50.24    9.47
   6 -15  -1   57.94    6.72
  -7   0   6   16.18    3.53
  -7   0   5    6.34    2.16
   7   0  -4   21.77    3.98
   7   0  -4   16.30    3.17
   7   0  -3   79.48    7.53
  -7   0   1    1.89    1.58
  -7   0   0    0.00    1.56
  -7   0  -1  109.17   11.37
  -7  -1   6    1.70    1.30
   7  -1  -6    4.59    1.90
  -7  -1   5   11.37    3.97
   7  -1  -5   15.69    3.91
   7   1  -4   95.69    9.11
   7  -1  -4  116.35   11.07
   7   1  -3    0.03    1.52
   7  -1  -3    3.39    2.32
   7   1  -2    6.78    2.07
   7  -1  -2    3.26    2.60
   7   1  -1   15.48    3.80
  -7   1   1   27.29    6.36
   7  -1  -1   30.06    7.25
  -7   1   0   46.15   10.48
  -7  -1   0   46.54   10.54
  -7  -1  -1    1.37    1.38
  -7   1  -1    2.97    1.54
  -7  -2   6   43.42   12.53
   7  -2  -6   68.95    6.12
  -7  -2   5   -0.27    1.58
   7  -2  -5    2.45    1.96
   7   2  -4    4.68    1.89
   7  -2  -4    2.98    1.84
   7   2  -3    5.54    1.80
   7  -2  -3    9.05    2.53
   7   2  -2   40.77    6.82
   7  -2  -2   34.28    5.85
   7   2  -1   -0.27    1.70
  -7   2   1    3.98    1.80
   7  -2  -1    4.23    2.53
   7   2   0    3.55    1.92
  -7   2   0    4.81    1.71
   7  -2   0   12.25    4.36
  -7   2  -1   40.37    7.54
   7  -2   1   50.66    6.78
  -7  -3   6   14.90    3.43
   7  -3  -6   21.85    4.82
  -7  -3   5   29.56    7.32
   7  -3  -5   33.45    3.39
   7   3  -4   28.74    6.58
   7  -3  -4   22.86    5.51
   7   3  -3    0.83    1.70
   7   3  -2    6.49    2.63
   7  -3  -2    4.85    2.75
   7   3  -1   36.29    3.61
  -7   3   1   37.36    3.80
   7  -3  -1   40.24    4.66
   7   3   0    9.97    3.05
  -7   3   0   12.93    3.09
   7  -3   0   16.08    3.97
   7   3   1    5.54    2.45
  -7   3  -1   10.14    2.45
   7  -3   1   15.51    4.44
  -7  -4   6   39.65    8.38
   7  -4  -6   63.52    7.59
  -7  -4   5   10.13    2.80
   7  -4  -5   10.86    3.15
   7   4  -4    2.37    2.14
   7  -4  -4    5.09    3.31
   7   4  -3   10.04    3.41
   7   4  -2   21.02    5.53
   7  -4  -2   18.00    4.57
   7   4  -1    5.19    1.97
  -7   4   1    4.43    1.85
   7  -4  -1    5.80    2.61
   7   4   0   25.31    5.20
  -7   4   0   19.31    4.64
   7  -4   0   13.50    3.76
  -7  -5   6    6.19    2.02
   7  -5  -6    2.97    2.30
  -7  -5   5   29.41    5.69
   7  -5  -5   29.85    5.97
   7   5  -4   40.63    3.94
   7  -5  -4   56.67    5.17
   7   5  -3   20.91    5.14
   7   5  -2   11.73    3.55
  -7  -5   2   10.48    3.09
   7  -5  -2    9.14    3.38
   7   5  -1   13.96    3.70
  -7   5   1    8.01    2.40
  -7  -5   1    7.33    2.76
   7  -5  -1    4.61    2.48
   7   5   0   10.25    3.32
  -7   5   0   10.07    2.81
   7  -5   0    9.07    3.16
  -7  -6   6   19.44    5.20
   7  -6  -6   19.27    5.27
  -7  -6   5   30.66    6.08
   7  -6  -5   16.48    3.95
   7  -6  -4    7.76    2.49
   7   6  -3   11.78    3.08
  -7  -6   3   14.39    3.28
   7   6  -2   12.51    3.40
   7  -6  -2   13.17    3.36
   7   6  -1   28.92    6.28
  -7   6   1   33.98    4.00
  -7  -6   1   28.90    6.42
   7  -6  -1   22.74    5.42
   7   6   0   19.53    4.63
  -7   6   0   22.20    5.40
  -7  -6   0   13.68    3.89
   7  -6   0   21.17    6.26
  -7  -7   5   17.35    4.07
   7  -7  -5   16.31    3.85
   7   7  -4   17.13    4.31
   7  -7  -4   20.40    5.26
   7   7  -3   32.01    4.03
  -7  -7   3   25.88    5.59
   7   7  -2    4.90    3.16
  -7  -7   2    5.94    2.48
   7  -7  -2   11.21    3.67
   7   7  -1   15.80    4.10
  -7  -7   1   26.32    5.38
   7  -7  -1   29.42    5.94
   7   7   0    4.19    2.43
  -7   7   0    5.48    1.77
  -7  -7   0    9.24    3.31
   7  -7   0   13.45    3.93
  -7  -8   5   61.02    6.86
   7  -8  -5   74.18    8.48
   7   8  -4   24.76    5.24
   7  -8  -4   40.26    7.96
   7   8  -3   14.83    3.34
  -7  -8   3   12.57    5.14
   7   8  -2    7.08    2.57
  -7  -8   2    6.10    1.77
   7  -8  -2   13.48    3.68
   7   8  -1   31.48    7.03
  -7  -8   1   40.58    5.42
   7  -8  -1   36.98    4.80
  -7  -9   5   19.97    4.43
   7  -9  -5    7.86    2.93
   7   9  -4    9.74    3.79
   7  -9  -4    5.94    2.46
   7   9  -3    9.81    3.52
  -7  -9   3    8.20    2.36
   7   9  -2   49.03    5.94
  -7  -9   2   44.59    9.09
   7  -9  -2   56.34    6.76
   7   9  -1   31.96    7.12
  -7  -9   1   18.99    6.37
   7  -9  -1   23.89    5.86
   7  10  -4   11.93    4.24
   7 -10  -4   17.04    4.22
   7  10  -3   19.54    4.97
   7  10  -2   14.37    4.38
  -7 -10   2   12.86    3.07
   7 -10  -2    6.75    2.48

_computing_structure_solution     'SHELXT 2014/4 (Sheldrick, 2014)'
;
_shelx_hkl_checksum              96635
_shelx_shelxl_version_number     2014/7
_olex2_submission_special_instructions 'No special instructions were received'
loop_
_space_group_symop_operation_xyz
'x, y, z'
'-x, y+1/2, -z'
loop_
_atom_site_label
_atom_site_type_symbol
_atom_site_fract_x
_atom_site_fract_y
_atom_site_fract_z
_atom_site_U_iso_or_equiv
_atom_site_adp_type
_atom_site_occupancy
_atom_site_site_symmetry_order
_atom_site_calc_flag
_atom_site_refinement_flags_posn
Br1 Br 0.87162(8) 0.55391(2) 0.61572(5) 0.05088(15) Uani 1 1 d .
S1 S 0.32769(13) 0.49520(4) 0.14000(10) 0.02191(17) Uani 1 1 d .
O1 O 0.0881(4) 0.50167(14) 0.1380(3) 0.0299(5) Uani 1 1 d .
O2 O 0.3803(4) 0.45548(13) -0.0006(3) 0.0301(5) Uani 1 1 d .
O3 O 0.5099(5) 0.44040(18) 0.6897(3) 0.0456(7) Uani 1 1 d .
H3 H 0.4334 0.4402 0.7617 0.068 Uiso 1 1 d R
N1 N 0.4649(4) 0.45808(14) 0.3331(3) 0.0227(5) Uani 1 1 d .
H1 H 0.4449 0.4814 0.4230 0.027 Uiso 1 1 d R
C1 C 0.7126(5) 0.43665(17) 0.3779(4) 0.0227(6) Uani 1 1 d .
H1A H 0.7851 0.4639 0.3019 0.027 Uiso 1 1 calc R
C2 C 0.8459(6) 0.45236(19) 0.5823(5) 0.0288(7) Uani 1 1 d .
H2 H 1.0065 0.4344 0.6079 0.035 Uiso 1 1 calc R
C3 C 0.7478(6) 0.4208(2) 0.7244(4) 0.0320(8) Uani 1 1 d .
H3A H 0.7589 0.3704 0.7209 0.038 Uiso 1 1 calc R
H3B H 0.8407 0.4364 0.8463 0.038 Uiso 1 1 calc R
C4 C 0.7345(6) 0.35988(17) 0.3376(4) 0.0236(6) Uani 1 1 d .
C5 C 0.5806(6) 0.31017(19) 0.3652(5) 0.0276(7) Uani 1 1 d .
H5 H 0.4577 0.3238 0.4077 0.033 Uiso 1 1 calc R
C6 C 0.6079(7) 0.24042(19) 0.3301(5) 0.0349(8) Uani 1 1 d .
H6 H 0.5040 0.2075 0.3493 0.042 Uiso 1 1 calc R
C7 C 0.7903(7) 0.2198(2) 0.2664(6) 0.0403(9) Uani 1 1 d .
H7 H 0.8087 0.1731 0.2425 0.048 Uiso 1 1 calc R
C8 C 0.9435(7) 0.2683(2) 0.2387(6) 0.0456(10) Uani 1 1 d .
H8 H 1.0656 0.2545 0.1957 0.055 Uiso 1 1 calc R
C9 C 0.9168(7) 0.3383(2) 0.2750(6) 0.0355(8) Uani 1 1 d .
H9 H 1.0223 0.3710 0.2569 0.043 Uiso 1 1 calc R
C10 C 0.4451(6) 0.57851(17) 0.1396(4) 0.0238(7) Uani 1 1 d .
C11 C 0.6233(6) 0.58976(18) 0.0625(5) 0.0279(7) Uani 1 1 d .
H11 H 0.6731 0.5539 0.0020 0.033 Uiso 1 1 calc R
C12 C 0.7265(7) 0.6553(2) 0.0767(5) 0.0351(8) Uani 1 1 d .
H12 H 0.8471 0.6628 0.0263 0.042 Uiso 1 1 calc R
C13 C 0.6532(7) 0.7099(2) 0.1648(5) 0.0370(8) Uani 1 1 d .
C14 C 0.4732(8) 0.69763(19) 0.2395(5) 0.0385(9) Uani 1 1 d .
H14 H 0.4219 0.7337 0.2983 0.046 Uiso 1 1 calc R
C15 C 0.3684(7) 0.63231(19) 0.2281(5) 0.0306(8) Uani 1 1 d .
H15 H 0.2484 0.6248 0.2790 0.037 Uiso 1 1 calc R
C16 C 0.7645(10) 0.7806(3) 0.1789(7) 0.0595(13) Uani 1 1 d .
H16A H 0.9268 0.7757 0.1853 0.089 Uiso 1 1 calc GR
H16B H 0.7556 0.8036 0.2878 0.089 Uiso 1 1 calc GR
H16C H 0.6824 0.8077 0.0725 0.089 Uiso 1 1 calc GR
loop_
_atom_site_aniso_label
_atom_site_aniso_U_11
_atom_site_aniso_U_22
_atom_site_aniso_U_33
_atom_site_aniso_U_23
_atom_site_aniso_U_13
_atom_site_aniso_U_12
Br1 0.0667(3) 0.0266(2) 0.0437(2) -0.00569(18) -0.00464(18) -0.0115(2)
S1 0.0238(4) 0.0229(4) 0.0181(3) 0.0000(3) 0.0054(3) 0.0012(3)
O1 0.0222(11) 0.0355(13) 0.0305(12) 0.0026(11) 0.0063(9) 0.0023(11)
O2 0.0425(14) 0.0285(12) 0.0208(11) -0.0029(9) 0.0119(10) -0.0001(11)
O3 0.0424(16) 0.075(2) 0.0218(12) 0.0020(12) 0.0135(11) 0.0065(15)
N1 0.0243(13) 0.0250(13) 0.0193(12) -0.0004(10) 0.0075(10) 0.0029(11)
C1 0.0186(15) 0.0259(16) 0.0234(15) 0.0009(12) 0.0066(12) -0.0029(13)
C2 0.0265(17) 0.0230(17) 0.0306(17) -0.0041(13) 0.0000(13) -0.0003(13)
C3 0.038(2) 0.0352(19) 0.0199(15) -0.0004(13) 0.0040(14) -0.0026(15)
C4 0.0227(15) 0.0249(16) 0.0210(14) 0.0001(12) 0.0038(12) 0.0007(13)
C5 0.0292(18) 0.0267(17) 0.0293(16) 0.0010(13) 0.0128(14) -0.0001(14)
C6 0.042(2) 0.0244(18) 0.0356(18) -0.0005(14) 0.0076(16) -0.0050(15)
C7 0.043(2) 0.0256(19) 0.044(2) -0.0072(16) 0.0024(18) 0.0072(17)
C8 0.035(2) 0.046(2) 0.058(3) -0.015(2) 0.0163(19) 0.0082(18)
C9 0.0293(19) 0.036(2) 0.045(2) -0.0066(16) 0.0171(16) -0.0024(16)
C10 0.0258(16) 0.0227(15) 0.0202(15) 0.0033(11) 0.0034(12) 0.0060(12)
C11 0.0282(17) 0.0262(17) 0.0307(17) 0.0072(13) 0.0113(14) 0.0066(14)
C12 0.0315(19) 0.0335(19) 0.041(2) 0.0089(16) 0.0117(16) 0.0012(15)
C13 0.046(2) 0.0265(18) 0.0322(18) 0.0053(14) 0.0042(16) -0.0047(16)
C14 0.057(2) 0.0251(18) 0.0335(18) -0.0040(14) 0.0147(18) 0.0060(17)
C15 0.039(2) 0.0279(19) 0.0296(18) 0.0015(14) 0.0174(16) 0.0040(15)
C16 0.080(4) 0.038(2) 0.062(3) -0.003(2) 0.025(3) -0.016(2)
loop_
_atom_type_symbol
_atom_type_description
_atom_type_scat_dispersion_real
_atom_type_scat_dispersion_imag
_atom_type_scat_source
C C 0.0033 0.0016 'International Tables Vol C Tables 4.2.6.8 and 6.1.1.4'
H H 0.0000 0.0000 'International Tables Vol C Tables 4.2.6.8 and 6.1.1.4'
Br Br -0.2901 2.4595 'International Tables Vol C Tables 4.2.6.8 and 6.1.1.4'
N N 0.0061 0.0033 'International Tables Vol C Tables 4.2.6.8 and 6.1.1.4'
O O 0.0106 0.0060 'International Tables Vol C Tables 4.2.6.8 and 6.1.1.4'
S S 0.1246 0.1234 'International Tables Vol C Tables 4.2.6.8 and 6.1.1.4'
loop_
_geom_angle_atom_site_label_1
_geom_angle_atom_site_label_2
_geom_angle_atom_site_label_3
_geom_angle
O1 S1 O2 119.63(15)
O1 S1 N1 105.36(14)
O1 S1 C10 108.75(17)
O2 S1 N1 106.56(14)
O2 S1 C10 107.56(15)
N1 S1 C10 108.55(15)
C3 O3 H3 128.0
S1 N1 H1 110.2
C1 N1 S1 121.4(2)
C1 N1 H1 110.1
N1 C1 H1A 108.3
N1 C1 C2 109.9(3)
N1 C1 C4 111.7(3)
C2 C1 H1A 108.3
C4 C1 H1A 108.3
C4 C1 C2 110.2(3)
Br1 C2 H2 107.0
C1 C2 Br1 108.6(2)
C1 C2 H2 107.0
C3 C2 Br1 109.6(3)
C3 C2 C1 117.1(3)
C3 C2 H2 107.0
O3 C3 C2 110.7(3)
O3 C3 H3A 109.5
O3 C3 H3B 109.5
C2 C3 H3A 109.5
C2 C3 H3B 109.5
H3A C3 H3B 108.1
C5 C4 C1 122.2(3)
C9 C4 C1 119.2(3)
C9 C4 C5 118.6(3)
C4 C5 H5 119.6
C6 C5 C4 120.7(3)
C6 C5 H5 119.6
C5 C6 H6 120.1
C5 C6 C7 119.9(4)
C7 C6 H6 120.1
C6 C7 H7 120.0
C8 C7 C6 120.0(4)
C8 C7 H7 120.0
C7 C8 H8 120.0
C7 C8 C9 120.1(4)
C9 C8 H8 120.0
C4 C9 C8 120.7(4)
C4 C9 H9 119.7
C8 C9 H9 119.7
C11 C10 S1 120.4(3)
C11 C10 C15 120.5(3)
C15 C10 S1 119.0(3)
C10 C11 H11 120.4
C10 C11 C12 119.2(3)
C12 C11 H11 120.4
C11 C12 H12 119.3
C13 C12 C11 121.3(4)
C13 C12 H12 119.3
C12 C13 C14 118.4(3)
C12 C13 C16 121.1(4)
C14 C13 C16 120.5(4)
C13 C14 H14 119.4
C13 C14 C15 121.3(3)
C15 C14 H14 119.4
C10 C15 C14 119.2(3)
C10 C15 H15 120.4
C14 C15 H15 120.4
C13 C16 H16A 109.5
C13 C16 H16B 109.5
C13 C16 H16C 109.5
H16A C16 H16B 109.5
H16A C16 H16C 109.5
H16B C16 H16C 109.5
loop_
_geom_bond_atom_site_label_1
_geom_bond_atom_site_label_2
_geom_bond_distance
Br1 C2 1.966(4)
S1 O1 1.433(2)
S1 O2 1.433(2)
S1 N1 1.612(3)
S1 C10 1.747(4)
O3 H3 0.8201
O3 C3 1.413(5)
N1 H1 0.8601
N1 C1 1.469(4)
C1 H1A 0.9800
C1 C2 1.544(4)
C1 C4 1.520(4)
C2 H2 0.9800
C2 C3 1.516(5)
C3 H3A 0.9700
C3 H3B 0.9700
C4 C5 1.387(5)
C4 C9 1.386(5)
C5 H5 0.9300
C5 C6 1.386(5)
C6 H6 0.9300
C6 C7 1.385(6)
C7 H7 0.9300
C7 C8 1.368(6)
C8 H8 0.9300
C8 C9 1.392(6)
C9 H9 0.9300
C10 C11 1.389(5)
C10 C15 1.390(5)
C11 H11 0.9300
C11 C12 1.391(5)
C12 H12 0.9300
C12 C13 1.390(6)
C13 C14 1.390(6)
C13 C16 1.500(6)
C14 H14 0.9300
C14 C15 1.392(5)
C15 H15 0.9300
C16 H16A 0.9600
C16 H16B 0.9600
C16 H16C 0.9600
loop_
_geom_hbond_atom_site_label_D
_geom_hbond_atom_site_label_H
_geom_hbond_atom_site_label_A
_geom_hbond_distance_DH
_geom_hbond_distance_HA
_geom_hbond_distance_DA
_geom_hbond_angle_DHA
_geom_hbond_site_symmetry_A
O3 H3 O2 0.82 1.97 2.733(3) 155.5 1_556
N1 H1 O3 0.86 2.11 2.680(4) 123.5 .
loop_
_geom_torsion_atom_site_label_1
_geom_torsion_atom_site_label_2
_geom_torsion_atom_site_label_3
_geom_torsion_atom_site_label_4
_geom_torsion
Br1 C2 C3 O3 68.3(3)
S1 N1 C1 C2 140.0(2)
S1 N1 C1 C4 -97.3(3)
S1 C10 C11 C12 -175.0(3)
S1 C10 C15 C14 175.5(3)
O1 S1 N1 C1 174.3(2)
O1 S1 C10 C11 -151.5(3)
O1 S1 C10 C15 32.6(3)
O2 S1 N1 C1 46.2(3)
O2 S1 C10 C11 -20.6(3)
O2 S1 C10 C15 163.5(3)
N1 S1 C10 C11 94.3(3)
N1 S1 C10 C15 -81.5(3)
N1 C1 C2 Br1 -68.6(3)
N1 C1 C2 C3 56.1(4)
N1 C1 C4 C5 -36.0(4)
N1 C1 C4 C9 145.4(3)
C1 C2 C3 O3 -56.0(4)
C1 C4 C5 C6 -178.9(3)
C1 C4 C9 C8 179.3(3)
C2 C1 C4 C5 86.5(4)
C2 C1 C4 C9 -92.1(4)
C4 C1 C2 Br1 167.9(2)
C4 C1 C2 C3 -67.4(4)
C4 C5 C6 C7 -0.1(6)
C5 C4 C9 C8 0.6(6)
C5 C6 C7 C8 0.2(6)
C6 C7 C8 C9 0.2(6)
C7 C8 C9 C4 -0.6(6)
C9 C4 C5 C6 -0.3(5)
C10 S1 N1 C1 -69.4(3)
C10 C11 C12 C13 -0.7(5)
C11 C10 C15 C14 -0.4(5)
C11 C12 C13 C14 0.1(6)
C11 C12 C13 C16 -179.7(4)
C12 C13 C14 C15 0.3(6)
C13 C14 C15 C10 -0.2(6)
C15 C10 C11 C12 0.8(5)
C16 C13 C14 C15 -179.8(4)
loop_
_twin_individual_id
_twin_individual_mass_fraction_refined
1 0.988(9)
2 0.012(9)
