#------------------------------------------------------------------------------
#$Date: 2016-03-04 14:06:27 +0200 (Fri, 04 Mar 2016) $
#$Revision: 177536 $
#$URL: svn://www.crystallography.net/cod/cif/1/54/24/1542487.cif $
#------------------------------------------------------------------------------
#
# This file is available in the Crystallography Open Database (COD),
# http://www.crystallography.net/
#
# All data on this site have been placed in the public domain by the
# contributors.
#
data_1542487
loop_
_publ_author_name
'Vinduvahini, M.'
'Anitha, B. R.'
'Kumar, K. Mahesh'
'Kotresh, O.'
'Devarajegowda, H. C.'
_publ_section_title
;
 (6-Bromo-2-oxo-2<i>H</i>-chromen-4-yl)methyl diethylcarbamodithioate
;
_journal_coeditor_code           BV4001
_journal_issue                   1
_journal_name_full               IUCrData
_journal_page_first              x160015
_journal_paper_doi               10.1107/S2414314616000158
_journal_volume                  1
_journal_year                    2016
_chemical_formula_iupac          'C15 H16 Br N O2 S2'
_chemical_formula_moiety         'C15 H16 Br N O2 S2'
_chemical_formula_sum            'C15 H16 Br N O2 S2'
_chemical_formula_weight         386.32
_chemical_melting_point          401
_chemical_name_systematic
'(6-Bromo-2-oxo-2<i>H</i>-chromen-4-yl)methyl diethylcarbamodithioate'
_space_group_crystal_system      monoclinic
_space_group_IT_number           14
_space_group_name_Hall           '-P 2yn'
_space_group_name_H-M_alt        'P 1 21/n 1'
_symmetry_space_group_name_Hall  '-P 2yn'
_symmetry_space_group_name_H-M   'P 1 21/n 1'
_atom_sites_solution_hydrogens   geom
_audit_creation_method           SHELXL-2014/7
_cell_angle_alpha                90
_cell_angle_beta                 97.909(2)
_cell_angle_gamma                90
_cell_formula_units_Z            4
_cell_length_a                   7.8958(2)
_cell_length_b                   8.0536(2)
_cell_length_c                   25.2735(8)
_cell_measurement_reflns_used    2806
_cell_measurement_temperature    296(2)
_cell_measurement_theta_max      25.000
_cell_measurement_theta_min      2.834
_cell_volume                     1591.84(8)
_computing_cell_refinement
;
SAINT (Bruker, 2001)
;
_computing_data_collection
;
SMART (Bruker, 2001)
;
_computing_data_reduction
;
SAINT (Bruker, 2001)
;
_computing_molecular_graphics
;
ORTEP-3 for Windows (Farrugia, 2012)
;
_computing_publication_material  SHELXL-2014/7
_computing_structure_refinement
;
SHELXL-2014/7 (Sheldrick, 2015)
;
_computing_structure_solution
;
SHELXS-97 (Sheldrick, 2008)
;
_diffrn_ambient_temperature      296(2)
_diffrn_measured_fraction_theta_full 0.999
_diffrn_measured_fraction_theta_max 0.999
_diffrn_measurement_device_type  'Bruker SMART CCD area-detector'
_diffrn_measurement_method       '\w and \f scans'
_diffrn_radiation_monochromator  graphite
_diffrn_radiation_source         'fine-focus sealed tube'
_diffrn_radiation_type           MoK\a
_diffrn_radiation_wavelength     0.71073
_diffrn_reflns_av_R_equivalents  0.0329
_diffrn_reflns_limit_h_max       9
_diffrn_reflns_limit_h_min       -9
_diffrn_reflns_limit_k_max       9
_diffrn_reflns_limit_k_min       -9
_diffrn_reflns_limit_l_max       28
_diffrn_reflns_limit_l_min       -30
_diffrn_reflns_number            12640
_diffrn_reflns_theta_full        25.000
_diffrn_reflns_theta_max         25.000
_diffrn_reflns_theta_min         2.834
_exptl_absorpt_coefficient_mu    2.847
_exptl_absorpt_correction_T_max  1.0000
_exptl_absorpt_correction_T_min  0.7700
_exptl_absorpt_correction_type   multi-scan
_exptl_absorpt_process_details
;
(SADABS; Sheldrick, 2007)
;
_exptl_crystal_colour            colourless
_exptl_crystal_density_diffrn    1.612
_exptl_crystal_description       Plate
_exptl_crystal_F_000             784
_exptl_crystal_size_max          0.24
_exptl_crystal_size_mid          0.20
_exptl_crystal_size_min          0.12
_refine_diff_density_max         0.617
_refine_diff_density_min         -0.443
_refine_ls_extinction_coef       0.0078(6)
_refine_ls_extinction_expression Fc^*^=kFc[1+0.001xFc^2^\l^3^/sin(2\q)]^-1/4^
_refine_ls_extinction_method
;
SHELXL-2014/7 (Sheldrick 2015
;
_refine_ls_goodness_of_fit_ref   1.036
_refine_ls_hydrogen_treatment    constr
_refine_ls_matrix_type           full
_refine_ls_number_parameters     191
_refine_ls_number_reflns         2806
_refine_ls_number_restraints     0
_refine_ls_restrained_S_all      1.036
_refine_ls_R_factor_all          0.0380
_refine_ls_R_factor_gt           0.0303
_refine_ls_shift/su_max          0.003
_refine_ls_shift/su_mean         0.000
_refine_ls_structure_factor_coef Fsqd
_refine_ls_weighting_details
'w=1/[\s^2^(Fo^2^)+(0.0341P)^2^+0.9395P] where P=(Fo^2^+2Fc^2^)/3'
_refine_ls_weighting_scheme      calc
_refine_ls_wR_factor_gt          0.0719
_refine_ls_wR_factor_ref         0.0744
_reflns_number_gt                2419
_reflns_number_total             2806
_reflns_threshold_expression     'I > 2\s(I)'
_cod_data_source_file            bv4001sup1.cif
_cod_data_source_block           I
_cod_depositor_comments          'Adding full bibliography for 1542487.cif.'
_cod_database_code               1542487
_cod_database_fobs_code          1542487
_shelx_space_group_comment
;
The symmetry employed for this shelxl refinement is uniquely defined
by the following loop, which should always be used as a source of
symmetry information in preference to the above space-group names.
They are only intended as comments.
;
_shelx_hkl_file
;
  -1   0   0    0.02    0.02
   1   0   0    0.01    0.02
  -2   0   0   23.17    0.79
   2   0   0   22.82    0.79
  -3   0   0   -0.05    0.06
   3   0   0   -0.04    0.05
  -4   0   0   91.42    2.69
  -4   0   0   90.43    2.91
  -4   0   0   92.13    3.03
  -5   0   0   -0.16    0.11
  -5   0   0   -0.03    0.11
  -5   0   0   -0.06    0.12
  -5   0   0    0.03    0.11
  -6   0   0    8.59    0.45
   6   0   0    8.73    0.44
  -6   0   0    8.27    0.40
  -6   0   0    8.94    0.40
  -6   0   0    7.95    0.41
  -7   0   0   -0.04    0.17
  -7   0   0   -0.07    0.17
  -7   0   0    0.06    0.19
  -7   0   0    0.34    0.18
   7   0   0   -0.04    0.20
  -8   0   0    2.92    0.34
  -8   0   0    4.05    0.36
  -8   0   0    3.98    0.34
  -9   0   0    0.16    0.29
   1  -1   0  119.49    3.85
   2  -1   0   62.47    2.03
   2   1   0   61.07    2.06
  -2   1   0   63.79    2.06
   3  -1   0    9.12    0.36
   3  -1   0    8.77    0.32
   3   1   0    8.90    0.37
  -3   1   0    8.89    0.35
  -3   1   0    8.81    0.37
  -4  -1   0    0.64    0.10
  -4  -1   0    0.79    0.12
   4  -1   0    0.72    0.07
  -4   1   0    0.77    0.12
   4   1   0    0.75    0.12
  -4   1   0    0.77    0.12
  -4   1   0    0.66    0.12
   5  -1   0   11.35    0.44
  -5  -1   0    9.59    0.42
  -5  -1   0    9.97    0.41
  -5  -1   0   10.09    0.42
  -5   1   0    9.76    0.41
  -5   1   0   10.27    0.46
  -5   1   0    9.90    0.44
  -5   1   0    9.69    0.42
  -6  -1   0    9.59    0.43
  -6  -1   0    9.41    0.45
   6  -1   0   10.13    0.45
  -6  -1   0   10.08    0.45
  -6   1   0    9.62    0.50
  -6   1   0    9.88    0.45
  -6   1   0   10.11    0.48
  -6   1   0    9.75    0.45
  -7  -1   0    0.83    0.23
  -7  -1   0    1.39    0.22
  -7  -1   0    1.00    0.19
  -7   1   0    0.77    0.21
  -7   1   0    1.06    0.23
  -7   1   0    0.89    0.22
  -8  -1   0    6.30    0.43
  -8  -1   0    5.47    0.41
  -8   1   0    6.29    0.45
  -8   1   0    5.84    0.41
  -8   1   0    5.86    0.45
  -9  -1   0    0.96    0.29
  -9   1   0    0.77    0.30
  -9   1   0    1.19    0.29
 -10   1   0   -0.08    0.32
 -10   1   0   -0.07    0.28
   0   2   0    9.77    0.36
  -1   2   0   44.49    1.47
   1   2   0   44.25    1.47
   2  -2   0    0.12    0.05
  -2   2   0    0.07    0.06
   2   2   0    0.10    0.05
   3  -2   0   27.27    0.92
  -3   2   0   26.72    0.93
   3   2   0   27.62    0.92
  -3   2   0   27.52    0.97
  -3   2   0   27.43    0.86
  -4  -2   0   31.33    1.04
   4  -2   0   32.80    1.11
  -4  -2   0   32.35    1.10
  -4  -2   0   33.69    1.04
   4   2   0   34.34    1.10
  -4   2   0   32.33    1.17
  -4   2   0   32.54    1.12
  -4   2   0   33.03    1.04
  -5  -2   0    3.72    0.24
   5  -2   0    3.56    0.25
  -5  -2   0    3.43    0.21
  -5  -2   0    3.42    0.25
  -5   2   0    3.41    0.25
  -5   2   0    3.63    0.24
   5   2   0    3.50    0.17
  -5   2   0    3.37    0.25
  -6  -2   0   19.19    0.71
  -6  -2   0   18.69    0.72
   6  -2   0   20.48    0.72
   6   2   0   20.25    0.67
  -6   2   0   18.90    0.76
  -6   2   0   19.14    0.72
  -6   2   0   18.97    0.80
  -7  -2   0    7.29    0.40
  -7  -2   0    7.72    0.43
  -7   2   0    6.53    0.41
  -7   2   0    6.20    0.42
  -8  -2   0    0.48    0.23
  -8   2   0    0.81    0.27
  -8   2   0    0.80    0.25
  -9  -2   0    0.25    0.26
  -9   2   0    0.23    0.28
  -9   2   0    0.07    0.27
 -10  -2   0   -0.13    0.30
 -10   2   0   -0.34    0.30
 -10   2   0   -0.15    0.32
 -11   2   0    0.55    0.40
 -11   2   0    0.77    0.37
   0   3   0   -0.09    0.06
  -1   3   0  138.57    4.50
   1   3   0  138.49    4.50
  -2   3   0    0.47    0.10
  -2   3   0    0.26    0.09
   2   3   0    0.32    0.08
   3  -3   0    0.63    0.09
  -3  -3   0    0.69    0.12
  -3  -3   0    1.01    0.15
   3   3   0    0.49    0.09
  -3   3   0    1.10    0.14
  -3   3   0    0.67    0.12
  -3   3   0    0.76    0.12
  -4  -3   0    5.76    0.27
  -4  -3   0    5.07    0.32
   4  -3   0    5.27    0.28
  -4   3   0    4.28    0.31
  -4   3   0    5.11    0.27
   4   3   0    5.36    0.25
  -4   3   0    5.23    0.30
  -5  -3   0   90.75    2.70
  -5  -3   0   87.09    2.84
   5  -3   0   92.18    2.69
   5  -3   0   90.98    2.78
  -5   3   0   87.63    3.03
   5   3   0   92.04    2.94
  -5   3   0   89.54    2.70
  -5   3   0   86.83    2.92
   6  -3   0    0.69    0.18
  -6  -3   0    0.68    0.19
   6  -3   0    0.74    0.19
   6   3   0    1.00    0.13
  -6   3   0    1.21    0.22
  -6   3   0    0.76    0.21
  -7  -3   0    1.03    0.21
   7   3   0    1.44    0.13
  -7   3   0    1.25    0.26
  -7   3   0    1.45    0.27
  -8  -3   0    2.47    0.30
  -8   3   0    2.12    0.33
  -8   3   0    2.96    0.36
   8   3   0    2.34    0.16
  -9  -3   0    2.04    0.34
  -9   3   0    1.88    0.36
  -9   3   0    1.92    0.34
 -10  -3   0    1.04    0.35
 -10   3   0    0.56    0.36
 -10   3   0    0.78    0.35
 -11   3   0    0.24    0.41
 -11   3   0    0.53    0.39
   0  -4   0   93.78    2.96
   0   4   0   99.26    3.18
  -1  -4   0    0.56    0.13
   1  -4   0    0.55    0.12
  -1   4   0    0.70    0.11
  -1   4   0    0.52    0.10
   1   4   0    0.52    0.11
  -1   4   0    0.62    0.10
  -2  -4   0   59.86    1.80
  -2  -4   0   58.20    1.88
   2  -4   0   57.19    1.85
  -2   4   0   58.90    1.79
  -2   4   0   61.67    2.00
  -2   4   0   58.35    1.93
   2   4   0   61.57    2.00
   3  -4   0    8.20    0.37
  -3  -4   0    8.45    0.42
  -3  -4   0    8.86    0.38
  -3   4   0    8.74    0.38
  -3   4   0    8.62    0.39
   3   4   0    8.90    0.38
  -4  -4   0    4.64    0.27
   4  -4   0    4.26    0.27
   4  -4   0    4.34    0.25
  -4  -4   0    4.74    0.34
  -4   4   0    4.55    0.31
  -4   4   0    4.31    0.27
  -4   4   0    4.49    0.30
   4   4   0    4.09    0.26
   5  -4   0    6.59    0.32
  -5  -4   0    6.55    0.36
   5  -4   0    6.02    0.34
  -5  -4   0    6.11    0.40
  -5   4   0    6.58    0.39
  -5   4   0    6.50    0.37
   5   4   0    6.10    0.32
  -5   4   0    6.20    0.39
  -6  -4   0    0.15    0.18
   6  -4   0    0.13    0.18
  -6  -4   0    0.04    0.24
   6   4   0    0.25    0.12
  -6   4   0    0.20    0.21
  -6   4   0   -0.05    0.18
  -7  -4   0    0.86    0.24
   7   4   0    0.22    0.13
  -7   4   0    0.12    0.22
  -7   4   0    0.49    0.25
  -8  -4   0    0.40    0.25
  -8   4   0    1.05    0.31
  -8   4   0    0.60    0.30
   8   4   0    0.65    0.14
  -9  -4   0   -0.22    0.26
   9   4   0    0.07    0.11
  -9   4   0    0.10    0.29
  -9   4   0    0.35    0.32
 -10  -4   0    0.34    0.33
 -10   4   0   -0.13    0.33
 -10   4   0    0.03    0.35
   0  -5   0    0.05    0.14
   0  -5   0   -0.05    0.10
   0   5   0    0.00    0.10
   0   5   0    0.02    0.09
  -1  -5   0   27.04    0.93
   1  -5   0   27.23    0.87
   1  -5   0   26.52    0.91
  -1  -5   0   27.60    0.88
   1   5   0   25.16    0.98
  -1   5   0   26.14    0.98
  -1   5   0   27.88    0.93
  -1   5   0   28.07    0.88
   2  -5   0   14.55    0.58
  -2  -5   0   15.77    0.57
  -2  -5   0   15.31    0.62
   2  -5   0   16.09    0.55
  -2   5   0   14.99    0.56
  -2   5   0   15.34    0.60
   2   5   0   15.91    0.63
   3  -5   0    0.07    0.13
   3  -5   0    0.24    0.12
  -3  -5   0    0.10    0.17
  -3  -5   0    0.24    0.15
  -3   5   0    0.13    0.15
   3   5   0    0.08    0.12
  -3   5   0    0.12    0.14
  -4  -5   0   15.15    0.69
   4  -5   0   15.86    0.62
  -4  -5   0   16.60    0.63
   4  -5   0   16.85    0.59
  -4   5   0   16.26    0.68
  -4   5   0   16.30    0.63
   4   5   0   16.89    0.66
  -4   5   0   14.77    0.68
  -5  -5   0    4.37    0.33
  -5  -5   0    4.90    0.41
   5  -5   0    4.85    0.33
   5  -5   0    4.07    0.28
  -5   5   0    4.25    0.34
  -5   5   0    5.25    0.36
   5   5   0    4.21    0.29
  -6  -5   0   -0.09    0.27
   6  -5   0    0.03    0.20
  -6  -5   0    0.20    0.20
   6   5   0    0.03    0.14
  -6   5   0    0.26    0.24
  -6   5   0    0.14    0.23
  -7  -5   0    1.72    0.30
  -7   5   0    2.03    0.32
  -7   5   0    1.73    0.32
   7   5   0    1.14    0.18
  -8  -5   0    0.43    0.28
   8   5   0    0.19    0.15
  -8   5   0    0.41    0.32
  -8   5   0    0.33    0.28
  -9  -5   0   -0.22    0.28
  -9   5   0    0.25    0.32
  -9   5   0   -0.07    0.34
 -10  -5   0    0.95    0.38
 -10   5   0    1.57    0.43
 -10   5   0    0.96    0.41
   0  -6   0  118.99    3.78
   0  -6   0  122.94    3.63
   0   6   0  125.59    4.07
  -1  -6   0    3.20    0.28
   1  -6   0    3.07    0.26
   1  -6   0    3.66    0.25
  -1  -6   0    3.87    0.27
  -1   6   0    3.77    0.27
  -1   6   0    3.44    0.27
  -2  -6   0    3.04    0.25
   2  -6   0    3.01    0.23
  -2  -6   0    2.87    0.28
   2  -6   0    2.54    0.25
   2   6   0    2.52    0.25
  -2   6   0    2.42    0.23
  -2   6   0    2.92    0.25
  -3  -6   0   -0.14    0.21
  -3  -6   0   -0.12    0.17
   3  -6   0   -0.02    0.18
   3  -6   0    0.16    0.14
  -3   6   0    0.22    0.17
  -3   6   0   -0.23    0.17
   3   6   0   -0.03    0.15
  -4  -6   0   31.99    1.13
   4  -6   0   32.92    1.09
   4  -6   0   33.12    1.14
  -4  -6   0   34.10    1.24
   4   6   0   34.32    1.23
  -4   6   0   34.03    1.14
  -4   6   0   32.97    1.21
  -5  -6   0    0.18    0.27
  -5  -6   0    0.41    0.21
   5  -6   0   -0.12    0.21
   5   6   0    0.22    0.17
  -5   6   0   -0.15    0.22
  -5   6   0    0.60    0.23
  -6  -6   0    8.63    0.52
  -6  -6   0   10.50    0.65
   6  -6   0   10.03    0.51
   6   6   0    8.62    0.46
  -6   6   0    9.02    0.56
  -6   6   0    9.75    0.54
  -7  -6   0   -0.26    0.35
  -7  -6   0   -0.12    0.23
  -7   6   0    0.15    0.27
   7   6   0    0.02    0.16
  -7   6   0    0.49    0.28
  -8  -6   0    0.28    0.27
  -8   6   0    0.29    0.30
  -8   6   0   -0.10    0.33
  -9  -6   0    0.80    0.35
  -9   6   0    0.48    0.39
  -9   6   0    0.48    0.34
 -10  -6   0    0.34    0.37
 -10   6   0    0.56    0.38
 -10   6   0    1.60    0.46
   0  -7   0   -0.07    0.21
   0  -7   0   -0.06    0.17
   0   7   0    0.05    0.15
  -1  -7   0    4.42    0.32
   1  -7   0    4.81    0.35
  -1  -7   0    4.03    0.34
   1  -7   0    5.00    0.29
   1   7   0    3.01    0.31
  -1   7   0    4.43    0.30
   2  -7   0    5.88    0.35
  -2  -7   0    7.20    0.48
   2  -7   0    6.45    0.42
  -2  -7   0    7.02    0.38
  -2   7   0    6.13    0.42
   2   7   0    6.57    0.42
  -2   7   0    5.84    0.38
   3  -7   0    0.16    0.17
  -3  -7   0    0.21    0.20
   3  -7   0    0.09    0.22
  -3  -7   0    0.32    0.26
  -3   7   0   -0.09    0.20
   3   7   0    0.10    0.19
  -3   7   0   -0.20    0.18
  -4  -7   0    0.22    0.29
  -4  -7   0    0.12    0.22
   4  -7   0   -0.05    0.22
   4  -7   0    0.34    0.19
  -4   7   0   -0.29    0.22
  -4   7   0    0.27    0.23
   4   7   0    0.01    0.19
   5  -7   0    2.80    0.32
  -5  -7   0    3.19    0.36
  -5  -7   0    3.42    0.44
   5   7   0    2.65    0.29
  -5   7   0    2.41    0.34
  -5   7   0    2.28    0.32
  -6  -7   0    0.31    0.36
  -6  -7   0    0.19    0.28
  -6   7   0    0.50    0.30
  -6   7   0    0.42    0.27
   6   7   0    0.33    0.20
  -7  -7   0    0.64    0.43
  -7  -7   0    0.05    0.30
  -7   7   0    0.17    0.31
  -7   7   0   -0.44    0.30
  -8  -7   0    1.16    0.37
  -8   7   0    1.40    0.36
  -8   7   0    1.09    0.41
  -9  -7   0    0.25    0.36
  -9   7   0    0.40    0.42
  -9   7   0    1.12    0.40
   0  -8   0   11.97    0.61
   0  -8   0   11.75    0.52
   0   8   0   11.32    0.52
   1  -8   0    3.05    0.30
   1  -8   0    2.77    0.35
  -1  -8   0    2.74    0.31
  -1  -8   0    3.67    0.38
  -1   8   0    3.40    0.31
   2  -8   0    6.03    0.37
  -2  -8   0    5.65    0.41
  -2  -8   0    6.51    0.50
   2  -8   0    5.57    0.42
   2   8   0    6.63    0.47
  -2   8   0    6.12    0.39
   3  -8   0   11.03    0.55
   3  -8   0    9.78    0.49
  -3  -8   0   12.48    0.67
  -3  -8   0    9.97    0.53
  -3   8   0   10.88    0.56
   3   8   0   11.25    0.62
  -3   8   0   10.34    0.58
  -4  -8   0    0.14    0.34
  -4  -8   0   -0.05    0.26
   4  -8   0    0.14    0.26
  -4   8   0   -0.17    0.25
   4   8   0   -0.19    0.21
  -4   8   0   -0.31    0.26
  -5  -8   0    0.48    0.34
  -5  -8   0    0.34    0.29
   5  -8   0    0.41    0.29
  -5   8   0    0.53    0.31
  -5   8   0    0.26    0.26
   5   8   0    0.09    0.21
  -6  -8   0    1.02    0.43
  -6  -8   0    1.48    0.36
  -6   8   0    1.31    0.33
  -6   8   0    0.79    0.35
  -7  -8   0    1.23    0.51
  -7  -8   0    1.46    0.38
  -7   8   0    1.27    0.38
  -7   8   0    1.23    0.40
  -8  -8   0    0.00    0.35
  -8  -8   0    0.24    0.50
  -8   8   0    0.46    0.41
  -8   8   0    0.08    0.33
   0  -9   0   -0.03    0.23
   0  -9   0    0.13    0.30
   0   9   0    0.46    0.26
  -1  -9   0    2.85    0.40
   1  -9   0    3.32    0.41
  -1  -9   0    3.23    0.34
   1  -9   0    3.44    0.33
   1   9   0    3.40    0.34
  -1   9   0    3.62    0.35
  -2  -9   0    1.86    0.39
   2  -9   0    2.12    0.30
   2  -9   0    1.94    0.34
  -2  -9   0    1.52    0.31
  -2   9   0    2.33    0.34
  -3  -9   0    0.15    0.26
   3  -9   0    0.34    0.23
  -3  -9   0    0.67    0.38
   3  -9   0   -0.22    0.30
  -3   9   0    0.43    0.29
   4  -9   0    0.65    0.33
  -4  -9   0    0.66    0.41
  -4  -9   0    0.33    0.31
   4   9   0    0.32    0.26
  -4   9   0    0.55    0.30
   5  -9   0    2.43    0.40
  -5  -9   0    2.60    0.39
  -5  -9   0    3.24    0.51
  -5   9   0    2.66    0.41
  -5   9   0    1.94    0.38
  -6  -9   0    0.65    0.36
  -6  -9   0    0.42    0.47
  -6   9   0    0.86    0.39
  -6   9   0    0.57    0.35
  -7  -9   0    0.31    0.38
  -7  -9   0    0.55    0.51
  -7   9   0    0.11    0.36
  -7   9   0    0.53    0.41
   0 -10   0    0.18    0.37
   0 -10   0    0.22    0.28
   0  10   0    0.38    0.30
   1 -10   0    0.49    0.28
  -1 -10   0    0.20    0.26
   1 -10   0    0.43    0.36
  -1 -10   0   -0.05    0.38
  -1  10   0    0.00    0.28
   2 -10   0    0.74    0.29
   2 -10   0    0.38    0.37
  -2 -10   0   -0.17    0.30
  -2 -10   0    0.95    0.38
  -2  10   0    0.31    0.31
  -3 -10   0   -0.03    0.37
   3 -10   0    0.10    0.36
  -3 -10   0    0.00    0.29
  -3  10   0   -0.11    0.29
  -4 -10   0    0.58    0.45
  -4 -10   0   -0.13    0.34
   4 -10   0    0.58    0.37
  -4  10   0    0.32    0.35
   5 -10   0    0.59    0.39
  -5 -10   0   -0.60    0.34
  -5 -10   0    0.65    0.47
  -5  10   0    0.07    0.37
  -6 -10   0    1.06    0.53
  -6 -10   0    0.45    0.36
  -6  10   0    0.30    0.40
   0 -11   0   -0.08    0.30
   0 -11   0   -0.21    0.42
   1 -11   0    1.19    0.34
  -1 -11   0    1.37    0.47
   1 -11   0    0.94    0.44
  -1 -11   0    0.87    0.35
  -1  11   0    0.67    0.35
  -2 -11   0    0.32    0.41
   2 -11   0    0.36    0.41
  -2 -11   0    0.24    0.35
  -2  11   0    0.32    0.35
  -3 -11   0    0.03    0.46
   3 -11   0    0.01    0.40
  -3 -11   0   -0.04    0.35
  -3  11   0    0.03    0.35
   4 -11   0    0.08    0.42
  -4 -11   0    0.49    0.51
  -4 -11   0   -0.02    0.37
  -4  11   0    0.49    0.40
  -9   0   1    0.67    0.29
  -8   0   1   -0.23    0.19
  -8   0   1    0.56    0.24
  -8   0   1    0.07    0.20
  -7   0   1   19.66    0.84
   7   0  -1   18.68    0.79
  -7   0   1   20.45    0.75
  -7   0   1   20.11    0.75
  -7   0   1   19.57    0.78
  -6   0   1    0.23    0.15
  -6   0   1   -0.06    0.13
  -6   0   1   -0.18    0.11
   6   0  -1    0.00    0.18
  -6   0   1    0.07    0.13
  -5   0   1   35.44    1.27
  -5   0   1   35.40    1.20
  -5   0   1   36.04    1.13
   4   0  -1    0.29    0.09
  -4   0   1   -0.08    0.08
  -4   0   1    0.00    0.08
  -4   0   1   -0.10    0.08
  -3   0   1    2.86    0.17
   3   0  -1    2.63    0.16
   2   0  -1    0.01    0.03
  -2   0   1   -0.02    0.03
   0   0  -1    0.00    0.00
   1   0   1  120.03    3.85
  -1   0  -1  121.86    3.86
   1   0   1  113.70    3.85
   2   0   1   -0.01    0.04
  -2   0  -1   -0.03    0.04
   2   0   1    0.04    0.03
  -3   0  -1   19.84    0.71
   3   0   1   19.35    0.70
   3   0   1   19.30    0.64
   4   0   1    0.01    0.03
  -4   0  -1    0.06    0.09
  -4   0  -1    0.06    0.09
  -4   0  -1    0.07    0.09
  -5   0  -1   73.85    2.25
  -5   0  -1   73.24    2.26
  -5   0  -1   75.83    2.42
  -5   0  -1   77.01    2.55
  -6   0  -1    0.06    0.15
  -6   0  -1    0.01    0.13
  -6   0  -1    0.01    0.15
  -6   0  -1    0.03    0.14
   6   0   1   -0.15    0.17
  -7   0  -1    8.09    0.43
  -7   0  -1    7.95    0.44
  -7   0  -1    7.34    0.42
  -8   0  -1    0.03    0.20
  -8   0  -1    0.04    0.23
  -8   0  -1    0.07    0.21
  -9   0  -1   10.98    0.62
  -9   0  -1   13.12    0.65
 -10   0  -1   -0.05    0.32
 -10   1   1    0.13    0.32
 -10   1   1    0.35    0.30
  -9  -1   1    2.90    0.35
  -9   1   1    3.03    0.36
  -9   1   1    3.51    0.39
  -8  -1   1    4.68    0.38
  -8  -1   1    5.00    0.38
  -8   1   1    4.11    0.37
  -8   1   1    4.23    0.36
  -7  -1   1    0.26    0.16
  -7  -1   1    0.00    0.19
  -7  -1   1    0.26    0.17
   7  -1  -1    0.23    0.21
  -7   1   1   -0.10    0.18
  -7   1   1    0.31    0.19
  -7   1   1    0.31    0.18
  -6  -1   1   16.73    0.63
  -6  -1   1   17.45    0.65
   6  -1  -1   16.79    0.66
  -6  -1   1   17.82    0.66
  -6   1   1   17.43    0.69
  -6   1   1   17.14    0.72
  -6   1   1   17.22    0.64
  -6   1   1   16.26    0.64
  -5  -1   1    7.38    0.33
  -5  -1   1    6.02    0.31
   5  -1  -1    6.89    0.34
  -5  -1   1    6.51    0.31
  -5   1   1    6.44    0.35
  -5   1   1    7.14    0.35
  -5   1   1    7.27    0.33
  -4  -1   1    1.75    0.14
   4   1  -1    1.70    0.15
   4   1  -1    1.75    0.09
  -4   1   1    1.69    0.15
  -4   1   1    1.55    0.15
  -4   1   1    1.82    0.16
  -3   1   1    0.12    0.07
   3   1  -1    0.11    0.06
  -3   1   1    0.23    0.07
   3   1  -1    0.15    0.03
  -2   1   1  241.41    7.62
   2   1  -1  226.94    7.61
   2   1  -1  240.89    7.64
   1   1  -1    3.77    0.15
   1  -1   1  107.78    3.51
  -1   1  -1  109.94    3.52
   2  -1   1    0.15    0.05
   2  -1   1    0.25    0.04
  -2   1  -1    0.12    0.06
   3  -1   1   45.86    1.55
   3  -1   1   45.12    1.50
  -3   1  -1   45.53    1.55
   3   1   1   47.09    1.56
  -3   1  -1   46.01    1.49
  -4  -1  -1   58.19    1.85
  -4  -1  -1   59.60    1.75
   4  -1   1   58.27    1.88
  -4   1  -1   56.48    1.74
  -4   1  -1   57.24    1.88
  -4   1  -1   56.48    1.96
  -5  -1  -1   22.82    0.78
  -5  -1  -1   22.23    0.79
  -5  -1  -1   22.74    0.77
   5  -1   1   22.59    0.76
  -5   1  -1   22.81    0.82
  -5   1  -1   23.21    0.79
  -5   1  -1   22.07    0.77
  -5   1  -1   21.25    0.86
   5   1   1   23.17    0.75
  -6  -1  -1    1.51    0.22
   6  -1   1    1.87    0.21
  -6  -1  -1    1.56    0.20
  -6  -1  -1    1.58    0.18
  -6   1  -1    2.27    0.24
  -6   1  -1    1.78    0.22
  -6   1  -1    1.59    0.22
  -6   1  -1    1.71    0.21
  -7  -1  -1    1.00    0.22
  -7  -1  -1    0.96    0.23
  -7  -1  -1    1.18    0.20
  -7   1  -1    1.24    0.24
  -7   1  -1    0.95    0.22
  -7   1  -1    1.22    0.24
  -8  -1  -1    0.30    0.22
  -8  -1  -1    0.18    0.24
  -8   1  -1    0.79    0.25
  -8   1  -1    0.43    0.24
  -8   1  -1    0.18    0.22
  -9  -1  -1    0.33    0.28
  -9  -1  -1    0.27    0.26
  -9   1  -1    0.19    0.24
  -9   1  -1    0.29    0.27
 -10   1  -1   -0.02    0.33
 -10   1  -1    0.49    0.31
 -11   2   1    0.49    0.36
 -10   2   1    0.18    0.31
 -10   2   1    0.87    0.35
  -9  -2   1    0.25    0.26
  -9   2   1    0.06    0.28
  -9   2   1   -0.13    0.26
  -8  -2   1   -0.13    0.20
  -8   2   1    0.29    0.23
  -8   2   1    0.16    0.22
  -7  -2   1    0.94    0.20
  -7  -2   1    0.99    0.21
   7  -2  -1    1.39    0.25
  -7   2   1    1.50    0.25
  -7   2   1    1.27    0.24
   6  -2  -1    2.40    0.24
  -6  -2   1    1.91    0.22
  -6   2   1    2.23    0.25
  -6   2   1    2.85    0.26
   6   2  -1    2.20    0.14
  -6   2   1    2.50    0.26
  -5  -2   1    3.77    0.22
   5  -2  -1    3.72    0.28
  -5  -2   1    4.34    0.25
  -5   2   1    4.35    0.28
  -5   2   1    3.68    0.26
   5   2  -1    4.04    0.19
  -5   2   1    4.17    0.30
  -4  -2   1    1.02    0.13
  -4  -2   1    0.75    0.16
  -4   2   1    0.70    0.14
   4   2  -1    0.66    0.08
   4   2  -1    0.90    0.13
  -4   2   1    1.05    0.14
  -4   2   1    0.89    0.13
  -3   2   1   51.68    1.71
  -3   2   1   48.75    1.64
   3   2  -1   49.76    1.66
  -3   2   1   51.51    1.52
  -2   2   1    1.93    0.14
   2   2  -1    1.74    0.11
  -1   2   1  461.18   15.04
   1   2  -1  475.17   15.13
   0   2  -1  140.65    4.55
  -1   2  -1    9.23    0.35
   2  -2   1   13.03    0.48
  -2   2  -1   13.16    0.48
  -2   2  -1   13.90    0.51
   3  -2   1   82.60    2.68
  -3   2  -1   82.20    2.42
  -3   2  -1   81.56    2.73
  -3   2  -1   82.31    2.63
  -4  -2  -1   29.94    0.96
   4  -2   1   28.69    1.00
  -4  -2  -1   29.83    0.95
  -4   2  -1   29.48    0.95
  -4   2  -1   28.98    1.07
  -4   2  -1   30.60    1.03
  -5  -2  -1    2.46    0.19
   5  -2   1    2.96    0.17
  -5  -2  -1    3.50    0.24
  -5  -2  -1    2.30    0.23
   5  -2   1    2.88    0.22
  -5   2  -1    3.15    0.26
  -5   2  -1    3.12    0.24
  -5   2  -1    2.75    0.23
   6  -2   1    1.24    0.19
  -6  -2  -1    1.66    0.21
  -6  -2  -1    1.52    0.22
   6   2   1    1.33    0.11
  -6   2  -1    1.47    0.22
  -6   2  -1    1.41    0.21
   6   2   1    1.56    0.11
  -6   2  -1    1.53    0.21
  -7  -2  -1    0.79    0.23
  -7  -2  -1    0.31    0.18
  -7   2  -1    0.72    0.23
  -7   2  -1    0.63    0.22
   7   2   1    0.63    0.08
  -8  -2  -1    2.48    0.34
  -8  -2  -1    2.59    0.32
  -8   2  -1    2.94    0.33
  -8   2  -1    3.15    0.35
  -9  -2  -1   -0.38    0.25
  -9   2  -1    0.13    0.28
  -9   2  -1   -0.07    0.27
 -10  -2  -1   -0.06    0.31
 -10   2  -1   -0.08    0.31
 -10   2  -1    0.38    0.34
 -11   2  -1    0.07    0.35
 -11   2  -1   -0.68    0.37
 -11   3   1    0.62    0.42
 -11   3   1    0.67    0.39
 -10  -3   1    0.04    0.31
 -10   3   1    0.13    0.33
 -10   3   1    0.02    0.33
  -9  -3   1    0.23    0.26
  -9   3   1    0.12    0.29
  -9   3   1    0.28    0.27
  -8  -3   1   -0.24    0.21
  -8   3   1   -0.22    0.24
   8   3  -1    0.08    0.09
  -8   3   1    0.31    0.26
  -7  -3   1    0.02    0.18
  -7   3   1   -0.33    0.19
   7   3  -1    0.14    0.10
  -7   3   1    0.23    0.21
   6  -3  -1   17.63    0.66
  -6  -3   1   16.58    0.64
  -6  -3   1   16.47    0.65
   6   3  -1   16.69    0.62
  -6   3   1   17.53    0.66
  -6   3   1   16.74    0.70
  -5  -3   1    0.80    0.22
  -5  -3   1    0.90    0.16
   5  -3  -1    0.90    0.17
   5  -3  -1    1.03    0.15
  -5  -3   1    1.02    0.17
  -5   3   1    0.57    0.17
   5   3  -1    0.49    0.11
  -5   3   1    0.74    0.17
  -5   3   1    0.60    0.16
  -4  -3   1    0.29    0.11
   4  -3  -1    0.41    0.13
  -4  -3   1    0.43    0.11
  -4  -3   1    0.38    0.15
  -4   3   1    0.35    0.12
   4   3  -1    0.26    0.09
  -4   3   1    0.02    0.12
  -4   3   1    0.77    0.15
  -3  -3   1    0.44    0.13
  -3   3   1    0.64    0.12
  -3   3   1    0.63    0.12
   3   3  -1    0.44    0.09
  -2   3   1   26.23    0.81
  -2   3   1   25.25    0.89
  -2   3   1   25.45    0.86
   2   3  -1   25.18    0.88
  -1   3   1    8.52    0.34
   1   3  -1    8.30    0.34
   0   3  -1   83.00    2.68
   0   3   1   80.26    2.68
   1   3   1   45.26    1.53
  -1   3  -1   45.86    1.53
  -2   3  -1    0.00    0.08
  -2   3  -1    0.02    0.08
  -2   3  -1    0.02    0.07
  -3  -3  -1   26.52    0.86
  -3  -3  -1   27.56    0.92
   3  -3   1   26.63    0.93
  -3   3  -1   26.51    0.94
  -3   3  -1   26.95    0.86
  -3   3  -1   26.70    0.97
   4  -3   1    2.93    0.21
  -4  -3  -1    3.21    0.23
  -4  -3  -1    3.53    0.27
  -4  -3  -1    3.06    0.22
  -4   3  -1    2.73    0.23
  -4   3  -1    2.99    0.23
   4   3   1    2.80    0.19
  -4   3  -1    2.80    0.22
  -5  -3  -1    1.77    0.20
   5  -3   1    1.74    0.19
  -5  -3  -1    1.72    0.25
   5  -3   1    1.64    0.19
  -5  -3  -1    1.69    0.20
   5   3   1    1.27    0.14
  -5   3  -1    1.56    0.20
  -5   3  -1    1.93    0.23
  -5   3  -1    1.69    0.21
   6  -3   1   27.60    0.91
  -6  -3  -1   25.96    0.91
  -6  -3  -1   25.11    0.90
   6   3   1   25.20    0.89
  -6   3  -1   25.36    0.91
  -6   3  -1   25.22    0.97
   7  -3   1    0.55    0.21
  -7  -3  -1    0.59    0.20
  -7  -3  -1    0.52    0.22
  -7   3  -1    0.47    0.24
   7   3   1    0.66    0.12
  -7   3  -1    0.90    0.26
  -8  -3  -1    0.27    0.23
  -8   3  -1    0.40    0.27
   8   3   1    0.09    0.09
  -8   3  -1   -0.15    0.25
  -9  -3  -1    1.37    0.31
  -9   3  -1    1.36    0.32
  -9   3  -1    1.18    0.34
 -10  -3  -1    2.03    0.39
 -10   3  -1    1.92    0.41
 -11  -3  -1    0.32    0.36
 -11   3  -1    0.29    0.38
 -11   3  -1    0.11    0.39
 -10  -4   1   -0.16    0.31
 -10   4   1    0.23    0.33
 -10   4   1   -0.15    0.34
  -9  -4   1    0.66    0.30
  -9   4   1    1.30    0.36
  -9   4   1    1.87    0.37
   9   4  -1    1.58    0.15
  -8  -4   1   -0.15    0.23
  -8   4   1    0.29    0.27
   8   4  -1    0.13    0.13
  -8   4   1    0.07    0.27
  -7  -4   1   22.15    0.85
  -7   4   1   22.60    0.92
   7   4  -1   22.22    0.81
  -7   4   1   21.80    0.85
  -6  -4   1   -0.34    0.16
  -6  -4   1    0.22    0.24
   6  -4  -1   -0.17    0.18
  -6   4   1    0.38    0.20
  -6   4   1    0.00    0.18
   6   4  -1    0.03    0.11
   5  -4  -1    9.34    0.40
  -5  -4   1    9.74    0.45
  -5  -4   1    9.39    0.50
   5  -4  -1    9.21    0.43
  -5   4   1    9.63    0.46
  -5   4   1    9.74    0.49
   5   4  -1   10.22    0.42
  -5   4   1   10.05    0.50
   4  -4  -1    2.42    0.18
  -4  -4   1    2.36    0.22
   4  -4  -1    2.37    0.21
  -4  -4   1    2.07    0.24
   4   4  -1    2.08    0.18
  -4   4   1    2.57    0.23
  -4   4   1    2.53    0.22
  -4   4   1    2.17    0.22
  -3  -4   1    0.37    0.12
   3  -4  -1    0.41    0.13
  -3  -4   1    0.50    0.16
  -3   4   1    0.21    0.13
   3   4  -1    0.45    0.12
  -3   4   1    0.52    0.13
  -2  -4   1    1.46    0.18
  -2  -4   1    1.73    0.16
   2  -4  -1    1.72    0.16
  -2   4   1    1.51    0.16
  -2   4   1    1.48    0.16
   2   4  -1    1.52    0.16
  -2   4   1    1.88    0.16
  -1  -4   1   66.95    2.11
   1  -4  -1   65.87    2.10
  -1   4   1   68.48    2.17
  -1   4   1   71.19    2.02
  -1   4   1   67.09    2.26
   1   4  -1   66.36    2.26
   0  -4   1   31.03    1.03
   0  -4  -1   32.10    1.04
   0   4  -1   32.45    1.11
   0   4   1   31.84    1.11
   1  -4   1    4.50    0.24
  -1  -4  -1    4.91    0.25
  -1   4  -1    4.34    0.23
  -1   4  -1    4.23    0.25
  -1   4  -1    4.55    0.23
   1   4   1    4.45    0.25
   2  -4   1   13.11    0.49
  -2  -4  -1   13.72    0.49
  -2  -4  -1   13.72    0.53
   2   4   1   13.43    0.54
  -2   4  -1   13.43    0.48
  -2   4  -1   13.51    0.53
  -2   4  -1   13.19    0.52
  -3  -4  -1   54.44    1.78
   3  -4   1   56.87    1.67
   3  -4   1   53.97    1.72
  -3  -4  -1   55.98    1.69
   3   4   1   55.05    1.85
  -3   4  -1   53.76    1.68
  -3   4  -1   54.50    1.82
  -4  -4  -1   18.78    0.73
  -4  -4  -1   18.94    0.67
   4  -4   1   18.98    0.65
   4  -4   1   18.66    0.66
  -4   4  -1   18.06    0.71
  -4   4  -1   17.50    0.74
  -4   4  -1   18.17    0.66
   4   4   1   17.56    0.69
   5  -4   1    1.11    0.18
  -5  -4  -1    0.84    0.22
   5  -4   1    1.36    0.18
  -5  -4  -1    1.64    0.21
  -5   4  -1    0.74    0.20
   5   4   1    0.60    0.13
  -5   4  -1    1.15    0.20
  -6  -4  -1    0.10    0.14
  -6  -4  -1    0.41    0.18
   6  -4   1    0.48    0.18
  -6  -4  -1   -0.12    0.25
  -6   4  -1    0.33    0.21
  -6   4  -1    0.57    0.22
   6   4   1    0.14    0.12
  -7  -4  -1    0.82    0.24
  -7   4  -1    0.97    0.27
  -7   4  -1    1.34    0.27
   7   4   1    0.84    0.15
  -8  -4  -1    0.33    0.25
   8   4   1    0.37    0.13
  -8   4  -1    0.53    0.28
  -8   4  -1   -0.04    0.26
  -9  -4  -1    0.74    0.31
  -9   4  -1    0.49    0.34
  -9   4  -1    0.68    0.32
   9   4   1    0.44    0.12
 -10  -4  -1    1.10    0.36
 -10   4  -1    0.76    0.36
 -10   4  -1    1.12    0.37
 -10  -5   1    0.75    0.36
 -10   5   1    0.40    0.39
 -10   5   1   -0.05    0.37
  -9  -5   1   -0.41    0.27
  -9   5   1    0.41    0.32
  -9   5   1    0.10    0.34
  -8  -5   1    0.31    0.25
   8   5  -1    0.67    0.17
  -8   5   1    0.34    0.29
  -8   5   1    0.43    0.32
  -7  -5   1    2.88    0.34
   7   5  -1    2.59    0.24
  -7   5   1    2.32    0.35
  -7   5   1    2.92    0.36
   6  -5  -1    3.78    0.32
  -6  -5   1    3.90    0.33
  -6  -5   1    4.43    0.44
  -6   5   1    3.97    0.35
   6   5  -1    4.35    0.29
  -6   5   1    3.86    0.36
   5  -5  -1    1.23    0.23
  -5  -5   1    1.39    0.22
  -5  -5   1    1.72    0.30
  -5   5   1    0.95    0.23
  -5   5   1    1.39    0.25
   5   5  -1    1.36    0.18
  -4  -5   1    0.48    0.22
   4  -5  -1   -0.11    0.13
  -4  -5   1    0.68    0.19
   4  -5  -1    0.29    0.17
  -4   5   1   -0.07    0.16
   4   5  -1   -0.06    0.13
  -4   5   1    0.23    0.16
  -4   5   1   -0.11    0.15
   3  -5  -1   13.60    0.49
   3  -5  -1   12.56    0.52
  -3  -5   1   12.72    0.51
  -3  -5   1   12.84    0.57
   3   5  -1   13.05    0.55
  -3   5   1   13.12    0.55
  -3   5   1   13.48    0.52
  -2  -5   1   44.40    1.40
   2  -5  -1   43.80    1.44
   2  -5  -1   45.40    1.37
  -2  -5   1   42.69    1.46
  -2   5   1   43.88    1.49
  -2   5   1   45.57    1.39
   2   5  -1   46.67    1.55
   1  -5  -1   11.72    0.47
  -1  -5   1   12.12    0.49
   1  -5  -1   12.18    0.43
  -1  -5   1   11.86    0.45
  -1   5   1   11.86    0.45
  -1   5   1   11.24    0.50
   1   5  -1    9.51    0.48
  -1   5   1   11.31    0.44
   0  -5   1   39.29    1.33
   0  -5  -1   40.04    1.34
   0  -5   1   42.61    1.28
   0  -5  -1   41.47    1.27
   0   5   1   39.19    1.43
   0   5   1   41.99    1.33
   0   5  -1   41.11    1.43
   0   5  -1   41.24    1.34
  -1  -5  -1    1.32    0.15
   1  -5   1    1.47    0.15
  -1  -5  -1    1.50    0.19
   1  -5   1    1.58    0.18
  -1   5  -1    1.08    0.16
  -1   5  -1    1.65    0.16
  -1   5  -1    1.25    0.15
   1   5   1    1.17    0.16
  -2  -5  -1    5.71    0.34
  -2  -5  -1    5.99    0.31
   2  -5   1    6.17    0.29
   2  -5   1    5.72    0.32
  -2   5  -1    5.40    0.33
   2   5   1    5.81    0.33
  -2   5  -1    5.84    0.31
   3  -5   1    0.08    0.13
   3  -5   1    0.60    0.16
  -3  -5  -1   -0.03    0.14
  -3  -5  -1    0.02    0.16
  -3   5  -1    0.18    0.14
   3   5   1   -0.09    0.12
  -3   5  -1    0.09    0.16
  -4  -5  -1   30.74    1.05
   4  -5   1   32.26    1.03
  -4  -5  -1   31.97    1.14
   4  -5   1   31.30    1.06
  -4   5  -1   31.54    1.05
  -4   5  -1   32.53    1.14
   4   5   1   31.57    1.14
  -4   5  -1   29.39    1.18
   5  -5   1    2.15    0.22
  -5  -5  -1    2.34    0.33
  -5  -5  -1    2.12    0.25
   5  -5   1    2.15    0.24
   5   5   1    2.06    0.21
  -5   5  -1    2.05    0.27
  -5   5  -1    1.95    0.27
  -6  -5  -1    1.07    0.32
  -6  -5  -1    1.03    0.25
  -6   5  -1    1.32    0.26
   6   5   1    0.94    0.17
  -6   5  -1    1.30    0.26
  -7  -5  -1    4.29    0.39
  -7   5  -1    4.92    0.43
  -7   5  -1    5.78    0.47
   7   5   1    5.48    0.32
  -8  -5  -1   -0.03    0.24
   8   5   1    0.15    0.15
  -8   5  -1    0.52    0.29
  -8   5  -1    0.21    0.28
  -9  -5  -1    1.94    0.38
  -9   5  -1    0.79    0.34
  -9   5  -1    1.10    0.38
 -10  -5  -1   -0.11    0.32
 -10   5  -1    0.16    0.36
 -10   5  -1    0.09    0.37
 -10  -6   1   -0.17    0.35
 -10   6   1    0.02    0.36
 -10   6   1    0.46    0.42
  -9  -6   1    1.26    0.36
  -9   6   1    1.80    0.39
  -9   6   1    1.70    0.42
  -8  -6   1   -0.07    0.29
  -8   6   1    0.34    0.30
  -8   6   1    0.15    0.30
  -7  -6   1    0.49    0.37
  -7  -6   1   -0.11    0.25
  -7   6   1   -0.03    0.28
   7   6  -1    0.10    0.17
  -7   6   1    0.10    0.26
   6  -6  -1    0.27    0.25
  -6  -6   1    0.66    0.33
  -6  -6   1    0.71    0.26
   6   6  -1    0.31    0.17
  -6   6   1    0.41    0.25
  -6   6   1    0.85    0.28
   5  -6  -1    0.31    0.21
  -5  -6   1   -0.10    0.27
  -5  -6   1   -0.10    0.19
  -5   6   1    0.39    0.21
   5   6  -1   -0.11    0.15
  -5   6   1   -0.07    0.21
   4  -6  -1    3.36    0.29
  -4  -6   1    2.88    0.35
  -4  -6   1    2.91    0.29
   4  -6  -1    2.56    0.23
  -4   6   1    2.53    0.28
  -4   6   1    3.21    0.31
   4   6  -1    2.66    0.26
  -3  -6   1    3.76    0.30
   3  -6  -1    3.90    0.26
   3  -6  -1    3.62    0.29
  -3  -6   1    4.09    0.34
  -3   6   1    3.49    0.30
   3   6  -1    3.97    0.30
  -3   6   1    3.76    0.30
  -2  -6   1    1.05    0.21
   2  -6  -1    1.10    0.20
  -2  -6   1    1.08    0.19
   2  -6  -1    1.18    0.17
   2   6  -1    0.73    0.18
  -2   6   1    1.28    0.19
  -2   6   1    0.90    0.18
   1  -6  -1   48.22    1.49
  -1  -6   1   47.97    1.51
  -1  -6   1   47.89    1.59
   1  -6  -1   45.91    1.57
  -1   6   1   49.56    1.60
  -1   6   1   48.63    1.50
   0  -6   1    0.57    0.19
   0  -6   1    0.35    0.16
   0  -6  -1    0.52    0.20
   0  -6  -1    0.10    0.15
   0   6  -1    0.57    0.16
   0   6   1    0.60    0.19
   0   6  -1    0.09    0.16
  -1  -6  -1   27.72    0.99
   1  -6   1   27.50    0.92
   1  -6   1   27.22    0.96
  -1  -6  -1   26.67    0.93
  -1   6  -1   28.54    0.98
  -1   6  -1   28.68    0.93
  -2  -6  -1    2.49    0.24
   2  -6   1    2.61    0.22
  -2  -6  -1    2.64    0.27
   2  -6   1    2.91    0.26
  -2   6  -1    2.61    0.23
   2   6   1    2.07    0.23
  -2   6  -1    2.54    0.24
   3  -6   1    0.75    0.17
  -3  -6  -1    1.06    0.25
   3  -6   1    1.04    0.21
  -3  -6  -1    1.04    0.21
  -3   6  -1    1.26    0.22
  -3   6  -1    1.69    0.23
   3   6   1    1.15    0.19
  -4  -6  -1    0.80    0.21
   4  -6   1    0.75    0.21
   4  -6   1    1.18    0.19
  -4  -6  -1    0.89    0.26
  -4   6  -1    1.20    0.23
  -4   6  -1    0.85    0.24
   4   6   1    0.31    0.18
  -5  -6  -1   20.78    0.82
   5  -6   1   20.70    0.77
  -5  -6  -1   21.20    0.90
   5  -6   1   20.38    0.79
   5   6   1   23.13    0.86
  -5   6  -1   21.88    0.84
  -5   6  -1   21.52    0.88
  -6  -6  -1    2.57    0.41
  -6  -6  -1    1.85    0.31
  -6   6  -1    1.60    0.32
   6   6   1    2.00    0.24
  -6   6  -1    1.70    0.32
  -7  -6  -1    1.79    0.43
  -7  -6  -1    2.09    0.34
  -7   6  -1    1.78    0.36
   7   6   1    2.23    0.24
  -7   6  -1    2.03    0.34
  -8  -6  -1    0.77    0.32
  -8   6  -1    0.11    0.33
  -8   6  -1    0.20    0.33
  -9  -6  -1    0.38    0.32
  -9   6  -1    0.18    0.33
  -9   6  -1   -0.38    0.34
  -9  -7   1   -0.38    0.33
  -9   7   1   -0.37    0.35
  -9   7   1   -0.26    0.35
  -8  -7   1    4.09    0.45
  -8   7   1    3.78    0.49
  -8   7   1    2.64    0.43
  -7  -7   1   -0.11    0.40
  -7  -7   1    0.53    0.28
  -7   7   1    0.72    0.32
  -7   7   1    0.22    0.33
  -6  -7   1    1.36    0.41
   6  -7  -1    1.15    0.31
  -6  -7   1    1.41    0.32
  -6   7   1    1.45    0.33
   6   7  -1    1.71    0.26
  -6   7   1    2.12    0.36
   5  -7  -1    0.61    0.26
  -5  -7   1    0.22    0.32
  -5  -7   1    0.57    0.27
  -5   7   1    0.52    0.27
  -5   7   1    0.29    0.26
   5   7  -1    0.42    0.19
   4  -7  -1    1.26    0.27
  -4  -7   1    0.83    0.31
  -4  -7   1    0.48    0.22
   4   7  -1    0.83    0.21
  -4   7   1    0.94    0.26
  -4   7   1    0.60    0.25
   3  -7  -1    0.35    0.23
  -3  -7   1   -0.31    0.22
   3  -7  -1    0.03    0.17
  -3  -7   1    0.08    0.21
  -3   7   1    0.20    0.21
  -3   7   1    0.20    0.19
   3   7  -1    0.03    0.17
   2  -7  -1   24.83    0.91
   2  -7  -1   24.22    0.84
  -2  -7   1   23.68    0.93
  -2  -7   1   23.50    0.86
  -2   7   1   24.93    0.91
  -2   7   1   23.27    0.86
   2   7  -1   24.32    0.97
   1  -7  -1   -0.10    0.21
   1  -7  -1    0.09    0.17
  -1  -7   1    0.13    0.18
  -1  -7   1    0.35    0.21
   1   7  -1   -0.11    0.16
  -1   7   1    0.01    0.18
   0  -7  -1    2.71    0.26
   0  -7   1    3.11    0.31
   0  -7   1    3.05    0.26
   0  -7  -1    2.58    0.30
   0   7  -1    2.49    0.25
   1  -7   1   17.22    0.69
   1  -7   1   15.87    0.63
  -1  -7  -1   16.80    0.69
  -1  -7  -1   16.19    0.63
  -1   7  -1   16.43    0.63
   2  -7   1    3.78    0.29
  -2  -7  -1    4.09    0.37
   2  -7   1    3.50    0.31
  -2  -7  -1    3.34    0.29
   2   7   1    3.55    0.32
  -2   7  -1    4.28    0.32
  -2   7  -1    3.95    0.31
  -3  -7  -1    3.78    0.38
  -3  -7  -1    3.12    0.30
   3  -7   1    3.56    0.32
   3  -7   1    3.65    0.28
  -3   7  -1    3.59    0.33
  -3   7  -1    3.04    0.31
   3   7   1    3.42    0.31
  -4  -7  -1    7.24    0.43
   4  -7   1    7.33    0.47
  -4  -7  -1    6.63    0.52
   4  -7   1    6.57    0.38
  -4   7  -1    7.04    0.48
  -4   7  -1    7.30    0.43
   4   7   1    7.10    0.46
  -5  -7  -1    0.64    0.24
   5  -7   1    0.76    0.26
  -5  -7  -1    0.34    0.33
  -5   7  -1    0.25    0.27
   5   7   1    0.69    0.22
  -5   7  -1    0.30    0.25
  -6  -7  -1    0.23    0.25
  -6  -7  -1    1.11    0.36
  -6   7  -1    0.37    0.28
   6   7   1   -0.06    0.19
  -6   7  -1    0.48    0.28
  -7  -7  -1    1.10    0.31
  -7  -7  -1    0.61    0.43
  -7   7  -1    0.34    0.31
  -7   7  -1    0.60    0.31
  -8  -7  -1   -0.01    0.33
  -8   7  -1    0.19    0.34
  -8   7  -1    0.22    0.32
  -9  -7  -1    0.82    0.36
  -9   7  -1    0.86    0.43
  -9   7  -1    0.66    0.37
  -8  -8   1   -0.02    0.51
  -8  -8   1    0.06    0.36
  -8   8   1    0.13    0.37
  -8   8   1   -0.44    0.33
  -7  -8   1    2.34    0.55
  -7  -8   1    2.62    0.41
  -7   8   1    2.52    0.41
  -7   8   1    2.34    0.42
  -6  -8   1    0.35    0.42
   6  -8  -1    0.38    0.32
  -6  -8   1    0.44    0.30
  -6   8   1    0.28    0.33
  -6   8   1    0.45    0.32
  -5  -8   1    2.98    0.47
  -5  -8   1    2.80    0.36
   5  -8  -1    2.82    0.37
   5   8  -1    2.63    0.33
  -5   8   1    3.37    0.39
  -5   8   1    2.71    0.36
  -4  -8   1    0.10    0.26
   4  -8  -1    0.88    0.29
  -4  -8   1   -0.16    0.33
  -4   8   1    0.22    0.27
  -4   8   1    0.76    0.27
   4   8  -1    0.48    0.23
   3  -8  -1    0.67    0.21
  -3  -8   1    0.78    0.33
   3  -8  -1    1.14    0.27
  -3  -8   1    0.70    0.27
   3   8  -1    0.88    0.25
  -3   8   1    0.90    0.25
  -2  -8   1    5.89    0.46
  -2  -8   1    5.53    0.38
   2  -8  -1    6.09    0.36
   2  -8  -1    5.57    0.43
  -2   8   1    5.71    0.38
   2   8  -1    5.56    0.44
   1  -8  -1    8.06    0.52
   1  -8  -1    7.05    0.41
  -1  -8   1    6.69    0.41
  -1  -8   1    8.57    0.54
  -1   8   1    7.92    0.44
   0  -8  -1   -0.14    0.18
   0  -8   1    0.36    0.22
   0  -8  -1   -0.20    0.23
   0  -8   1    0.65    0.28
   0   8   1   -0.07    0.20
   0   8  -1    0.07    0.21
   1  -8   1    0.12    0.26
  -1  -8  -1   -0.24    0.20
  -1  -8  -1    0.10    0.27
   1  -8   1    0.00    0.20
  -1   8  -1    0.09    0.21
   2  -8   1    2.81    0.33
  -2  -8  -1    2.74    0.30
   2  -8   1    2.95    0.29
  -2  -8  -1    2.72    0.37
   2   8   1    2.77    0.34
  -2   8  -1    2.67    0.30
  -3  -8  -1    4.71    0.46
   3  -8   1    4.43    0.39
   3  -8   1    4.79    0.35
  -3  -8  -1    4.64    0.40
  -3   8  -1    3.96    0.38
   3   8   1    4.42    0.40
  -3   8  -1    4.18    0.38
  -4  -8  -1    1.37    0.31
   4  -8   1    1.84    0.31
   4  -8   1    1.56    0.25
  -4  -8  -1    0.96    0.36
  -4   8  -1    1.35    0.29
   4   8   1    2.03    0.30
  -4   8  -1    1.64    0.31
   5  -8   1    0.85    0.29
  -5  -8  -1    0.59    0.39
  -5  -8  -1    0.74    0.30
  -5   8  -1    0.60    0.28
   5   8   1    0.73    0.25
  -5   8  -1    0.85    0.32
  -6  -8  -1    0.44    0.32
  -6  -8  -1    0.65    0.39
  -6   8  -1   -0.09    0.30
  -6   8  -1    0.17    0.32
  -7  -8  -1    0.39    0.32
  -7  -8  -1    0.07    0.46
  -7   8  -1   -0.01    0.31
  -7   8  -1   -0.28    0.35
  -8  -8  -1    0.05    0.53
  -8  -8  -1    0.83    0.37
  -8   8  -1    1.17    0.40
  -8   8  -1    0.60    0.37
  -7  -9   1    0.02    0.49
  -7  -9   1    0.17    0.34
  -7   9   1    0.71    0.42
  -7   9   1    0.27    0.35
  -6  -9   1    0.83    0.37
  -6  -9   1    0.71    0.48
  -6   9   1    0.73    0.35
  -6   9   1    1.26    0.38
  -5  -9   1    0.03    0.32
  -5  -9   1   -0.07    0.41
   5  -9  -1   -0.01    0.32
  -5   9   1   -0.48    0.30
  -5   9   1    0.17    0.31
   4  -9  -1    0.22    0.32
  -4  -9   1    0.35    0.38
  -4  -9   1    0.03    0.30
  -4   9   1    0.54    0.32
   4   9  -1    0.16    0.26
   3  -9  -1    1.80    0.36
  -3  -9   1    1.21    0.30
  -3  -9   1    1.79    0.42
  -3   9   1    1.17    0.32
   2  -9  -1    2.35    0.38
  -2  -9   1    2.85    0.43
  -2  -9   1    2.58    0.35
   2  -9  -1    2.34    0.30
  -2   9   1    2.50    0.32
  -1  -9   1   -0.28    0.24
   1  -9  -1    0.08    0.23
   1  -9  -1   -0.28    0.30
  -1  -9   1    0.14    0.32
  -1   9   1    0.16    0.24
   0  -9  -1    8.00    0.59
   0  -9   1    8.01    0.48
   0  -9   1    8.62    0.59
   0  -9  -1    7.34    0.46
   0   9  -1    7.88    0.46
   0   9   1    8.38    0.48
  -1  -9  -1    0.60    0.34
   1  -9   1   -0.21    0.28
   1  -9   1   -0.01    0.23
  -1  -9  -1   -0.13    0.24
  -1   9  -1    0.69    0.25
   2  -9   1    0.31    0.31
   2  -9   1   -0.05    0.23
  -2  -9  -1    0.68    0.26
  -2  -9  -1    0.38    0.34
  -2   9  -1    0.06    0.26
   3  -9   1    1.13    0.33
  -3  -9  -1    0.83    0.38
   3  -9   1    0.45    0.25
  -3  -9  -1    0.72    0.30
  -3   9  -1    0.74    0.30
  -4  -9  -1    2.06    0.45
  -4  -9  -1    1.19    0.34
   4  -9   1    0.78    0.34
  -4   9  -1    0.97    0.33
   4   9   1    0.84    0.28
   5  -9   1    1.14    0.35
  -5  -9  -1    1.92    0.48
  -5  -9  -1    0.99    0.35
  -5   9  -1    0.79    0.33
  -5   9  -1    1.08    0.35
  -6  -9  -1    2.00    0.39
  -6  -9  -1    2.17    0.52
  -6   9  -1    1.46    0.38
  -6   9  -1    1.92    0.43
  -7  -9  -1    0.55    0.36
  -7  -9  -1    0.36    0.51
  -7   9  -1    0.83    0.39
  -7   9  -1    0.84    0.38
  -6 -10   1    0.20    0.39
  -6 -10   1    0.66    0.51
  -6  10   1   -0.30    0.38
  -5 -10   1    0.10    0.36
  -5 -10   1    0.95    0.48
   5 -10  -1    0.27    0.38
  -5  10   1    0.62    0.38
  -4 -10   1    0.64    0.33
   4 -10  -1    0.77    0.39
  -4 -10   1    0.48    0.45
  -4  10   1    0.68    0.37
  -3 -10   1    3.90    0.56
   3 -10  -1    4.07    0.48
  -3 -10   1    3.53    0.43
  -3  10   1    3.54    0.43
   2 -10  -1    1.10    0.30
   2 -10  -1    1.15    0.40
  -2 -10   1    0.75    0.32
  -2 -10   1    1.14    0.39
  -2  10   1    1.15    0.34
   1 -10  -1    4.77    0.50
  -1 -10   1    5.96    0.55
   1 -10  -1    4.81    0.42
  -1 -10   1    4.23    0.42
  -1  10   1    5.25    0.45
   0 -10  -1    1.93    0.33
   0 -10   1    1.88    0.33
   0 -10   1    1.44    0.38
   0 -10  -1    2.13    0.43
   0  10  -1    1.88    0.33
   0  10   1    1.89    0.34
  -1 -10  -1    0.34    0.28
   1 -10   1    0.16    0.25
   1 -10   1    0.42    0.36
  -1 -10  -1    0.53    0.39
  -1  10  -1    0.09    0.28
  -2 -10  -1    0.57    0.32
   2 -10   1    0.75    0.34
  -2 -10  -1    0.03    0.36
   2 -10   1    0.96    0.30
  -2  10  -1    0.35    0.29
  -3 -10  -1    3.91    0.54
  -3 -10  -1    2.99    0.40
   3 -10   1    3.21    0.45
  -3  10  -1    3.05    0.42
  -4 -10  -1    0.07    0.34
   4 -10   1    0.48    0.37
  -4 -10  -1   -0.23    0.43
  -4  10  -1   -0.19    0.33
  -5 -10  -1    0.00    0.32
  -5 -10  -1   -0.05    0.47
  -5  10  -1    0.33    0.38
  -6 -10  -1    1.02    0.41
  -6 -10  -1    0.78    0.53
  -6  10  -1    0.72    0.42
  -4 -11   1    0.33    0.50
   4 -11  -1   -0.35    0.40
  -4 -11   1    0.18    0.39
  -4  11   1    0.27    0.39
   3 -11  -1    0.61    0.43
  -3 -11   1    1.36    0.49
  -3 -11   1    0.59    0.38
  -3  11   1    0.89    0.38
  -2 -11   1    0.69    0.43
   2 -11  -1   -0.37    0.40
  -2 -11   1   -0.26    0.31
  -2  11   1    0.09    0.34
  -1 -11   1    0.16    0.33
   1 -11  -1   -0.40    0.40
  -1 -11   1    0.26    0.44
   1 -11  -1   -0.22    0.30
  -1  11   1    0.27    0.33
   0 -11   1    0.32    0.32
   0 -11  -1    0.67    0.44
   0 -11   1    0.38    0.43
   0 -11  -1    0.76    0.33
   1 -11   1    0.17    0.42
  -1 -11  -1    0.12    0.44
  -1 -11  -1    0.08    0.32
   1 -11   1    0.19    0.31
   2 -11   1   -0.36    0.38
  -2 -11  -1    0.55    0.36
   2 -11   1    0.11    0.30
  -2 -11  -1    0.49    0.46
  -2  11  -1   -0.09    0.33
  -3 -11  -1    1.70    0.55
   3 -11   1    1.66    0.45
  -3 -11  -1    2.42    0.42
  -3  11  -1    1.63    0.41
  -4 -11  -1   -0.18    0.34
  -4 -11  -1    0.77    0.51
   4 -11   1    0.85    0.45
  -4  11  -1    0.63    0.39
  -9   0   2    0.63    0.26
  -8   0   2    1.12    0.26
  -8   0   2    0.96    0.24
  -7   0   2    0.29    0.18
  -7   0   2    0.05    0.15
  -7   0   2   -0.04    0.17
  -7   0   2    0.05    0.17
   7   0  -2    0.34    0.23
  -6   0   2    0.09    0.13
  -6   0   2    0.13    0.13
  -6   0   2    0.13    0.14
  -6   0   2    0.18    0.15
  -5   0   2    0.21    0.12
  -5   0   2   -0.31    0.10
  -5   0   2   -0.08    0.10
   4   0  -2   18.72    0.69
  -4   0   2   19.36    0.67
  -4   0   2   18.70    0.70
   3   0  -2    0.01    0.05
  -3   0   2    0.04    0.05
   3   0  -2    0.02    0.02
   2   0  -2  177.02    6.08
   2   0  -2  199.92    6.07
  -1   0   2    0.10    0.02
   1   0  -2    0.01    0.02
  -1   0  -2    1.19    0.13
   1   0   2    1.68    0.12
   2   0   2  634.70   19.88
   2   0   2  575.99   19.90
  -2   0  -2  641.13   20.00
   3   0   2   -0.01    0.07
   3   0   2    0.03    0.04
  -3   0  -2    0.07    0.07
  -4   0  -2    5.40    0.29
   4   0   2    5.57    0.22
  -4   0  -2    5.92    0.27
  -4   0  -2    5.51    0.27
  -5   0  -2   -0.04    0.11
  -5   0  -2    0.28    0.14
  -5   0  -2   -0.06    0.11
  -5   0  -2    0.13    0.13
   5   0   2   -0.02    0.05
  -6   0  -2    4.93    0.32
  -6   0  -2    4.79    0.32
  -6   0  -2    4.44    0.32
  -6   0  -2    5.30    0.35
   6   0   2    4.72    0.19
  -7   0  -2    0.13    0.18
  -7   0  -2   -0.30    0.17
  -7   0  -2    0.21    0.20
  -8   0  -2    1.85    0.30
  -8   0  -2    1.85    0.30
  -9   0  -2   -0.02    0.28
  -9   0  -2    0.16    0.28
 -10   0  -2    0.11    0.33
 -10   1   2    0.60    0.31
  -9   1   2    0.68    0.28
  -9   1   2    0.91    0.28
  -8  -1   2    1.24    0.25
  -8   1   2    0.86    0.25
  -8   1   2    1.32    0.27
   7  -1  -2    8.86    0.47
  -7  -1   2    8.55    0.45
  -7  -1   2    8.11    0.44
  -7  -1   2    8.35    0.42
  -7   1   2    9.07    0.44
  -7   1   2    8.71    0.44
  -7   1   2    9.44    0.51
  -7   1   2    8.81    0.48
  -6  -1   2    0.46    0.16
  -6  -1   2    0.55    0.15
  -6  -1   2    1.07    0.17
   6  -1  -2    0.75    0.20
  -6   1   2    0.58    0.16
  -6   1   2    0.62    0.16
  -6   1   2    0.68    0.17
  -6   1   2    0.72    0.16
   5  -1  -2    4.17    0.28
  -5  -1   2    4.04    0.24
  -5  -1   2    4.24    0.24
  -5   1   2    4.48    0.29
  -5   1   2    3.80    0.24
  -5   1   2    4.21    0.27
  -4  -1   2    5.25    0.24
  -4   1   2    5.06    0.24
  -4   1   2    4.78    0.26
  -4   1   2    5.25    0.28
   4   1  -2    5.03    0.19
   4   1  -2    5.35    0.25
   3   1  -2  140.29    4.42
   3   1  -2  136.82    4.45
  -3   1   2  135.00    4.32
  -3   1   2  136.46    4.47
   2   1  -2   50.30    1.62
   2   1  -2   49.11    1.63
   1   1  -2   76.66    2.48
   0   1  -2   41.69    1.36
   1  -1   2   28.62    0.98
   1  -1   2   29.85    0.97
  -1   1  -2   29.05    0.98
  -1   1  -2   29.99    0.97
   2  -1   2   25.02    0.86
   2  -1   2   24.95    0.83
  -2   1  -2   24.97    0.86
   3  -1   2   88.40    2.92
   3  -1   2   88.26    2.87
  -3   1  -2   87.74    2.60
  -3   1  -2   88.05    2.93
  -3   1  -2   89.18    2.82
   3   1   2   90.21    2.94
  -4  -1  -2   23.18    0.77
   4  -1   2   21.75    0.76
  -4  -1  -2   22.30    0.75
  -4   1  -2   21.78    0.80
  -4   1  -2   22.09    0.84
   4   1   2   23.54    0.76
  -4   1  -2   23.53    0.75
  -5  -1  -2    8.89    0.39
   5  -1   2    9.05    0.34
  -5  -1  -2    8.82    0.41
  -5  -1  -2    9.16    0.39
  -5   1  -2    9.49    0.40
  -5   1  -2    8.77    0.41
   5   1   2    9.22    0.34
  -5   1  -2    9.42    0.41
  -5   1  -2    8.42    0.43
  -6  -1  -2    0.20    0.14
  -6  -1  -2    0.32    0.16
  -6  -1  -2    0.16    0.13
   6  -1   2    0.26    0.07
  -6   1  -2    0.34    0.17
   6   1   2    0.25    0.07
  -6   1  -2    0.63    0.17
  -6   1  -2    0.50    0.17
  -6   1  -2    0.42    0.16
  -7  -1  -2    2.48    0.29
  -7  -1  -2    2.68    0.29
  -7   1  -2    3.35    0.31
  -7   1  -2    3.18    0.30
  -7   1  -2    2.92    0.30
  -8  -1  -2   -0.11    0.23
  -8  -1  -2    0.28    0.23
  -8   1  -2   -0.02    0.24
  -8   1  -2   -0.08    0.21
  -8   1  -2   -0.18    0.23
  -9  -1  -2    1.61    0.32
  -9  -1  -2    1.70    0.35
  -9   1  -2    2.06    0.33
  -9   1  -2    2.00    0.32
  -9   1  -2    1.70    0.35
 -10  -1  -2    0.52    0.33
 -10   1  -2   -0.04    0.33
 -11   1  -2    0.01    0.38
 -11   2   2    0.63    0.36
 -10   2   2   -0.49    0.26
 -10   2   2    0.10    0.33
  -9  -2   2    1.03    0.29
  -9   2   2    0.51    0.28
  -9   2   2    0.89    0.29
  -8  -2   2   15.69    0.66
  -8   2   2   14.26    0.66
  -8   2   2   15.77    0.72
   7  -2  -2    2.99    0.31
  -7  -2   2    2.47    0.27
  -7   2   2    3.15    0.30
  -7   2   2    2.97    0.30
   6  -2  -2   22.18    0.81
  -6  -2   2   21.97    0.78
  -6  -2   2   21.38    0.78
  -6   2   2   22.50    0.88
  -6   2   2   21.74    0.84
  -6   2   2   21.91    0.77
   6   2  -2   21.60    0.74
  -5  -2   2    1.55    0.15
  -5  -2   2    1.41    0.16
  -5  -2   2    1.65    0.18
   5  -2  -2    1.60    0.20
  -5   2   2    1.63    0.18
   5   2  -2    1.43    0.11
  -5   2   2    1.26    0.18
  -5   2   2    1.20    0.16
  -4  -2   2    6.72    0.35
   4  -2  -2    7.92    0.35
  -4   2   2    7.74    0.37
  -4   2   2    7.58    0.32
   4   2  -2    7.78    0.35
   4   2  -2    8.33    0.30
  -3   2   2    0.52    0.10
  -3   2   2    0.39    0.09
  -3   2   2    0.64    0.10
   3   2  -2    0.36    0.07
  -2   2   2  143.98    4.56
   2   2  -2  146.05    4.69
   1   2  -2   35.73    1.19
   0   2  -2   20.07    0.70
  -1   2  -2   45.31    1.50
   2  -2   2    0.72    0.08
  -2   2  -2    0.74    0.09
  -2   2  -2    0.33    0.08
   3  -2   2    0.21    0.07
  -3   2  -2    0.13    0.08
  -3   2  -2    0.03    0.09
  -3   2  -2    0.20    0.10
   4  -2   2   39.47    1.35
  -4  -2  -2   41.04    1.28
  -4  -2  -2   40.62    1.26
  -4   2  -2   40.12    1.41
  -4   2  -2   40.08    1.36
  -4   2  -2   40.22    1.26
  -5  -2  -2    3.77    0.26
  -5  -2  -2    2.87    0.26
   5  -2   2    3.21    0.23
  -5   2  -2    3.43    0.24
  -5   2  -2    3.20    0.25
  -5   2  -2    3.47    0.28
  -6  -2  -2    5.15    0.35
  -6  -2  -2    4.92    0.31
  -6   2  -2    5.08    0.34
  -6   2  -2    5.57    0.37
  -6   2  -2    4.66    0.34
  -7  -2  -2    2.11    0.29
  -7  -2  -2    2.01    0.26
  -7   2  -2    1.37    0.24
  -7   2  -2    1.29    0.26
   7   2   2    1.59    0.11
  -8  -2  -2    9.16    0.55
  -8  -2  -2   10.08    0.53
  -8   2  -2   10.07    0.53
  -8   2  -2    9.06    0.57
  -9  -2  -2    1.03    0.30
  -9   2  -2    0.53    0.28
  -9   2  -2    0.62    0.30
 -10  -2  -2    1.98    0.38
 -10   2  -2    2.04    0.39
 -10   2  -2    1.46    0.38
 -11   2  -2   -0.05    0.39
 -11   2  -2    0.18    0.36
 -11   3   2    1.28    0.41
 -11   3   2    1.10    0.42
 -10   3   2    0.46    0.35
 -10   3   2    0.66    0.34
  -9  -3   2    1.32    0.30
  -9   3   2    0.90    0.32
  -9   3   2    1.55    0.34
  -8  -3   2    0.13    0.22
  -8   3   2    0.00    0.25
   8   3  -2   -0.04    0.09
  -8   3   2    0.03    0.22
   7  -3  -2    0.95    0.24
  -7  -3   2    0.75    0.22
   7   3  -2    1.07    0.12
  -7   3   2    1.19    0.23
  -7   3   2    0.97    0.26
   6  -3  -2    2.56    0.26
  -6  -3   2    2.38    0.23
  -6   3   2    1.73    0.24
  -6   3   2    2.64    0.28
  -6   3   2    1.75    0.25
   6   3  -2    1.96    0.16
   5  -3  -2    0.98    0.18
  -5  -3   2    0.70    0.21
  -5  -3   2    0.74    0.14
  -5  -3   2    0.88    0.16
  -5   3   2    0.90    0.18
   5   3  -2    0.61    0.11
  -5   3   2    1.01    0.17
  -5   3   2    0.67    0.16
  -4  -3   2    5.17    0.27
  -4  -3   2    5.52    0.26
  -4  -3   2    4.94    0.31
   4  -3  -2    5.71    0.30
  -4   3   2    5.16    0.31
   4   3  -2    5.67    0.27
  -4   3   2    5.88    0.30
  -4   3   2    5.56    0.31
   3  -3  -2   74.93    2.40
  -3  -3   2   78.95    2.43
   3   3  -2   79.62    2.56
  -3   3   2   78.20    2.31
  -3   3   2   76.65    2.50
  -2   3   2   28.65    0.98
  -2   3   2   28.33    0.88
   2   3  -2   28.93    0.98
  -2   3   2   27.27    0.95
   1   3  -2   24.69    0.87
  -1   3   2   25.35    0.87
   0   3  -2    4.83    0.23
  -1   3  -2   -0.05    0.06
  -1   3  -2    0.08    0.07
  -2   3  -2    5.83    0.27
  -2   3  -2    5.82    0.27
  -2   3  -2    6.24    0.26
   3  -3   2   22.87    0.81
  -3  -3  -2   22.79    0.75
  -3  -3  -2   23.51    0.80
  -3   3  -2   21.99    0.81
  -3   3  -2   23.04    0.75
  -3   3  -2   22.25    0.84
  -4  -3  -2   21.55    0.77
  -4  -3  -2   20.62    0.72
   4  -3   2   21.31    0.72
  -4  -3  -2   20.34    0.71
  -4   3  -2   21.17    0.81
  -4   3  -2   19.45    0.77
  -4   3  -2   20.98    0.72
  -5  -3  -2   15.52    0.58
   5  -3   2   14.94    0.56
  -5  -3  -2   14.94    0.58
   5  -3   2   15.21    0.58
  -5  -3  -2   15.33    0.65
  -5   3  -2   15.04    0.59
  -5   3  -2   14.56    0.62
  -5   3  -2   14.22    0.64
   6  -3   2    0.53    0.19
  -6  -3  -2    0.72    0.18
  -6  -3  -2    0.54    0.20
   6   3   2    0.54    0.11
  -6   3  -2    0.72    0.22
  -6   3  -2    0.72    0.20
  -7  -3  -2    1.22    0.24
  -7  -3  -2    1.18    0.25
   7  -3   2    1.45    0.25
  -7   3  -2    1.33    0.27
   7   3   2    0.93    0.13
  -7   3  -2    0.91    0.24
  -8  -3  -2   -0.25    0.22
  -8   3  -2   -0.10    0.24
   8   3   2    0.23    0.10
  -8   3  -2    0.19    0.25
  -9  -3  -2   -0.06    0.26
  -9   3  -2   -0.10    0.30
  -9   3  -2   -0.02    0.29
 -10  -3  -2    0.33    0.34
 -10   3  -2   -0.01    0.35
 -10   3  -2    0.27    0.35
 -11  -3  -2   -0.45    0.34
 -11   3  -2   -0.45    0.37
 -11   3  -2    0.06    0.39
 -10  -4   2    2.04    0.38
 -10   4   2    2.10    0.43
 -10   4   2    2.02    0.40
  -9  -4   2    0.91    0.31
  -9   4   2    2.14    0.37
   9   4  -2    1.24    0.14
  -9   4   2    1.16    0.36
  -8  -4   2   -0.16    0.21
  -8   4   2    0.23    0.26
  -8   4   2    0.46    0.26
   8   4  -2    0.04    0.12
   7  -4  -2    0.23    0.23
  -7  -4   2    0.25    0.19
  -7   4   2   -0.02    0.22
  -7   4   2   -0.01    0.23
   7   4  -2   -0.02    0.12
   6  -4  -2    2.98    0.28
  -6  -4   2    3.26    0.37
  -6  -4   2    3.01    0.27
  -6   4   2    3.07    0.30
   6   4  -2    2.81    0.22
  -6   4   2    2.33    0.29
  -5  -4   2    0.37    0.22
   5  -4  -2    0.30    0.18
  -5  -4   2    0.78    0.17
  -5   4   2    0.19    0.17
   5   4  -2    0.11    0.11
  -5   4   2    0.05    0.17
  -5   4   2    0.39    0.18
   4  -4  -2    4.02    0.27
  -4  -4   2    3.34    0.24
  -4  -4   2    4.02    0.31
  -4   4   2    3.64    0.27
  -4   4   2    3.14    0.26
   4   4  -2    3.54    0.23
  -4   4   2    3.30    0.26
   3  -4  -2    1.07    0.16
  -3  -4   2    0.95    0.17
  -3  -4   2    1.17    0.15
  -3   4   2    0.87    0.15
  -3   4   2    0.94    0.15
   3   4  -2    0.86    0.13
  -2  -4   2  156.37    4.54
  -2  -4   2  151.06    4.74
   2  -4  -2  151.26    4.72
  -2   4   2  159.44    4.53
  -2   4   2  161.52    5.07
   2   4  -2  153.26    5.07
  -2   4   2  155.02    4.91
  -1  -4   2    8.27    0.37
   1  -4  -2    9.15    0.37
  -1   4   2    8.94    0.39
  -1   4   2    9.33    0.36
   1   4  -2    9.13    0.39
   0  -4   2    8.16    0.33
   0  -4  -2    7.51    0.33
   0   4   2    7.57    0.34
   0   4  -2    6.70    0.34
  -1  -4  -2   37.25    1.22
   1  -4   2   36.93    1.19
   1   4   2   38.92    1.30
  -1   4  -2   38.00    1.15
  -1   4  -2   37.67    1.24
  -1   4  -2   35.67    1.29
   2  -4   2   76.53    2.44
  -2  -4  -2   77.32    2.47
  -2  -4  -2   79.99    2.37
   2   4   2   80.25    2.63
  -2   4  -2   79.61    2.35
  -2   4  -2   78.80    2.55
  -2   4  -2   82.08    2.63
  -3  -4  -2    0.00    0.13
   3  -4   2    0.23    0.11
  -3  -4  -2    0.11    0.11
   3  -4   2    0.05    0.11
   3   4   2   -0.08    0.08
  -3   4  -2    0.11    0.13
  -3   4  -2    0.18    0.12
  -3   4  -2    0.07    0.12
  -4  -4  -2   78.90    2.41
   4  -4   2   79.84    2.46
   4  -4   2   79.19    2.39
  -4  -4  -2   79.46    2.54
  -4   4  -2   80.05    2.61
   4   4   2   80.64    2.65
  -4   4  -2   79.68    2.71
  -4   4  -2   78.64    2.40
   5  -4   2   12.43    0.51
   5  -4   2   13.17    0.53
  -5  -4  -2   12.27    0.52
  -5  -4  -2   12.35    0.60
   5   4   2   13.18    0.52
  -5   4  -2   12.87    0.53
  -5   4  -2   13.35    0.58
  -6  -4  -2    0.13    0.17
  -6  -4  -2    0.72    0.20
   6  -4   2    0.21    0.18
  -6  -4  -2    0.32    0.25
   6   4   2    0.76    0.14
  -6   4  -2    0.64    0.23
  -6   4  -2    0.29    0.20
  -7  -4  -2    0.19    0.22
  -7   4  -2   -0.14    0.24
  -7   4  -2    0.32    0.24
   7   4   2    0.19    0.13
  -8  -4  -2    0.44    0.26
  -8   4  -2    0.57    0.30
   8   4   2    0.56    0.14
  -8   4  -2    0.51    0.29
  -9  -4  -2   -0.14    0.28
  -9   4  -2   -0.22    0.31
  -9   4  -2   -0.01    0.31
   9   4   2   -0.13    0.12
 -10  -4  -2   -0.09    0.32
 -10   4  -2    0.50    0.38
 -10   4  -2    0.34    0.37
 -10  -5   2    0.23    0.33
 -10   5   2   -0.09    0.36
 -10   5   2    0.24    0.38
  -9  -5   2    0.27    0.29
  -9   5   2    0.67    0.36
  -9   5   2    0.25    0.34
  -8  -5   2    0.65    0.27
  -8   5   2    0.32    0.30
  -8   5   2    0.55    0.30
   8   5  -2    0.55    0.17
   7  -5  -2    4.35    0.37
  -7  -5   2    4.67    0.40
   7   5  -2    4.67    0.30
  -7   5   2    4.22    0.40
  -7   5   2    5.59    0.43
  -6  -5   2    0.56    0.31
   6  -5  -2    0.51    0.23
  -6  -5   2    0.61    0.21
  -6   5   2    0.65    0.25
  -6   5   2    0.98    0.26
   6   5  -2    0.76    0.16
   5  -5  -2    0.32    0.20
  -5  -5   2    0.13    0.24
  -5  -5   2    0.23    0.18
   5   5  -2    0.00    0.13
  -5   5   2   -0.07    0.18
  -5   5   2   -0.22    0.16
  -4  -5   2    8.81    0.47
   4  -5  -2    9.15    0.44
  -4  -5   2    9.14    0.43
   4  -5  -2    9.08    0.38
   4   5  -2    8.34    0.41
  -4   5   2    9.21    0.43
  -4   5   2    9.11    0.45
  -3  -5   2   24.65    0.85
  -3  -5   2   24.11    0.91
   3  -5  -2   24.15    0.86
   3  -5  -2   24.11    0.80
  -3   5   2   24.71    0.85
  -3   5   2   24.83    0.89
   3   5  -2   25.18    0.91
  -2  -5   2    4.81    0.27
   2  -5  -2    4.63    0.23
   2  -5  -2    4.43    0.27
  -2  -5   2    4.45    0.30
   2   5  -2    4.02    0.28
  -2   5   2    4.39    0.26
  -2   5   2    4.58    0.29
   1  -5  -2   16.81    0.55
   1  -5  -2   15.82    0.60
  -1  -5   2   15.32    0.60
  -1  -5   2   15.80    0.57
  -1   5   2   16.32    0.64
  -1   5   2   16.54    0.59
   1   5  -2   13.60    0.62
   0  -5   2    3.56    0.22
   0  -5  -2    3.78    0.28
   0  -5  -2    3.65    0.22
   0  -5   2    3.57    0.27
   0   5  -2    3.33    0.22
   0   5  -2    3.70    0.25
   0   5  -2    3.88    0.22
   0   5   2    2.99    0.24
   1  -5   2    7.63    0.32
  -1  -5  -2    7.27    0.36
  -1  -5  -2    8.21    0.33
   1  -5   2    7.77    0.36
  -1   5  -2    7.69    0.35
  -1   5  -2    7.01    0.37
  -1   5  -2    7.42    0.33
   1   5   2    7.46    0.38
   2  -5   2   17.10    0.61
  -2  -5  -2   17.65    0.68
   2  -5   2   16.83    0.62
  -2  -5  -2   16.84    0.62
  -2   5  -2   17.35    0.62
  -2   5  -2   18.01    0.67
   2   5   2   17.13    0.68
   3  -5   2   18.88    0.68
   3  -5   2   19.05    0.67
  -3  -5  -2   18.78    0.69
  -3  -5  -2   19.42    0.75
   3   5   2   19.37    0.75
  -3   5  -2   19.37    0.69
  -3   5  -2   19.15    0.75
  -4  -5  -2    0.68    0.23
   4  -5   2    0.72    0.17
   4  -5   2    0.58    0.16
  -4  -5  -2    0.40    0.16
  -4   5  -2    0.70    0.20
  -4   5  -2    0.36    0.20
   4   5   2    0.35    0.14
   5  -5   2    6.63    0.37
  -5  -5  -2    6.68    0.38
   5  -5   2    6.30    0.35
  -5  -5  -2    6.51    0.46
  -5   5  -2    6.06    0.42
  -5   5  -2    6.55    0.40
   5   5   2    7.11    0.36
   6  -5   2    0.46    0.19
  -6  -5  -2    0.42    0.20
  -6  -5  -2    0.54    0.29
  -6   5  -2    0.38    0.24
   6   5   2    0.14    0.14
  -6   5  -2    0.07    0.22
  -7  -5  -2    0.61    0.24
  -7  -5  -2    0.96    0.34
  -7   5  -2    0.64    0.27
   7   5   2    0.40    0.16
  -7   5  -2    1.01    0.29
  -8  -5  -2    0.43    0.29
  -8   5  -2    0.15    0.31
   8   5   2    0.19    0.15
  -8   5  -2    0.17    0.29
  -9  -5  -2    1.54    0.37
  -9   5  -2    1.15    0.37
  -9   5  -2    1.18    0.36
 -10  -5  -2    0.27    0.36
 -10   5  -2    0.04    0.40
 -10   5  -2    0.45    0.37
 -10  -6   2    1.20    0.40
 -10   6   2    2.07    0.45
 -10   6   2    0.92    0.41
  -9  -6   2    0.00    0.32
  -9   6   2   -0.02    0.32
  -9   6   2   -0.06    0.36
  -8  -6   2    1.63    0.35
  -8   6   2    1.80    0.38
  -8   6   2    1.30    0.36
  -7  -6   2    0.21    0.26
  -7  -6   2    0.05    0.36
  -7   6   2    0.11    0.28
  -7   6   2   -0.45    0.28
   7   6  -2    0.26    0.16
  -6  -6   2    1.94    0.30
   6  -6  -2    2.35    0.32
  -6  -6   2    1.68    0.36
  -6   6   2    1.85    0.31
  -6   6   2    2.32    0.33
   6   6  -2    2.04    0.24
  -5  -6   2    2.52    0.36
  -5  -6   2    2.07    0.29
   5  -6  -2    2.51    0.30
  -5   6   2    2.31    0.29
  -5   6   2    2.48    0.31
   5   6  -2    2.34    0.24
   4  -6  -2    3.27    0.29
  -4  -6   2    2.40    0.26
  -4  -6   2    2.64    0.33
  -4   6   2    2.73    0.30
  -4   6   2    2.82    0.29
   4   6  -2    3.17    0.27
  -3  -6   2    2.27    0.25
  -3  -6   2    2.17    0.29
   3  -6  -2    2.23    0.20
   3  -6  -2    2.55    0.25
  -3   6   2    2.00    0.25
  -3   6   2    2.33    0.25
   3   6  -2    1.94    0.23
  -2  -6   2    2.51    0.24
   2  -6  -2    3.03    0.22
   2  -6  -2    3.09    0.28
  -2  -6   2    2.85    0.29
  -2   6   2    3.26    0.25
  -2   6   2    3.03    0.26
   2   6  -2    3.07    0.27
  -1  -6   2    3.63    0.29
   1  -6  -2    3.41    0.24
  -1  -6   2    3.33    0.26
   1  -6  -2    3.04    0.27
  -1   6   2    3.79    0.25
  -1   6   2    3.20    0.26
   0  -6  -2   17.35    0.63
   0  -6   2   17.26    0.68
   0  -6   2   17.18    0.63
   0  -6  -2   17.30    0.69
   0   6  -2   16.85    0.72
   0   6  -2   17.59    0.62
   0   6   2   19.12    0.74
   1  -6   2    0.26    0.15
   1  -6   2    0.09    0.16
  -1  -6  -2    0.02    0.15
  -1  -6  -2    0.28    0.19
   1   6   2    0.14    0.09
  -1   6  -2    0.23    0.15
  -1   6  -2    0.14    0.15
  -2  -6  -2   35.30    1.21
   2  -6   2   34.25    1.16
   2  -6   2   34.38    1.12
  -2  -6  -2   34.21    1.13
  -2   6  -2   34.53    1.13
  -2   6  -2   33.71    1.21
   2   6   2   35.34    1.27
   3  -6   2    2.04    0.22
   3  -6   2    1.87    0.24
  -3  -6  -2    1.95    0.23
  -3  -6  -2    2.03    0.29
  -3   6  -2    2.36    0.26
  -3   6  -2    1.78    0.24
   3   6   2    1.77    0.22
  -4  -6  -2    2.41    0.32
   4  -6   2    2.65    0.26
   4  -6   2    2.90    0.26
  -4  -6  -2    2.51    0.27
  -4   6  -2    2.87    0.31
   4   6   2    2.66    0.26
  -4   6  -2    2.46    0.27
  -5  -6  -2    0.07    0.28
   5  -6   2    0.15    0.19
   5  -6   2    0.34    0.21
  -5  -6  -2    0.28    0.21
  -5   6  -2    0.56    0.24
   5   6   2   -0.14    0.15
  -5   6  -2   -0.13    0.23
  -6  -6  -2   -0.03    0.31
  -6  -6  -2    0.18    0.24
  -6   6  -2   -0.03    0.24
   6   6   2    0.10    0.17
  -6   6  -2    0.25    0.24
  -7  -6  -2    0.58    0.30
  -7  -6  -2    1.32    0.40
  -7   6  -2    1.08    0.31
   7   6   2    0.89    0.20
  -7   6  -2    0.32    0.30
  -8  -6  -2    1.63    0.34
  -8   6  -2    1.70    0.39
  -8   6  -2    1.49    0.37
  -9  -6  -2    0.54    0.35
  -9   6  -2    0.56    0.36
  -9   6  -2    0.80    0.41
  -9  -7   2    0.75    0.37
  -9   7   2    0.73    0.40
  -9   7   2    0.10    0.39
  -8  -7   2    0.13    0.32
  -8   7   2    0.47    0.37
  -8   7   2    0.15    0.33
  -7  -7   2    1.06    0.33
  -7  -7   2    1.15    0.44
  -7   7   2    1.47    0.37
  -7   7   2    0.56    0.29
  -6  -7   2    3.33    0.47
   6  -7  -2    2.99    0.35
  -6  -7   2    2.50    0.36
  -6   7   2    2.83    0.38
  -6   7   2    3.03    0.39
   6   7  -2    2.51    0.29
   5  -7  -2    0.73    0.27
  -5  -7   2    0.21    0.31
  -5  -7   2    0.69    0.27
  -5   7   2    0.67    0.26
   5   7  -2    0.75    0.22
  -5   7   2    0.78    0.26
   4  -7  -2   13.37    0.61
  -4  -7   2   13.14    0.68
  -4  -7   2   11.49    0.57
   4   7  -2   13.47    0.63
  -4   7   2   12.54    0.58
  -4   7   2   12.95    0.63
  -3  -7   2   21.76    0.90
   3  -7  -2   21.37    0.84
  -3  -7   2   20.54    0.81
   3  -7  -2   21.44    0.76
   3   7  -2   22.49    0.89
  -3   7   2   21.14    0.82
  -3   7   2   22.06    0.86
  -2  -7   2    0.02    0.19
  -2  -7   2    0.37    0.22
   2  -7  -2   -0.22    0.21
   2  -7  -2    0.16    0.17
  -2   7   2    0.07    0.18
  -2   7   2    0.15    0.18
   2   7  -2   -0.07    0.16
  -1  -7   2   16.02    0.67
  -1  -7   2   15.93    0.63
   1  -7  -2   16.23    0.60
   1  -7  -2   16.34    0.68
   1   7  -2   14.06    0.68
  -1   7   2   15.34    0.62
   0  -7  -2    0.79    0.20
   0  -7   2    0.68    0.19
   0  -7   2    0.68    0.22
   0  -7  -2    1.14    0.25
   0   7  -2    0.93    0.19
   1  -7   2    2.41    0.25
  -1  -7  -2    2.61    0.31
  -1  -7  -2    2.70    0.26
   1  -7   2    1.81    0.26
   1   7   2    1.11    0.21
  -1   7  -2    2.32    0.25
  -2  -7  -2    5.28    0.41
  -2  -7  -2    5.50    0.36
   2  -7   2    5.55    0.34
   2  -7   2    5.19    0.37
  -2   7  -2    5.47    0.39
   2   7   2    5.90    0.40
  -2   7  -2    4.98    0.35
  -3  -7  -2   11.71    0.61
  -3  -7  -2   12.01    0.54
   3  -7   2   13.17    0.53
   3  -7   2   12.62    0.57
  -3   7  -2   11.27    0.55
  -3   7  -2   12.75    0.60
   3   7   2   12.23    0.60
   4  -7   2    0.58    0.24
  -4  -7  -2    0.18    0.23
   4  -7   2    0.64    0.21
  -4  -7  -2    0.51    0.31
   4   7   2    0.43    0.21
  -4   7  -2    0.92    0.24
  -4   7  -2    0.30    0.23
  -5  -7  -2    2.07    0.30
   5  -7   2    2.48    0.27
   5  -7   2    2.13    0.30
  -5  -7  -2    1.08    0.37
  -5   7  -2    1.88    0.31
  -5   7  -2    2.07    0.31
   5   7   2    2.27    0.28
  -6  -7  -2    3.08    0.36
  -6  -7  -2    3.25    0.47
  -6   7  -2    2.83    0.38
   6   7   2    2.72    0.30
  -6   7  -2    2.70    0.36
  -7  -7  -2    1.03    0.45
  -7  -7  -2    0.97    0.33
  -7   7  -2    0.87    0.32
  -7   7  -2    0.63    0.31
  -8  -7  -2    0.11    0.30
  -8   7  -2    0.17    0.33
  -8   7  -2    0.04    0.36
  -9  -7  -2    0.39    0.37
  -9   7  -2    0.40    0.36
  -9   7  -2    0.30    0.38
  -8  -8   2    0.22    0.37
  -8   8   2   -0.08    0.38
  -8   8   2   -0.02    0.35
  -7  -8   2    0.15    0.33
  -7  -8   2   -0.03    0.45
  -7   8   2    0.07    0.36
  -7   8   2   -0.17    0.28
  -6  -8   2    0.16    0.31
   6  -8  -2   -0.35    0.31
  -6  -8   2   -0.11    0.39
  -6   8   2   -0.08    0.29
  -6   8   2   -0.08    0.29
  -5  -8   2    0.44    0.27
  -5  -8   2    0.77    0.38
   5  -8  -2    0.53    0.30
  -5   8   2    0.27    0.28
   5   8  -2    0.59    0.25
  -4  -8   2    6.41    0.49
   4  -8  -2    7.15    0.51
  -4  -8   2    6.50    0.55
   4   8  -2    7.23    0.47
  -4   8   2    7.18    0.46
  -4   8   2    6.63    0.50
   3  -8  -2    0.21    0.27
  -3  -8   2    0.03    0.25
  -3  -8   2    0.03    0.29
   3   8  -2   -0.17    0.19
  -3   8   2    0.16    0.25
  -2  -8   2    6.37    0.49
  -2  -8   2    5.87    0.43
   2  -8  -2    6.29    0.37
   2  -8  -2    6.27    0.46
   2   8  -2    6.63    0.46
  -2   8   2    5.90    0.42
  -1  -8   2    0.55    0.27
  -1  -8   2    0.17    0.22
   1  -8  -2    0.21    0.20
   1  -8  -2    0.11    0.24
   1   8  -2    0.45    0.21
  -1   8   2   -0.15    0.22
   0  -8   2    2.27    0.29
   0  -8  -2    2.13    0.27
   0  -8  -2    2.39    0.34
   0  -8   2    2.33    0.33
   0   8  -2    1.49    0.25
   1  -8   2    0.51    0.22
  -1  -8  -2    0.03    0.25
   1  -8   2    0.62    0.26
  -1  -8  -2    0.23    0.22
  -1   8  -2    0.59    0.22
   2  -8   2    7.60    0.49
   2  -8   2    6.78    0.41
  -2  -8  -2    7.95    0.52
  -2  -8  -2    6.95    0.42
  -2   8  -2    7.20    0.44
   2   8   2    7.63    0.50
  -3  -8  -2    0.58    0.24
   3  -8   2    0.56    0.28
   3  -8   2    0.53    0.22
  -3  -8  -2    0.66    0.32
  -3   8  -2    0.49    0.26
  -3   8  -2    0.20    0.23
   3   8   2    0.32    0.24
   4  -8   2    6.38    0.46
  -4  -8  -2    4.70    0.42
   4  -8   2    5.18    0.38
  -4  -8  -2    6.28    0.54
   4   8   2    6.00    0.47
  -4   8  -2    5.52    0.44
  -4   8  -2    5.59    0.45
  -5  -8  -2    0.57    0.36
  -5  -8  -2    0.10    0.28
  -5   8  -2    0.30    0.27
  -5   8  -2    0.02    0.27
   5   8   2   -0.27    0.20
  -6  -8  -2    0.94    0.33
  -6  -8  -2    0.87    0.43
  -6   8  -2    1.10    0.34
  -6   8  -2    0.87    0.34
  -7  -8  -2    0.42    0.46
  -7  -8  -2   -0.10    0.34
  -7   8  -2    0.01    0.36
  -7   8  -2    0.14    0.31
  -8  -8  -2    0.50    0.39
  -8   8  -2   -0.11    0.39
  -8   8  -2    0.37    0.37
  -7  -9   2   -0.48    0.35
  -7  -9   2   -0.51    0.48
  -7   9   2    0.43    0.40
  -7   9   2    0.22    0.35
   6  -9  -2   -0.39    0.37
  -6  -9   2    0.23    0.44
  -6  -9   2   -0.34    0.33
  -6   9   2   -0.06    0.36
  -6   9   2   -0.32    0.29
  -5  -9   2    0.73    0.39
  -5  -9   2    0.31    0.33
   5  -9  -2    0.45    0.34
  -5   9   2    0.71    0.33
  -5   9   2    0.32    0.32
   4  -9  -2    0.03    0.32
  -4  -9   2    0.45    0.29
  -4  -9   2    0.13    0.34
  -4   9   2   -0.11    0.30
   4   9  -2    0.70    0.28
  -3  -9   2    0.14    0.27
   3  -9  -2    0.40    0.33
  -3  -9   2    0.65    0.38
  -3   9   2    0.06    0.28
  -2  -9   2   -0.22    0.29
  -2  -9   2   -0.28    0.25
   2  -9  -2    0.05    0.22
   2  -9  -2   -0.23    0.28
  -2   9   2    0.24    0.26
   1  -9  -2    0.36    0.24
   1  -9  -2    0.16    0.32
  -1  -9   2    0.12    0.26
  -1  -9   2    0.48    0.30
  -1   9   2    0.12    0.24
   0  -9   2    7.73    0.54
   0  -9  -2    6.49    0.44
   0  -9   2    7.74    0.47
   0  -9  -2    8.29    0.59
   0   9  -2    6.64    0.43
   0   9   2    7.63    0.46
  -1  -9  -2   -0.05    0.32
   1  -9   2    0.01    0.30
  -1  -9  -2   -0.25    0.23
   1  -9   2    0.21    0.24
  -1   9  -2    0.16    0.24
  -2  -9  -2    5.58    0.52
   2  -9   2    4.58    0.43
   2  -9   2    4.31    0.37
  -2  -9  -2    4.01    0.40
  -2   9  -2    3.92    0.37
   3  -9   2    1.26    0.28
  -3  -9  -2    1.54    0.33
   3  -9   2    1.74    0.35
  -3  -9  -2    1.96    0.42
  -3   9  -2    1.46    0.32
  -4  -9  -2    1.07    0.42
   4  -9   2    0.43    0.32
  -4  -9  -2    1.32    0.34
  -4   9  -2    0.62    0.32
   4   9   2    0.97    0.30
  -5  -9  -2    0.78    0.34
  -5  -9  -2    0.17    0.39
  -5   9  -2    0.01    0.30
  -5   9  -2    0.05    0.33
  -6  -9  -2   -0.19    0.44
  -6  -9  -2    0.35    0.35
  -6   9  -2   -0.06    0.36
  -6   9  -2   -0.30    0.32
  -7  -9  -2    0.54    0.38
  -7  -9  -2    0.08    0.52
  -7   9  -2    0.28    0.40
  -7   9  -2    0.18    0.37
  -6 -10   2    0.79    0.41
  -6 -10   2    0.52    0.50
  -6  10   2    0.46    0.42
  -5 -10   2    0.29    0.38
   5 -10  -2    0.76    0.41
  -5 -10   2    0.51    0.47
  -5  10   2    0.61    0.36
  -4 -10   2    1.21    0.47
   4 -10  -2    1.90    0.42
  -4 -10   2    1.75    0.39
  -4  10   2    1.67    0.40
  -3 -10   2    0.25    0.34
   3 -10  -2   -0.14    0.36
  -3 -10   2    0.51    0.41
  -3  10   2   -0.42    0.30
  -2 -10   2    4.62    0.46
  -2 -10   2    4.80    0.51
   2 -10  -2    5.02    0.52
  -2  10   2    5.24    0.46
   1 -10  -2    0.55    0.27
  -1 -10   2    0.17    0.27
   1 -10  -2    0.04    0.35
  -1 -10   2    0.00    0.33
  -1  10   2   -0.09    0.28
   0 -10   2    0.86    0.39
   0 -10  -2    0.75    0.29
   0 -10   2    0.65    0.30
   0 -10  -2    0.91    0.40
   0  10   2    0.72    0.31
   1 -10   2    1.40    0.32
  -1 -10  -2    1.70    0.44
  -1 -10  -2    1.60    0.34
   1 -10   2    1.71    0.40
   1  10   2    1.46    0.32
  -1  10  -2    1.88    0.34
   2 -10   2    1.23    0.39
  -2 -10  -2    2.05    0.36
   2 -10   2    1.58    0.32
  -2 -10  -2    1.02    0.43
  -2  10  -2    1.60    0.35
  -3 -10  -2    0.25    0.43
   3 -10   2    0.70    0.37
   3 -10   2    0.25    0.28
  -3 -10  -2   -0.16    0.28
  -3  10  -2    0.25    0.33
   4 -10   2    2.09    0.41
  -4 -10  -2    2.49    0.53
  -4 -10  -2    1.78    0.39
  -4  10  -2    1.59    0.39
  -5 -10  -2    0.01    0.43
  -5 -10  -2    0.29    0.36
  -5  10  -2   -0.23    0.36
  -6 -10  -2    0.44    0.38
  -6 -10  -2    0.63    0.52
  -6  10  -2    1.13    0.42
  -4 -11   2    0.07    0.38
  -4 -11   2    0.40    0.49
   4 -11  -2    0.62    0.43
  -4  11   2    0.72    0.40
   3 -11  -2    1.37    0.45
  -3 -11   2    1.13    0.40
  -3 -11   2    1.15    0.50
  -3  11   2    1.49    0.38
   2 -11  -2   -0.16    0.41
  -2 -11   2    0.92    0.38
  -2 -11   2    0.85    0.46
  -2  11   2    0.05    0.35
  -1 -11   2    0.78    0.45
  -1 -11   2    0.49    0.35
   1 -11  -2   -0.07    0.41
   1 -11  -2    0.28    0.30
  -1  11   2    0.15    0.33
   0 -11  -2    0.64    0.43
   0 -11  -2    0.40    0.31
   0 -11   2    0.21    0.32
   0 -11   2    0.36    0.42
   0  11   2    0.41    0.33
   1 -11   2   -0.24    0.31
  -1 -11  -2    0.61    0.45
  -1 -11  -2    0.59    0.34
   1 -11   2    0.52    0.42
  -2 -11  -2   -0.02    0.45
   2 -11   2    0.15    0.32
   2 -11   2   -0.36    0.40
  -2 -11  -2    0.19    0.34
  -2  11  -2   -0.36    0.33
   3 -11   2   -0.19    0.39
  -3 -11  -2    0.04    0.33
  -3 -11  -2    0.32    0.44
  -3  11  -2    0.57    0.37
  -4 -11  -2    0.79    0.52
   4 -11   2    0.13    0.40
  -4 -11  -2    0.28    0.38
  -4  11  -2   -0.20    0.37
  -9   0   3    7.58    0.49
   8   0  -3   -0.04    0.26
  -8   0   3   -0.23    0.17
  -8   0   3   -0.06    0.21
  -7   0   3   30.35    1.19
  -7   0   3   32.00    1.06
  -7   0   3   30.77    1.05
   7   0  -3   31.10    1.15
  -7   0   3   31.52    1.12
  -6   0   3    0.06    0.13
  -6   0   3    0.00    0.13
  -6   0   3    0.02    0.14
  -6   0   3    0.14    0.13
  -5   0   3   86.55    2.74
  -5   0   3   83.90    2.84
  -5   0   3   84.59    2.52
  -4   0   3   -0.04    0.05
   4   0  -3   -0.06    0.06
  -4   0   3   -0.03    0.08
   3   0  -3  119.22    3.87
  -3   0   3  118.61    3.78
   3   0  -3  122.21    3.89
   2   0  -3    0.00    0.03
  -2   0   3   -0.03    0.03
   2   0  -3    0.01    0.03
   1   0  -3   44.84    1.47
   0   0  -3    0.01    0.03
   1   0   3  116.90    3.81
   1   0   3  117.96    3.80
   2   0   3   -0.05    0.08
   3   0   3    8.12    0.36
   3   0   3    8.12    0.31
  -3   0  -3    8.67    0.36
   4   0   3    0.06    0.05
  -4   0  -3   -0.05    0.09
  -4   0  -3    0.07    0.09
  -4   0  -3   -0.02    0.10
  -5   0  -3   39.36    1.24
  -5   0  -3   38.14    1.23
   5   0   3   37.87    1.27
  -5   0  -3   40.17    1.40
  -5   0  -3   37.47    1.29
   6   0   3   -0.10    0.06
  -6   0  -3   -0.01    0.15
  -6   0  -3   -0.13    0.14
  -6   0  -3    0.09    0.15
  -6   0  -3    0.18    0.17
  -7   0  -3   24.35    0.90
  -7   0  -3   23.70    0.89
  -7   0  -3   24.01    0.91
  -8   0  -3    0.08    0.24
  -8   0  -3    0.10    0.21
  -8   0  -3    0.08    0.21
  -9   0  -3    0.78    0.30
  -9   0  -3    0.50    0.30
 -10   0  -3    0.27    0.35
 -10   0  -3    0.17    0.32
 -10   1   3   -0.30    0.27
  -9   1   3    1.15    0.31
  -9   1   3    1.25    0.29
   8  -1  -3    3.06    0.37
  -8  -1   3    2.48    0.31
  -8   1   3    2.57    0.31
  -8   1   3    2.81    0.31
  -7  -1   3   -0.07    0.05
  -7  -1   3    0.33    0.17
  -7  -1   3    0.08    0.17
   7  -1  -3    0.23    0.22
  -7   1   3    0.52    0.20
  -7   1   3    0.08    0.17
  -7   1   3    0.07    0.18
  -6  -1   3    0.39    0.15
  -6  -1   3    0.14    0.13
  -6  -1   3    0.02    0.09
   6  -1  -3    0.12    0.18
  -6   1   3    0.48    0.15
  -6   1   3    0.35    0.16
  -6   1   3    0.54    0.16
  -6   1   3    0.27    0.15
   5  -1  -3    0.64    0.18
  -5  -1   3    0.75    0.12
  -5  -1   3    0.59    0.14
  -5  -1   3    0.78    0.13
   5   1  -3    0.78    0.07
  -5   1   3    0.72    0.15
  -5   1   3    1.29    0.16
  -5   1   3    0.82    0.15
  -4  -1   3   16.80    0.59
   4   1  -3   16.74    0.56
  -4   1   3   17.26    0.56
  -4   1   3   16.90    0.64
   4   1  -3   16.78    0.62
  -4   1   3   16.36    0.61
  -3   1   3   48.50    1.59
  -3   1   3   48.91    1.64
   3   1  -3   49.49    1.59
   3   1  -3   48.64    1.62
   2   1  -3   72.01    2.27
   2   1  -3   67.86    2.27
   1   1  -3   48.13    1.57
   0   1  -3   41.74    1.31
   0   1  -3   38.07    1.32
   1  -1   3    0.44    0.06
   1  -1   3    0.51    0.05
  -1   1  -3    0.52    0.06
  -1   1  -3    0.51    0.05
   2  -1   3    1.37    0.09
   2  -1   3    1.32    0.11
  -2   1  -3    1.47    0.12
   3  -1   3   17.44    0.61
   3  -1   3   17.43    0.66
   3   1   3   17.70    0.67
  -3   1  -3   17.21    0.62
  -3   1  -3   17.83    0.66
  -3   1  -3   17.99    0.58
   3   1   3   17.81    0.60
  -4  -1  -3   68.09    2.02
  -4  -1  -3   66.48    2.01
   4  -1   3   66.57    2.18
  -4  -1  -3   66.98    2.14
  -4   1  -3   65.78    2.16
  -4   1  -3   64.26    2.25
  -4   1  -3   66.70    2.00
   4   1   3   68.63    2.18
   5  -1   3    0.30    0.07
  -5  -1  -3    0.29    0.12
  -5  -1  -3    0.29    0.14
  -5  -1  -3    0.20    0.11
   5   1   3    0.35    0.08
  -5   1  -3    0.51    0.15
  -5   1  -3    0.17    0.14
  -5   1  -3    0.30    0.13
  -5   1  -3    0.12    0.14
  -6  -1  -3    2.99    0.23
  -6  -1  -3    3.14    0.27
  -6  -1  -3    2.97    0.28
   6  -1   3    2.76    0.17
  -6   1  -3    3.00    0.26
  -6   1  -3    2.60    0.26
   6   1   3    2.79    0.17
  -6   1  -3    2.70    0.27
  -6   1  -3    3.08    0.28
  -7  -1  -3    0.25    0.18
  -7  -1  -3    0.31    0.21
  -7   1  -3   -0.01    0.20
  -7   1  -3    0.04    0.20
  -7   1  -3    0.32    0.19
  -8  -1  -3    4.93    0.40
  -8  -1  -3    3.73    0.39
  -8   1  -3    4.07    0.41
  -8   1  -3    4.57    0.40
  -8   1  -3    4.30    0.37
  -9  -1  -3   -0.09    0.24
  -9  -1  -3    0.19    0.29
  -9   1  -3    0.16    0.26
  -9   1  -3    0.11    0.28
 -10  -1  -3    0.71    0.36
 -10  -1  -3    0.51    0.33
 -10   1  -3    0.98    0.37
 -11   1  -3    1.04    0.43
 -11   2   3    1.00    0.37
 -10   2   3    0.39    0.31
 -10   2   3    0.40    0.33
  -9   2   3    0.00    0.26
  -9   2   3   -0.10    0.26
  -8  -2   3    0.57    0.22
  -8   2   3    0.89    0.26
  -8   2   3    0.47    0.25
   7  -2  -3    0.00    0.21
  -7  -2   3    0.23    0.17
  -7   2   3    0.35    0.19
  -7   2   3    0.51    0.20
  -6  -2   3    7.28    0.36
  -6  -2   3    6.85    0.35
   6  -2  -3    7.42    0.40
  -6  -2   3    7.58    0.37
  -6   2   3    7.90    0.43
   6   2  -3    7.04    0.28
  -6   2   3    7.22    0.38
  -6   2   3    7.36    0.41
  -5  -2   3    7.25    0.33
  -5  -2   3    6.98    0.32
  -5  -2   3    7.16    0.34
   5  -2  -3    7.83    0.38
  -5   2   3    7.05    0.35
   5   2  -3    7.83    0.29
  -5   2   3    7.39    0.38
  -5   2   3    7.40    0.37
  -4  -2   3    0.18    0.08
   4  -2  -3    0.00    0.12
   4   2  -3    0.13    0.09
  -4   2   3    0.29    0.11
  -4   2   3    0.20    0.10
   4   2  -3    0.13    0.06
  -4   2   3    0.16    0.10
  -3   2   3   48.32    1.43
   3   2  -3   47.78    1.59
   3   2  -3   47.22    1.57
  -3   2   3   46.83    1.56
   2   2  -3   33.67    1.13
  -2   2   3   33.81    1.11
   1   2  -3    0.21    0.05
   0   2  -3   68.45    2.25
  -1   2  -3  177.27    5.73
  -1   2  -3  177.14    5.73
   2  -2   3   15.00    0.55
  -2   2  -3   15.56    0.55
  -2   2  -3   15.37    0.57
   3  -2   3  118.19    3.74
  -3  -2  -3  108.47    3.37
  -3   2  -3  115.54    3.78
  -3   2  -3  115.75    3.36
  -3   2  -3  116.10    3.65
   4  -2   3    8.29    0.34
  -4  -2  -3    8.33    0.38
  -4  -2  -3    8.50    0.36
  -4   2  -3    8.47    0.40
  -4   2  -3    8.57    0.36
  -4   2  -3    8.61    0.40
  -5  -2  -3   19.29    0.70
  -5  -2  -3   20.28    0.73
  -5   2  -3   19.85    0.79
  -5   2  -3   19.92    0.75
  -5   2  -3   18.81    0.70
  -6  -2  -3    0.12    0.15
  -6  -2  -3    0.08    0.18
  -6   2  -3    0.09    0.18
  -6   2  -3    0.44    0.17
  -7  -2  -3    0.35    0.19
  -7  -2  -3    0.10    0.22
   7   2   3    0.31    0.08
  -7   2  -3    0.27    0.21
  -7   2  -3   -0.14    0.21
  -8  -2  -3    3.40    0.35
  -8  -2  -3    2.56    0.36
  -8   2  -3    2.94    0.36
  -8   2  -3    2.99    0.35
  -9  -2  -3    0.25    0.31
  -9  -2  -3    0.34    0.29
  -9   2  -3    0.49    0.31
  -9   2  -3    1.02    0.32
 -10  -2  -3   -0.22    0.30
 -10   2  -3    0.35    0.33
 -10   2  -3   -0.06    0.33
 -11  -2  -3   -0.11    0.35
 -11   2  -3   -0.19    0.38
 -11   3   3    0.41    0.37
 -10   3   3    6.23    0.53
 -10   3   3    6.81    0.56
  -9   3   3    1.86    0.35
  -9   3   3    1.46    0.33
  -8  -3   3    6.81    0.44
   8   3  -3    7.52    0.31
  -8   3   3    7.88    0.52
  -8   3   3    7.46    0.48
   7  -3  -3    6.80    0.41
  -7  -3   3    6.33    0.36
   7   3  -3    6.03    0.28
  -7   3   3    5.96    0.42
  -7   3   3    5.83    0.38
   6  -3  -3    4.28    0.32
  -6  -3   3    3.79    0.29
  -6   3   3    3.87    0.31
  -6   3   3    4.00    0.33
  -6   3   3    3.42    0.30
   6   3  -3    3.72    0.22
  -5  -3   3    3.03    0.21
   5  -3  -3    2.30    0.24
  -5  -3   3    2.79    0.23
  -5  -3   3    2.40    0.28
   5   3  -3    2.52    0.18
  -5   3   3    2.55    0.24
  -5   3   3    2.10    0.23
  -5   3   3    2.66    0.24
  -4  -3   3  176.58    5.32
   4  -3  -3  180.21    5.54
  -4  -3   3  179.56    5.57
  -4   3   3  181.13    5.77
  -4   3   3  179.97    5.96
   4   3  -3  193.85    5.91
  -4   3   3  183.64    5.30
   3  -3  -3    0.61    0.13
  -3  -3   3    0.71    0.14
  -3   3   3    0.41    0.12
   3   3  -3    0.26    0.09
  -3   3   3    0.62    0.13
  -2   3   3    0.60    0.10
   2   3  -3    0.64    0.09
  -2   3   3    0.77    0.10
  -2   3   3    0.92    0.10
   1   3  -3   28.65    0.99
   0   3  -3   84.29    2.77
  -1   3  -3   13.55    0.50
  -1   3  -3   13.79    0.51
  -2   3  -3   40.54    1.36
  -2   3  -3   39.25    1.32
  -2   3  -3   39.78    1.37
  -2   3  -3   40.31    1.22
   3  -3   3    1.08    0.12
  -3  -3  -3    1.31    0.15
  -3   3  -3    1.21    0.16
  -3   3  -3    1.07    0.15
  -3   3  -3    1.14    0.14
  -4  -3  -3    0.78    0.15
  -4  -3  -3    0.64    0.14
  -4  -3  -3    1.19    0.18
   4  -3   3    0.88    0.15
  -4   3  -3    1.02    0.15
  -4   3  -3    0.67    0.15
  -4   3  -3    0.76    0.15
  -5  -3  -3    5.16    0.31
  -5  -3  -3    4.27    0.31
   5  -3   3    4.50    0.31
  -5  -3  -3    4.75    0.35
  -5   3  -3    4.44    0.33
  -5   3  -3    4.90    0.32
  -5   3  -3    4.46    0.29
   6  -3   3    0.23    0.18
  -6  -3  -3    0.11    0.17
  -6  -3  -3    0.08    0.18
  -6   3  -3    0.44    0.19
  -6   3  -3    0.14    0.18
   7  -3   3    0.88    0.23
  -7  -3  -3   -0.01    0.21
  -7  -3  -3    0.56    0.24
  -7   3  -3    0.69    0.24
  -7   3  -3    0.23    0.22
   7   3   3    0.44    0.12
   8  -3   3    2.48    0.33
  -8  -3  -3    2.45    0.32
  -8  -3  -3    3.07    0.37
   8   3   3    2.54    0.20
  -8   3  -3    3.59    0.39
  -8   3  -3    2.60    0.36
  -9  -3  -3    0.41    0.28
  -9   3  -3    0.48    0.32
  -9   3  -3    0.41    0.32
 -10  -3  -3    0.10    0.32
 -10   3  -3    0.09    0.35
 -10   3  -3    0.19    0.35
 -11  -3  -3    0.48    0.38
 -11   3  -3    0.78    0.42
 -11   3  -3    0.57    0.40
 -11   4   3    0.06    0.40
 -11   4   3    0.38    0.39
 -10  -4   3    0.33    0.32
 -10   4   3    0.62    0.34
 -10   4   3    0.29    0.37
  -9  -4   3    1.13    0.31
  -9   4   3    2.38    0.39
   9   4  -3    1.95    0.17
  -9   4   3    2.00    0.36
  -8  -4   3    2.69    0.33
   8   4  -3    2.45    0.20
  -8   4   3    2.99    0.38
  -8   4   3    1.74    0.33
   7  -4  -3    0.37    0.24
  -7  -4   3    0.57    0.22
   7   4  -3    0.51    0.14
  -7   4   3    0.92    0.26
  -7   4   3    0.60    0.26
  -6  -4   3    0.53    0.19
   6  -4  -3    0.48    0.22
  -6   4   3    0.93    0.22
   6   4  -3    0.81    0.14
  -6   4   3    0.73    0.21
  -5  -4   3    3.77    0.27
  -5  -4   3    3.98    0.36
   5  -4  -3    4.07    0.30
  -5   4   3    3.83    0.31
  -5   4   3    3.42    0.29
  -5   4   3    3.84    0.30
   5   4  -3    3.82    0.24
   4  -4  -3    7.06    0.36
  -4  -4   3    6.38    0.34
  -4  -4   3    6.58    0.40
  -4   4   3    6.99    0.34
  -4   4   3    6.78    0.36
   4   4  -3    6.66    0.33
   3  -4  -3   15.21    0.57
  -3  -4   3   14.90    0.55
  -3  -4   3   15.60    0.61
   3   4  -3   15.39    0.58
  -3   4   3   15.35    0.55
  -3   4   3   14.97    0.59
  -2  -4   3   14.36    0.57
   2  -4  -3   14.30    0.55
   2   4  -3   15.60    0.57
  -2   4   3   15.12    0.53
  -2   4   3   14.53    0.56
  -2   4   3   14.41    0.57
   1  -4  -3   49.78    1.60
  -1  -4   3   49.96    1.61
  -1   4   3   49.51    1.71
   1   4  -3   51.81    1.71
  -1   4   3   51.73    1.64
   0  -4  -3    4.35    0.24
   0  -4   3    4.22    0.24
   0   4  -3    4.26    0.21
   0   4  -3    4.45    0.25
   0   4   3    4.17    0.25
  -1  -4  -3    0.62    0.13
  -1   4  -3    0.36    0.10
  -1   4  -3    0.59    0.11
  -1   4  -3    0.48    0.11
   2  -4   3    0.05    0.09
  -2  -4  -3    0.02    0.10
  -2  -4  -3    0.13    0.13
   2  -4   3    0.06    0.10
  -2   4  -3    0.07    0.12
  -2   4  -3    0.32    0.12
  -2   4  -3   -0.05    0.09
   3  -4   3   14.30    0.52
  -3  -4  -3   14.39    0.53
   3  -4   3   14.52    0.53
  -3  -4  -3   14.37    0.58
  -3   4  -3   15.52    0.54
  -3   4  -3   14.48    0.59
  -3   4  -3   14.07    0.60
   4  -4   3    0.78    0.15
   4  -4   3    0.84    0.15
  -4  -4  -3    0.53    0.16
  -4  -4  -3    0.77    0.21
  -4   4  -3    0.63    0.16
  -4   4  -3    0.77    0.19
  -4   4  -3    0.59    0.16
  -5  -4  -3    4.41    0.36
  -5  -4  -3    2.89    0.26
   5  -4   3    3.43    0.27
  -5   4  -3    3.52    0.31
  -5   4  -3    3.01    0.28
   5   4   3    2.93    0.22
  -6  -4  -3    1.49    0.30
   6  -4   3    1.72    0.24
  -6  -4  -3    1.49    0.24
  -6  -4  -3    1.72    0.26
  -6   4  -3    2.00    0.29
   6   4   3    1.52    0.17
  -6   4  -3    1.36    0.24
  -7  -4  -3    2.81    0.31
  -7  -4  -3    2.89    0.32
   7  -4   3    2.88    0.31
  -7   4  -3    2.62    0.33
  -7   4  -3    2.67    0.34
   7   4   3    3.08    0.23
  -8  -4  -3    0.12    0.24
   8   4   3    0.11    0.13
  -8   4  -3   -0.08    0.28
  -8   4  -3   -0.01    0.27
  -9  -4  -3    5.03    0.47
  -9   4  -3    4.12    0.47
  -9   4  -3    4.04    0.48
 -10  -4  -3   -0.12    0.32
 -10   4  -3   -0.05    0.38
 -10   4  -3    0.19    0.37
 -10  -5   3    0.08    0.33
 -10   5   3    0.24    0.37
 -10   5   3    0.51    0.39
  -9  -5   3    0.28    0.29
  -9   5   3    0.54    0.32
  -9   5   3    0.54    0.34
  -8  -5   3    0.55    0.27
  -8   5   3    0.44    0.28
  -8   5   3    0.08    0.29
   8   5  -3    0.40    0.16
   7  -5  -3    7.81    0.50
  -7  -5   3    7.40    0.45
  -7   5   3    8.91    0.55
   7   5  -3    8.04    0.40
  -7   5   3    8.13    0.51
  -6  -5   3    0.17    0.19
   6  -5  -3    0.17    0.22
  -6  -5   3    0.12    0.28
  -6   5   3    0.02    0.23
   6   5  -3    0.09    0.13
  -6   5   3    0.38    0.22
   5  -5  -3   15.75    0.63
  -5  -5   3   15.98    0.64
  -5  -5   3   16.14    0.73
   5   5  -3   15.95    0.64
  -5   5   3   16.08    0.69
  -5   5   3   15.60    0.64
  -4  -5   3    9.82    0.46
   4  -5  -3   10.65    0.48
  -4  -5   3   10.24    0.53
  -4   5   3   10.08    0.48
  -4   5   3    9.89    0.47
   4   5  -3   10.52    0.47
  -3  -5   3    0.38    0.15
   3  -5  -3    0.29    0.17
  -3  -5   3   -0.01    0.18
   3  -5  -3    0.06    0.11
  -3   5   3    0.17    0.15
  -3   5   3    0.22    0.14
   3   5  -3    0.10    0.13
   2  -5  -3   24.73    0.86
   2  -5  -3   25.34    0.79
  -2  -5   3   23.80    0.82
  -2  -5   3   23.56    0.87
   2   5  -3   24.10    0.90
  -2   5   3   24.40    0.87
  -2   5   3   25.00    0.83
   1  -5  -3   13.13    0.52
  -1  -5   3   13.43    0.50
  -1  -5   3   13.34    0.54
   1  -5  -3   13.99    0.48
  -1   5   3   13.45    0.51
  -1   5   3   13.24    0.56
   0  -5   3    0.22    0.11
   0  -5  -3    0.37    0.12
   0  -5   3    0.16    0.14
   0  -5  -3    0.09    0.13
   0   5   3    0.33    0.13
   0   5  -3    0.41    0.12
   0   5  -3    0.16    0.10
   0   5  -3    0.00    0.11
   1  -5   3   14.38    0.53
  -1  -5  -3   14.71    0.53
  -1  -5  -3   14.69    0.58
   1  -5   3   14.60    0.55
  -1   5  -3   14.69    0.56
  -1   5  -3   14.19    0.59
  -1   5  -3   14.96    0.52
   1   5   3   14.23    0.60
  -2  -5  -3   52.65    1.61
  -2  -5  -3   51.82    1.69
   2  -5   3   51.38    1.65
   2  -5   3   51.23    1.60
  -2   5  -3   52.58    1.73
   2   5   3   52.32    1.79
  -2   5  -3   51.53    1.60
   3  -5   3    4.90    0.31
   3  -5   3    5.35    0.29
  -3  -5  -3    5.19    0.36
  -3  -5  -3    5.11    0.29
  -3   5  -3    4.69    0.31
   3   5   3    5.28    0.32
  -3   5  -3    4.70    0.30
  -3   5  -3    5.05    0.35
  -4  -5  -3    2.15    0.30
   4  -5   3    2.42    0.22
  -4  -5  -3    2.60    0.26
   4  -5   3    2.82    0.24
   4   5   3    2.46    0.22
  -4   5  -3    2.56    0.25
  -4   5  -3    2.94    0.29
  -5  -5  -3    0.27    0.19
  -5  -5  -3   -0.05    0.23
   5  -5   3   -0.14    0.16
  -5   5  -3    0.24    0.21
   5   5   3   -0.11    0.13
  -5   5  -3    0.05    0.19
  -6  -5  -3    2.07    0.27
  -6  -5  -3    2.62    0.37
   6  -5   3    2.01    0.25
  -6   5  -3    1.99    0.30
  -6   5  -3    2.16    0.29
   6   5   3    1.58    0.20
  -7  -5  -3    1.64    0.38
  -7  -5  -3    2.42    0.33
  -7   5  -3    1.78    0.31
  -7   5  -3    2.05    0.35
   7   5   3    2.15    0.22
  -8  -5  -3    1.25    0.30
   8   5   3    1.19    0.19
  -8   5  -3    1.15    0.34
  -8   5  -3    0.55    0.34
  -9  -5  -3    1.70    0.38
  -9   5  -3    1.12    0.40
  -9   5  -3    1.73    0.39
 -10  -5  -3    0.47    0.36
 -10   5  -3   -0.03    0.39
 -10   5  -3    0.37    0.41
 -10  -6   3    0.10    0.35
 -10   6   3    0.24    0.39
 -10   6   3    0.22    0.41
  -9  -6   3    0.34    0.33
  -9   6   3    0.11    0.36
  -9   6   3    0.25    0.34
  -8  -6   3    0.19    0.29
  -8   6   3   -0.05    0.31
  -8   6   3   -0.08    0.28
   7  -6  -3    2.02    0.33
  -7  -6   3    1.58    0.30
  -7  -6   3    1.92    0.43
  -7   6   3    1.39    0.33
   7   6  -3    1.56    0.22
  -7   6   3    1.70    0.36
  -6  -6   3    0.05    0.23
   6  -6  -3    0.45    0.26
  -6  -6   3    0.17    0.33
   6   6  -3    0.45    0.18
  -6   6   3    0.55    0.27
  -6   6   3    0.18    0.26
  -5  -6   3    8.06    0.46
   5  -6  -3    8.59    0.47
  -5  -6   3    8.40    0.53
  -5   6   3    7.46    0.45
  -5   6   3    8.22    0.48
   5   6  -3    8.54    0.44
  -4  -6   3    0.78    0.20
  -4  -6   3    0.65    0.27
   4  -6  -3    0.60    0.22
   4   6  -3    0.48    0.17
  -4   6   3    0.54    0.20
  -4   6   3    0.80    0.21
   3  -6  -3   25.08    0.92
  -3  -6   3   25.50    0.91
  -3  -6   3   23.40    0.95
   3  -6  -3   26.48    0.85
  -3   6   3   25.50    0.90
   3   6  -3   27.76    1.00
  -3   6   3   26.07    0.96
  -2  -6   3    0.36    0.16
   2  -6  -3    0.27    0.14
   2  -6  -3    0.50    0.20
  -2  -6   3    0.71    0.20
  -2   6   3    0.11    0.15
   2   6  -3    0.72    0.17
  -2   6   3    0.21    0.16
   1  -6  -3    1.18    0.21
  -1  -6   3    1.07    0.18
   1  -6  -3    1.25    0.17
  -1  -6   3    1.29    0.22
  -1   6   3    1.27    0.17
   0  -6  -3    8.44    0.38
   0  -6   3    9.12    0.39
   0  -6  -3    8.93    0.43
   0  -6   3    9.03    0.44
   0   6  -3    7.93    0.44
   0   6   3    8.22    0.45
   0   6  -3    8.93    0.38
  -1  -6  -3   78.12    2.49
  -1  -6  -3   77.24    2.37
   1  -6   3   78.02    2.46
   1  -6   3   78.61    2.37
  -1   6  -3   77.79    2.35
  -1   6  -3   79.81    2.55
  -2  -6  -3    1.21    0.20
  -2  -6  -3    1.65    0.26
   2  -6   3    1.08    0.21
   2  -6   3    1.31    0.20
  -2   6  -3    1.41    0.21
   2   6   3    1.07    0.20
  -2   6  -3    1.99    0.22
  -3  -6  -3   34.03    1.25
   3  -6   3   36.49    1.17
   3  -6   3   34.26    1.19
  -3  -6  -3   35.13    1.19
   3   6   3   37.99    1.32
  -3   6  -3   35.60    1.18
  -3   6  -3   35.70    1.28
  -4  -6  -3    3.33    0.30
  -4  -6  -3    2.70    0.34
   4  -6   3    3.49    0.28
   4  -6   3    3.33    0.28
  -4   6  -3    3.32    0.32
  -4   6  -3    2.82    0.28
   4   6   3    2.79    0.26
   5  -6   3    1.90    0.25
  -5  -6  -3    1.42    0.26
  -5  -6  -3    1.11    0.32
  -5   6  -3    1.28    0.26
   5   6   3    1.64    0.23
  -5   6  -3    1.66    0.30
  -6  -6  -3    0.01    0.24
  -6  -6  -3    0.41    0.32
   6  -6   3    0.47    0.22
  -6   6  -3    0.37    0.27
   6   6   3   -0.05    0.17
  -6   6  -3   -0.11    0.24
  -7  -6  -3   -0.05    0.35
  -7  -6  -3    0.33    0.28
   7   6   3    0.15    0.17
  -7   6  -3    0.06    0.30
  -7   6  -3   -0.19    0.29
  -8  -6  -3   -0.02    0.31
  -8   6  -3    0.21    0.33
  -8   6  -3   -0.26    0.32
  -9  -6  -3    0.13    0.35
  -9   6  -3    0.10    0.36
  -9   6  -3    0.23    0.38
  -9  -7   3   -0.21    0.32
  -9   7   3    1.20    0.42
  -9   7   3   -0.36    0.38
  -8  -7   3    0.00    0.32
  -8   7   3   -0.04    0.30
  -8   7   3   -0.36    0.31
  -7  -7   3    1.28    0.46
   7  -7  -3    1.86    0.35
  -7  -7   3    1.55    0.32
  -7   7   3    2.19    0.38
  -7   7   3    1.54    0.36
   6  -7  -3    0.01    0.27
  -6  -7   3    0.48    0.26
  -6  -7   3   -0.13    0.35
  -6   7   3    0.05    0.25
  -6   7   3   -0.10    0.28
   6   7  -3   -0.07    0.18
   5  -7  -3    2.48    0.32
  -5  -7   3    2.42    0.34
  -5  -7   3    1.93    0.38
   5   7  -3    2.08    0.27
  -5   7   3    2.10    0.32
  -5   7   3    1.64    0.30
  -4  -7   3    0.96    0.25
  -4  -7   3    0.82    0.29
   4  -7  -3    1.02    0.27
   4   7  -3    0.71    0.21
  -4   7   3    1.13    0.27
  -4   7   3    1.19    0.27
   3  -7  -3    0.64    0.25
  -3  -7   3    0.84    0.23
  -3  -7   3    0.47    0.27
   3   7  -3    0.38    0.19
  -3   7   3    0.55    0.22
  -3   7   3    0.36    0.22
   2  -7  -3   11.21    0.45
   2  -7  -3   10.20    0.53
  -2  -7   3   10.80    0.54
  -2  -7   3    9.96    0.50
   2   7  -3   10.58    0.54
  -2   7   3    9.59    0.47
  -1  -7   3    1.00    0.25
   1  -7  -3    0.91    0.19
  -1  -7   3    1.06    0.21
   1  -7  -3    1.23    0.26
  -1   7   3    0.92    0.22
   1   7  -3    0.97    0.19
   1   7  -3    0.90    0.20
   0  -7   3    4.37    0.34
   0  -7   3    2.89    0.27
   0  -7  -3    3.59    0.28
   0  -7  -3    3.48    0.32
   0   7  -3    3.95    0.28
  -1  -7  -3   28.58    1.00
  -1  -7  -3   30.17    1.07
   1  -7   3   29.96    1.04
   1  -7   3   29.74    1.00
  -1   7  -3   28.06    0.98
   2  -7   3    0.45    0.22
   2  -7   3    0.10    0.17
  -2  -7  -3    0.06    0.24
  -2  -7  -3    0.36    0.20
  -2   7  -3    0.40    0.20
   2   7   3    0.21    0.17
  -2   7  -3    0.11    0.19
  -3  -7  -3    2.14    0.27
   3  -7   3    2.38    0.27
   3  -7   3    2.62    0.29
  -3  -7  -3    2.12    0.32
   3   7   3    2.45    0.28
  -3   7  -3    2.32    0.30
  -3   7  -3    2.76    0.28
  -4  -7  -3   15.91    0.78
   4  -7   3   16.42    0.65
   4  -7   3   15.33    0.63
  -4  -7  -3   15.64    0.68
  -4   7  -3   14.90    0.65
   4   7   3   15.33    0.71
  -4   7  -3   15.03    0.72
   5  -7   3    1.71    0.26
  -5  -7  -3    1.22    0.36
  -5  -7  -3    1.61    0.31
  -5   7  -3    1.39    0.31
  -5   7  -3    1.49    0.29
   5   7   3    1.58    0.26
  -6  -7  -3    0.10    0.25
  -6  -7  -3    0.17    0.36
  -6   7  -3   -0.64    0.26
   6   7   3    0.17    0.20
  -6   7  -3   -0.11    0.29
  -7  -7  -3    0.24    0.40
  -7  -7  -3    0.49    0.33
  -7   7  -3    0.17    0.30
  -7   7  -3    0.03    0.29
  -8  -7  -3   -0.02    0.34
  -8   7  -3    0.27    0.33
  -8   7  -3    0.66    0.39
  -9  -7  -3   -0.05    0.37
  -9   7  -3    0.13    0.42
  -9   7  -3    0.58    0.41
  -8  -8   3    0.36    0.36
  -8   8   3    1.07    0.42
  -8   8   3    0.00    0.37
  -7  -8   3   -0.09    0.31
  -7  -8   3    0.44    0.46
  -7   8   3    0.27    0.32
  -7   8   3    0.67    0.37
   6  -8  -3    2.14    0.37
  -6  -8   3    1.70    0.36
  -6  -8   3    1.96    0.46
  -6   8   3    1.82    0.36
  -6   8   3    1.42    0.35
  -5  -8   3    0.77    0.38
   5  -8  -3    1.20    0.33
  -5  -8   3    1.19    0.33
   5   8  -3    0.54    0.25
  -5   8   3    0.63    0.30
  -5   8   3    0.99    0.31
  -4  -8   3    2.17    0.34
   4  -8  -3    1.58    0.31
  -4  -8   3    1.82    0.37
   4   8  -3    1.72    0.29
  -4   8   3    1.91    0.32
  -4   8   3    1.21    0.31
  -3  -8   3    9.54    0.54
   3  -8  -3   11.19    0.59
  -3  -8   3   10.22    0.62
  -3   8   3   10.47    0.53
   3   8  -3   10.61    0.60
   2  -8  -3    3.16    0.35
  -2  -8   3    2.96    0.32
   2  -8  -3    3.29    0.29
  -2  -8   3    3.20    0.37
  -2   8   3    3.04    0.31
   2   8  -3    2.96    0.34
   1  -8  -3    4.12    0.39
  -1  -8   3    4.61    0.36
   1  -8  -3    4.35    0.33
  -1  -8   3    4.22    0.39
  -1   8   3    3.88    0.35
   0  -8   3    4.10    0.39
   0  -8  -3    4.18    0.39
   0  -8   3    4.35    0.35
   0  -8  -3    3.90    0.33
   0   8  -3    4.67    0.33
  -1  -8  -3    1.61    0.26
   1  -8   3    1.46    0.25
   1  -8   3    1.61    0.29
  -1  -8  -3    1.55    0.33
  -1   8  -3    1.41    0.25
  -2  -8  -3    0.33    0.28
   2  -8   3    0.57    0.23
   2  -8   3    0.98    0.27
  -2  -8  -3    0.36    0.22
  -2   8  -3    0.20    0.23
   2   8   3    0.15    0.23
  -3  -8  -3    1.39    0.35
   3  -8   3    0.84    0.24
  -3  -8  -3    2.12    0.31
   3  -8   3    0.99    0.28
  -3   8  -3    1.42    0.28
  -3   8  -3    1.12    0.29
   3   8   3    0.86    0.25
   4  -8   3    5.46    0.43
  -4  -8  -3    6.75    0.57
   4  -8   3    5.91    0.39
  -4  -8  -3    5.71    0.45
  -4   8  -3    5.50    0.46
  -4   8  -3    5.25    0.44
   4   8   3    6.72    0.46
  -5  -8  -3    0.49    0.40
  -5  -8  -3    0.41    0.27
  -5   8  -3    0.56    0.31
   5   8   3    0.47    0.24
  -5   8  -3    0.54    0.30
  -6  -8  -3    0.47    0.29
  -6  -8  -3    0.08    0.41
  -6   8  -3    0.77    0.33
  -6   8  -3    0.17    0.30
  -7  -8  -3    1.21    0.49
  -7  -8  -3    1.21    0.36
  -7   8  -3    1.40    0.40
  -7   8  -3    0.86    0.36
  -8  -8  -3    0.54    0.38
  -8   8  -3    1.11    0.44
  -8   8  -3    0.38    0.39
  -7  -9   3   -0.52    0.49
  -7  -9   3   -0.03    0.37
  -7   9   3   -0.37    0.35
  -7   9   3    0.18    0.40
  -6  -9   3    0.30    0.46
  -6  -9   3    0.36    0.33
   6  -9  -3    0.06    0.37
  -6   9   3    0.49    0.34
  -6   9   3   -0.41    0.35
  -5  -9   3    3.48    0.52
  -5  -9   3    3.41    0.43
   5  -9  -3    3.12    0.43
  -5   9   3    3.23    0.44
  -5   9   3    2.83    0.40
  -4  -9   3    8.29    0.55
   4  -9  -3    9.53    0.63
  -4  -9   3    9.49    0.64
  -4   9   3    8.93    0.58
   4   9  -3    9.91    0.60
   3  -9  -3    2.89    0.41
  -3  -9   3    2.82    0.44
  -3  -9   3    3.16    0.39
  -3   9   3    3.19    0.38
   2  -9  -3    1.80    0.37
  -2  -9   3    0.81    0.29
  -2  -9   3    1.19    0.37
  -2   9   3    0.96    0.30
   1  -9  -3   -0.03    0.29
   1  -9  -3    0.27    0.23
  -1  -9   3    0.41    0.27
  -1  -9   3   -0.26    0.31
  -1   9   3   -0.41    0.25
   0  -9   3    4.36    0.44
   0  -9  -3    4.80    0.38
   0  -9   3    4.92    0.40
   0  -9  -3    5.56    0.48
   0   9  -3    4.37    0.37
   0   9   3    5.32    0.41
  -1  -9  -3    0.26    0.22
   1  -9   3    0.12    0.22
  -1  -9  -3    0.08    0.34
   1  -9   3    0.08    0.29
  -1   9  -3    0.20    0.24
   2  -9   3    4.94    0.43
  -2  -9  -3    3.43    0.37
   2  -9   3    3.84    0.36
  -2  -9  -3    4.30    0.49
  -2   9  -3    4.40    0.39
   3  -9   3    0.43    0.30
   3  -9   3    0.10    0.25
  -3  -9  -3   -0.09    0.25
  -3  -9  -3    0.01    0.35
  -3   9  -3   -0.25    0.27
   4  -9   3    0.23    0.32
  -4  -9  -3    0.18    0.40
   4  -9   3    0.15    0.25
  -4  -9  -3    0.23    0.28
   4   9   3    0.15    0.27
  -4   9  -3   -0.22    0.26
  -5  -9  -3    0.53    0.44
  -5  -9  -3    0.29    0.33
  -5   9  -3    0.44    0.32
  -5   9  -3    0.15    0.33
  -6  -9  -3    0.00    0.45
  -6  -9  -3    0.19    0.34
  -6   9  -3   -0.52    0.34
  -6   9  -3    0.53    0.35
  -7  -9  -3    0.25    0.34
  -7  -9  -3   -0.73    0.46
  -7   9  -3   -0.10    0.36
  -7   9  -3    0.54    0.42
   6 -10  -3    0.15    0.39
  -6 -10   3    0.40    0.37
  -6 -10   3    0.48    0.51
  -6  10   3   -0.07    0.39
   5 -10  -3    0.10    0.38
  -5 -10   3    0.93    0.48
  -5 -10   3    0.41    0.37
  -5  10   3    0.00    0.37
   4 -10  -3    2.18    0.44
  -4 -10   3    1.48    0.39
  -4 -10   3    2.49    0.51
  -4  10   3    1.93    0.41
   3 -10  -3    0.04    0.37
  -3 -10   3   -0.21    0.39
  -3 -10   3    0.12    0.34
  -3  10   3   -0.12    0.30
   2 -10  -3    0.13    0.37
  -2 -10   3    0.27    0.31
  -2 -10   3    0.41    0.39
  -2  10   3   -0.33    0.29
  -1 -10   3    0.68    0.38
  -1 -10   3    0.51    0.31
   1 -10  -3    0.20    0.26
   1 -10  -3    0.80    0.39
  -1  10   3    0.93    0.32
   0 -10  -3    0.52    0.28
   0 -10  -3    1.07    0.40
   0 -10   3    0.68    0.30
   0 -10   3    0.71    0.35
   1 -10   3    1.47    0.31
   1 -10   3    2.78    0.43
  -1 -10  -3    1.50    0.43
  -1 -10  -3    2.12    0.33
   1  10   3    1.36    0.33
  -1  10  -3    2.29    0.35
   2 -10   3   -0.05    0.27
  -2 -10  -3    0.39    0.41
  -2 -10  -3    0.17    0.27
   2 -10   3   -0.07    0.34
  -2  10  -3    0.33    0.30
   3 -10   3    2.98    0.43
   3 -10   3    2.95    0.37
  -3 -10  -3    2.97    0.40
  -3 -10  -3    2.89    0.48
  -3  10  -3    3.08    0.39
  -4 -10  -3    0.87    0.36
  -4 -10  -3    0.29    0.46
   4 -10   3    0.48    0.37
  -4  10  -3    0.31    0.34
  -5 -10  -3   -0.13    0.48
  -5 -10  -3    0.63    0.38
  -5  10  -3    0.03    0.36
  -6 -10  -3    0.05    0.50
  -6 -10  -3    1.38    0.44
  -6  10  -3    0.12    0.37
  -6  10  -3    0.48    0.41
   4 -11  -3   -0.23    0.41
  -4 -11   3    0.53    0.49
  -4 -11   3   -0.11    0.35
  -4  11   3   -0.46    0.38
  -3 -11   3    0.55    0.39
  -3 -11   3    1.28    0.49
   3 -11  -3    1.09    0.45
  -3  11   3    0.43    0.38
  -2 -11   3    0.52    0.42
   2 -11  -3    0.47    0.43
  -2 -11   3    0.36    0.35
  -2  11   3   -0.50    0.33
  -1 -11   3    3.17    0.52
   1 -11  -3    3.54    0.53
  -1 -11   3    2.61    0.40
  -1  11   3    2.90    0.42
   0 -11  -3    0.08    0.43
   0 -11   3   -0.30    0.40
   0 -11   3    0.48    0.33
   0 -11  -3   -0.03    0.29
   0  11   3   -0.03    0.32
  -1 -11  -3   -0.25    0.44
  -1 -11  -3    0.40    0.33
   1 -11   3   -0.05    0.40
   1 -11   3    0.10    0.32
   2 -11   3    1.02    0.43
  -2 -11  -3    0.29    0.47
  -2 -11  -3    1.13    0.37
   2 -11   3    1.15    0.35
  -2  11  -3    1.29    0.38
  -3 -11  -3   -0.03    0.32
   3 -11   3   -0.18    0.38
  -3 -11  -3   -0.55    0.46
  -3  11  -3   -0.29    0.34
  -4 -11  -3    0.32    0.53
  -4 -11  -3    0.23    0.37
  -4  11  -3    0.79    0.40
  -9   0   4    0.21    0.24
  -8   0   4    4.17    0.36
  -8   0   4    4.39    0.35
   8   0  -4    4.72    0.44
  -7   0   4    0.15    0.16
  -7   0   4    0.16    0.17
   7   0  -4   -0.07    0.22
  -7   0   4    0.00    0.17
  -6   0   4    3.91    0.26
  -6   0   4    3.87    0.27
  -6   0   4    4.06    0.26
  -6   0   4    2.62    0.24
  -5   0   4   -0.01    0.02
  -5   0   4   -0.20    0.11
  -5   0   4    0.02    0.06
   4   0  -4   66.88    2.17
  -4   0   4   65.59    2.15
   4   0  -4   68.43    2.22
  -3   0   4   -0.01    0.05
   3   0  -4    0.05    0.04
  -3   0   4    0.05    0.07
   2   0  -4   16.35    0.56
  -2   0   4   16.37    0.56
   1   0  -4   -0.04    0.03
   0   0  -4    3.57    0.16
   1   0   4   -0.02    0.05
   1   0   4    0.15    0.05
   2   0   4  982.25   31.55
   2   0   4  941.63   31.43
  -2   0  -4 1000.00   31.60
  -3   0  -4   -0.08    0.07
   3   0   4    0.09    0.08
   3   0   4   -0.08    0.05
  -3   0  -4   -0.06    0.08
  -3   0  -4    0.00    0.07
  -4   0  -4   19.85    0.68
   4   0   4   19.83    0.69
  -4   0  -4   19.11    0.70
  -4   0  -4   19.81    0.67
  -4   0  -4   19.66    0.76
  -5   0  -4    0.21    0.15
   5   0   4    0.05    0.07
  -5   0  -4    0.18    0.13
  -5   0  -4    0.01    0.11
  -5   0  -4    0.07    0.13
   6   0   4   32.84    1.13
  -6   0  -4   32.97    1.13
  -6   0  -4   34.63    1.14
  -6   0  -4   34.77    1.19
  -7   0  -4    0.07    0.18
  -7   0  -4   -0.15    0.17
  -7   0  -4    0.22    0.21
  -8   0  -4    3.37    0.33
  -8   0  -4    3.76    0.38
  -8   0  -4    3.26    0.37
  -9   0  -4   -0.14    0.28
  -9   0  -4    0.15    0.28
 -10   0  -4    2.11    0.40
 -10   0  -4    1.27    0.37
 -11   0  -4   -0.18    0.38
 -10   1   4   -0.06    0.27
   9   1  -4    0.71    0.38
  -9   1   4    1.13    0.29
   8  -1  -4    1.46    0.32
  -8   1   4    1.43    0.27
  -8   1   4    2.00    0.27
   7  -1  -4    7.51    0.46
  -7  -1   4    7.29    0.40
  -7  -1   4    7.67    0.40
  -7   1   4    7.56    0.40
  -7   1   4    7.37    0.45
  -7   1   4    7.82    0.44
  -6  -1   4   15.75    0.59
  -6  -1   4   15.69    0.61
   6  -1  -4   14.82    0.66
  -6  -1   4   16.62    0.59
  -6   1   4   15.47    0.59
  -6   1   4   15.95    0.64
  -6   1   4   16.56    0.68
  -5  -1   4   20.08    0.65
  -5  -1   4   18.33    0.68
   5  -1  -4   18.93    0.72
  -5   1   4   18.41    0.73
   5   1  -4   18.30    0.64
  -5   1   4   18.99    0.65
  -5   1   4   19.10    0.71
   4  -1  -4   26.17    0.92
  -4  -1   4   26.99    0.90
  -4   1   4   27.47    0.92
   4   1  -4   27.21    0.93
   4   1  -4   26.30    0.89
  -4   1   4   26.43    0.85
  -4   1   4   26.98    0.96
   3   1  -4    3.85    0.16
  -3   1   4    3.75    0.20
   3   1  -4    3.68    0.17
  -3   1   4    3.80    0.19
   2   1  -4   -0.09    0.04
   2   1  -4    0.09    0.04
   1   1  -4    3.90    0.17
   0  -1   4  105.46    3.45
   0   1  -4  108.21    3.47
   0   1  -4  107.71    3.45
   1  -1   4   53.63    1.77
  -1   1  -4   53.13    1.77
  -1   1  -4   54.81    1.77
   2  -1   4    8.84    0.36
   2  -1   4    8.86    0.33
  -2   1  -4    8.89    0.36
   2   1   4    8.91    0.33
   3  -1   4   11.41    0.42
  -3  -1  -4   11.46    0.43
  -3   1  -4   11.67    0.42
   3   1   4   11.55    0.49
   3   1   4   11.50    0.42
  -3   1  -4   11.52    0.47
  -3   1  -4   11.94    0.44
   4  -1   4    4.48    0.22
  -4  -1  -4    4.99    0.24
  -4  -1  -4    4.58    0.25
  -4  -1  -4    5.32    0.28
  -4   1  -4    4.77    0.27
   4   1   4    4.98    0.22
  -4   1  -4    5.04    0.28
  -4   1  -4    4.96    0.27
  -4   1  -4    5.23    0.29
  -5  -1  -4    4.22    0.28
  -5  -1  -4    4.87    0.31
  -5  -1  -4    4.55    0.28
   5  -1   4    4.85    0.22
  -5   1  -4    5.27    0.31
  -5   1  -4    4.80    0.31
  -5   1  -4    4.25    0.30
   5   1   4    5.13    0.24
  -5   1  -4    4.67    0.31
  -6  -1  -4    9.40    0.48
  -6  -1  -4   10.69    0.48
  -6  -1  -4   10.63    0.46
  -6   1  -4   11.17    0.50
   6   1   4   10.13    0.41
  -6   1  -4   10.58    0.51
  -6   1  -4   10.14    0.52
  -6   1  -4   11.02    0.48
  -7  -1  -4    2.52    0.30
  -7  -1  -4    2.53    0.29
  -7   1  -4    2.86    0.29
  -7   1  -4    2.51    0.30
  -7   1  -4    1.98    0.27
  -8  -1  -4    5.95    0.45
  -8  -1  -4    5.19    0.42
  -8   1  -4    5.07    0.44
  -8   1  -4    5.44    0.41
  -8   1  -4    4.93    0.42
  -9  -1  -4    0.11    0.27
  -9  -1  -4    0.25    0.30
  -9   1  -4    0.09    0.27
  -9   1  -4    0.10    0.29
 -10  -1  -4    2.66    0.44
 -10  -1  -4    2.02    0.39
 -10   1  -4    2.42    0.40
 -11   1  -4    0.55    0.40
 -11   2   4    0.74    0.36
 -10   2   4    0.19    0.30
  -9   2   4    0.29    0.26
  -9   2   4    0.12    0.27
   8  -2  -4    0.42    0.28
  -8  -2   4    0.10    0.20
  -8   2   4   -0.02    0.21
  -8   2   4    0.03    0.23
   7  -2  -4    0.55    0.24
  -7  -2   4    0.37    0.17
  -7   2   4    0.78    0.21
  -7   2   4    0.05    0.18
   7   2  -4    0.45    0.09
   6  -2  -4   26.34    0.90
  -6  -2   4   23.64    0.82
  -6  -2   4   23.12    0.85
   6   2  -4   23.61    0.82
  -6   2   4   23.61    0.94
  -6   2   4   23.52    0.89
  -6   2   4   24.38    0.84
  -5  -2   4    6.25    0.31
  -5  -2   4    6.57    0.31
   5  -2  -4    7.10    0.36
  -5  -2   4    6.53    0.30
   5   2  -4    6.96    0.33
  -5   2   4    6.78    0.35
  -5   2   4    7.04    0.32
   5   2  -4    7.17    0.28
  -5   2   4    6.73    0.35
   4  -2  -4   50.51    1.65
  -4  -2   4   49.83    1.66
  -4   2   4   52.39    1.57
   4   2  -4   53.14    1.71
   4   2  -4   52.54    1.73
  -4   2   4   51.66    1.70
  -4   2   4   51.84    1.77
  -3   2   4    1.27    0.12
   3   2  -4    1.15    0.11
  -3   2   4    1.29    0.13
   3   2  -4    0.96    0.09
   2   2  -4   34.25    1.16
  -2   2   4   34.94    1.13
   1   2  -4   18.70    0.65
   0   2  -4   35.41    1.19
  -1   2  -4    2.02    0.14
  -1   2  -4    2.46    0.14
   2  -2   4   26.86    0.95
  -2   2  -4   28.25    0.97
  -2   2  -4   28.26    0.94
   3  -2   4    2.26    0.16
  -3  -2  -4    2.55    0.19
  -3   2  -4    2.31    0.17
  -3   2  -4    2.36    0.19
  -3   2  -4    2.48    0.19
  -4  -2  -4    9.00    0.38
   4  -2   4    9.21    0.40
   4  -2   4    9.08    0.37
  -4  -2  -4    8.92    0.41
  -4   2  -4    9.15    0.41
  -4   2  -4    9.50    0.43
  -4   2  -4    9.40    0.38
  -5  -2  -4   14.14    0.59
  -5  -2  -4   14.25    0.55
  -5   2  -4   14.77    0.61
  -5   2  -4   14.64    0.63
  -5   2  -4   14.03    0.55
  -6  -2  -4    8.03    0.45
  -6  -2  -4    7.93    0.42
  -6   2  -4    8.33    0.42
  -6   2  -4    8.04    0.44
  -7  -2  -4   -0.10    0.19
  -7  -2  -4   -0.19    0.22
  -7   2  -4    0.18    0.22
  -7   2  -4   -0.19    0.21
  -8  -2  -4    0.63    0.24
  -8  -2  -4    0.32    0.28
   8   2   4    0.34    0.08
  -8   2  -4    0.76    0.27
  -8   2  -4    0.60    0.27
  -9  -2  -4    2.92    0.42
   9  -2   4    1.38    0.35
  -9  -2  -4    2.75    0.37
  -9   2  -4    3.42    0.42
  -9   2  -4    2.66    0.38
 -10  -2  -4   -0.45    0.30
 -10   2  -4    0.45    0.34
 -10   2  -4    0.28    0.36
 -11  -2  -4   -0.13    0.36
 -11   2  -4   -0.34    0.39
 -11   3   4    0.03    0.35
 -10   3   4    0.96    0.35
 -10   3   4    0.47    0.35
  -9  -3   4    1.54    0.31
  -9   3   4    1.81    0.34
  -9   3   4    1.80    0.35
   8  -3  -4    4.19    0.39
  -8  -3   4    3.69    0.34
  -8   3   4    3.13    0.35
   8   3  -4    2.81    0.20
  -8   3   4    3.61    0.37
  -7  -3   4    1.34    0.23
   7  -3  -4    1.32    0.27
  -7   3   4    1.48    0.27
  -7   3   4    1.61    0.25
   7   3  -4    1.38    0.14
  -6  -3   4    6.95    0.37
   6  -3  -4    7.57    0.41
  -6   3   4    6.65    0.37
   6   3  -4    6.38    0.31
  -6   3   4    6.92    0.44
  -6   3   4    7.67    0.42
  -5  -3   4   16.92    0.63
   5  -3  -4   17.77    0.67
   5   3  -4   17.41    0.64
  -5   3   4   17.83    0.72
  -5   3   4   17.99    0.69
  -5   3   4   17.13    0.64
   4  -3  -4    0.13    0.14
  -4  -3   4    0.22    0.15
  -4  -3   4    0.08    0.12
   4   3  -4   -0.20    0.08
   4   3  -4    0.15    0.10
  -4   3   4    0.08    0.12
  -4   3   4    0.24    0.12
  -4   3   4   -0.08    0.13
   3  -3  -4  128.69    3.92
  -3  -3   4  123.15    3.93
   3   3  -4  130.10    4.18
  -3   3   4  126.88    4.07
  -3   3   4  131.95    3.75
  -2   3   4    7.92    0.33
   2   3  -4    8.35    0.34
  -2   3   4    8.30    0.32
   1   3  -4   19.54    0.70
   0   3  -4    4.62    0.23
  -1   3  -4  303.14    9.54
  -1   3  -4  288.07    9.24
  -2   3  -4    1.98    0.16
  -2   3  -4    2.37    0.16
  -2   3  -4    2.32    0.16
  -2   3  -4    1.56    0.15
   3  -3   4   30.34    1.10
   3  -3   4   33.49    1.03
  -3  -3  -4   31.25    1.02
  -3  -3  -4   32.32    1.01
  -3   3  -4   33.15    1.01
  -3   3  -4   30.37    1.14
  -3   3  -4   31.87    1.10
  -4  -3  -4    9.50    0.43
  -4  -3  -4   10.43    0.42
  -4  -3  -4   10.50    0.45
   4  -3   4   10.56    0.44
  -4   3  -4   10.48    0.47
  -4   3  -4    9.84    0.47
  -4   3  -4    9.51    0.41
   5  -3   4   12.66    0.53
  -5  -3  -4   11.62    0.52
  -5  -3  -4   12.11    0.51
  -5   3  -4   12.33    0.55
  -5   3  -4   13.02    0.51
  -5   3  -4   12.46    0.57
  -6  -3  -4    5.15    0.34
   6  -3   4    4.51    0.35
  -6  -3  -4    4.65    0.36
  -6   3  -4    5.13    0.38
  -6   3  -4    5.05    0.37
   7  -3   4   22.77    0.86
  -7  -3  -4   21.28    0.86
  -7  -3  -4   22.00    0.84
  -7   3  -4   21.56    0.85
  -7   3  -4   22.21    0.92
   7   3   4   20.98    0.78
  -8  -3  -4    0.64    0.27
  -8  -3  -4    1.23    0.30
   8  -3   4    0.94    0.27
   8   3   4    0.62    0.12
  -8   3  -4    0.95    0.31
  -8   3  -4    0.67    0.27
  -9  -3  -4    0.05    0.28
  -9   3  -4   -0.26    0.30
  -9   3  -4   -0.42    0.29
 -10  -3  -4    1.21    0.34
 -10   3  -4    1.62    0.37
 -10   3  -4    0.40    0.38
 -11   4   4    0.10    0.37
 -11   4   4   -0.22    0.41
 -10   4   4    0.26    0.36
 -10   4   4   -0.04    0.33
  -9  -4   4    0.03    0.27
  -9   4   4   -0.10    0.29
  -9   4   4    0.30    0.31
   9   4  -4   -0.07    0.12
   8  -4  -4    1.24    0.31
  -8  -4   4    0.50    0.25
   8   4  -4    0.92    0.16
  -8   4   4    1.40    0.32
  -8   4   4    0.94    0.29
   7  -4  -4   -0.01    0.24
  -7  -4   4   -0.11    0.19
  -7   4   4    0.26    0.23
   7   4  -4   -0.02    0.12
  -7   4   4    0.00    0.21
   6  -4  -4    1.57    0.26
  -6  -4   4    1.84    0.24
  -6   4   4    2.01    0.27
  -6   4   4    2.19    0.27
   6   4  -4    1.60    0.17
  -5  -4   4    0.44    0.21
   5  -4  -4   -0.11    0.18
  -5  -4   4   -0.12    0.15
  -5   4   4    0.10    0.15
   5   4  -4   -0.13    0.11
  -5   4   4    0.11    0.16
  -5   4   4    0.13    0.17
   4  -4  -4    1.03    0.18
  -4  -4   4    2.06    0.20
  -4  -4   4    1.41    0.23
   4   4  -4    1.36    0.15
  -4   4   4    1.19    0.18
  -4   4   4    1.38    0.18
  -3  -4   4    0.29    0.16
  -3  -4   4    0.09    0.11
   3  -4  -4    0.13    0.14
  -3   4   4    0.15    0.12
  -3   4   4    0.09    0.12
   3   4  -4    0.03    0.10
  -2  -4   4    0.06    0.13
   2  -4  -4    0.13    0.12
  -2  -4   4    0.05    0.10
  -2   4   4    0.08    0.09
  -2   4   4   -0.15    0.10
   2   4  -4    0.03    0.09
  -2   4   4    0.16    0.11
   1  -4  -4    1.18    0.15
  -1  -4   4    1.23    0.14
  -1  -4   4    1.41    0.15
  -1   4   4    1.03    0.13
   1   4  -4    1.07    0.13
  -1   4   4    1.28    0.12
   0  -4  -4  150.92    4.64
   0  -4   4  149.73    4.63
   0   4  -4  156.51    4.80
   0   4  -4  153.28    4.98
  -1  -4  -4    0.84    0.13
   1  -4   4    0.86    0.13
  -1   4  -4    0.72    0.12
  -1   4  -4    0.47    0.11
  -1   4  -4    0.62    0.11
   2  -4   4   32.46    1.04
  -2  -4  -4   33.76    1.04
  -2  -4  -4   30.81    1.08
  -2   4  -4   32.01    1.12
  -2   4  -4   33.16    1.03
  -2   4  -4   34.21    1.15
  -2   4  -4   31.94    1.16
   3  -4   4    7.11    0.31
   3  -4   4    7.15    0.33
  -3  -4  -4    6.80    0.37
  -3  -4  -4    6.69    0.32
  -3   4  -4    6.82    0.36
  -3   4  -4    6.59    0.32
  -3   4  -4    6.63    0.37
  -4  -4  -4    0.72    0.17
   4  -4   4    1.25    0.17
  -4  -4  -4    1.04    0.22
   4  -4   4    1.02    0.15
  -4   4  -4    0.64    0.17
  -4   4  -4    1.07    0.20
  -4   4  -4    0.78    0.18
  -5  -4  -4   13.21    0.55
  -5  -4  -4   13.72    0.62
   5  -4   4   13.35    0.56
  -5   4  -4   14.10    0.63
  -5   4  -4   13.04    0.56
  -6  -4  -4    3.33    0.30
  -6  -4  -4    3.82    0.33
   6  -4   4    4.05    0.33
  -6  -4  -4    3.66    0.37
   6   4   4    3.29    0.24
  -6   4  -4    3.98    0.35
  -6   4  -4    3.89    0.35
  -7  -4  -4   -0.13    0.20
  -7  -4  -4   -0.59    0.21
   7  -4   4   -0.07    0.22
   7   4   4   -0.07    0.12
  -7   4  -4   -0.15    0.23
  -7   4  -4    0.58    0.27
  -8  -4  -4   -0.03    0.26
  -8   4  -4   -0.05    0.28
  -8   4  -4    0.50    0.30
   8   4   4    0.13    0.13
  -9  -4  -4    1.14    0.32
  -9   4  -4    0.96    0.37
  -9   4  -4    0.43    0.35
 -10  -4  -4   -0.41    0.32
 -10   4  -4    0.84    0.40
 -10   4  -4    0.10    0.38
 -10  -5   4    3.05    0.44
 -10   5   4    2.19    0.46
 -10   5   4    2.05    0.43
  -9  -5   4    0.51    0.29
  -9   5   4    0.72    0.32
  -9   5   4    0.53    0.35
  -8  -5   4    1.01    0.30
  -8   5   4    1.41    0.33
  -8   5   4    2.11    0.36
   8   5  -4    1.30    0.20
  -7  -5   4    0.05    0.22
   7  -5  -4    0.30    0.26
  -7   5   4    0.67    0.28
  -7   5   4    0.49    0.27
   7   5  -4    0.25    0.16
  -6  -5   4    2.16    0.27
  -6  -5   4    1.74    0.33
   6  -5  -4    1.95    0.28
  -6   5   4    1.95    0.28
  -6   5   4    1.90    0.29
   6   5  -4    1.70    0.20
  -5  -5   4   11.38    0.52
   5  -5  -4   10.94    0.53
  -5  -5   4   12.80    0.59
  -5   5   4   11.81    0.57
  -5   5   4   10.77    0.53
   5   5  -4   10.80    0.50
   4  -5  -4    3.55    0.28
  -4  -5   4    4.32    0.28
  -4  -5   4    4.77    0.37
   4   5  -4    3.50    0.27
  -4   5   4    3.40    0.29
  -4   5   4    3.44    0.29
   3  -5  -4   14.96    0.60
  -3  -5   4   15.68    0.63
  -3  -5   4   14.62    0.57
  -3   5   4   14.67    0.58
  -3   5   4   15.04    0.62
   3   5  -4   15.64    0.62
  -2  -5   4   18.52    0.67
   2  -5  -4   19.00    0.69
  -2  -5   4   17.71    0.70
   2   5  -4   18.36    0.72
  -2   5   4   19.04    0.67
  -2   5   4   18.72    0.69
   1  -5  -4   14.38    0.56
  -1  -5   4   13.98    0.56
  -1  -5   4   14.12    0.53
   1   5  -4   14.77    0.52
  -1   5   4   13.85    0.59
  -1   5   4   14.46    0.54
   0  -5   4   21.09    0.78
   0  -5  -4   22.38    0.79
   0  -5   4   22.09    0.75
   0  -5  -4   22.98    0.73
   0   5  -4   21.74    0.77
   0   5   4   21.89    0.84
   0   5  -4   22.88    0.72
   0   5  -4   22.01    0.83
  -1  -5  -4   11.40    0.49
  -1  -5  -4   11.97    0.44
   1  -5   4   10.62    0.44
   1  -5   4   10.67    0.45
   1   5   4   10.32    0.48
  -1   5  -4   11.22    0.49
  -1   5  -4   11.38    0.43
  -1   5  -4   10.71    0.46
  -2  -5  -4   15.59    0.63
  -2  -5  -4   15.40    0.57
   2  -5   4   14.85    0.57
   2  -5   4   16.09    0.57
  -2   5  -4   15.34    0.57
  -2   5  -4   15.27    0.61
  -3  -5  -4    4.27    0.28
   3  -5   4    4.72    0.29
   3  -5   4    4.47    0.27
  -3  -5  -4    4.29    0.33
  -3   5  -4    4.10    0.31
  -3   5  -4    4.49    0.28
  -3   5  -4    4.81    0.31
   4  -5   4   26.36    0.92
  -4  -5  -4   27.17    1.02
   4  -5   4   26.85    0.91
  -4  -5  -4   26.00    0.93
  -4   5  -4   28.42    1.03
   4   5   4   28.40    1.01
  -4   5  -4   26.45    0.93
   5  -5   4    2.51    0.26
  -5  -5  -4    2.24    0.27
  -5  -5  -4    2.19    0.32
  -5   5  -4    2.10    0.26
   5   5   4    1.70    0.21
  -5   5  -4    2.14    0.30
  -6  -5  -4    1.77    0.34
  -6  -5  -4    2.02    0.29
   6  -5   4    2.12    0.27
   6   5   4    1.61    0.20
  -6   5  -4    1.33    0.30
  -6   5  -4    1.55    0.27
   7  -5   4    1.71    0.28
  -7  -5  -4    0.76    0.28
  -7   5  -4    0.67    0.29
   7   5   4    0.92    0.18
  -7   5  -4    1.15    0.31
  -8  -5  -4    0.05    0.29
  -8   5  -4    0.09    0.32
  -8   5  -4   -0.02    0.31
  -9  -5  -4    0.07    0.29
  -9   5  -4    0.24    0.34
  -9   5  -4    0.01    0.36
 -10  -5  -4    0.11    0.36
 -10   5  -4    0.09    0.37
 -10   5  -4   -0.08    0.37
 -10  -6   4    0.08    0.34
 -10   6   4   -0.36    0.38
 -10   6   4    0.71    0.41
  -9  -6   4    0.01    0.31
  -9   6   4   -0.21    0.34
  -9   6   4   -0.17    0.34
  -8  -6   4    0.32    0.27
  -8   6   4    0.41    0.32
  -8   6   4    0.26    0.32
  -7  -6   4    0.53    0.27
  -7  -6   4    0.90    0.40
   7  -6  -4    0.56    0.29
  -7   6   4    0.85    0.32
  -7   6   4    0.69    0.30
   7   6  -4    0.73    0.20
  -6  -6   4    1.70    0.29
  -6  -6   4    2.29    0.41
   6  -6  -4    1.84    0.31
  -6   6   4    1.91    0.32
   6   6  -4    1.95    0.24
  -6   6   4    1.96    0.32
   5  -6  -4    0.66    0.25
  -5  -6   4    0.72    0.22
  -5  -6   4    0.59    0.27
  -5   6   4    0.69    0.23
  -5   6   4    0.73    0.24
   5   6  -4    0.63    0.18
  -4  -6   4   37.00    1.34
  -4  -6   4   38.04    1.26
   4  -6  -4   37.49    1.28
   4   6  -4   37.89    1.35
  -4   6   4   37.83    1.33
  -4   6   4   35.41    1.25
  -3  -6   4    6.13    0.37
   3  -6  -4    5.87    0.36
  -3  -6   4    5.51    0.39
   3   6  -4    5.75    0.36
  -3   6   4    5.35    0.38
  -3   6   4    5.46    0.36
   2  -6  -4   23.96    0.85
   2  -6  -4   22.89    0.76
  -2  -6   4   22.28    0.81
  -2  -6   4   22.65    0.87
  -2   6   4   23.44    0.85
  -2   6   4   22.05    0.80
   2   6  -4   21.94    0.88
  -1  -6   4    0.23    0.15
  -1  -6   4    0.31    0.19
   1  -6  -4    0.15    0.17
   1  -6  -4    0.67    0.15
   1   6  -4    0.48    0.14
   1   6  -4   -0.05    0.07
   0  -6  -4    1.30    0.18
   0  -6   4    0.38    0.15
   0  -6   4    0.62    0.18
   0  -6  -4    0.08    0.19
   0   6  -4    0.42    0.14
   0   6   4    0.26    0.15
   0   6  -4    0.47    0.14
   0   6  -4    0.44    0.16
   1  -6   4    8.52    0.43
   1  -6   4    8.80    0.41
  -1  -6  -4    7.93    0.44
  -1  -6  -4    8.28    0.39
  -1   6  -4    9.12    0.44
  -1   6  -4    8.60    0.39
  -2  -6  -4   50.94    1.62
   2  -6   4   50.70    1.62
   2  -6   4   52.25    1.67
  -2  -6  -4   50.84    1.71
  -2   6  -4   52.23    1.61
  -2   6  -4   50.72    1.74
   2   6   4   53.40    1.82
  -3  -6  -4    5.59    0.33
  -3  -6  -4    5.49    0.41
   3  -6   4    5.60    0.34
   3  -6   4    4.90    0.33
  -3   6  -4    5.02    0.37
  -3   6  -4    5.28    0.33
   3   6   4    5.63    0.36
   4  -6   4    4.02    0.30
  -4  -6  -4    3.14    0.30
  -4  -6  -4    3.51    0.36
   4  -6   4    3.70    0.29
  -4   6  -4    3.93    0.33
   4   6   4    4.46    0.34
  -4   6  -4    3.55    0.35
  -5  -6  -4    0.65    0.30
   5  -6   4    0.60    0.21
  -5  -6  -4    0.67    0.22
  -5   6  -4    0.23    0.25
  -5   6  -4    1.21    0.25
   5   6   4    0.59    0.19
  -6  -6  -4   10.23    0.66
  -6  -6  -4    9.58    0.52
   6  -6   4    9.45    0.50
  -6   6  -4   10.00    0.54
   6   6   4   10.01    0.50
  -6   6  -4   10.17    0.61
  -7  -6  -4    0.17    0.25
  -7   6  -4   -0.10    0.30
  -7   6  -4   -0.11    0.30
   7   6   4    0.27    0.18
  -8  -6  -4    1.21    0.33
  -8   6  -4    1.48    0.39
  -8   6  -4    0.81    0.38
  -9  -6  -4   -0.40    0.33
  -9   6  -4    0.22    0.40
  -9   6  -4   -0.19    0.37
  -9  -7   4   -0.07    0.33
  -9   7   4    0.30    0.40
  -9   7   4   -0.09    0.36
  -8  -7   4    0.64    0.34
  -8   7   4    0.46    0.36
  -8   7   4    0.23    0.36
   7  -7  -4    4.19    0.44
  -7  -7   4    5.57    0.61
  -7  -7   4    4.40    0.45
  -7   7   4    4.60    0.48
  -7   7   4    4.11    0.44
   6  -7  -4    1.97    0.34
  -6  -7   4    2.20    0.44
  -6  -7   4    2.05    0.35
  -6   7   4    2.21    0.33
  -6   7   4    2.35    0.35
   6   7  -4    2.07    0.27
  -5  -7   4    1.50    0.29
  -5  -7   4    1.01    0.35
   5  -7  -4    1.13    0.29
  -5   7   4    1.10    0.29
  -5   7   4    1.20    0.29
   5   7  -4    1.18    0.24
  -4  -7   4   -0.21    0.28
   4  -7  -4    0.36    0.26
  -4  -7   4    0.09    0.23
  -4   7   4    0.23    0.21
  -4   7   4    0.43    0.24
   4   7  -4    0.13    0.19
   3  -7  -4    1.35    0.26
  -3  -7   4    1.01    0.27
  -3  -7   4    1.38    0.25
  -3   7   4    1.35    0.24
  -3   7   4    1.10    0.23
   3   7  -4    1.33    0.23
  -2  -7   4    3.90    0.36
  -2  -7   4    4.17    0.33
   2  -7  -4    4.68    0.37
   2  -7  -4    4.77    0.30
  -2   7   4    4.79    0.35
   2   7  -4    4.63    0.36
  -1  -7   4   12.77    0.54
   1  -7  -4   12.11    0.56
  -1  -7   4   11.24    0.58
   1  -7  -4   12.18    0.49
   1   7  -4   10.97    0.57
   1   7  -4   12.19    0.49
   0  -7  -4   11.40    0.49
   0  -7   4   11.48    0.52
   0  -7   4   11.63    0.54
   0  -7  -4   12.00    0.59
   0   7  -4   12.16    0.49
   1  -7   4    1.98    0.25
  -1  -7  -4    3.01    0.33
  -1  -7  -4    3.08    0.26
   1  -7   4    2.96    0.29
   1   7   4    1.53    0.22
  -1   7  -4    2.49    0.25
   2  -7   4    2.15    0.25
  -2  -7  -4    2.25    0.26
  -2  -7  -4    2.52    0.33
   2  -7   4    2.35    0.27
   2   7   4    1.94    0.26
  -2   7  -4    1.97    0.23
  -2   7  -4    2.18    0.27
  -3  -7  -4    0.43    0.25
   3  -7   4    0.36    0.21
  -3  -7  -4    0.61    0.21
   3  -7   4    1.36    0.25
   3   7   4    0.04    0.18
  -3   7  -4    0.40    0.21
  -3   7  -4    0.22    0.23
   4  -7   4    8.01    0.44
   4  -7   4    7.19    0.41
  -4  -7  -4    7.48    0.44
  -4  -7  -4    6.84    0.53
  -4   7  -4    7.10    0.47
   4   7   4    7.61    0.48
  -4   7  -4    7.78    0.44
   5  -7   4   -0.14    0.21
  -5  -7  -4    0.23    0.33
  -5  -7  -4    0.17    0.23
   5   7   4    0.14    0.20
  -5   7  -4    0.08    0.24
  -5   7  -4   -0.05    0.23
  -6  -7  -4    0.00    0.35
  -6  -7  -4    0.25    0.28
  -6   7  -4   -0.22    0.28
  -6   7  -4    0.01    0.27
   6   7   4    0.21    0.20
  -7  -7  -4    0.24    0.43
  -7  -7  -4    0.69    0.33
  -7   7  -4    0.33    0.31
  -7   7  -4    0.34    0.33
  -8  -7  -4    0.89    0.35
  -8   7  -4    0.25    0.35
  -8   7  -4    0.41    0.37
  -9  -7  -4    0.12    0.38
  -9   7  -4    0.29    0.42
  -9   7  -4    0.45    0.38
  -8  -8   4   -0.11    0.34
  -8   8   4   -0.03    0.36
  -8   8   4    0.06    0.36
  -7  -8   4    1.14    0.35
   7  -8  -4    0.90    0.37
  -7  -8   4    0.71    0.49
  -7   8   4    1.32    0.37
  -7   8   4    0.07    0.37
   6  -8  -4   -0.11    0.31
  -6  -8   4   -0.07    0.39
  -6  -8   4    0.49    0.32
  -6   8   4    0.14    0.30
  -6   8   4    0.03    0.33
  -5  -8   4    2.27    0.43
   5  -8  -4    1.75    0.35
  -5  -8   4    2.26    0.37
   5   8  -4    1.43    0.28
  -5   8   4    2.06    0.34
  -5   8   4    1.26    0.35
  -4  -8   4    0.24    0.27
  -4  -8   4    0.22    0.30
   4  -8  -4    0.73    0.30
  -4   8   4    0.76    0.28
  -4   8   4    0.79    0.29
   4   8  -4    0.74    0.25
   3  -8  -4    0.17    0.29
  -3  -8   4   -0.25    0.23
  -3  -8   4    0.11    0.28
  -3   8   4    0.07    0.24
   3   8  -4   -0.08    0.22
  -2  -8   4    1.26    0.26
  -2  -8   4    1.42    0.30
   2  -8  -4    1.46    0.31
   2  -8  -4    1.33    0.24
  -2   8   4    1.55    0.28
   2   8  -4    1.26    0.27
   1  -8  -4   11.36    0.50
   1  -8  -4   10.76    0.62
  -1  -8   4   10.12    0.52
  -1  -8   4   11.22    0.58
  -1   8   4   11.11    0.54
   0  -8  -4   17.29    0.69
   0  -8   4   17.96    0.71
   0  -8  -4   17.69    0.77
   0  -8   4   18.55    0.78
   0   8  -4   17.79    0.68
  -1  -8  -4    0.68    0.21
   1  -8   4    0.70    0.24
   1  -8   4    0.67    0.25
  -1  -8  -4    0.90    0.31
  -1   8  -4    0.93    0.23
   2  -8   4   11.87    0.61
   2  -8   4   10.84    0.55
  -2  -8  -4   12.15    0.56
  -2  -8  -4   13.00    0.65
  -2   8  -4   12.77    0.55
   2   8   4   13.03    0.65
   3  -8   4    3.14    0.30
  -3  -8  -4    3.06    0.35
   3  -8   4    3.65    0.35
  -3  -8  -4    3.03    0.41
  -3   8  -4    3.62    0.37
   3   8   4    2.69    0.33
  -3   8  -4    2.65    0.32
   4  -8   4    0.24    0.23
  -4  -8  -4    0.13    0.30
  -4  -8  -4   -0.36    0.23
   4  -8   4   -0.19    0.27
  -4   8  -4    0.24    0.27
   4   8   4    0.24    0.23
  -4   8  -4    0.04    0.26
   5  -8   4    2.45    0.33
  -5  -8  -4    2.82    0.47
  -5  -8  -4    2.85    0.36
   5   8   4    2.98    0.35
  -5   8  -4    2.62    0.38
  -5   8  -4    2.50    0.38
  -6  -8  -4   -0.38    0.27
  -6  -8  -4   -0.16    0.39
  -6   8  -4   -0.43    0.26
  -6   8  -4    0.24    0.30
  -7  -8  -4    0.62    0.48
  -7  -8  -4    0.35    0.35
  -7   8  -4    0.40    0.36
  -7   8  -4    0.38    0.35
  -8  -8  -4    0.62    0.40
  -8   8  -4    0.69    0.39
  -8   8  -4    0.47    0.39
  -7  -9   4    0.30    0.37
  -7  -9   4    0.09    0.49
  -7   9   4   -0.08    0.40
  -7   9   4    0.13    0.33
  -6  -9   4    0.04    0.35
   6  -9  -4    0.17    0.36
  -6  -9   4   -0.16    0.43
  -6   9   4    0.28    0.34
  -6   9   4   -0.31    0.33
   5  -9  -4    1.78    0.37
  -5  -9   4    1.46    0.39
  -5  -9   4    1.77    0.46
  -5   9   4    1.55    0.38
  -4  -9   4    0.71    0.34
   4  -9  -4    0.62    0.32
  -4  -9   4    1.09    0.40
   4   9  -4    1.18    0.30
  -4   9   4    0.97    0.32
   3  -9  -4    4.18    0.45
  -3  -9   4    3.87    0.45
  -3  -9   4    3.55    0.40
  -3   9   4    4.34    0.41
  -2  -9   4    0.02    0.27
   2  -9  -4    0.38    0.33
  -2  -9   4    0.07    0.30
  -2   9   4   -0.02    0.26
  -1  -9   4    0.02    0.26
   1  -9  -4    0.05    0.22
   1  -9  -4   -0.02    0.29
  -1  -9   4    0.18    0.31
  -1   9   4    0.44    0.27
   0  -9   4    0.38    0.25
   0  -9   4    0.45    0.29
   0  -9  -4    0.60    0.24
   0  -9  -4    0.29    0.33
   1  -9   4   12.08    0.65
  -1  -9  -4   10.66    0.68
  -1  -9  -4    9.85    0.52
   1  -9   4   10.49    0.55
  -1   9  -4   11.04    0.54
  -2  -9  -4    0.79    0.37
   2  -9   4    0.61    0.24
   2  -9   4    0.58    0.30
  -2  -9  -4    1.05    0.29
  -2   9  -4    0.83    0.26
   3  -9   4    0.54    0.26
  -3  -9  -4    0.18    0.36
  -3  -9  -4    1.36    0.33
   3  -9   4    0.50    0.31
  -3   9  -4    1.06    0.31
  -4  -9  -4    1.47    0.32
   4  -9   4    1.14    0.29
  -4  -9  -4    1.64    0.46
  -4   9  -4    0.80    0.33
  -4   9  -4    1.78    0.35
   4   9   4    1.13    0.31
  -5  -9  -4    0.45    0.44
  -5  -9  -4    0.68    0.34
  -5   9  -4    0.33    0.34
  -5   9  -4    1.05    0.35
  -6  -9  -4    0.19    0.33
  -6  -9  -4   -0.10    0.44
  -6   9  -4    0.10    0.34
  -6   9  -4    0.13    0.36
  -7  -9  -4    0.44    0.52
  -7  -9  -4    0.41    0.40
  -7   9  -4    0.21    0.40
  -7   9  -4    1.01    0.40
   6 -10  -4    0.69    0.42
  -6 -10   4    1.58    0.51
  -6 -10   4    1.19    0.43
  -6  10   4    1.51    0.45
  -5 -10   4    0.09    0.41
   5 -10  -4    0.08    0.39
  -5 -10   4   -0.17    0.37
  -5  10   4    0.18    0.35
  -4 -10   4    0.37    0.35
   4 -10  -4    0.61    0.40
  -4 -10   4    1.04    0.45
  -4  10   4    1.02    0.36
  -3 -10   4    0.33    0.31
  -3 -10   4   -0.02    0.39
   3 -10  -4    0.23    0.39
  -3  10   4   -0.38    0.31
   2 -10  -4    1.29    0.41
  -2 -10   4    0.77    0.41
  -2 -10   4    1.11    0.35
  -2  10   4    1.39    0.35
   1 -10  -4    0.55    0.39
  -1 -10   4   -0.30    0.32
  -1 -10   4   -0.18    0.30
  -1  10   4   -0.14    0.29
   0 -10   4    0.09    0.29
   0 -10  -4    0.10    0.38
   0 -10  -4    0.01    0.26
   0 -10   4    0.45    0.36
   0  10   4    0.17    0.29
  -1 -10  -4    0.22    0.36
   1 -10   4    0.61    0.36
   1 -10   4    0.15    0.29
  -1 -10  -4   -0.20    0.27
   2 -10   4   -0.45    0.27
   2 -10   4    0.15    0.35
  -2 -10  -4    0.19    0.37
  -2 -10  -4   -0.59    0.27
  -2  10  -4    0.24    0.29
  -3 -10  -4   -0.32    0.30
   3 -10   4    0.21    0.30
   3 -10   4    0.04    0.34
  -3 -10  -4    0.05    0.42
  -3  10  -4   -0.16    0.30
  -4 -10  -4    0.45    0.49
   4 -10   4    0.74    0.30
  -4 -10  -4    0.97    0.36
  -4  10  -4    0.83    0.37
  -5 -10  -4    0.86    0.52
  -5 -10  -4    0.53    0.36
  -5  10  -4    0.12    0.36
  -6 -10  -4   -0.05    0.49
  -6 -10  -4   -0.42    0.36
  -6  10  -4    0.13    0.37
  -6  10  -4    0.26    0.38
   4 -11  -4   -0.47    0.42
  -4 -11   4    0.71    0.49
  -4 -11   4    1.22    0.43
  -4  11   4    0.32    0.40
  -3 -11   4    0.15    0.38
  -3 -11   4   -0.01    0.45
   3 -11  -4    0.81    0.45
  -3  11   4    0.51    0.38
  -2 -11   4    1.45    0.40
  -2 -11   4    1.23    0.43
   2 -11  -4    0.98    0.46
  -2  11   4    0.84    0.38
  -1 -11   4    1.09    0.39
   1 -11  -4    1.00    0.46
  -1 -11   4    0.88    0.44
  -1  11   4    0.78    0.33
   0 -11   4    1.28    0.37
   0 -11  -4    0.98    0.33
   0 -11   4    1.21    0.44
   0 -11  -4    0.85    0.46
   0  11   4    0.98    0.36
   1 -11   4    0.02    0.40
   1 -11   4    0.14    0.33
  -1 -11  -4    1.00    0.49
  -1 -11  -4    0.75    0.32
  -2 -11  -4    0.11    0.46
   2 -11   4    0.07    0.32
   2 -11   4    0.64    0.41
  -2 -11  -4   -0.17    0.32
   3 -11   4   -0.22    0.31
   3 -11   4   -0.21    0.39
  -3 -11  -4   -0.08    0.31
  -3 -11  -4   -0.29    0.47
  -3  11  -4   -0.46    0.34
  -4 -11  -4    0.28    0.37
  -4 -11  -4    1.19    0.56
  -4  11  -4    0.01    0.36
  -9   0   5    2.52    0.32
   9   0  -5    3.14    0.44
  -8   0   5    0.09    0.20
   8   0  -5   -0.16    0.28
  -7   0   5    1.74    0.22
   7   0  -5    2.13    0.32
  -6   0   5    0.02    0.14
  -6   0   5   -0.20    0.10
  -6   0   5    0.01    0.12
  -6   0   5    0.06    0.06
  -5   0   5  108.33    3.49
  -5   0   5   99.72    3.10
  -5   0   5  108.63    3.37
   4   0  -5    0.03    0.05
  -4   0   5   -0.09    0.08
  -4   0   5   -0.07    0.07
  -3   0   5   74.91    2.50
   3   0  -5   77.36    2.50
  -3   0   5   76.90    2.43
   2   0  -5   -0.03    0.04
  -2   0   5    0.02    0.03
   1   0  -5   67.67    2.22
   0   0  -5    0.02    0.04
   1   0   5  162.08    5.13
  -1   0  -5  156.83    5.13
   1   0   5  156.48    5.13
  -2   0  -5    0.16    0.07
   2   0   5    0.05    0.06
   2   0   5    0.12    0.07
  -3   0  -5    3.46    0.20
   3   0   5    3.04    0.18
  -3   0  -5    3.59    0.20
  -4   0  -5    0.15    0.12
  -4   0  -5    0.13    0.11
   4   0   5    0.09    0.08
  -4   0  -5    0.13    0.11
  -4   0  -5   -0.27    0.10
  -5   0  -5    0.68    0.16
  -5   0  -5    0.63    0.17
  -5   0  -5    0.40    0.15
  -5   0  -5    0.70    0.15
   5   0   5    0.80    0.10
  -6   0  -5   -0.11    0.14
  -6   0  -5   -0.07    0.15
  -6   0  -5   -0.19    0.16
  -7   0  -5    0.51    0.20
  -7   0  -5    0.60    0.22
  -7   0  -5    0.39    0.22
  -8   0  -5    0.10    0.21
  -8   0  -5   -0.05    0.22
  -8   0  -5   -0.27    0.24
  -9   0  -5    0.31    0.29
  -9   0  -5    0.07    0.27
 -10   0  -5   -0.42    0.33
 -10   0  -5    0.04    0.34
 -11   0  -5    2.35    0.48
 -10   1   5    1.88    0.34
   9  -1  -5    3.85    0.45
   9   1  -5    4.70    0.51
  -9   1   5    4.09    0.37
   8  -1  -5    0.54    0.29
  -8  -1   5    0.39    0.20
  -8   1   5    0.51    0.23
  -8   1   5    0.65    0.23
   7  -1  -5    3.05    0.34
  -7  -1   5    2.47    0.25
  -7  -1   5    2.71    0.25
  -7   1   5    2.37    0.27
  -7   1   5    3.70    0.32
  -7   1   5    2.70    0.27
  -6  -1   5   32.66    1.04
   6  -1  -5   31.56    1.13
  -6  -1   5   31.56    1.03
  -6  -1   5   31.66    1.10
  -6   1   5   31.82    1.04
  -6   1   5   31.08    1.17
   6   1  -5   31.33    1.06
  -6   1   5   33.00    1.13
  -5  -1   5    6.68    0.30
  -5  -1   5    6.31    0.31
   5  -1  -5    6.93    0.38
  -5   1   5    6.07    0.30
  -5   1   5    6.40    0.33
  -5   1   5    6.61    0.35
   5   1  -5    6.52    0.27
   5   1  -5    6.62    0.30
   4  -1  -5   27.38    0.97
  -4  -1   5   27.37    0.94
  -4   1   5   28.22    1.00
   4   1  -5   28.14    0.94
  -4   1   5   28.04    0.88
  -4   1   5   28.68    0.97
   4   1  -5   28.85    0.96
   3   1  -5   24.23    0.78
  -3   1   5   21.74    0.81
   3   1  -5   23.53    0.79
   2   1  -5   43.15    1.44
   2   1  -5   43.78    1.41
   1   1  -5   14.14    0.50
   0  -1   5  261.39    8.49
   0   1  -5  265.00    8.44
   0   1  -5  261.50    8.46
   1  -1   5    0.15    0.05
  -1   1  -5    0.05    0.05
  -1   1  -5    0.09    0.05
   2  -1   5    6.50    0.29
   2  -1   5    6.32    0.26
   2   1   5    6.56    0.26
  -2   1  -5    6.15    0.27
  -2   1  -5    6.14    0.28
  -3  -1  -5   25.28    0.82
   3  -1   5   25.21    0.86
  -3   1  -5   23.61    0.90
  -3   1  -5   25.20    0.80
  -3   1  -5   25.94    0.86
   3   1   5   24.99    0.86
  -4  -1  -5    9.65    0.39
  -4  -1  -5   10.45    0.42
   4  -1   5    9.20    0.37
  -4  -1  -5    9.56    0.39
   4   1   5   10.24    0.39
  -4   1  -5    9.91    0.40
  -4   1  -5    8.83    0.44
  -4   1  -5    9.47    0.41
  -4   1  -5    9.63    0.41
  -5  -1  -5   16.35    0.63
  -5  -1  -5   16.54    0.63
   5  -1   5   16.02    0.60
  -5  -1  -5   17.47    0.63
  -5   1  -5   17.28    0.65
  -5   1  -5   16.73    0.63
   5   1   5   17.25    0.62
  -5   1  -5   16.74    0.66
  -5   1  -5   16.83    0.70
  -6  -1  -5    8.92    0.46
  -6  -1  -5    8.99    0.43
  -6  -1  -5    8.38    0.42
  -6   1  -5    8.61    0.45
  -6   1  -5    8.31    0.42
  -6   1  -5    8.31    0.46
  -7  -1  -5    3.00    0.31
  -7  -1  -5    3.03    0.33
  -7   1  -5    3.75    0.36
  -7   1  -5    3.16    0.31
  -7   1  -5    2.91    0.31
  -8  -1  -5    0.29    0.27
  -8  -1  -5    0.57    0.26
  -8   1  -5    0.60    0.26
  -8   1  -5    0.33    0.24
  -8   1  -5    0.13    0.26
  -9  -1  -5    0.33    0.31
  -9  -1  -5    0.18    0.29
  -9   1  -5    0.08    0.27
  -9   1  -5    0.63    0.33
 -10  -1  -5    0.28    0.33
 -10  -1  -5    0.11    0.36
 -10   1  -5    0.13    0.35
 -11  -1  -5   -0.03    0.37
 -11   1  -5    0.15    0.40
 -11   2   5    1.22    0.38
 -10   2   5    0.73    0.32
  -9   2   5    3.13    0.37
  -9   2   5    3.40    0.37
  -8  -2   5    0.25    0.21
   8  -2  -5    0.42    0.29
  -8   2   5    0.59    0.24
  -8   2   5    0.65    0.24
   7  -2  -5    0.45    0.25
  -7  -2   5    0.06    0.16
  -7   2   5    0.20    0.19
  -7   2   5   -0.01    0.16
  -7   2   5    0.35    0.20
   7   2  -5    0.21    0.09
  -6  -2   5    0.23    0.13
   6  -2  -5    0.38    0.21
  -6  -2   5    0.10    0.14
  -6   2   5    0.36    0.16
   6   2  -5    0.29    0.09
  -6   2   5    0.58    0.17
  -6   2   5    0.50    0.19
  -5  -2   5    4.45    0.25
   5  -2  -5    4.41    0.32
  -5  -2   5    4.18    0.24
  -5   2   5    4.86    0.31
   5   2  -5    4.48    0.21
   5   2  -5    4.45    0.25
  -5   2   5    5.09    0.28
  -5   2   5    4.25    0.28
  -4  -2   5    6.80    0.30
   4  -2  -5    6.96    0.34
   4   2  -5    7.46    0.29
   4   2  -5    7.10    0.30
  -4   2   5    7.46    0.34
  -4   2   5    6.82    0.30
  -4   2   5    7.66    0.35
  -3   2   5   13.26    0.50
   3   2  -5   13.13    0.48
  -3   2   5   12.92    0.46
   3   2  -5   13.53    0.48
   2   2  -5   22.74    0.79
   1   2  -5  145.52    4.72
   0   2  -5   15.43    0.56
   0   2  -5   15.74    0.54
  -1   2  -5  109.15    3.56
  -1   2  -5  107.96    3.56
  -1   2  -5  110.92    3.45
   2  -2   5    2.25    0.16
  -2  -2  -5    2.50    0.17
   2  -2   5    2.60    0.18
  -2   2  -5    2.78    0.17
  -2   2  -5    2.56    0.19
  -3  -2  -5    1.50    0.17
   3  -2   5    1.28    0.12
  -3   2  -5    1.31    0.14
  -3   2  -5    1.07    0.14
  -3   2  -5    1.41    0.15
   4  -2   5    0.23    0.08
   4  -2   5    0.34    0.14
  -4  -2  -5    0.14    0.14
  -4  -2  -5    0.21    0.11
  -4   2  -5    0.33    0.13
  -4   2  -5    0.20    0.12
   4   2   5    0.23    0.08
  -4   2  -5    0.20    0.13
  -5  -2  -5   59.63    1.84
  -5  -2  -5   57.96    1.81
  -5   2  -5   59.53    1.96
  -5   2  -5   56.04    1.80
  -5   2  -5   58.53    2.04
  -6  -2  -5    3.51    0.30
  -6  -2  -5    3.31    0.32
  -6   2  -5    3.86    0.32
  -6   2  -5    4.08    0.33
  -7  -2  -5    2.75    0.34
  -7  -2  -5    3.30    0.32
  -7   2  -5    3.71    0.35
  -7   2  -5    3.97    0.36
  -8  -2  -5    0.20    0.28
  -8  -2  -5   -0.02    0.24
  -8   2  -5   -0.36    0.23
  -8   2  -5   -0.14    0.23
   8   2   5    0.03    0.09
  -9  -2  -5    0.48    0.33
   9  -2   5    0.36    0.29
  -9  -2  -5    0.04    0.28
  -9   2  -5   -0.21    0.28
  -9   2  -5   -0.54    0.26
 -10  -2  -5    1.14    0.36
 -10   2  -5    1.35    0.38
 -10   2  -5    0.66    0.38
 -11  -2  -5    0.55    0.39
 -11   2  -5    0.25    0.40
 -11   3   5    0.15    0.36
 -10   3   5    1.25    0.38
 -10   3   5    0.70    0.35
  -9   3   5    0.81    0.32
  -9   3   5    1.05    0.32
   8  -3  -5    1.54    0.32
  -8  -3   5    1.15    0.25
  -8   3   5    1.55    0.31
   8   3  -5    1.09    0.14
  -8   3   5    1.51    0.29
  -7  -3   5   -0.08    0.17
   7  -3  -5    0.26    0.24
  -7   3   5    0.25    0.21
  -7   3   5   -0.12    0.18
   7   3  -5    0.24    0.11
   6  -3  -5    2.26    0.27
  -6  -3   5    1.56    0.21
   6   3  -5    2.45    0.18
  -6   3   5    2.12    0.25
  -6   3   5    2.27    0.25
  -6   3   5    1.70    0.24
   5  -3  -5    4.75    0.33
  -5  -3   5    4.85    0.28
  -5   3   5    4.82    0.29
   5   3  -5    4.83    0.25
  -5   3   5    4.50    0.31
  -5   3   5    4.92    0.31
   4  -3  -5   14.28    0.56
  -4  -3   5   13.36    0.58
  -4  -3   5   15.02    0.53
   4   3  -5   14.72    0.56
  -4   3   5   14.18    0.57
  -4   3   5   14.92    0.53
   4   3  -5   14.32    0.54
   3  -3  -5    5.81    0.30
  -3  -3   5    5.79    0.31
  -3   3   5    5.02    0.30
  -3   3   5    5.92    0.27
   3   3  -5    5.48    0.27
   2  -3  -5   42.59    1.37
  -2  -3   5   42.75    1.38
   2   3  -5   44.27    1.46
  -2   3   5   40.74    1.40
  -2   3   5   44.70    1.31
   1   3  -5    0.27    0.08
   0   3  -5    5.79    0.27
  -1   3  -5   23.61    0.83
  -1   3  -5   23.64    0.83
  -1   3  -5   22.91    0.80
  -2   3  -5   37.87    1.28
  -2   3  -5   38.60    1.31
  -2   3  -5   37.80    1.17
  -2   3  -5   38.49    1.32
   3  -3   5   31.60    1.00
  -3  -3  -5   29.80    0.98
  -3  -3  -5   31.07    0.98
  -3   3  -5   30.32    1.06
  -3   3  -5   30.12    0.97
  -3   3  -5   29.51    1.09
  -4  -3  -5    1.63    0.20
  -4  -3  -5    1.78    0.19
   4  -3   5    1.95    0.21
  -4   3  -5    1.71    0.19
  -4   3  -5    1.64    0.19
  -4   3  -5    1.73    0.20
  -5  -3  -5    1.31    0.20
  -5  -3  -5    1.43    0.21
   5  -3   5    1.45    0.22
  -5  -3  -5    1.38    0.21
  -5   3  -5    1.33    0.21
  -5   3  -5    1.24    0.20
  -5   3  -5    1.49    0.22
   6  -3   5    7.76    0.46
  -6  -3  -5    8.79    0.44
  -6  -3  -5    9.34    0.46
  -6   3  -5    9.15    0.47
  -6   3  -5    8.49    0.48
   7  -3   5    0.02    0.22
  -7  -3  -5    0.24    0.25
  -7  -3  -5    0.36    0.21
  -7   3  -5    0.70    0.26
  -7   3  -5    0.46    0.25
  -8  -3  -5    4.12    0.41
  -8  -3  -5    3.19    0.37
   8  -3   5    3.24    0.37
   8   3   5    3.40    0.23
  -8   3  -5    3.41    0.40
  -8   3  -5    3.05    0.39
  -9  -3  -5   -0.10    0.29
  -9  -3  -5    0.17    0.31
  -9   3  -5    0.54    0.33
  -9   3  -5    0.24    0.32
 -10  -3  -5    0.70    0.35
 -10   3  -5    0.17    0.36
 -10   3  -5    0.09    0.34
 -11   4   5   -0.28    0.32
 -10   4   5   -0.11    0.34
 -10   4   5    0.34    0.35
  -9  -4   5    0.35    0.27
   9   4  -5   -0.09    0.12
  -9   4   5    0.21    0.29
  -9   4   5   -0.03    0.30
   8  -4  -5    0.15    0.29
  -8  -4   5    0.65    0.24
   8   4  -5    0.15    0.14
  -8   4   5    0.51    0.27
  -8   4   5    0.72    0.30
   7  -4  -5   17.87    0.72
  -7  -4   5   16.02    0.67
  -7   4   5   16.07    0.73
   7   4  -5   16.15    0.63
  -7   4   5   15.90    0.70
  -6  -4   5    1.65    0.23
   6  -4  -5    1.41    0.26
   6   4  -5    1.73    0.18
  -6   4   5    1.94    0.27
  -6   4   5    1.66    0.26
  -5  -4   5   46.37    1.61
   5  -4  -5   47.72    1.56
  -5  -4   5   47.05    1.50
  -5   4   5   46.73    1.61
   5   4  -5   46.83    1.60
  -5   4   5   46.75    1.68
  -5   4   5   46.94    1.50
  -4  -4   5    4.73    0.32
   4  -4  -5    4.18    0.31
  -4  -4   5    4.84    0.27
  -4   4   5    4.44    0.32
   4   4  -5    3.80    0.25
  -4   4   5    4.25    0.27
  -3  -4   5    3.61    0.23
  -3  -4   5    3.93    0.28
   3  -4  -5    3.79    0.26
  -3   4   5    3.83    0.24
   3   4  -5    4.03    0.25
  -3   4   5    4.06    0.25
   2  -4  -5    1.66    0.18
  -2  -4   5    2.24    0.18
  -2  -4   5    1.78    0.19
  -2   4   5    1.82    0.17
  -2   4   5    1.76    0.17
  -2   4   5    2.15    0.17
   2   4  -5    1.93    0.17
   1  -4  -5   10.90    0.44
  -1  -4   5   11.17    0.45
  -1  -4   5   11.42    0.42
   1   4  -5   11.50    0.42
   1   4  -5   11.00    0.46
  -1   4   5   11.14    0.42
   0  -4   5    2.10    0.17
   0  -4   5    2.14    0.17
   0  -4  -5    1.78    0.18
   0   4  -5    1.69    0.15
   0   4  -5    1.68    0.16
   1  -4   5   67.97    1.98
  -1  -4  -5   65.52    2.06
  -1   4  -5   65.09    2.20
  -1   4  -5   64.66    2.12
  -1   4  -5   64.91    1.95
   2  -4   5    0.17    0.11
  -2  -4  -5    0.08    0.11
  -2  -4  -5    0.32    0.14
  -2   4  -5    0.11    0.11
  -2   4  -5    0.19    0.11
  -2   4  -5    0.08    0.11
  -2   4  -5   -0.09    0.10
  -3  -4  -5    5.73    0.32
  -3  -4  -5    4.96    0.29
   3  -4   5    5.86    0.28
   3  -4   5    6.37    0.31
  -3   4  -5    5.24    0.32
  -3   4  -5    5.67    0.32
  -3   4  -5    5.54    0.29
   4  -4   5    4.46    0.30
  -4  -4  -5    4.01    0.33
  -4  -4  -5    4.54    0.28
  -4   4  -5    4.00    0.31
  -4   4  -5    5.01    0.36
  -4   4  -5    3.82    0.27
   5  -4   5   14.34    0.59
  -5  -4  -5   13.98    0.58
  -5  -4  -5   14.99    0.65
  -5   4  -5   14.61    0.64
  -5   4  -5   14.17    0.59
   6  -4   5    2.88    0.30
  -6  -4  -5    2.89    0.31
  -6  -4  -5    2.20    0.29
  -6  -4  -5    3.06    0.30
  -6   4  -5    3.56    0.35
  -6   4  -5    3.08    0.32
  -7  -4  -5    1.30    0.27
  -7  -4  -5    2.10    0.31
   7  -4   5    1.85    0.29
  -7   4  -5    1.69    0.30
   7   4   5    1.62    0.18
  -7   4  -5    1.78    0.31
   8  -4   5    0.74    0.27
  -8  -4  -5    0.42    0.26
  -8  -4  -5    0.31    0.29
   8   4   5    0.39    0.14
  -8   4  -5    0.86    0.33
  -8   4  -5    0.80    0.33
  -9  -4  -5    1.73    0.36
  -9   4  -5    1.46    0.38
  -9   4  -5    1.86    0.38
 -10  -4  -5    1.03    0.36
 -10   4  -5    1.43    0.43
 -10   4  -5    0.47    0.37
 -10   5   5   -0.15    0.38
 -10   5   5    0.26    0.37
  -9  -5   5    0.01    0.28
  -9   5   5    0.00    0.32
  -9   5   5    0.14    0.32
  -8  -5   5    0.87    0.27
   8  -5  -5    1.23    0.33
  -8   5   5    0.39    0.30
  -8   5   5    0.47    0.28
   8   5  -5    1.26    0.19
  -7  -5   5   -0.16    0.19
   7  -5  -5   -0.19    0.26
   7   5  -5    0.04    0.15
  -7   5   5   -0.08    0.23
  -7   5   5   -0.03    0.26
  -6  -5   5    8.09    0.45
  -6  -5   5    9.35    0.56
   6  -5  -5    9.45    0.50
   6   5  -5    8.63    0.43
  -6   5   5    9.76    0.49
  -6   5   5   10.01    0.52
   5  -5  -5    0.72    0.23
  -5  -5   5    0.56    0.27
  -5  -5   5    0.43    0.18
  -5   5   5    0.45    0.22
   5   5  -5    0.33    0.15
  -5   5   5    0.56    0.21
  -4  -5   5    5.26    0.38
  -4  -5   5    4.27    0.29
   4  -5  -5    4.33    0.33
  -4   5   5    4.88    0.33
   4   5  -5    4.34    0.28
  -4   5   5    4.10    0.31
   3  -5  -5    0.42    0.18
  -3  -5   5    0.63    0.20
  -3  -5   5    0.37    0.15
   3   5  -5    0.26    0.13
  -3   5   5    0.35    0.16
  -3   5   5    0.51    0.16
  -2  -5   5    1.77    0.22
  -2  -5   5    1.61    0.18
   2  -5  -5    1.58    0.21
   2   5  -5    1.55    0.19
  -2   5   5    1.55    0.19
  -2   5   5    1.61    0.18
  -1  -5   5   11.54    0.47
   1  -5  -5   12.16    0.50
  -1  -5   5   12.48    0.51
  -1   5   5   11.79    0.52
  -1   5   5   12.15    0.48
   1   5  -5   11.89    0.46
   1   5  -5   12.98    0.43
   0  -5   5   74.39    2.28
   0  -5   5   74.36    2.36
   0  -5  -5   78.59    2.26
   0  -5  -5   73.84    2.38
   0   5  -5   78.10    2.55
   0   5  -5   74.25    2.43
   0   5  -5   76.20    2.24
  -1  -5  -5   26.99    0.87
  -1  -5  -5   26.49    0.93
   1  -5   5   26.23    0.90
   1  -5   5   26.77    0.89
  -1   5  -5   26.17    0.93
  -1   5  -5   26.50    0.98
  -1   5  -5   26.70    0.86
   2  -5   5    3.59    0.25
  -2  -5  -5    3.34    0.24
   2  -5   5    3.37    0.24
  -2  -5  -5    3.70    0.29
  -2   5  -5    3.96    0.27
  -2   5  -5    3.62    0.23
  -2   5  -5    3.70    0.27
   3  -5   5    4.35    0.27
   3  -5   5    4.22    0.26
  -3  -5  -5    4.33    0.33
  -3  -5  -5    3.64    0.27
  -3   5  -5    4.22    0.31
  -3   5  -5    3.93    0.28
  -3   5  -5    3.87    0.29
  -4  -5  -5    7.69    0.47
  -4  -5  -5    6.95    0.38
   4  -5   5    7.75    0.40
  -4   5  -5    7.33    0.43
  -4   5  -5    8.10    0.41
   5  -5   5    0.68    0.21
  -5  -5  -5    0.43    0.26
  -5  -5  -5    1.23    0.24
  -5   5  -5    1.09    0.23
   5   5   5    1.06    0.18
  -5   5  -5    1.03    0.26
  -6  -5  -5    2.86    0.33
   6  -5   5    3.57    0.33
  -6  -5  -5    3.97    0.43
  -6   5  -5    4.08    0.38
  -6   5  -5    2.83    0.36
   6   5   5    3.32    0.27
   7  -5   5    0.65    0.25
  -7  -5  -5    0.27    0.27
   7   5   5    0.55    0.17
  -7   5  -5    1.13    0.32
  -7   5  -5    0.21    0.29
  -8  -5  -5    0.00    0.27
  -8   5  -5   -0.14    0.31
  -8   5  -5   -0.31    0.31
  -9  -5  -5    1.26    0.37
  -9   5  -5    1.92    0.43
  -9   5  -5    0.36    0.35
 -10  -5  -5    0.22    0.37
 -10   5  -5    0.19    0.42
 -10   5  -5    0.36    0.42
 -10  -6   5    0.16    0.35
 -10   6   5   -0.65    0.34
 -10   6   5    0.77    0.40
  -9  -6   5   -0.36    0.29
  -9   6   5    0.33    0.35
  -9   6   5    0.26    0.36
   8  -6  -5    0.25    0.32
  -8  -6   5    0.30    0.30
  -8   6   5    0.33    0.33
  -8   6   5    0.26    0.30
   7  -6  -5    2.06    0.35
  -7  -6   5    2.43    0.34
  -7   6   5    2.39    0.36
  -7   6   5    2.12    0.35
   7   6  -5    2.02    0.24
  -6  -6   5    0.37    0.33
   6  -6  -5   -0.09    0.26
  -6  -6   5   -0.20    0.20
  -6   6   5    0.00    0.23
   6   6  -5    0.03    0.16
  -6   6   5    0.19    0.26
  -5  -6   5    2.34    0.28
  -5  -6   5    2.63    0.38
   5  -6  -5    2.65    0.30
   5   6  -5    2.27    0.24
  -5   6   5    2.27    0.29
  -5   6   5    2.37    0.31
  -4  -6   5    0.16    0.20
  -4  -6   5    0.34    0.23
   4  -6  -5    0.02    0.21
  -4   6   5   -0.08    0.20
  -4   6   5    0.06    0.20
   4   6  -5   -0.20    0.15
  -3  -6   5    0.35    0.17
  -3  -6   5    1.03    0.23
   3  -6  -5    0.35    0.21
   3   6  -5    0.07    0.15
  -3   6   5    0.34    0.17
  -3   6   5   -0.01    0.17
  -2  -6   5    3.71    0.31
   2  -6  -5    3.80    0.30
   2  -6  -5    4.09    0.25
  -2  -6   5    3.64    0.29
  -2   6   5    3.98    0.28
  -2   6   5    4.17    0.29
   2   6  -5    3.96    0.31
   1  -6  -5   25.60    0.92
  -1  -6   5   24.17    0.87
   1  -6  -5   25.54    0.83
  -1  -6   5   25.66    0.92
   1   6  -5   25.16    0.82
   0  -6   5    0.06    0.17
   0  -6  -5    0.29    0.20
   0  -6   5    0.36    0.15
   0  -6  -5   -0.02    0.13
   0   6  -5    0.21    0.14
   0   6   5    0.21    0.15
   0   6  -5    0.02    0.14
   0   6  -5   -0.02    0.13
  -1  -6  -5   36.92    1.14
   1  -6   5   33.80    1.18
   1  -6   5   34.74    1.15
  -1  -6  -5   36.39    1.23
  -1   6  -5   34.57    1.22
  -1   6  -5   34.91    1.13
  -2  -6  -5   11.00    0.47
   2  -6   5   11.00    0.48
  -2  -6  -5   10.62    0.54
   2  -6   5   10.81    0.48
  -2   6  -5   10.39    0.52
  -2   6  -5   10.92    0.47
   2   6   5   11.08    0.53
   3  -6   5    0.99    0.20
  -3  -6  -5    0.92    0.21
  -3  -6  -5    1.04    0.26
   3  -6   5    1.10    0.21
   3   6   5    0.99    0.20
  -3   6  -5    1.06    0.23
  -3   6  -5    0.61    0.19
  -4  -6  -5    0.35    0.20
  -4  -6  -5    0.21    0.25
   4  -6   5    0.41    0.19
  -4   6  -5    0.20    0.19
   4   6   5    0.12    0.16
  -4   6  -5    0.34    0.21
   5  -6   5    1.90    0.27
  -5  -6  -5    1.48    0.34
  -5  -6  -5    1.97    0.27
  -5   6  -5    2.49    0.34
   5   6   5    1.80    0.24
  -5   6  -5    2.08    0.29
  -6  -6  -5    1.26    0.27
  -6  -6  -5    1.00    0.35
   6  -6   5    0.88    0.24
   6   6   5    1.12    0.21
  -6   6  -5    1.51    0.31
  -6   6  -5    0.94    0.30
  -7  -6  -5    3.78    0.40
   7   6   5    3.29    0.30
  -7   6  -5    4.05    0.44
  -7   6  -5    4.37    0.44
  -8  -6  -5    0.52    0.34
  -8   6  -5    0.32    0.34
  -8   6  -5    0.22    0.36
  -9  -6  -5    1.15    0.38
  -9   6  -5    0.86    0.39
  -9   6  -5    1.09    0.43
  -9  -7   5    0.63    0.35
  -9   7   5   -0.07    0.34
  -9   7   5    0.22    0.36
  -8  -7   5    0.18    0.32
  -8   7   5    0.03    0.34
  -8   7   5   -0.31    0.34
  -7  -7   5   -0.17    0.27
  -7  -7   5    0.26    0.42
   7  -7  -5    0.48    0.33
  -7   7   5    0.13    0.28
  -7   7   5   -0.19    0.29
   6  -7  -5   11.28    0.60
  -6  -7   5   11.11    0.61
  -6  -7   5   11.77    0.70
  -6   7   5   10.01    0.58
   6   7  -5   10.83    0.56
  -6   7   5   10.11    0.61
   5  -7  -5    0.13    0.27
  -5  -7   5   -0.04    0.22
  -5  -7   5   -0.24    0.31
   5   7  -5    0.09    0.19
  -5   7   5   -0.05    0.24
  -5   7   5    0.14    0.25
  -4  -7   5    2.15    0.34
   4  -7  -5    2.05    0.29
  -4  -7   5    2.41    0.32
  -4   7   5    2.15    0.30
  -4   7   5    2.12    0.30
   4   7  -5    2.24    0.27
   3  -7  -5   -0.25    0.23
  -3  -7   5    0.18    0.20
  -3  -7   5    0.42    0.25
  -3   7   5    0.41    0.20
  -3   7   5    0.29    0.20
   3   7  -5    0.10    0.18
   2  -7  -5    8.18    0.39
  -2  -7   5    6.86    0.41
  -2  -7   5    7.93    0.47
   2  -7  -5    8.11    0.46
  -2   7   5    7.95    0.42
   2   7  -5    8.59    0.47
  -1  -7   5    0.08    0.18
   1  -7  -5   -0.03    0.16
   1  -7  -5    0.24    0.23
  -1  -7   5    0.34    0.23
   1   7  -5   -0.07    0.16
   0  -7  -5   38.43    1.36
   0  -7   5   39.54    1.30
   0  -7   5   39.58    1.35
   0  -7  -5   40.02    1.27
   0   7  -5   39.26    1.25
   1  -7   5    8.93    0.45
   1  -7   5    9.12    0.47
  -1  -7  -5    8.69    0.41
  -1  -7  -5    9.36    0.53
  -1   7  -5    8.34    0.41
  -1   7  -5    8.44    0.45
  -2  -7  -5    9.55    0.55
   2  -7   5    9.64    0.48
   2  -7   5    9.31    0.46
  -2  -7  -5    9.46    0.46
  -2   7  -5    9.56    0.51
   2   7   5    9.14    0.52
  -2   7  -5    9.02    0.45
   3  -7   5   15.28    0.65
   3  -7   5   16.95    0.67
  -3  -7  -5   16.11    0.65
  -3  -7  -5   15.98    0.74
   3   7   5   16.75    0.73
  -3   7  -5   15.05    0.71
  -3   7  -5   16.03    0.65
  -4  -7  -5   -0.11    0.20
   4  -7   5    0.08    0.21
  -4  -7  -5    0.04    0.28
   4   7   5    0.02    0.19
  -4   7  -5   -0.24    0.22
  -4   7  -5    0.09    0.23
  -5  -7  -5   -0.07    0.31
  -5  -7  -5    0.21    0.25
   5  -7   5    0.54    0.24
  -5   7  -5   -0.09    0.24
  -5   7  -5    0.29    0.28
   5   7   5    0.26    0.20
  -6  -7  -5    1.78    0.34
   6  -7   5    2.09    0.30
  -6  -7  -5    1.94    0.44
  -6   7  -5    1.72    0.34
   6   7   5    2.60    0.30
  -6   7  -5    2.48    0.38
  -7  -7  -5    0.19    0.30
  -7   7  -5    0.19    0.33
  -7   7  -5    0.21    0.33
  -8  -7  -5    0.29    0.35
  -8   7  -5    0.46    0.37
  -8   7  -5   -0.07    0.35
  -9  -7  -5    0.76    0.38
  -9   7  -5    0.21    0.40
  -9   7  -5   -0.38    0.40
  -8  -8   5    0.10    0.34
  -8   8   5    0.20    0.36
  -8   8   5    0.01    0.40
  -7  -8   5    1.19    0.38
  -7  -8   5    1.05    0.48
   7  -8  -5    1.12    0.38
  -7   8   5    1.19    0.35
  -7   8   5    0.97    0.37
  -6  -8   5    1.54    0.34
   6  -8  -5    1.12    0.35
  -6  -8   5    0.87    0.42
  -6   8   5    0.95    0.34
  -6   8   5    0.07    0.31
  -5  -8   5    7.25    0.50
   5  -8  -5    8.61    0.52
  -5  -8   5    7.38    0.61
  -5   8   5    7.89    0.54
  -5   8   5    7.10    0.54
   5   8  -5    6.98    0.50
   4  -8  -5   -0.06    0.29
  -4  -8   5    0.38    0.25
  -4  -8   5   -0.29    0.32
  -4   8   5    0.42    0.28
   4   8  -5   -0.07    0.20
  -4   8   5    0.39    0.26
  -3  -8   5    0.30    0.31
   3  -8  -5    0.57    0.30
  -3  -8   5   -0.03    0.25
   3   8  -5    0.33    0.22
  -3   8   5    0.29    0.26
   2  -8  -5    0.27    0.28
  -2  -8   5    0.44    0.23
  -2  -8   5    0.32    0.29
  -2   8   5    0.41    0.25
   1  -8  -5    0.88    0.29
  -1  -8   5    1.91    0.32
  -1  -8   5    1.51    0.27
   1  -8  -5    1.46    0.23
  -1   8   5    1.66    0.28
   0  -8   5    1.89    0.27
   0  -8  -5    1.66    0.25
   0  -8   5    1.92    0.31
   0  -8  -5    2.38    0.33
   0   8  -5    1.84    0.25
   1  -8   5    2.46    0.30
  -1  -8  -5    3.09    0.31
   1  -8   5    2.68    0.33
  -1  -8  -5    3.58    0.40
  -1   8  -5    2.29    0.28
   2  -8   5   -0.11    0.24
  -2  -8  -5   -0.15    0.20
   2  -8   5   -0.19    0.21
  -2  -8  -5    0.20    0.28
   2   8   5    0.11    0.22
  -2   8  -5    0.28    0.23
  -3  -8  -5    0.10    0.25
   3  -8   5    0.50    0.24
  -3  -8  -5    0.24    0.29
   3  -8   5    0.16    0.25
  -3   8  -5   -0.09    0.25
   3   8   5    0.18    0.22
  -3   8  -5   -0.20    0.23
  -4  -8  -5    0.72    0.28
  -4  -8  -5    1.42    0.38
   4  -8   5    0.74    0.26
   4   8   5    0.70    0.24
  -4   8  -5    0.20    0.25
  -4   8  -5    0.61    0.29
  -5  -8  -5    1.26    0.42
   5  -8   5    2.27    0.32
  -5  -8  -5    1.84    0.35
  -5   8  -5    1.86    0.36
  -5   8  -5    2.07    0.34
   5   8   5    1.63    0.30
  -6  -8  -5    0.45    0.30
  -6  -8  -5    0.37    0.40
  -6   8  -5    0.47    0.31
  -6   8  -5   -0.02    0.32
  -7  -8  -5   -0.07    0.34
  -7   8  -5    0.64    0.38
  -7   8  -5    0.51    0.34
  -8  -8  -5   -0.33    0.37
  -8   8  -5   -0.08    0.37
  -8   8  -5   -0.37    0.39
  -7  -9   5    0.80    0.53
   7  -9  -5    1.31    0.43
  -7  -9   5    0.83    0.40
  -7   9   5    0.79    0.39
  -7   9   5    0.60    0.42
  -6  -9   5   -0.36    0.41
   6  -9  -5    0.08    0.37
  -6  -9   5   -0.03    0.35
  -6   9   5   -0.13    0.34
  -6   9   5    0.09    0.36
  -5  -9   5    0.03    0.40
   5  -9  -5   -0.16    0.35
  -5  -9   5   -0.19    0.32
  -5   9   5    0.03    0.32
   4  -9  -5    1.50    0.38
  -4  -9   5    1.61    0.35
  -4  -9   5    1.81    0.43
   4   9  -5    1.61    0.33
  -4   9   5    0.94    0.35
  -3  -9   5    5.29    0.46
  -3  -9   5    4.54    0.50
   3  -9  -5    4.51    0.44
  -3   9   5    4.37    0.43
  -2  -9   5    1.78    0.39
  -2  -9   5    1.58    0.33
   2  -9  -5    1.74    0.39
  -2   9   5    1.44    0.32
  -1  -9   5    3.41    0.40
   1  -9  -5    2.91    0.40
   1  -9  -5    2.38    0.29
  -1  -9   5    2.51    0.33
  -1   9   5    3.11    0.36
   0  -9  -5    0.52    0.24
   0  -9   5    0.74    0.30
   0  -9   5    0.51    0.27
   0  -9  -5    1.29    0.37
  -1  -9  -5   -0.22    0.21
   1  -9   5    0.04    0.29
  -1  -9  -5   -0.34    0.30
   1  -9   5    0.58    0.27
  -1   9  -5   -0.09    0.24
   2  -9   5    2.02    0.36
   2  -9   5    2.29    0.33
  -2  -9  -5    3.33    0.43
  -2  -9  -5    3.23    0.36
  -2   9  -5    1.94    0.32
  -3  -9  -5    0.44    0.27
   3  -9   5    0.08    0.30
  -3  -9  -5    0.47    0.37
   3  -9   5    0.68    0.27
  -3   9  -5    0.54    0.29
  -4  -9  -5   -0.23    0.36
   4  -9   5    0.05    0.26
  -4  -9  -5    0.35    0.30
   4   9   5   -0.06    0.25
  -4   9  -5   -0.23    0.29
  -4   9  -5    0.26    0.30
   5  -9   5    0.37    0.29
  -5  -9  -5    0.85    0.46
  -5  -9  -5    0.63    0.34
  -5   9  -5    0.41    0.31
  -5   9  -5    0.66    0.35
  -6  -9  -5    1.23    0.52
  -6  -9  -5    1.49    0.37
  -6   9  -5    0.50    0.36
  -6   9  -5    0.81    0.37
  -7  -9  -5    0.91    0.38
  -7   9  -5    1.22    0.43
  -7   9  -5    0.71    0.39
   6 -10  -5    0.41    0.42
  -6 -10   5    0.40    0.50
  -6 -10   5    0.69    0.42
  -6  10   5    0.15    0.41
  -5 -10   5   -0.28    0.43
   5 -10  -5    0.09    0.39
  -5 -10   5    0.30    0.38
  -5  10   5   -0.07    0.37
  -4 -10   5    0.02    0.32
  -4 -10   5   -0.06    0.41
   4 -10  -5   -0.15    0.38
  -4  10   5    0.02    0.35
  -3 -10   5    0.23    0.34
   3 -10  -5    0.38    0.39
  -3 -10   5    0.55    0.37
  -3  10   5   -0.06    0.33
  -2 -10   5    1.43    0.41
   2 -10  -5    1.38    0.39
  -2 -10   5    1.49    0.37
  -2  10   5    1.38    0.36
  -1 -10   5    3.38    0.40
  -1 -10   5    4.24    0.50
   1 -10  -5    3.48    0.50
  -1  10   5    3.22    0.41
   0 -10   5    0.15    0.36
   0 -10  -5    0.11    0.36
   0 -10  -5   -0.32    0.25
   0 -10   5   -0.08    0.31
   0  10   5    0.28    0.30
  -1 -10  -5    3.94    0.53
  -1 -10  -5    3.55    0.39
   1 -10   5    3.04    0.41
   1 -10   5    2.66    0.38
   2 -10   5    1.42    0.38
  -2 -10  -5    1.99    0.48
  -2 -10  -5    0.85    0.31
   2 -10   5    1.40    0.33
  -2  10  -5    1.51    0.36
  -3 -10  -5    0.38    0.42
   3 -10   5   -0.09    0.29
   3 -10   5    0.15    0.35
  -3 -10  -5    0.30    0.33
  -3  10  -5    0.48    0.32
  -4 -10  -5    0.29    0.34
  -4 -10  -5    0.42    0.47
   4 -10   5    0.77    0.32
  -4  10  -5    0.44    0.34
  -5 -10  -5    0.99    0.38
  -5 -10  -5    1.57    0.55
  -5  10  -5    1.01    0.39
  -4 -11   5   -0.01    0.46
  -4 -11   5   -0.02    0.40
   4 -11  -5    0.20    0.43
  -4  11   5    0.19    0.40
  -3 -11   5   -0.18    0.44
  -3 -11   5    0.41    0.37
   3 -11  -5   -0.74    0.38
  -3  11   5    0.76    0.40
  -2 -11   5    0.29    0.43
  -2 -11   5    0.43    0.34
   2 -11  -5    0.02    0.40
  -2  11   5   -0.08    0.34
  -1 -11   5   -0.15    0.33
  -1 -11   5    0.53    0.44
   1 -11  -5   -0.50    0.41
  -1  11   5    0.39    0.35
   0 -11  -5    1.01    0.47
   0 -11   5    0.95    0.36
   0 -11   5    0.96    0.43
   0  11   5    0.53    0.35
  -1 -11  -5    0.65    0.33
  -1 -11  -5    0.60    0.47
   1 -11   5   -0.09    0.40
   1 -11   5    0.53    0.35
   1  11   5    0.21    0.34
   2 -11   5   -0.04    0.33
  -2 -11  -5    0.03    0.46
  -2 -11  -5    0.55    0.35
   2 -11   5    0.96    0.42
   3 -11   5    0.23    0.33
  -3 -11  -5    0.48    0.36
  -3 -11  -5    3.03    0.55
  -3  11  -5    0.43    0.37
  -4 -11  -5   -0.22    0.36
  -4 -11  -5    0.58    0.55
  -4  11  -5    0.95    0.40
   9   0  -6    0.18    0.35
  -9   0   6    0.21    0.24
  -8   0   6    1.16    0.24
   8   0  -6    1.30    0.33
  -7   0   6   -0.02    0.16
   7   0  -6   -0.42    0.21
  -6   0   6   -0.08    0.13
  -6   0   6    0.36    0.15
  -6   0   6    0.29    0.13
   6   0  -6    0.14    0.21
  -5   0   6   -0.02    0.10
  -5   0   6   -0.05    0.10
  -5   0   6   -0.06    0.11
   4   0  -6    4.70    0.21
  -4   0   6    4.81    0.24
  -4   0   6    4.51    0.23
  -3   0   6    0.07    0.05
   3   0  -6    0.03    0.06
  -3   0   6   -0.01    0.07
   2   0  -6   56.14    1.86
   1   0  -6    0.02    0.05
   0   0  -6  103.18    3.37
  -1   0  -6    0.02    0.05
   1   0   6    0.00    0.05
   2   0   6   64.40    2.21
   2   0   6   67.44    2.19
   3   0   6   -0.04    0.06
  -3   0  -6    0.09    0.09
  -3   0  -6   -0.03    0.07
   4   0   6  334.16   10.94
  -4   0  -6  342.16    9.78
  -4   0  -6  341.43   10.62
  -4   0  -6  339.24    9.83
   5   0   6   -0.11    0.08
  -5   0  -6   -0.06    0.12
  -5   0  -6   -0.05    0.14
  -5   0  -6   -0.09    0.14
  -6   0  -6    0.80    0.20
  -6   0  -6    0.35    0.17
  -6   0  -6    0.67    0.20
  -7   0  -6    0.18    0.21
  -7   0  -6    0.00    0.18
  -7   0  -6   -0.21    0.22
  -8   0  -6   -0.10    0.24
  -8   0  -6    0.01    0.24
  -9   0  -6   -0.14    0.27
  -9   0  -6   -0.04    0.28
 -10   0  -6    1.64    0.42
 -10   0  -6    2.88    0.45
 -11   0  -6   -0.14    0.40
 -10   1   6    0.61    0.30
   9  -1  -6    0.44    0.34
   9   1  -6   -0.10    0.34
  -9   1   6    0.27    0.24
  -8  -1   6    3.32    0.31
   8  -1  -6    3.55    0.41
  -8   1   6    4.06    0.34
  -8   1   6    3.72    0.34
  -7  -1   6    8.42    0.43
   7  -1  -6    8.44    0.50
  -7   1   6    7.94    0.44
  -7   1   6    7.83    0.46
  -7   1   6    8.58    0.43
  -6  -1   6   22.61    0.82
   6  -1  -6   22.79    0.88
  -6  -1   6   22.52    0.77
  -6   1   6   22.80    0.78
  -6   1   6   22.74    0.85
  -6   1   6   22.05    0.88
   6   1  -6   23.19    0.78
  -5  -1   6   10.11    0.42
   5  -1  -6    9.73    0.48
  -5   1   6    9.92    0.40
  -5   1   6    9.72    0.45
   5   1  -6   10.03    0.39
   5   1  -6   10.95    0.42
  -4  -1   6   16.84    0.60
   4  -1  -6   16.49    0.64
  -4   1   6   17.32    0.62
   4   1  -6   18.05    0.60
  -4   1   6   15.11    0.56
   4   1  -6   16.93    0.60
  -3  -1   6    0.39    0.08
   3   1  -6    0.35    0.07
  -3   1   6    0.30    0.09
   3   1  -6    0.40    0.05
   2   1  -6    4.31    0.20
  -2   1   6    4.33    0.21
   1   1  -6  256.92    8.29
   0  -1   6   43.47    1.42
   0   1  -6   42.19    1.44
   0   1  -6   43.77    1.42
   1  -1   6   42.51    1.45
  -1   1  -6   43.26    1.45
  -1   1  -6   44.23    1.45
   2  -1   6   29.29    1.03
   2  -1   6   31.20    1.06
  -2   1  -6   30.11    1.05
   2   1   6   29.36    1.02
  -2   1  -6   30.27    1.00
  -3  -1  -6   24.07    0.81
   3  -1   6   24.59    0.86
  -3   1  -6   24.10    0.85
   3   1   6   25.63    0.86
  -3   1  -6   24.37    0.79
  -3   1  -6   24.47    0.90
  -4  -1  -6    3.38    0.24
  -4  -1  -6    3.20    0.21
   4  -1   6    2.85    0.18
  -4  -1  -6    3.04    0.22
  -4   1  -6    3.25    0.24
  -4   1  -6    3.30    0.24
   4   1   6    3.18    0.20
  -4   1  -6    3.02    0.23
  -4   1  -6    3.13    0.22
  -5  -1  -6   43.96    1.43
  -5  -1  -6   42.83    1.37
  -5  -1  -6   43.07    1.38
  -5   1  -6   40.53    1.53
  -5   1  -6   42.27    1.38
  -5   1  -6   41.81    1.45
  -5   1  -6   43.50    1.37
  -6  -1  -6    0.94    0.22
  -6  -1  -6    0.71    0.19
  -6  -1  -6    0.54    0.17
  -6   1  -6    0.71    0.20
  -6   1  -6    0.48    0.20
  -6   1  -6    0.66    0.19
  -7  -1  -6   -0.06    0.19
  -7  -1  -6    0.12    0.22
  -7   1  -6    0.17    0.20
  -7   1  -6    0.03    0.20
  -7   1  -6    0.44    0.24
  -8  -1  -6    1.81    0.34
  -8  -1  -6    1.80    0.31
  -8   1  -6    1.94    0.31
  -8   1  -6    1.88    0.33
  -8   1  -6    2.22    0.34
  -9  -1  -6    1.56    0.32
  -9  -1  -6    0.80    0.34
  -9   1  -6    0.81    0.34
  -9   1  -6    1.20    0.32
 -10  -1  -6   -0.07    0.35
 -10  -1  -6    0.16    0.35
 -10   1  -6    0.20    0.35
 -11  -1  -6    0.76    0.39
 -11   1  -6    0.13    0.41
 -11   2   6    0.26    0.32
 -10   2   6    0.34    0.32
   9  -2  -6    1.97    0.40
  -9   2   6    1.70    0.32
  -9   2   6    1.20    0.31
   8  -2  -6    3.36    0.39
  -8   2   6    4.00    0.37
  -8   2   6    3.12    0.33
  -7  -2   6    1.08    0.20
   7  -2  -6    1.53    0.30
  -7   2   6    1.33    0.24
   7   2  -6    1.09    0.13
  -7   2   6    1.26    0.23
  -7   2   6    1.30    0.23
  -6  -2   6   30.90    1.03
  -6  -2   6   31.44    1.08
   6  -2  -6   32.89    1.13
  -6   2   6   30.95    1.17
   6   2  -6   30.22    1.07
  -6   2   6   31.92    1.04
  -6   2   6   32.01    1.13
   5  -2  -6    5.02    0.34
  -5  -2   6    5.01    0.26
  -5  -2   6    4.53    0.27
  -5   2   6    5.35    0.31
  -5   2   6    5.15    0.31
   5   2  -6    4.91    0.24
  -5   2   6    5.09    0.27
   4  -2  -6   21.39    0.78
   4   2  -6   22.09    0.76
   4   2  -6   21.94    0.76
  -4   2   6   21.57    0.79
  -4   2   6   21.21    0.72
  -4   2   6   22.44    0.81
  -3  -2   6   18.84    0.68
   3  -2  -6   17.65    0.67
  -3   2   6   19.24    0.68
   3   2  -6   19.61    0.65
  -3   2   6   19.53    0.63
   3   2  -6   19.27    0.67
   2   2  -6   72.94    2.36
  -2   2   6   70.67    2.29
   1   2  -6    2.00    0.14
   0   2  -6  250.38    7.99
   0   2  -6  246.53    8.02
  -1   2  -6    1.07    0.11
  -1   2  -6    0.59    0.09
  -1   2  -6    0.73    0.09
   2  -2   6   26.26    0.93
   2  -2   6   27.38    0.95
  -2  -2  -6   24.42    0.85
  -2   2  -6   26.64    0.84
  -2   2  -6   28.17    0.93
  -2   2  -6   27.14    0.94
  -2   2  -6   26.46    0.91
   3  -2   6    2.10    0.19
   3  -2   6    2.43    0.17
  -3  -2  -6    2.39    0.20
  -3  -2  -6    2.33    0.18
  -3   2  -6    2.60    0.18
  -3   2  -6    2.21    0.19
  -3   2  -6    2.59    0.20
  -4  -2  -6    2.91    0.25
   4  -2   6    2.82    0.25
  -4  -2  -6    3.33    0.24
  -4   2  -6    3.17    0.24
  -4   2  -6    2.92    0.24
   4   2   6    3.13    0.20
  -4   2  -6    3.53    0.24
  -5  -2  -6    0.13    0.15
  -5  -2  -6    0.19    0.18
  -5   2  -6    0.16    0.16
  -5   2  -6   -0.02    0.16
  -5   2  -6    0.22    0.14
  -6  -2  -6    0.83    0.23
  -6  -2  -6    0.20    0.18
  -6   2  -6    0.02    0.18
  -6   2  -6   -0.03    0.17
  -7  -2  -6    0.11    0.20
  -7  -2  -6   -0.08    0.23
  -7   2  -6    0.09    0.22
  -7   2  -6    0.01    0.21
  -8  -2  -6    2.72    0.35
  -8  -2  -6    2.45    0.37
  -8   2  -6    2.90    0.36
  -8   2  -6    2.29    0.35
   9  -2   6    0.02    0.29
  -9  -2  -6    0.62    0.33
  -9  -2  -6    0.88    0.30
  -9   2  -6    0.54    0.31
  -9   2  -6    1.02    0.35
 -10  -2  -6    2.70    0.43
 -10  -2  -6    2.73    0.45
 -10   2  -6    2.49    0.44
 -10   2  -6    1.99    0.44
 -11  -2  -6   -0.35    0.36
 -11   2  -6   -0.39    0.39
 -11   3   6    0.75    0.38
 -10   3   6   -0.15    0.28
   9  -3  -6    4.45    0.47
  -9   3   6    3.15    0.39
  -9   3   6    4.62    0.44
  -8  -3   6    0.25    0.22
   8  -3  -6   -0.20    0.28
  -8   3   6   -0.29    0.25
   8   3  -6   -0.08    0.12
  -8   3   6    0.32    0.24
   7  -3  -6   10.09    0.53
  -7  -3   6    9.02    0.45
  -7   3   6    9.65    0.47
   7   3  -6    8.94    0.39
  -7   3   6    8.38    0.49
   6  -3  -6    6.25    0.40
  -6  -3   6    5.35    0.31
   6   3  -6    5.58    0.28
  -6   3   6    5.85    0.38
  -6   3   6    5.56    0.34
  -6   3   6    5.01    0.37
  -5  -3   6    1.02    0.16
   5  -3  -6    0.78    0.20
  -5   3   6    0.89    0.17
  -5   3   6    0.74    0.17
   5   3  -6    0.85    0.12
  -5   3   6    1.02    0.18
  -4  -3   6   12.19    0.46
   4  -3  -6   11.68    0.51
  -4  -3   6   12.86    0.54
  -4   3   6   12.32    0.51
   4   3  -6   11.85    0.47
   4   3  -6   12.25    0.48
  -4   3   6   11.78    0.47
   3  -3  -6   21.94    0.78
  -3  -3   6   22.61    0.80
   3   3  -6   23.04    0.81
  -3   3   6   22.59    0.75
   2  -3  -6   13.62    0.51
  -2  -3   6   13.00    0.50
  -2   3   6   12.67    0.50
   2   3  -6   13.89    0.51
   1   3  -6  129.05    4.22
   0   3  -6   38.59    1.32
   0   3  -6   38.73    1.27
  -1   3  -6   21.88    0.77
  -1   3  -6   21.42    0.74
  -1   3  -6   20.44    0.76
  -2   3  -6    5.11    0.28
  -2   3  -6    5.34    0.26
  -2   3  -6    4.39    0.26
  -2   3  -6    4.71    0.24
  -3  -3  -6   23.45    0.80
   3  -3   6   23.39    0.80
  -3  -3  -6   24.05    0.78
  -3   3  -6   22.21    0.87
  -3   3  -6   24.23    0.78
  -3   3  -6   22.87    0.84
  -4  -3  -6    1.06    0.17
  -4  -3  -6    0.76    0.17
   4  -3   6    1.08    0.17
  -4  -3  -6    0.65    0.16
  -4   3  -6    1.12    0.18
  -4   3  -6    0.95    0.17
  -4   3  -6    0.61    0.15
   5  -3   6    0.11    0.17
  -5  -3  -6   -0.09    0.16
  -5  -3  -6    0.24    0.19
  -5  -3  -6    0.27    0.16
  -5   3  -6    0.25    0.17
  -5   3  -6    0.19    0.16
  -5   3  -6    0.05    0.18
  -6  -3  -6    1.47    0.25
  -6  -3  -6    2.12    0.28
   6  -3   6    1.68    0.26
  -6   3  -6    1.75    0.26
  -6   3  -6    1.88    0.26
   7  -3   6    1.34    0.28
  -7  -3  -6    1.38    0.29
  -7  -3  -6    1.46    0.26
  -7   3  -6    1.09    0.29
  -7   3  -6    1.84    0.30
  -8  -3  -6    0.43    0.29
   8  -3   6    0.07    0.25
  -8  -3  -6    0.02    0.26
  -8   3  -6    0.01    0.28
   8   3   6    0.08    0.12
  -8   3  -6    0.01    0.28
   9  -3   6    0.71    0.31
  -9  -3  -6    0.41    0.32
  -9  -3  -6    0.24    0.31
  -9   3  -6   -0.37    0.31
  -9   3  -6    0.65    0.34
   9   3   6    0.16    0.11
 -10  -3  -6    0.72    0.36
 -10   3  -6    0.53    0.38
 -10   3  -6   -0.60    0.35
 -10   4   6    0.16    0.33
 -10   4   6    0.16    0.35
  -9  -4   6   -0.06    0.25
  -9   4   6   -0.12    0.29
  -9   4   6   -0.28    0.29
   9   4  -6    0.02    0.13
  -8  -4   6    3.98    0.37
   8  -4  -6    5.11    0.44
  -8   4   6    4.64    0.42
  -8   4   6    4.33    0.41
   8   4  -6    4.23    0.28
  -7  -4   6    1.79    0.27
   7  -4  -6    2.38    0.33
  -7   4   6    2.46    0.33
   7   4  -6    2.20    0.20
  -7   4   6    2.56    0.31
   6  -4  -6    5.40    0.40
  -6  -4   6    4.99    0.35
  -6   4   6    5.32    0.41
   6   4  -6    5.37    0.30
  -6   4   6    5.74    0.36
   5  -4  -6    0.29    0.20
  -5  -4   6   -0.13    0.13
  -5  -4   6   -0.09    0.21
  -5   4   6    0.05    0.16
   5   4  -6    0.06    0.12
  -5   4   6    0.04    0.17
  -5   4   6    0.03    0.16
  -4  -4   6    1.27    0.22
  -4  -4   6    1.30    0.18
   4  -4  -6    1.69    0.22
   4   4  -6    0.96    0.15
  -4   4   6    1.33    0.19
  -4   4   6    1.38    0.20
  -3  -4   6   14.14    0.58
  -3  -4   6   14.82    0.55
   3  -4  -6   14.42    0.58
  -3   4   6   14.82    0.58
   3   4  -6   14.21    0.55
   3   4  -6   15.32    0.58
  -3   4   6   14.65    0.55
   2  -4  -6   25.08    0.89
  -2  -4   6   25.76    0.90
  -2  -4   6   26.54    0.86
  -2   4   6   25.28    0.90
   2   4  -6   26.41    0.94
   2   4  -6   26.98    0.89
  -1  -4   6    2.31    0.19
  -1  -4   6    2.42    0.19
   1  -4  -6    2.28    0.19
  -1   4   6    2.32    0.17
   1   4  -6    1.99    0.18
   1   4  -6    2.37    0.18
   0  -4   6   94.74    2.72
   0  -4  -6   89.71    2.83
   0  -4   6   92.11    2.81
   0   4  -6   90.82    2.92
   0   4  -6   90.16    3.03
   1  -4   6    4.63    0.25
  -1  -4  -6    4.45    0.26
  -1   4  -6    4.74    0.23
  -1   4  -6    4.43    0.27
  -1   4  -6    4.28    0.27
   2  -4   6   11.68    0.45
  -2  -4  -6   11.13    0.43
  -2  -4  -6   10.43    0.46
  -2   4  -6   11.20    0.48
  -2   4  -6   11.21    0.47
  -2   4  -6   11.24    0.42
  -3  -4  -6    5.31    0.33
   3  -4   6    5.58    0.30
  -3  -4  -6    5.24    0.28
  -3   4  -6    5.21    0.32
  -3   4  -6    5.57    0.30
  -3   4  -6    4.98    0.34
  -4  -4  -6   49.58    1.57
  -4  -4  -6   50.16    1.65
   4  -4   6   49.13    1.58
  -4   4  -6   50.46    1.76
  -4   4  -6   48.77    1.70
  -4   4  -6   49.76    1.56
  -5  -4  -6    0.32    0.17
   5  -4   6    0.25    0.18
  -5  -4  -6   -0.03    0.18
  -5   4  -6    0.19    0.20
  -5   4  -6    0.10    0.19
  -6  -4  -6   16.49    0.69
  -6  -4  -6   16.03    0.69
   6  -4   6   16.27    0.69
  -6   4  -6   17.54    0.78
  -6   4  -6   16.95    0.69
   7  -4   6    0.35    0.24
  -7  -4  -6    0.29    0.23
  -7  -4  -6    0.39    0.26
  -7   4  -6    0.49    0.26
  -7   4  -6    0.54    0.28
  -8  -4  -6    0.04    0.28
   8  -4   6    0.09    0.26
  -8  -4  -6   -0.21    0.27
   8   4   6    0.11    0.14
  -8   4  -6   -0.14    0.30
  -8   4  -6   -0.21    0.30
  -9  -4  -6    0.43    0.32
  -9   4  -6    0.79    0.37
  -9   4  -6   -0.06    0.35
 -10  -4  -6   -0.37    0.30
 -10   4  -6    0.14    0.39
 -10   4  -6   -0.22    0.38
 -10   5   6   -0.28    0.37
 -10   5   6    0.86    0.38
  -9  -5   6    0.07    0.28
  -9   5   6   -0.23    0.31
  -9   5   6   -0.17    0.28
  -8  -5   6    2.06    0.32
   8  -5  -6    1.72    0.37
  -8   5   6    1.40    0.34
   8   5  -6    1.15    0.20
  -8   5   6    1.49    0.34
   7  -5  -6    2.62    0.36
  -7  -5   6    2.93    0.33
   7   5  -6    2.48    0.24
  -7   5   6    2.64    0.35
  -7   5   6    3.07    0.35
  -6  -5   6    0.36    0.21
   6  -5  -6    0.31    0.23
  -6  -5   6    0.58    0.29
  -6   5   6    0.68    0.23
   6   5  -6    0.32    0.15
  -6   5   6    0.36    0.23
   5  -5  -6   12.14    0.55
  -5  -5   6   12.81    0.62
  -5  -5   6   11.94    0.53
  -5   5   6   12.07    0.56
   5   5  -6   12.04    0.53
  -5   5   6   12.17    0.57
  -4  -5   6    0.64    0.18
   4  -5  -6    0.84    0.22
  -4  -5   6    0.38    0.22
  -4   5   6    0.47    0.19
   4   5  -6    0.74    0.16
  -4   5   6    0.76    0.19
  -3  -5   6   16.69    0.67
  -3  -5   6   16.46    0.62
   3  -5  -6   17.14    0.66
  -3   5   6   15.73    0.65
   3   5  -6   16.13    0.66
  -3   5   6   16.37    0.62
  -2  -5   6   12.77    0.53
   2  -5  -6   12.75    0.52
  -2  -5   6   11.83    0.49
  -2   5   6   12.09    0.51
   2   5  -6   13.45    0.54
  -1  -5   6   49.79    1.56
   1  -5  -6   48.28    1.62
  -1  -5   6   49.11    1.62
   1   5  -6   50.11    1.50
   1   5  -6   51.00    1.64
  -1   5   6   51.87    1.64
   0  -5  -6   36.27    1.22
   0  -5   6   35.77    1.16
   0  -5  -6   38.16    1.14
   0  -5   6   35.23    1.20
   0   5  -6   37.60    1.30
   0   5  -6   36.13    1.12
   0   5  -6   35.43    1.22
   1  -5   6    8.28    0.38
  -1  -5  -6    9.09    0.43
  -1  -5  -6    9.61    0.38
   1  -5   6    8.63    0.38
  -1   5  -6    7.97    0.40
  -1   5  -6    8.43    0.36
  -1   5  -6    8.78    0.42
  -2  -5  -6    0.16    0.14
   2  -5   6    0.27    0.14
  -2  -5  -6    0.33    0.18
   2  -5   6    0.51    0.15
  -2   5  -6    0.25    0.15
  -2   5  -6    0.26    0.14
  -2   5  -6    0.38    0.15
  -3  -5  -6    8.13    0.46
  -3  -5  -6    8.39    0.39
   3  -5   6    8.44    0.37
   3  -5   6    8.90    0.42
  -3   5  -6    8.71    0.44
  -3   5  -6    9.28    0.40
  -3   5  -6    7.78    0.43
  -4  -5  -6   -0.21    0.16
   4  -5   6    0.15    0.16
  -4  -5  -6    0.18    0.22
  -4   5  -6    0.08    0.20
  -4   5  -6    0.19    0.18
  -5  -5  -6    7.29    0.48
   5  -5   6    6.90    0.41
  -5  -5  -6    6.43    0.39
  -5   5  -6    6.70    0.48
  -5   5  -6    6.31    0.39
   6  -5   6    0.33    0.22
  -6  -5  -6    0.32    0.22
   6   5   6    0.45    0.16
  -6   5  -6    0.33    0.23
  -6   5  -6    0.01    0.24
  -7  -5  -6    0.33    0.27
   7  -5   6    0.20    0.23
  -7   5  -6    0.18    0.30
  -7   5  -6   -0.15    0.25
   7   5   6    0.14    0.16
   8  -5   6    0.28    0.27
  -8  -5  -6    0.24    0.31
  -8   5  -6    0.18    0.33
  -8   5  -6    0.35    0.33
  -9  -5  -6    0.35    0.34
  -9   5  -6    0.57    0.39
  -9   5  -6    0.21    0.34
 -10  -5  -6   -0.01    0.38
 -10   5  -6    0.24    0.43
 -10   5  -6   -0.07    0.38
 -10  -6   6    0.82    0.39
 -10   6   6    0.99    0.43
  -9  -6   6    0.46    0.32
  -9   6   6    0.66    0.35
  -9   6   6    0.73    0.34
   8  -6  -6    6.15    0.49
  -8  -6   6    4.85    0.46
  -8   6   6    5.02    0.47
  -8   6   6    4.99    0.50
  -7  -6   6    2.43    0.34
   7  -6  -6    2.26    0.36
  -7   6   6    2.20    0.37
   7   6  -6    2.41    0.26
  -7   6   6    2.06    0.36
  -6  -6   6    4.46    0.48
   6  -6  -6    4.15    0.39
  -6  -6   6    4.70    0.39
   6   6  -6    3.71    0.31
  -6   6   6    4.24    0.39
  -6   6   6    4.40    0.40
  -5  -6   6    0.81    0.30
  -5  -6   6    0.36    0.21
   5  -6  -6    0.34    0.24
  -5   6   6    0.56    0.24
   5   6  -6    0.85    0.19
  -5   6   6    0.70    0.23
  -4  -6   6    0.03    0.19
  -4  -6   6    0.07    0.24
   4  -6  -6    0.34    0.21
  -4   6   6   -0.05    0.20
   4   6  -6    0.11    0.16
  -4   6   6    0.43    0.21
  -3  -6   6    2.36    0.30
  -3  -6   6    1.87    0.25
   3  -6  -6    2.42    0.28
   3   6  -6    2.10    0.24
  -3   6   6    1.85    0.24
  -3   6   6    2.01    0.24
   2  -6  -6   20.69    0.70
  -2  -6   6   20.31    0.77
   2  -6  -6   20.80    0.80
  -2  -6   6   20.32    0.82
  -2   6   6   21.15    0.77
  -2   6   6   21.51    0.79
   2   6  -6   21.22    0.83
  -1  -6   6    0.65    0.20
  -1  -6   6    0.62    0.19
   1  -6  -6    0.44    0.19
   1  -6  -6    0.52    0.15
   1   6  -6    0.55    0.15
   1   6  -6    0.47    0.13
   0  -6  -6    5.60    0.35
   0  -6   6    6.01    0.36
   0  -6   6    5.01    0.31
   0  -6  -6    5.14    0.29
   0   6  -6    5.64    0.33
   0   6  -6    5.63    0.28
   0   6   6    5.54    0.36
   0   6  -6    4.66    0.34
   1  -6   6   -0.16    0.16
  -1  -6  -6   -0.03    0.18
   1  -6   6   -0.10    0.14
  -1  -6  -6   -0.04    0.15
  -1   6  -6   -0.06    0.15
  -1   6  -6    0.33    0.15
   1   6   6   -0.05    0.06
   2  -6   6   11.15    0.47
   2  -6   6   10.69    0.47
  -2  -6  -6    9.79    0.46
  -2  -6  -6   10.39    0.53
  -2   6  -6   10.02    0.45
  -2   6  -6   10.54    0.50
  -2   6  -6   10.40    0.51
   3  -6   6    0.30    0.19
  -3  -6  -6    0.30    0.23
  -3  -6  -6    0.36    0.18
   3  -6   6    0.57    0.20
  -3   6  -6    0.17    0.19
  -3   6  -6    0.17    0.19
  -4  -6  -6   14.12    0.60
  -4  -6  -6   13.68    0.68
   4  -6   6   14.69    0.61
  -4   6  -6   14.88    0.67
   4   6   6   13.93    0.63
  -4   6  -6   14.50    0.61
  -5  -6  -6    1.57    0.35
   5  -6   6    1.29    0.25
  -5  -6  -6    1.29    0.28
  -5   6  -6    0.95    0.27
  -5   6  -6    1.48    0.27
   5   6   6    1.22    0.22
  -6  -6  -6    4.10    0.47
  -6  -6  -6    3.28    0.37
   6  -6   6    3.45    0.34
  -6   6  -6    3.58    0.41
  -6   6  -6    3.50    0.36
   6   6   6    3.69    0.31
   7  -6   6    0.99    0.28
  -7  -6  -6    0.86    0.31
  -7   6  -6    1.15    0.35
  -7   6  -6    0.83    0.31
  -8  -6  -6    0.84    0.35
  -8   6  -6    0.77    0.38
  -8   6  -6    0.76    0.36
  -9  -6  -6    0.11    0.36
  -9   6  -6    0.71    0.41
  -9   6  -6   -0.25    0.38
  -9  -7   6   -0.12    0.33
  -9   7   6    0.11    0.36
  -9   7   6    0.67    0.36
  -8  -7   6    0.49    0.32
   8  -7  -6    0.17    0.36
  -8   7   6    0.43    0.34
  -8   7   6   -0.19    0.32
  -7  -7   6    1.31    0.32
   7  -7  -6    1.19    0.36
  -7  -7   6    0.98    0.42
  -7   7   6    1.07    0.33
  -7   7   6    1.22    0.37
  -6  -7   6    0.39    0.35
  -6  -7   6    0.19    0.28
   6  -7  -6    0.74    0.32
  -6   7   6    0.58    0.30
   6   7  -6    0.40    0.21
  -6   7   6    0.43    0.31
  -5  -7   6    1.10    0.27
  -5  -7   6    1.12    0.35
   5  -7  -6    0.65    0.29
  -5   7   6    0.81    0.26
   5   7  -6    0.93    0.23
  -5   7   6    1.03    0.28
   4  -7  -6   13.30    0.61
  -4  -7   6   12.42    0.60
  -4  -7   6   12.33    0.66
   4   7  -6   12.94    0.62
  -4   7   6   12.81    0.62
  -4   7   6   11.53    0.58
  -3  -7   6    0.08    0.23
  -3  -7   6    0.21    0.20
   3  -7  -6    0.30    0.25
   3   7  -6    0.44    0.19
  -3   7   6   -0.22    0.19
  -3   7   6    0.21    0.22
  -2  -7   6    8.69    0.52
  -2  -7   6    7.27    0.44
   2  -7  -6    8.29    0.49
  -2   7   6    7.23    0.42
   2   7  -6    8.20    0.46
   1  -7  -6   19.66    0.70
  -1  -7   6   20.17    0.79
  -1  -7   6   19.12    0.75
   1  -7  -6   19.60    0.80
   1   7  -6   20.20    0.83
   0  -7   6    0.60    0.23
   0  -7   6    0.89    0.22
   0  -7  -6    0.38    0.25
   0  -7  -6    0.24    0.17
   0   7  -6    0.44    0.17
  -1  -7  -6    4.36    0.31
   1  -7   6    4.23    0.33
   1  -7   6    4.11    0.33
  -1  -7  -6    4.10    0.37
   1   7   6    2.44    0.28
  -1   7  -6    4.26    0.29
  -1   7  -6    4.26    0.32
   2  -7   6    0.52    0.20
  -2  -7  -6    1.09    0.23
  -2  -7  -6    0.41    0.27
   2  -7   6    0.78    0.23
  -2   7  -6    0.71    0.21
  -2   7  -6    0.42    0.22
   2   7   6    0.58    0.20
  -3  -7  -6    4.89    0.44
   3  -7   6    4.44    0.34
  -3  -7  -6    4.16    0.35
   3  -7   6    4.43    0.34
   3   7   6    4.41    0.36
  -3   7  -6    4.84    0.39
  -3   7  -6    4.48    0.35
  -4  -7  -6    0.54    0.30
  -4  -7  -6    0.75    0.25
   4  -7   6    0.41    0.23
  -4   7  -6    0.19    0.23
  -4   7  -6    0.33    0.24
   4   7   6    0.40    0.21
   5  -7   6    6.00    0.39
  -5  -7  -6    5.57    0.43
  -5  -7  -6    6.88    0.57
  -5   7  -6    6.18    0.47
  -5   7  -6    6.56    0.46
   5   7   6    6.29    0.44
  -6  -7  -6    0.32    0.29
  -6  -7  -6    0.39    0.36
   6  -7   6   -0.05    0.25
  -6   7  -6    0.23    0.29
   6   7   6   -0.10    0.19
  -6   7  -6   -0.02    0.27
  -7  -7  -6    0.31    0.30
  -7   7  -6    0.55    0.32
  -7   7  -6    0.80    0.36
  -8  -7  -6    1.28    0.39
  -8   7  -6    0.80    0.36
  -8   7  -6    0.43    0.37
  -8  -8   6    0.02    0.34
  -8   8   6    0.30    0.40
  -8   8   6    0.19    0.36
  -7  -8   6    0.13    0.33
  -7  -8   6   -0.23    0.45
   7  -8  -6   -0.07    0.35
  -7   8   6    0.13    0.34
  -7   8   6   -0.22    0.36
   6  -8  -6    0.04    0.33
  -6  -8   6    0.59    0.39
  -6  -8   6    0.13    0.32
  -6   8   6    0.53    0.35
  -6   8   6    0.23    0.32
   5  -8  -6    0.01    0.28
  -5  -8   6    0.43    0.38
  -5  -8   6   -0.13    0.29
   5   8  -6    0.36    0.24
  -5   8   6    0.43    0.30
  -5   8   6    0.26    0.28
   4  -8  -6    0.12    0.31
  -4  -8   6    0.36    0.32
  -4  -8   6   -0.06    0.24
   4   8  -6    0.37    0.23
  -4   8   6   -0.02    0.25
  -4   8   6   -0.07    0.26
  -3  -8   6    0.74    0.27
  -3  -8   6    0.76    0.32
   3  -8  -6    0.71    0.31
   3   8  -6    1.02    0.25
  -3   8   6    0.90    0.26
  -2  -8   6    8.02    0.58
   2  -8  -6    9.24    0.56
  -2  -8   6    8.85    0.51
  -2   8   6    7.98    0.49
   1  -8  -6    0.14    0.26
   1  -8  -6   -0.03    0.19
  -1  -8   6    0.38    0.23
  -1  -8   6    0.41    0.28
   0  -8   6    2.94    0.31
   0  -8  -6    2.38    0.27
   0  -8   6    3.31    0.36
   0  -8  -6    2.58    0.35
   1  -8   6    1.45    0.25
   1  -8   6    1.29    0.29
  -1  -8  -6    1.13    0.23
  -1  -8  -6    1.72    0.34
  -1   8  -6    1.44    0.24
  -2  -8  -6    3.65    0.42
   2  -8   6    3.99    0.36
   2  -8   6    3.70    0.33
  -2  -8  -6    4.11    0.35
  -2   8  -6    3.54    0.33
  -3  -8  -6    0.27    0.24
   3  -8   6   -0.14    0.25
   3  -8   6    0.40    0.23
  -3  -8  -6    0.37    0.32
  -3   8  -6    0.04    0.23
   3   8   6    0.40    0.23
  -3   8  -6   -0.02    0.25
  -4  -8  -6    6.41    0.43
   4  -8   6    5.59    0.43
  -4  -8  -6    5.45    0.53
   4   8   6    6.07    0.46
  -4   8  -6    6.20    0.43
  -4   8  -6    5.47    0.46
   5  -8   6    1.27    0.29
  -5  -8  -6    1.06    0.32
  -5  -8  -6    0.62    0.39
  -5   8  -6    0.90    0.32
  -5   8  -6    0.70    0.29
   5   8   6    0.79    0.27
   6  -8   6    1.01    0.31
  -6  -8  -6    0.93    0.43
  -6  -8  -6    1.32    0.33
  -6   8  -6    0.88    0.35
  -6   8  -6    0.87    0.33
  -7  -8  -6    0.04    0.34
  -7   8  -6    0.06    0.36
  -7   8  -6    0.28    0.35
  -8  -8  -6    0.17    0.38
  -8   8  -6   -0.29    0.37
  -8   8  -6    0.03    0.41
  -7  -9   6    1.97    0.44
  -7  -9   6    1.10    0.55
   7  -9  -6    1.53    0.44
  -7   9   6    1.68    0.42
  -7   9   6    1.96    0.44
  -6  -9   6    0.49    0.46
   6  -9  -6    0.32    0.38
  -6  -9   6    0.54    0.37
  -6   9   6    0.80    0.36
  -6   9   6    0.78    0.40
  -5  -9   6    0.49    0.31
  -5  -9   6   -0.13    0.40
   5  -9  -6   -0.12    0.32
  -5   9   6    0.43    0.35
  -4  -9   6   -0.61    0.29
   4  -9  -6    0.40    0.33
  -4  -9   6   -0.40    0.35
   4   9  -6    0.21    0.27
  -4   9   6   -0.01    0.31
   3  -9  -6    2.80    0.42
  -3  -9   6    3.41    0.44
  -3  -9   6    2.42    0.38
  -3   9   6    2.55    0.38
  -2  -9   6    1.01    0.36
  -2  -9   6    0.26    0.27
   2  -9  -6    0.36    0.35
  -2   9   6   -0.01    0.28
  -1  -9   6    3.47    0.39
  -1  -9   6    3.33    0.39
   1  -9  -6    2.81    0.42
  -1   9   6    2.39    0.35
   0  -9   6   -0.03    0.26
   0  -9  -6    0.19    0.33
   0  -9   6    0.02    0.30
   0  -9  -6    0.04    0.24
  -1  -9  -6    0.65    0.26
   1  -9   6    0.75    0.26
  -1  -9  -6    0.90    0.37
   1  -9   6    1.11    0.32
  -2  -9  -6    7.74    0.48
   2  -9   6    6.59    0.50
  -2  -9  -6    7.78    0.61
   2  -9   6    6.88    0.45
  -2   9  -6    8.01    0.47
  -3  -9  -6    0.11    0.36
   3  -9   6    0.69    0.30
   3  -9   6    0.18    0.24
  -3  -9  -6    0.39    0.28
  -3   9  -6    0.03    0.28
  -4  -9  -6    1.07    0.33
   4  -9   6    0.90    0.29
  -4  -9  -6    1.01    0.41
  -4   9  -6    0.78    0.30
  -4   9  -6    0.68    0.32
   4   9   6    0.74    0.31
  -5  -9  -6    0.29    0.30
   5  -9   6    0.72    0.31
  -5  -9  -6    0.17    0.43
  -5   9  -6    0.22    0.34
  -5   9  -6   -0.08    0.31
  -6  -9  -6    0.52    0.48
  -6  -9  -6    0.61    0.36
  -6   9  -6    0.07    0.34
  -6   9  -6   -0.02    0.34
  -7  -9  -6    0.30    0.39
  -7   9  -6   -0.39    0.38
  -7   9  -6    0.10    0.37
   6 -10  -6    2.83    0.49
  -6 -10   6    2.47    0.57
  -6 -10   6    2.33    0.48
  -6  10   6    1.34    0.45
  -5 -10   6    0.10    0.35
  -5 -10   6    0.61    0.46
   5 -10  -6    0.27    0.41
  -5  10   6    0.33    0.39
  -4 -10   6   -0.47    0.39
  -4 -10   6    0.09    0.36
   4 -10  -6    0.10    0.39
  -4  10   6   -0.04    0.32
  -3 -10   6    0.97    0.37
  -3 -10   6    0.72    0.41
   3 -10  -6    0.93    0.43
  -3  10   6    0.88    0.33
  -2 -10   6    0.34    0.33
  -2 -10   6   -0.03    0.37
   2 -10  -6    0.24    0.38
  -2  10   6    0.08    0.28
  -1 -10   6   -0.01    0.36
   1 -10  -6    0.33    0.37
  -1 -10   6    0.28    0.32
  -1  10   6    0.31    0.32
   0 -10  -6    4.47    0.53
   0 -10   6    4.88    0.50
   0 -10   6    4.47    0.45
   0 -10  -6    3.72    0.39
   0  10   6    3.50    0.42
   1 -10   6   -0.64    0.27
  -1 -10  -6    0.57    0.39
   1 -10   6   -0.43    0.33
  -1 -10  -6    0.10    0.27
   2 -10   6    0.63    0.32
  -2 -10  -6    0.72    0.40
  -2 -10  -6    0.44    0.31
   2 -10   6    0.39    0.36
   3 -10   6    0.36    0.30
  -3 -10  -6    0.30    0.42
  -3 -10  -6    0.66    0.30
  -3  10  -6    0.42    0.32
  -4 -10  -6    0.92    0.50
  -4 -10  -6    0.31    0.34
   4 -10   6    0.17    0.31
  -4  10  -6    0.51    0.34
  -5 -10  -6   -0.03    0.33
  -5 -10  -6    0.24    0.50
  -5  10  -6   -0.01    0.36
   4 -11  -6    0.58    0.46
  -4 -11   6    0.27    0.41
  -4 -11   6    0.68    0.47
  -4  11   6    1.08    0.41
   3 -11  -6    1.24    0.47
  -3 -11   6    1.19    0.48
  -3 -11   6    1.16    0.40
  -3  11   6    0.31    0.39
   2 -11  -6   -0.31    0.44
  -2 -11   6    0.23    0.37
  -2 -11   6   -0.43    0.40
  -2  11   6    0.25    0.36
   1 -11  -6    1.42    0.48
  -1 -11   6    0.09    0.35
  -1 -11   6    1.41    0.43
  -1  11   6    0.95    0.35
   0 -11   6   -0.07    0.40
   0 -11   6    0.59    0.36
   0 -11  -6    0.06    0.44
   0  11   6    0.34    0.35
  -1 -11  -6    0.18    0.47
   1 -11   6    0.41    0.41
  -1 -11  -6    0.03    0.31
   1 -11   6   -0.10    0.34
   1  11   6   -0.29    0.33
  -2 -11  -6    0.58    0.45
  -2 -11  -6    0.09    0.33
   2 -11   6    0.30    0.41
   2 -11   6    0.23    0.34
   3 -11   6    0.14    0.33
  -3 -11  -6    0.39    0.35
  -3 -11  -6    0.11    0.47
  10   0  -7   -0.29    0.38
  -9   0   7    4.63    0.39
   9   0  -7    3.92    0.49
  -8   0   7    0.15    0.21
   8   0  -7    0.38    0.30
  -7   0   7    9.99    0.49
   7   0  -7    9.43    0.56
   6   0  -7    0.13    0.21
  -6   0   7   -0.02    0.13
  -6   0   7   -0.19    0.13
  -6   0   7   -0.01    0.12
  -5   0   7   15.01    0.54
   5   0  -7   16.33    0.57
  -5   0   7   15.53    0.60
  -5   0   7   15.63    0.61
  -4   0   7   -0.06    0.07
  -4   0   7   -0.08    0.08
   4   0  -7    0.07    0.07
  -3   0   7  496.98   15.38
   3   0  -7  435.02   15.38
  -3   0   7  502.90   14.91
  -2   0   7    0.04    0.06
   2   0  -7   -0.15    0.05
   1   0  -7  314.68   10.15
   0   0  -7    0.06    0.06
   1   0   7  100.58    3.40
  -1   0  -7  106.78    3.40
  -2   0  -7    0.14    0.07
   2   0   7    0.14    0.07
   2   0   7   -0.06    0.07
   3   0   7   54.65    1.81
  -3   0  -7   52.62    1.63
  -3   0  -7   53.77    1.75
  -4   0  -7    0.53    0.14
  -4   0  -7    0.30    0.14
  -4   0  -7   -0.02    0.12
   4   0   7    0.01    0.09
  -5   0  -7    4.50    0.29
  -5   0  -7    4.11    0.29
  -5   0  -7    3.84    0.28
  -6   0  -7   -0.07    0.17
  -6   0  -7   -0.05    0.16
  -6   0  -7    0.01    0.19
  -7   0  -7    4.10    0.34
  -7   0  -7    4.72    0.39
  -7   0  -7    4.18    0.36
  -8   0  -7   -0.09    0.25
  -8   0  -7   -0.24    0.25
  -9   0  -7    2.88    0.41
  -9   0  -7    3.09    0.41
 -10   0  -7    0.09    0.35
 -10   0  -7   -0.31    0.34
 -11   0  -7   -0.01    0.41
 -11   1   7    0.33    0.32
  10   1  -7   -0.73    0.38
 -10   1   7    0.93    0.31
   9  -1  -7    1.89    0.40
   9   1  -7    2.66    0.45
  -9   1   7    2.15    0.31
   8  -1  -7    0.72    0.31
  -8  -1   7    0.45    0.20
  -8   1   7    0.68    0.24
  -7  -1   7    7.87    0.42
   7  -1  -7    7.69    0.49
  -7   1   7    8.14    0.43
  -7   1   7    7.40    0.39
  -6  -1   7    3.71    0.24
  -6  -1   7    3.82    0.25
   6  -1  -7    4.06    0.35
  -6   1   7    3.41    0.28
  -6   1   7    2.54    0.23
   6   1  -7    3.54    0.20
   5  -1  -7    0.88    0.21
  -5  -1   7    0.71    0.14
   5   1  -7    1.15    0.12
   5   1  -7    0.95    0.12
  -5   1   7    0.58    0.12
  -5   1   7    0.94    0.16
   4  -1  -7   25.72    0.90
  -4  -1   7   25.06    0.88
  -4  -1   7   25.14    0.87
  -4   1   7   25.83    0.88
   4   1  -7   27.03    0.88
  -4   1   7   23.36    0.90
   3   1  -7    0.85    0.09
  -3   1   7    0.61    0.10
   2   1  -7   48.77    1.64
  -2   1   7   49.95    1.59
   1  -1  -7  102.17    3.34
  -1  -1   7  101.90    3.29
   1   1  -7  103.22    3.34
   0  -1   7    7.60    0.29
   0  -1  -7    7.75    0.31
   0   1  -7    7.30    0.31
   0   1  -7    7.47    0.29
   1  -1   7  105.87    3.46
  -1   1  -7  107.70    3.46
  -1   1  -7  102.82    3.45
  -1   1  -7  106.81    3.36
   2  -1   7   76.64    2.49
   2  -1   7   73.27    2.47
  -2  -1  -7   71.70    2.23
  -2   1  -7   74.73    2.48
   2   1   7   76.85    2.46
  -2   1  -7   74.53    2.39
  -3  -1  -7    5.42    0.28
   3  -1   7    5.73    0.27
  -3  -1  -7    5.87    0.25
  -3   1  -7    5.35    0.28
  -3   1  -7    5.09    0.26
   3   1   7    5.79    0.26
  -3   1  -7    5.38    0.30
  -4  -1  -7    1.20    0.18
   4  -1   7    1.23    0.13
  -4  -1  -7    1.36    0.16
  -4  -1  -7    1.35    0.15
  -4   1  -7    1.29    0.17
  -4   1  -7    1.13    0.18
  -4   1  -7    1.45    0.17
  -4   1  -7    1.06    0.16
   4   1   7    1.35    0.14
  -5  -1  -7   33.68    1.11
  -5  -1  -7   33.11    1.12
  -5  -1  -7   32.35    1.14
  -5   1  -7   33.97    1.24
  -5   1  -7   32.67    1.13
  -5   1  -7   32.31    1.16
  -5   1  -7   34.35    1.11
  -6  -1  -7   12.27    0.56
  -6  -1  -7   13.25    0.55
  -6  -1  -7   13.66    0.58
  -6   1  -7   13.38    0.60
  -6   1  -7   12.27    0.58
  -6   1  -7   12.28    0.57
  -7  -1  -7    0.22    0.24
  -7  -1  -7    0.00    0.21
  -7   1  -7    0.23    0.22
  -7   1  -7    0.10    0.20
  -7   1  -7    0.23    0.23
  -8  -1  -7    0.33    0.28
  -8  -1  -7    0.29    0.27
  -8   1  -7    1.01    0.28
  -8   1  -7    0.84    0.28
  -9  -1  -7   -0.21    0.27
  -9  -1  -7    0.23    0.30
  -9   1  -7    0.03    0.31
  -9   1  -7    0.18    0.29
 -10  -1  -7    0.35    0.35
 -10  -1  -7    1.03    0.40
 -10   1  -7    0.57    0.37
 -11  -1  -7    0.39    0.39
 -11  -1  -7    0.24    0.43
 -11   1  -7    0.30    0.42
 -11   2   7    0.05    0.34
  10   2  -7    0.86    0.47
 -10   2   7    1.79    0.34
   9  -2  -7   -0.36    0.34
  -9   2   7    0.10    0.27
   8  -2  -7    0.90    0.33
  -8   2   7    1.47    0.27
  -8   2   7    1.71    0.29
  -7  -2   7    6.75    0.38
   7  -2  -7    6.38    0.47
  -7   2   7    7.21    0.44
   7   2  -7    7.27    0.33
  -7   2   7    7.19    0.43
  -7   2   7    7.71    0.41
  -6  -2   7    4.24    0.29
   6  -2  -7    5.42    0.40
  -6  -2   7    5.16    0.29
  -6   2   7    4.91    0.32
   6   2  -7    4.99    0.26
  -6   2   7    5.39    0.32
  -6   2   7    5.19    0.34
   5  -2  -7    1.42    0.21
  -5  -2   7    1.65    0.17
  -5  -2   7    1.72    0.16
  -5   2   7    1.61    0.18
  -5   2   7    1.96    0.20
   5   2  -7    1.46    0.14
  -5   2   7    1.49    0.19
   4  -2  -7   18.27    0.70
  -4   2   7   19.12    0.64
   4   2  -7   19.55    0.68
   4   2  -7   19.33    0.66
  -4   2   7   18.19    0.69
   3  -2  -7    9.80    0.42
  -3   2   7    9.91    0.37
  -3   2   7    9.67    0.40
   3   2  -7   10.02    0.35
   3   2  -7    9.73    0.39
   2   2  -7    0.20    0.07
  -2   2   7    0.57    0.09
   1   2  -7    4.74    0.18
   1   2  -7    4.63    0.23
   0   2  -7   76.11    2.51
   0   2  -7   77.68    2.45
   0   2  -7   74.93    2.48
   1  -2   7    4.58    0.22
  -1   2  -7    4.80    0.22
  -1   2  -7    4.10    0.22
  -1   2  -7    4.93    0.24
  -2  -2  -7    4.03    0.24
  -2   2  -7    4.25    0.23
  -2   2  -7    4.40    0.22
  -2   2  -7    4.21    0.24
  -2   2  -7    4.46    0.23
   3  -2   7   96.18    2.94
  -3  -2  -7   99.28    2.91
  -3  -2  -7   96.80    2.93
   3  -2   7   93.70    3.23
   3   2   7  103.22    3.23
  -3   2  -7   97.93    3.15
  -3   2  -7   98.45    3.27
  -3   2  -7  100.40    2.90
  -4  -2  -7    4.51    0.24
  -4  -2  -7    4.36    0.26
   4  -2   7    4.75    0.31
  -4  -2  -7    4.82    0.31
  -4   2  -7    4.68    0.30
  -4   2  -7    4.46    0.28
  -4   2  -7    4.18    0.28
  -5  -2  -7   19.50    0.74
  -5  -2  -7   18.50    0.71
  -5   2  -7   19.67    0.72
  -5   2  -7   19.00    0.79
  -5   2  -7   19.14    0.76
  -6  -2  -7    0.81    0.22
  -6  -2  -7    1.09    0.24
  -6   2  -7    1.25    0.23
  -6   2  -7    1.19    0.24
  -7  -2  -7    0.29    0.25
  -7  -2  -7   -0.08    0.21
  -7   2  -7    0.03    0.22
  -7   2  -7    0.47    0.22
  -8  -2  -7    0.26    0.26
  -8  -2  -7   -0.29    0.28
  -8   2  -7    0.09    0.28
  -8   2  -7    0.15    0.27
   9  -2   7    0.19    0.29
  -9  -2  -7   -0.13    0.26
  -9  -2  -7   -0.08    0.31
  -9   2  -7    0.10    0.29
  -9   2  -7    0.60    0.31
  10  -2   7    1.49    0.39
 -10  -2  -7    1.04    0.38
 -10  -2  -7    0.99    0.40
 -10   2  -7    0.95    0.38
 -10   2  -7    0.99    0.41
 -11   3   7    1.04    0.39
 -10   3   7    1.46    0.36
   9  -3  -7    0.02    0.33
  -9   3   7   -0.05    0.28
  -9   3   7    0.38    0.30
   8  -3  -7   27.02    1.03
   8   3  -7   25.17    0.92
  -8   3   7   24.74    0.96
  -8   3   7   25.61    1.02
  -7  -3   7    5.69    0.37
   7  -3  -7    6.26    0.46
  -7   3   7    6.56    0.45
   7   3  -7    6.90    0.33
  -7   3   7    6.59    0.40
   6  -3  -7   20.94    0.82
  -6  -3   7   19.82    0.73
  -6   3   7   20.95    0.76
   6   3  -7   19.98    0.74
  -6   3   7   20.62    0.85
  -6   3   7   19.68    0.80
  -5  -3   7    6.49    0.33
   5  -3  -7    6.51    0.37
   5   3  -7    6.32    0.30
  -5   3   7    5.94    0.35
  -5   3   7    6.26    0.34
  -5   3   7    5.89    0.36
  -4  -3   7   21.87    0.74
  -4  -3   7   22.86    0.82
   4  -3  -7   21.33    0.79
  -4   3   7   21.82    0.75
  -4   3   7   21.17    0.80
   4   3  -7   22.15    0.79
  -3  -3   7    3.74    0.28
   3  -3  -7    4.43    0.28
  -3   3   7    3.57    0.26
   3   3  -7    4.37    0.24
   3   3  -7    4.51    0.26
  -3   3   7    4.58    0.24
   2  -3  -7  288.51    8.76
  -2  -3   7  289.10    8.76
   2   3  -7  305.10    9.39
   2   3  -7  263.76    9.10
  -2   3   7  305.60    9.09
   1   3  -7    0.72    0.11
  -1   3   7    0.68    0.10
   1   3  -7    0.79    0.12
   0   3  -7    7.85    0.35
   0   3  -7    7.84    0.32
   0   3  -7    8.69    0.35
  -1   3  -7   26.59    0.93
  -1   3  -7   26.15    0.90
  -1   3  -7   25.82    0.92
   2  -3   7   84.89    2.54
  -2   3  -7   86.59    2.82
  -2   3  -7   84.03    2.74
  -2   3  -7   83.93    2.51
  -2   3  -7   85.23    2.82
  -3  -3  -7    0.29    0.13
   3  -3   7    0.53    0.14
  -3  -3  -7    0.31    0.14
  -3   3  -7    0.27    0.12
  -3   3  -7    0.26    0.14
  -3   3  -7    0.45    0.13
  -4  -3  -7   22.20    0.80
   4  -3   7   22.21    0.82
  -4  -3  -7   23.46    0.83
  -4  -3  -7   23.15    0.82
  -4   3  -7   23.13    0.87
  -4   3  -7   24.60    0.81
  -4   3  -7   22.50    0.90
  -5  -3  -7    2.56    0.26
  -5  -3  -7    2.09    0.23
   5  -3   7    2.31    0.27
  -5   3  -7    2.19    0.26
  -5   3  -7    1.96    0.25
  -6  -3  -7    7.44    0.45
  -6  -3  -7    6.86    0.42
   6  -3   7    6.69    0.44
  -6   3  -7    7.29    0.44
  -6   3  -7    7.19    0.49
   7  -3   7    2.63    0.34
  -7  -3  -7    2.54    0.34
  -7  -3  -7    2.70    0.31
  -7   3  -7    3.10    0.34
  -7   3  -7    2.76    0.36
   8  -3   7    1.15    0.32
  -8  -3  -7    0.67    0.29
  -8  -3  -7    1.38    0.33
  -8   3  -7    0.64    0.31
  -8   3  -7    1.08    0.31
  -9  -3  -7    1.14    0.35
  -9  -3  -7    0.69    0.33
   9  -3   7    0.57    0.31
  -9   3  -7    0.71    0.35
  -9   3  -7    0.47    0.36
 -10  -3  -7   -0.21    0.34
 -10   3  -7    0.24    0.37
 -10   3  -7   -0.30    0.37
 -10   4   7    0.37    0.38
 -10   4   7    0.29    0.32
   9  -4  -7    0.08    0.34
  -9   4   7    0.27    0.31
   9   4  -7    0.22    0.15
  -9   4   7    0.84    0.33
   8  -4  -7    0.31    0.31
  -8  -4   7    0.10    0.24
  -8   4   7    0.85    0.30
  -8   4   7    0.02    0.26
   8   4  -7    0.56    0.16
   7  -4  -7    1.78    0.33
  -7  -4   7    2.06    0.27
   7   4  -7    1.58    0.18
  -7   4   7    1.90    0.29
  -7   4   7    1.19    0.27
  -6  -4   7    2.71    0.27
   6  -4  -7    2.87    0.32
  -6   4   7    2.59    0.28
   6   4  -7    2.29    0.20
  -6   4   7    2.08    0.27
  -5  -4   7    0.94    0.19
   5  -4  -7    1.55    0.25
  -5  -4   7    1.64    0.28
  -5   4   7    1.37    0.21
  -5   4   7    1.12    0.22
   5   4  -7    1.04    0.16
   4  -4  -7    2.74    0.27
  -4  -4   7    2.78    0.28
  -4  -4   7    3.21    0.24
  -4   4   7    2.84    0.25
  -4   4   7    2.84    0.24
   4   4  -7    3.03    0.23
   3  -4  -7   35.88    1.23
  -3  -4   7   36.80    1.24
  -3  -4   7   37.39    1.18
   3   4  -7   37.88    1.29
  -3   4   7   37.18    1.18
  -3   4   7   36.80    1.26
   3   4  -7   35.79    1.24
  -2  -4   7    1.50    0.19
   2  -4  -7    1.07    0.17
  -2  -4   7    1.61    0.16
   2   4  -7    1.20    0.15
  -2   4   7    1.31    0.15
   2   4  -7    1.40    0.15
  -1  -4   7   43.86    1.41
   1  -4  -7   43.92    1.41
  -1  -4   7   43.93    1.36
   1   4  -7   43.59    1.44
  -1   4   7   43.54    1.43
   0  -4   7   24.00    0.79
   0  -4  -7   23.32    0.81
   0  -4   7   22.92    0.79
   0   4  -7   23.85    0.83
   0   4  -7   23.83    0.87
  -1  -4  -7   11.37    0.47
   1  -4   7   11.47    0.45
  -1   4  -7   11.92    0.42
  -1   4  -7   11.58    0.49
  -1   4  -7   11.56    0.48
  -1   4  -7   12.17    0.48
   2  -4   7   31.66    1.00
  -2  -4  -7   30.85    0.98
  -2  -4  -7   30.35    1.03
  -2   4  -7   30.26    1.10
  -2   4  -7   29.83    0.97
  -2   4  -7   29.79    1.07
  -3  -4  -7    2.37    0.24
  -3  -4  -7    2.89    0.23
   3  -4   7    2.53    0.23
  -3   4  -7    3.04    0.23
  -3   4  -7    2.62    0.24
  -3   4  -7    2.48    0.24
  -4  -4  -7    0.68    0.21
  -4  -4  -7    0.60    0.17
   4  -4   7    0.74    0.18
  -4   4  -7    0.33    0.16
  -4   4  -7    0.72    0.18
  -4   4  -7    0.41    0.19
   5  -4   7    0.16    0.19
  -5  -4  -7    0.08    0.17
  -5  -4  -7    0.56    0.18
  -5   4  -7    0.08    0.19
  -5   4  -7    0.33    0.20
  -6  -4  -7    0.14    0.22
  -6  -4  -7    0.68    0.22
   6  -4   7    0.52    0.23
  -6   4  -7    0.41    0.24
  -6   4  -7    0.39    0.22
  -7  -4  -7    1.83    0.31
  -7  -4  -7    1.01    0.29
   7  -4   7    1.21    0.29
  -7   4  -7    1.34    0.32
  -7   4  -7    1.54    0.32
  -8  -4  -7   -0.38    0.28
   8  -4   7    0.11    0.27
  -8  -4  -7    0.44    0.30
  -8   4  -7   -0.46    0.29
   8   4   7   -0.08    0.14
  -8   4  -7    0.49    0.32
  -9  -4  -7    0.07    0.32
  -9   4  -7    0.01    0.32
  -9   4  -7   -0.14    0.34
 -10  -4  -7    0.31    0.34
 -10   4  -7    0.56    0.41
 -10   4  -7    0.52    0.41
 -10   5   7   -0.42    0.35
 -10   5   7    0.30    0.36
   9  -5  -7   -0.33    0.35
  -9  -5   7   -0.05    0.28
  -9   5   7    0.29    0.33
  -9   5   7    0.43    0.33
  -8  -5   7    1.12    0.29
   8  -5  -7    1.21    0.35
   8   5  -7    1.47    0.21
  -8   5   7    0.84    0.32
  -8   5   7    1.11    0.33
   7  -5  -7    2.59    0.34
  -7  -5   7    2.03    0.29
  -7   5   7    1.64    0.32
  -7   5   7    2.04    0.32
   7   5  -7    1.91    0.22
   6  -5  -7    0.37    0.27
  -6  -5   7    0.15    0.21
  -6  -5   7    0.07    0.27
  -6   5   7    0.48    0.23
  -6   5   7   -0.07    0.21
   6   5  -7    0.28    0.16
  -5  -5   7   23.64    0.94
  -5  -5   7   22.36    0.84
   5  -5  -7   23.02    0.88
  -5   5   7   22.33    0.90
  -5   5   7   21.75    0.84
   5   5  -7   23.11    0.87
  -4  -5   7    2.75    0.31
   4  -5  -7    2.70    0.29
  -4  -5   7    2.27    0.24
  -4   5   7    2.79    0.27
  -4   5   7    2.59    0.26
   4   5  -7    2.78    0.24
  -3  -5   7   15.42    0.65
   3  -5  -7   14.93    0.62
  -3  -5   7   15.63    0.60
   3   5  -7   15.28    0.64
  -3   5   7   16.43    0.62
  -3   5   7   15.94    0.61
   2  -5  -7   29.34    1.02
  -2  -5   7   29.08    0.97
  -2  -5   7   28.87    1.02
  -2   5   7   29.34    1.01
   2   5  -7   29.04    1.07
  -1  -5   7    0.28    0.14
   1  -5  -7    0.06    0.16
  -1  -5   7    0.02    0.15
  -1   5   7    0.04    0.11
   1   5  -7    0.04    0.04
   1   5  -7    0.12    0.11
   1   5  -7   -0.08    0.09
   0  -5  -7    2.74    0.24
   0  -5   7    2.95    0.23
   0  -5  -7    3.04    0.21
   0  -5   7    2.98    0.23
   0   5  -7    2.91    0.24
   0   5  -7    3.23    0.24
   0   5  -7    3.33    0.21
   1  -5   7   28.35    0.93
  -1  -5  -7   28.84    0.98
  -1  -5  -7   28.40    0.91
   1  -5   7   26.90    0.92
  -1   5  -7   26.76    0.89
  -1   5  -7   27.03    0.98
   2  -5   7    8.86    0.38
   2  -5   7    8.87    0.41
  -2  -5  -7    8.30    0.44
  -2  -5  -7    8.42    0.39
  -2   5  -7    8.64    0.43
  -2   5  -7    9.02    0.44
  -2   5  -7    8.54    0.37
  -3  -5  -7    0.14    0.20
  -3  -5  -7    0.22    0.15
   3  -5   7    0.14    0.16
   3  -5   7    0.44    0.15
  -3   5  -7    0.29    0.17
  -3   5  -7    0.06    0.17
  -3   5  -7    0.27    0.15
  -4  -5  -7   13.48    0.57
  -4  -5  -7   14.59    0.65
   4  -5   7   14.64    0.60
  -4   5  -7   14.38    0.67
  -4   5  -7   14.01    0.59
  -5  -5  -7    6.17    0.46
   5  -5   7    5.92    0.39
  -5  -5  -7    5.73    0.37
  -5   5  -7    5.76    0.40
  -5   5  -7    5.64    0.43
   6  -5   7    0.53    0.22
  -6  -5  -7    0.56    0.25
  -6   5  -7    0.07    0.25
  -6   5  -7    0.27    0.24
   7  -5   7    0.74    0.27
  -7  -5  -7    0.57    0.29
   7   5   7    0.52    0.17
  -7   5  -7    0.32    0.28
  -7   5  -7    0.57    0.31
  -8  -5  -7    0.51    0.32
   8  -5   7    0.46    0.29
  -8   5  -7    0.41    0.33
  -8   5  -7    0.41    0.34
  -9  -5  -7    2.96    0.43
  -9   5  -7    2.53    0.47
  -9   5  -7    1.98    0.45
 -10   5  -7    0.47    0.43
 -10   6   7   -0.11    0.40
 -10   6   7   -0.15    0.36
  -9  -6   7    0.71    0.34
  -9   6   7    1.53    0.39
  -9   6   7    1.29    0.37
   8  -6  -7    0.11    0.33
  -8  -6   7    0.22    0.28
  -8   6   7    0.31    0.31
  -8   6   7   -0.19    0.31
  -7  -6   7    2.02    0.34
   7  -6  -7    3.12    0.39
  -7   6   7    2.02    0.36
   7   6  -7    2.22    0.26
  -7   6   7    2.57    0.36
   6  -6  -7   -0.09    0.27
  -6  -6   7    0.04    0.33
  -6  -6   7   -0.23    0.22
  -6   6   7   -0.12    0.23
   6   6  -7   -0.03    0.16
  -6   6   7    0.30    0.26
  -5  -6   7    2.28    0.30
   5  -6  -7    2.30    0.31
  -5  -6   7    1.79    0.34
  -5   6   7    1.79    0.30
  -5   6   7    2.11    0.29
   5   6  -7    1.98    0.25
  -4  -6   7    0.32    0.19
   4  -6  -7    0.12    0.22
  -4  -6   7    0.53    0.26
  -4   6   7    0.13    0.20
   4   6  -7    0.15    0.16
  -4   6   7    0.11    0.20
   3  -6  -7   28.23    1.04
  -3  -6   7   29.62    1.02
  -3  -6   7   27.73    1.06
   3   6  -7   30.07    1.10
  -3   6   7   29.06    1.05
  -3   6   7   28.70    1.00
   2  -6  -7    4.47    0.35
  -2  -6   7    4.95    0.36
  -2  -6   7    4.05    0.31
   2   6  -7    3.40    0.29
  -2   6   7    3.88    0.29
   1  -6  -7   10.49    0.41
  -1  -6   7   10.04    0.45
  -1  -6   7   11.12    0.48
   1  -6  -7   11.44    0.52
   1   6  -7    8.02    0.47
   0  -6   7    0.88    0.20
   0  -6  -7    0.81    0.21
   0  -6   7    0.88    0.19
   0  -6  -7    0.68    0.16
   0   6  -7    0.81    0.15
   0   6  -7    0.76    0.16
  -1  -6  -7   29.49    0.97
   1  -6   7   28.97    1.00
   1  -6   7   29.05    1.00
  -1  -6  -7   28.84    1.05
  -1   6  -7   28.47    1.04
  -1   6  -7   29.01    0.95
   2  -6   7    1.68    0.23
  -2  -6  -7    0.88    0.24
  -2  -6  -7    1.34    0.21
   2  -6   7    1.94    0.23
  -2   6  -7    1.31    0.23
  -2   6  -7    1.14    0.19
  -2   6  -7    1.08    0.18
   3  -6   7   51.12    1.62
  -3  -6  -7   47.93    1.70
   3  -6   7   51.04    1.62
  -3  -6  -7   51.20    1.61
  -3   6  -7   48.38    1.59
  -3   6  -7   51.83    1.75
  -4  -6  -7    0.32    0.21
  -4  -6  -7    0.49    0.26
   4  -6   7    0.30    0.20
  -4   6  -7    0.50    0.23
  -4   6  -7    0.57    0.21
  -5  -6  -7    3.28    0.33
  -5  -6  -7    3.76    0.43
   5  -6   7    3.35    0.34
   5   6   7    4.32    0.34
  -5   6  -7    3.69    0.34
  -5   6  -7    4.29    0.41
   6  -6   7    0.56    0.26
  -6  -6  -7    0.48    0.27
  -6   6  -7    0.53    0.29
  -6   6  -7    0.67    0.31
   6   6   7    0.62    0.20
   7  -6   7    0.01    0.26
  -7  -6  -7    0.96    0.29
  -7   6  -7    0.63    0.34
  -7   6  -7    0.94    0.32
  -8  -6  -7    0.25    0.31
  -8   6  -7    0.06    0.36
  -8   6  -7   -0.36    0.35
  -9  -6  -7    0.11    0.37
  -9   6  -7   -0.12    0.36
  -9   6  -7   -0.15    0.40
  -9  -7   7    0.93    0.39
  -9   7   7    1.07    0.39
  -9   7   7    0.48    0.38
  -8  -7   7    1.12    0.35
   8  -7  -7    0.94    0.41
  -8   7   7    1.06    0.40
  -8   7   7    1.20    0.35
  -7  -7   7    0.40    0.30
   7  -7  -7    0.18    0.34
  -7  -7   7    0.17    0.41
  -7   7   7   -0.18    0.28
  -7   7   7    0.15    0.31
   6  -7  -7    0.11    0.28
  -6  -7   7    0.46    0.26
  -6  -7   7    0.28    0.35
  -6   7   7    0.18    0.28
   6   7  -7    0.32    0.22
  -6   7   7    0.19    0.26
   5  -7  -7    4.00    0.41
  -5  -7   7    4.03    0.40
  -5  -7   7    3.87    0.44
   5   7  -7    4.24    0.36
  -5   7   7    4.08    0.38
  -5   7   7    4.31    0.41
   4  -7  -7    4.73    0.39
  -4  -7   7    3.78    0.40
  -4  -7   7    5.22    0.40
  -4   7   7    4.01    0.37
   4   7  -7    4.56    0.37
  -4   7   7    4.57    0.37
   3  -7  -7    0.20    0.26
  -3  -7   7    0.54    0.23
  -3  -7   7    0.42    0.24
   3   7  -7    0.44    0.20
  -3   7   7    0.20    0.22
  -3   7   7    0.14    0.21
  -2  -7   7    3.54    0.33
  -2  -7   7    3.16    0.33
   2  -7  -7    3.38    0.35
   2   7  -7    3.26    0.31
  -2   7   7    3.49    0.33
  -1  -7   7    0.34    0.19
  -1  -7   7    0.15    0.22
   1  -7  -7   -0.26    0.15
   1  -7  -7    0.28    0.25
   0  -7   7    0.01    0.22
   0  -7  -7    0.42    0.18
   0  -7  -7    0.18    0.25
   0  -7   7    0.27    0.20
   0   7  -7    0.16    0.16
   1  -7   7    0.14    0.21
   1  -7   7    0.16    0.18
  -1  -7  -7    0.11    0.25
  -1  -7  -7   -0.03    0.17
   1   7   7    0.20    0.16
  -1   7  -7    0.56    0.19
  -1   7  -7    0.12    0.19
  -2  -7  -7    3.59    0.31
  -2  -7  -7    3.35    0.36
   2  -7   7    3.25    0.31
   2  -7   7    3.55    0.30
  -2   7  -7    3.62    0.32
  -2   7  -7    3.03    0.29
   2   7   7    3.79    0.33
  -3  -7  -7    3.60    0.33
  -3  -7  -7    3.13    0.38
   3  -7   7    3.16    0.30
  -3   7  -7    3.02    0.33
   3   7   7    2.94    0.31
  -3   7  -7    3.08    0.31
  -4  -7  -7    1.89    0.29
   4  -7   7    1.65    0.28
  -4  -7  -7    1.57    0.34
  -4   7  -7    1.51    0.28
   4   7   7    1.72    0.25
  -4   7  -7    1.71    0.32
  -5  -7  -7    0.57    0.35
   5  -7   7    0.70    0.26
  -5  -7  -7    0.51    0.27
  -5   7  -7    0.51    0.27
   5   7   7    0.59    0.21
  -5   7  -7    0.87    0.31
  -6  -7  -7    4.23    0.43
   6  -7   7    4.70    0.41
  -6   7  -7    4.90    0.45
  -6   7  -7    3.33    0.41
   6   7   7    3.62    0.35
   7  -7   7    1.05    0.32
  -7  -7  -7    1.44    0.37
  -7   7  -7    0.78    0.34
  -7   7  -7    0.63    0.36
  -8  -7  -7    0.36    0.36
  -8   7  -7   -0.37    0.36
  -8   7  -7   -0.26    0.37
  -8  -8   7    1.30    0.39
   8  -8  -7   -0.19    0.38
  -8   8   7    0.58    0.36
  -8   8   7    0.11    0.40
  -7  -8   7    1.18    0.37
   7  -8  -7    1.47    0.41
  -7  -8   7    1.20    0.50
  -7   8   7    1.27    0.41
  -7   8   7    1.18    0.38
  -6  -8   7    1.33    0.37
   6  -8  -7    1.37    0.38
  -6  -8   7    1.53    0.43
  -6   8   7    1.19    0.36
  -6   8   7    1.68    0.37
  -5  -8   7    0.21    0.27
   5  -8  -7    0.26    0.33
  -5  -8   7    0.30    0.36
   5   8  -7    0.27    0.24
  -5   8   7   -0.01    0.26
  -5   8   7    0.77    0.32
   4  -8  -7    2.66    0.39
  -4  -8   7    3.23    0.42
  -4  -8   7    2.04    0.36
   4   8  -7    2.54    0.32
  -4   8   7    2.37    0.35
   3  -8  -7    7.38    0.55
  -3  -8   7    8.14    0.49
  -3  -8   7    8.27    0.53
  -3   8   7    7.77    0.48
   3   8  -7    8.81    0.53
  -2  -8   7    0.04    0.27
   2  -8  -7   -0.09    0.28
  -2  -8   7    0.25    0.25
  -2   8   7   -0.04    0.23
   1  -8  -7    5.63    0.47
  -1  -8   7    6.97    0.50
  -1  -8   7    5.80    0.43
   0  -8  -7    4.06    0.32
   0  -8  -7    4.11    0.40
   0  -8   7    3.29    0.37
   0  -8   7    3.23    0.35
  -1  -8  -7    2.76    0.30
   1  -8   7    2.86    0.32
   1  -8   7    2.74    0.33
  -1  -8  -7    2.18    0.36
  -1   8  -7    2.17    0.27
  -2  -8  -7    1.19    0.27
   2  -8   7    1.94    0.31
   2  -8   7    1.38    0.28
  -2  -8  -7    2.04    0.36
  -2   8  -7    1.14    0.25
  -2   8  -7    1.43    0.29
  -3  -8  -7    0.49    0.25
   3  -8   7    0.54    0.25
  -3  -8  -7    0.90    0.33
  -3   8  -7    0.61    0.28
  -3   8  -7    0.46    0.25
   3   8   7    0.33    0.23
  -4  -8  -7    0.40    0.27
   4  -8   7    0.39    0.26
  -4  -8  -7    0.62    0.34
  -4   8  -7   -0.23    0.27
   4   8   7    0.34    0.23
  -4   8  -7    0.51    0.28
  -5  -8  -7   -0.05    0.36
   5  -8   7    0.33    0.27
  -5  -8  -7    0.37    0.28
  -5   8  -7    0.16    0.30
  -5   8  -7    0.53    0.30
   5   8   7    0.38    0.25
  -6  -8  -7    0.83    0.43
   6  -8   7    1.75    0.33
  -6  -8  -7    1.81    0.36
  -6   8  -7    1.52    0.36
  -6   8  -7    1.92    0.36
  -7  -8  -7    0.87    0.35
  -7   8  -7    1.01    0.39
  -7   8  -7    1.03    0.40
  -8  -8  -7    0.52    0.37
  -8   8  -7    0.48    0.42
  -8   8  -7   -0.34    0.37
  -7  -9   7    0.42    0.51
   7  -9  -7    0.40    0.43
  -7  -9   7    0.35    0.39
  -7   9   7    0.35    0.41
  -7   9   7   -0.02    0.36
   6  -9  -7    1.34    0.43
  -6  -9   7    0.47    0.46
  -6  -9   7    0.27    0.33
  -6   9   7    0.40    0.35
  -6   9   7    0.14    0.34
  -5  -9   7    0.04    0.34
   5  -9  -7    0.50    0.38
  -5  -9   7    1.01    0.43
  -5   9   7    0.10    0.34
  -4  -9   7    0.78    0.34
  -4  -9   7    0.77    0.38
   4  -9  -7    0.57    0.37
  -4   9   7    1.19    0.35
   4   9  -7    1.48    0.31
   3  -9  -7    2.61    0.42
  -3  -9   7    1.49    0.34
  -3  -9   7    2.35    0.41
  -3   9   7    1.39    0.32
  -2  -9   7    9.85    0.61
  -2  -9   7   10.42    0.61
   2  -9  -7   12.08    0.65
  -2   9   7   10.26    0.57
  -1  -9   7    0.74    0.30
   1  -9  -7   -0.31    0.33
  -1  -9   7    0.44    0.30
  -1   9   7    0.25    0.27
   0  -9   7   -0.10    0.26
   0  -9   7   -0.30    0.30
   0  -9  -7    0.14    0.23
   0  -9  -7    0.53    0.36
  -1  -9  -7    0.22    0.24
  -1  -9  -7    0.04    0.34
   1  -9   7   -0.19    0.26
   1  -9   7    0.23    0.30
   2  -9   7    4.50    0.42
  -2  -9  -7    5.30    0.50
   2  -9   7    5.52    0.46
  -2  -9  -7    5.30    0.43
  -2   9  -7    5.15    0.41
  -3  -9  -7    1.23    0.39
  -3  -9  -7    0.74    0.29
   3  -9   7    1.30    0.30
  -3   9  -7    1.29    0.31
   4  -9   7    3.09    0.38
  -4  -9  -7    3.23    0.50
  -4  -9  -7    3.09    0.40
   4   9   7    3.62    0.41
  -4   9  -7    4.30    0.42
  -4   9  -7    3.04    0.41
   5  -9   7   -0.32    0.28
  -5  -9  -7    0.44    0.45
  -5  -9  -7    0.10    0.30
  -5   9  -7   -0.07    0.28
  -5   9  -7    0.02    0.32
  -6  -9  -7    0.37    0.48
  -6  -9  -7    1.06    0.38
  -6   9  -7    0.61    0.37
  -6   9  -7    0.39    0.36
  -7  -9  -7    0.19    0.39
  -7   9  -7    0.31    0.40
  -6 -10   7    0.49    0.47
  -6 -10   7    0.68    0.43
   6 -10  -7   -0.03    0.43
  -6  10   7    0.35    0.39
  -5 -10   7   -0.49    0.44
  -5 -10   7    0.60    0.37
   5 -10  -7   -0.31    0.40
  -5  10   7   -0.20    0.35
   4 -10  -7    0.09    0.40
  -4 -10   7   -0.17    0.36
  -4 -10   7   -0.30    0.40
  -4  10   7    0.00    0.35
  -3 -10   7   -0.04    0.31
   3 -10  -7    0.12    0.40
  -3 -10   7    0.30    0.40
  -3  10   7    0.19    0.34
  -2 -10   7    1.03    0.34
  -2 -10   7    1.90    0.42
   2 -10  -7    1.37    0.44
  -2  10   7    1.72    0.37
  -1 -10   7    0.11    0.34
   1 -10  -7    0.23    0.41
  -1 -10   7    0.24    0.32
  -1  10   7   -0.48    0.29
   0 -10   7   -0.12    0.28
   0 -10  -7    0.50    0.38
   0 -10   7    0.38    0.36
   1 -10   7    0.40    0.36
  -1 -10  -7    0.01    0.41
   1 -10   7    0.12    0.31
  -1 -10  -7   -0.05    0.27
  -2 -10  -7    0.79    0.32
  -2 -10  -7    0.32    0.42
   2 -10   7    1.20    0.34
   2 -10   7    0.63    0.38
  -3 -10  -7    2.88    0.40
   3 -10   7    2.55    0.38
  -3 -10  -7    1.74    0.48
  -3  10  -7    2.65    0.40
   4 -10   7    0.37    0.31
  -4 -10  -7    0.38    0.45
  -4 -10  -7    0.39    0.34
  -4  10  -7   -0.02    0.33
   5 -10   7    0.94    0.34
  -5 -10  -7    0.78    0.56
  -5 -10  -7    0.77    0.38
  -5  10  -7    0.43    0.38
   4 -11  -7   -0.22    0.46
  -4 -11   7    0.52    0.47
  -4 -11   7    0.21    0.41
  -4  11   7   -0.25    0.36
  -3 -11   7    0.40    0.40
  -3 -11   7    0.96    0.46
   3 -11  -7    0.18    0.45
  -3  11   7    0.30    0.39
   2 -11  -7    1.21    0.48
  -2 -11   7    0.89    0.41
  -2 -11   7    1.06    0.42
  -2  11   7    0.87    0.40
   1 -11  -7    0.67    0.43
  -1 -11   7    0.72    0.46
  -1 -11   7    0.78    0.39
  -1  11   7    0.89    0.39
   0 -11   7   -0.51    0.39
   0 -11   7    0.10    0.36
   0 -11  -7    0.14    0.45
   0  11   7   -0.05    0.34
   1 -11   7    2.17    0.42
  -1 -11  -7    2.15    0.54
   1 -11   7    1.73    0.45
  -2 -11  -7    0.37    0.33
   2 -11   7    0.53    0.41
   2 -11   7    0.59    0.36
  -2 -11  -7    0.08    0.48
   3 -11   7    0.34    0.35
  -3 -11  -7    0.48    0.36
  -3 -11  -7   -0.08    0.46
  10   0  -8    0.55    0.41
  -9   0   8    0.00    0.24
   9   0  -8   -0.41    0.35
  -8   0   8    9.19    0.50
   8   0  -8    8.79    0.59
  -7   0   8   -0.35    0.17
   7   0  -8    0.08    0.25
   6   0  -8   15.22    0.68
  -6   0   8   15.88    0.61
  -6   0   8   14.71    0.62
   5   0  -8    0.00    0.08
  -5   0   8   -0.11    0.12
  -5   0   8   -0.01    0.09
  -5   0   8    0.05    0.10
   4   0  -8    1.08    0.12
  -4   0   8    1.04    0.14
  -4   0   8    0.90    0.10
   3   0  -8    0.02    0.07
  -3   0   8   -0.06    0.05
  -3   0   8    0.01    0.09
   2   0  -8   39.19    1.34
   1   0  -8   -0.03    0.06
   0   0  -8    1.54    0.13
   1   0   8   -0.01    0.06
  -1   0  -8    0.05    0.06
   2   0   8  164.99    5.41
  -2   0  -8  170.91    5.21
   2   0   8  163.32    5.39
  -2   0  -8  161.93    4.80
  -3   0  -8    0.23    0.11
  -3   0  -8    0.05    0.10
   3   0   8    0.03    0.08
  -3   0  -8    0.12    0.09
  -4   0  -8  238.10    7.35
  -4   0  -8  233.14    6.79
  -4   0  -8  237.11    6.82
   4   0   8  226.00    7.58
  -5   0  -8   -0.18    0.16
  -5   0  -8    0.00    0.12
  -5   0  -8    0.02    0.16
  -6   0  -8   44.08    1.47
  -6   0  -8   44.93    1.46
  -6   0  -8   43.58    1.52
  -7   0  -8    0.05    0.20
  -7   0  -8    0.37    0.25
  -7   0  -8    0.33    0.25
  -8   0  -8    3.99    0.41
  -8   0  -8    5.84    0.47
  -9   0  -8    0.13    0.31
  -9   0  -8    0.38    0.33
 -10   0  -8    0.83    0.40
 -10   0  -8    0.58    0.38
 -11   1   8   -0.36    0.31
  10  -1  -8    0.53    0.41
  10   1  -8    1.14    0.45
 -10   1   8    0.62    0.28
   9  -1  -8    3.70    0.47
   9   1  -8    3.67    0.49
  -9   1   8    3.22    0.35
  -8  -1   8    0.12    0.20
   8  -1  -8    0.08    0.30
  -8   1   8   -0.24    0.19
   7  -1  -8    2.29    0.33
  -7  -1   8    2.56    0.24
  -7   1   8    2.66    0.27
   7   1  -8    2.62    0.17
   6  -1  -8    0.04    0.22
  -6  -1   8   -0.03    0.14
  -6   1   8   -0.06    0.16
   6   1  -8    0.12    0.10
  -6   1   8    0.01    0.09
  -6   1   8    0.02    0.12
  -5  -1   8   37.79    1.29
   5  -1  -8   36.98    1.31
   5   1  -8   38.41    1.31
  -5   1   8   38.87    1.31
  -5   1   8   38.82    1.34
  -4  -1   8    0.73    0.12
  -4  -1   8    0.52    0.08
   4  -1  -8    0.50    0.16
  -4   1   8    0.66    0.13
  -4   1   8    0.41    0.10
  -4   1   8    0.64    0.11
   4   1  -8    0.48    0.10
   3  -1  -8   61.57    1.98
   3   1  -8   62.41    2.08
  -3   1   8   64.26    2.03
   2  -1  -8    6.26    0.27
  -2   1   8    5.42    0.26
   2   1  -8    5.67    0.26
  -1  -1   8    8.42    0.30
   1  -1  -8    8.35    0.35
   1   1  -8    8.70    0.35
   0  -1  -8    0.20    0.07
   0  -1   8    0.12    0.05
   0   1  -8    0.11    0.07
   0   1  -8    0.25    0.06
   0   1  -8    0.16    0.09
   1  -1   8   65.26    2.18
  -1   1  -8   63.98    2.18
  -1   1  -8   68.17    2.12
  -1   1  -8   65.10    2.17
   2  -1   8   69.17    2.27
   2  -1   8   66.16    2.25
  -2  -1  -8   66.92    2.04
  -2   1  -8   68.01    2.26
  -2   1  -8   67.58    2.01
   2   1   8   67.91    2.25
  -2   1  -8   68.26    2.19
  -3  -1  -8   27.34    0.90
  -3  -1  -8   25.51    0.87
  -3  -1  -8   26.65    0.89
   3  -1   8   27.47    0.95
  -3   1  -8   25.89    0.86
  -3   1  -8   25.96    0.93
  -3   1  -8   26.69    0.98
   3   1   8   27.91    0.95
  -4  -1  -8   13.69    0.55
  -4  -1  -8   14.00    0.53
  -4  -1  -8   13.64    0.53
  -4   1  -8   13.54    0.56
  -4   1  -8   13.72    0.59
  -4   1  -8   13.72    0.56
  -4   1  -8   14.17    0.53
  -5  -1  -8    1.83    0.19
  -5  -1  -8    1.29    0.21
  -5  -1  -8    1.50    0.21
  -5   1  -8    1.50    0.21
  -5   1  -8    1.70    0.22
  -5   1  -8    2.16    0.25
  -5   1  -8    1.69    0.22
  -6  -1  -8    4.94    0.36
  -6  -1  -8    3.88    0.34
  -6   1  -8    5.28    0.35
  -6   1  -8    3.94    0.33
  -6   1  -8    4.63    0.38
  -7  -1  -8    1.32    0.29
  -7  -1  -8    1.23    0.26
  -7   1  -8    3.57    0.36
  -7   1  -8    1.50    0.31
  -7   1  -8    1.75    0.28
  -8  -1  -8    1.66    0.32
  -8  -1  -8    1.28    0.33
  -8   1  -8    1.46    0.33
  -8   1  -8    1.35    0.30
  -9  -1  -8    0.13    0.32
  -9  -1  -8   -0.06    0.30
  -9   1  -8   -0.02    0.29
 -10  -1  -8    2.01    0.44
 -10  -1  -8    1.90    0.41
 -10   1  -8    2.48    0.45
 -11   2   8    0.04    0.34
  10  -2  -8    0.84    0.42
  10   2  -8    1.01    0.47
 -10   2   8    1.56    0.35
   9  -2  -8    3.73    0.46
  -9   2   8    4.27    0.41
   8  -2  -8    0.29    0.31
  -8   2   8   -0.01    0.22
   8   2  -8    0.20    0.09
  -8   2   8    0.14    0.22
  -7  -2   8    0.15    0.16
   7  -2  -8    0.02    0.26
  -7   2   8    0.34    0.21
  -7   2   8    0.29    0.19
  -7   2   8    0.16    0.19
   7   2  -8    0.19    0.12
   6  -2  -8    4.92    0.37
  -6  -2   8    5.06    0.29
  -6  -2   8    5.42    0.34
   6   2  -8    5.35    0.27
  -6   2   8    5.23    0.33
  -6   2   8    5.63    0.37
  -6   2   8    5.12    0.32
  -5  -2   8    5.53    0.27
   5  -2  -8    5.73    0.37
   5   2  -8    5.30    0.27
  -5   2   8    5.07    0.29
  -5   2   8    5.33    0.34
  -5   2   8    5.53    0.32
   4  -2  -8  123.45    3.99
   4   2  -8  127.76    4.21
  -4   2   8  134.67    3.78
   4   2  -8  132.41    4.17
  -4   2   8  127.62    4.11
   3  -2  -8    7.17    0.34
   3   2  -8    6.69    0.31
  -3   2   8    7.40    0.34
   3   2  -8    7.20    0.25
  -3   2   8    7.53    0.30
   2   2  -8  128.70    4.05
   2   2  -8  117.47    3.94
  -2   2   8  126.00    3.92
   1   2  -8    0.47    0.11
   1   2  -8    0.48    0.09
  -1   2   8    0.63    0.09
   1   2  -8    0.66    0.06
   0   2  -8    4.97    0.25
   0   2  -8    4.80    0.22
   0   2  -8    6.02    0.27
   1  -2   8   57.03    1.91
  -1   2  -8   57.05    1.87
  -1   2  -8   56.83    1.91
  -1   2  -8   58.10    1.92
  -2  -2  -8   13.61    0.51
  -2   2  -8   14.21    0.49
  -2   2  -8   13.57    0.55
  -2   2  -8   15.35    0.55
   2   2   8   13.89    0.53
  -2   2  -8   13.81    0.54
   3  -2   8   -0.06    0.10
  -3  -2  -8    0.00    0.11
  -3  -2  -8    0.05    0.12
  -3   2  -8    0.25    0.11
   3   2   8    0.19    0.09
  -3   2  -8   -0.01    0.11
  -3   2  -8    0.65    0.13
  -4  -2  -8    0.64    0.15
   4  -2   8    0.89    0.17
  -4  -2  -8    0.95    0.18
  -4  -2  -8    0.83    0.12
  -4   2  -8    0.94    0.17
  -4   2  -8    0.87    0.17
  -4   2  -8    0.87    0.16
  -5  -2  -8    3.54    0.28
  -5  -2  -8    3.82    0.33
  -5   2  -8    3.97    0.31
  -5   2  -8    4.15    0.31
  -5   2  -8    4.20    0.32
  -6  -2  -8   -0.01    0.21
  -6  -2  -8    0.12    0.19
  -6   2  -8    0.15    0.19
  -6   2  -8    0.25    0.21
  -7  -2  -8    0.04    0.23
  -7  -2  -8    0.74    0.28
  -7   2  -8   -0.07    0.22
  -7   2  -8    0.48    0.25
  -8  -2  -8    0.44    0.26
  -8  -2  -8    0.22    0.27
   8  -2   8    1.20    0.30
  -8   2  -8    0.74    0.29
  -8   2  -8    0.48    0.28
  -9  -2  -8    0.17    0.28
  -9  -2  -8   -0.15    0.33
   9  -2   8   -0.30    0.29
  -9   2  -8   -0.11    0.30
  -9   2  -8   -0.07    0.33
 -10  -2  -8    0.63    0.39
 -10  -2  -8    0.54    0.35
  10  -2   8    0.25    0.34
 -10   2  -8    0.53    0.38
 -10   2  -8    0.72    0.41
 -11   3   8    0.28    0.37
 -10   3   8    0.30    0.32
   9  -3  -8    1.59    0.39
  -9   3   8    1.60    0.34
  -9   3   8    1.38    0.34
   8  -3  -8    2.94    0.40
   8   3  -8    2.61    0.22
  -8   3   8    2.30    0.32
  -8   3   8    2.28    0.33
  -7  -3   8    1.58    0.23
   7  -3  -8    1.63    0.32
  -7   3   8    0.99    0.24
  -7   3   8    1.27    0.25
   7   3  -8    1.34    0.17
   6  -3  -8    2.40    0.31
  -6  -3   8    1.90    0.22
   6   3  -8    2.23    0.19
  -6   3   8    2.24    0.27
  -6   3   8    2.41    0.27
  -6   3   8    2.45    0.26
   5  -3  -8    1.96    0.25
  -5  -3   8    1.99    0.20
  -5   3   8    1.86    0.22
   5   3  -8    1.65    0.16
  -5   3   8    1.60    0.22
  -5   3   8    1.56    0.20
  -4  -3   8    1.38    0.16
   4  -3  -8    1.32    0.21
  -4   3   8    0.90    0.16
   4   3  -8    1.25    0.14
  -4   3   8    1.09    0.16
   3  -3  -8   48.37    1.58
  -3   3   8   50.21    1.51
   3   3  -8   47.02    1.63
  -3   3   8   49.67    1.62
   3   3  -8   49.90    1.66
  -2  -3   8    7.16    0.34
   2  -3  -8    7.80    0.34
   2   3  -8    6.58    0.34
  -2   3   8    7.23    0.32
   2   3  -8    7.04    0.33
   1  -3  -8   57.28    1.80
   1   3  -8   58.45    1.87
  -1   3   8   57.64    1.84
   1   3  -8   55.06    1.92
   0   3  -8    0.56    0.09
   0   3  -8    0.92    0.12
   0   3  -8    0.97    0.13
  -1   3  -8   29.06    0.99
  -1   3  -8   28.28    1.01
  -1   3  -8   28.21    1.00
  -2  -3  -8   23.50    0.76
   2  -3   8   22.79    0.79
  -2   3  -8   23.56    0.75
  -2   3  -8   23.44    0.85
  -2   3  -8   23.89    0.86
  -2   3  -8   22.03    0.83
  -3  -3  -8   37.68    1.23
   3  -3   8   37.27    1.24
  -3  -3  -8   38.38    1.21
  -3   3  -8   38.30    1.32
  -3   3  -8   39.34    1.36
  -3   3  -8   37.96    1.20
   4  -3   8    0.37    0.17
  -4  -3  -8    0.49    0.17
  -4  -3  -8    0.55    0.17
  -4  -3  -8    0.48    0.15
  -4   3  -8    0.38    0.15
  -4   3  -8    0.26    0.16
  -4   3  -8    0.33    0.16
   5  -3   8    6.14    0.40
  -5  -3  -8    6.49    0.38
  -5  -3  -8    6.20    0.35
  -5   3  -8    6.67    0.45
  -5   3  -8    6.30    0.38
  -6  -3  -8    3.47    0.31
   6  -3   8    2.96    0.33
  -6  -3  -8    3.25    0.34
  -6   3  -8    3.65    0.34
  -6   3  -8    3.02    0.32
   7  -3   8    4.06    0.38
  -7  -3  -8    4.42    0.39
  -7  -3  -8    4.02    0.38
  -7   3  -8    4.11    0.41
  -7   3  -8    4.20    0.39
   8  -3   8    1.64    0.34
  -8  -3  -8    1.74    0.34
  -8  -3  -8    1.66    0.34
  -8   3  -8    1.86    0.35
  -8   3  -8    2.02    0.37
  -9  -3  -8    5.70    0.51
  -9  -3  -8    5.85    0.52
   9  -3   8    5.06    0.50
  -9   3  -8    5.47    0.53
  -9   3  -8    6.12    0.53
 -10  -3  -8   -0.54    0.32
 -10  -3  -8    0.39    0.37
 -10   3  -8   -0.22    0.36
 -10   3  -8    0.81    0.40
 -10   4   8    3.82    0.46
   9  -4  -8    0.43    0.38
   9   4  -8    0.79    0.18
  -9   4   8    0.66    0.33
  -9   4   8    0.40    0.29
  -8  -4   8    0.40    0.25
   8  -4  -8   -0.01    0.31
   8   4  -8    0.07    0.15
  -8   4   8    0.06    0.26
  -8   4   8    0.13    0.27
  -7  -4   8    0.47    0.21
   7  -4  -8   -0.09    0.28
  -7   4   8    0.39    0.25
   7   4  -8    0.32    0.15
  -7   4   8    0.14    0.23
  -6  -4   8    1.30    0.22
   6  -4  -8    1.06    0.26
  -6   4   8    1.01    0.23
  -6   4   8    1.29    0.24
   6   4  -8    1.24    0.17
  -5  -4   8    0.05    0.20
   5  -4  -8    0.03    0.21
  -5  -4   8    0.20    0.16
  -5   4   8    0.17    0.18
  -5   4   8   -0.19    0.16
   5   4  -8    0.31    0.14
  -4  -4   8    8.19    0.37
  -4  -4   8    7.04    0.44
   4  -4  -8    7.67    0.41
  -4   4   8    8.07    0.42
  -4   4   8    8.45    0.40
   4   4  -8    8.31    0.39
   3  -4  -8    0.29    0.17
  -3  -4   8    0.97    0.19
  -3  -4   8    0.38    0.13
   3   4  -8    0.54    0.13
   3   4  -8    0.38    0.15
  -3   4   8    0.31    0.14
  -3   4   8    0.16    0.13
  -2  -4   8    1.61    0.20
   2  -4  -8    1.42    0.18
  -2  -4   8    1.67    0.17
   2   4  -8    1.68    0.17
  -2   4   8    1.43    0.15
   2   4  -8    1.41    0.16
  -1  -4   8    6.13    0.29
  -1  -4   8    5.60    0.30
   1  -4  -8    6.57    0.33
   1   4  -8    6.22    0.30
  -1   4   8    5.96    0.28
   0  -4   8   12.38    0.47
   0  -4  -8   12.81    0.50
   0  -4   8   12.91    0.48
   0   4  -8   12.35    0.48
   0   4  -8   12.36    0.50
   0   4  -8   12.29    0.52
  -1  -4  -8    8.35    0.37
  -1  -4  -8    8.69    0.34
   1  -4   8    7.77    0.36
  -1   4  -8    7.94    0.37
  -1   4  -8    8.50    0.39
  -1   4  -8    8.23    0.39
  -1   4  -8    8.56    0.33
  -2  -4  -8   81.44    2.61
  -2  -4  -8   84.91    2.50
   2  -4   8   83.69    2.52
  -2   4  -8   84.17    2.80
  -2   4  -8   82.23    2.71
  -2   4  -8   84.91    2.48
  -3  -4  -8    0.32    0.17
   3  -4   8    0.31    0.15
  -3  -4  -8    0.16    0.13
  -3   4  -8    0.22    0.14
  -3   4  -8    0.35    0.17
  -3   4  -8    0.31    0.15
  -4  -4  -8    2.45    0.25
   4  -4   8    2.26    0.26
  -4   4  -8    2.57    0.28
  -4   4  -8    2.73    0.25
  -4   4  -8    2.84    0.27
  -5  -4  -8    0.99    0.22
   5  -4   8    0.38    0.20
  -5   4  -8    0.69    0.21
  -5   4  -8    0.53    0.23
  -6  -4  -8    1.25    0.26
  -6  -4  -8    1.41    0.26
   6  -4   8    1.51    0.28
  -6   4  -8    0.95    0.26
  -6   4  -8    1.35    0.28
  -7  -4  -8    0.42    0.28
   7  -4   8    0.72    0.28
  -7  -4  -8    0.21    0.27
  -7   4  -8    0.61    0.28
  -7   4  -8    0.81    0.32
  -8  -4  -8    1.26    0.34
  -8  -4  -8    1.11    0.31
   8  -4   8    0.74    0.31
  -8   4  -8    1.38    0.36
   8   4   8    1.10    0.18
  -8   4  -8    1.59    0.35
  -9  -4  -8    0.53    0.33
  -9  -4  -8    0.70    0.36
   9  -4   8    0.63    0.33
  -9   4  -8    0.18    0.36
  -9   4  -8    0.01    0.33
 -10  -4  -8    0.57    0.38
 -10   4  -8   -0.19    0.40
 -10   4  -8    0.09    0.38
 -10   5   8    0.48    0.39
 -10   5   8    0.51    0.35
   9  -5  -8    0.78    0.39
  -9   5   8    0.81    0.32
  -9   5   8    1.00    0.36
   8  -5  -8    3.59    0.43
  -8  -5   8    3.13    0.37
  -8   5   8    3.17    0.40
  -8   5   8    2.86    0.38
   8   5  -8    3.07    0.28
   7  -5  -8    1.34    0.34
  -7  -5   8    1.05    0.26
   7   5  -8    1.35    0.20
  -7   5   8    1.09    0.28
  -7   5   8    0.99    0.30
   6  -5  -8   -0.09    0.26
  -6  -5   8    0.52    0.22
  -6   5   8    0.48    0.25
  -6   5   8   -0.01    0.21
   6   5  -8    0.31    0.16
  -5  -5   8    8.67    0.44
   5  -5  -8    9.03    0.49
  -5  -5   8    7.87    0.49
   5   5  -8    7.77    0.41
  -5   5   8    7.19    0.42
  -5   5   8    8.06    0.45
  -4  -5   8    3.98    0.31
   4  -5  -8    3.59    0.32
  -4  -5   8    4.96    0.38
   4   5  -8    4.44    0.30
  -4   5   8    4.10    0.31
  -4   5   8    3.96    0.31
  -3  -5   8   20.68    0.75
   3  -5  -8   20.92    0.79
  -3  -5   8   20.86    0.80
  -3   5   8   20.18    0.75
   3   5  -8   20.91    0.81
  -3   5   8   20.15    0.78
  -2  -5   8    3.63    0.27
   2  -5  -8    3.48    0.29
  -2  -5   8    3.36    0.28
   2   5  -8    3.74    0.25
   2   5  -8    3.74    0.28
  -2   5   8    3.48    0.26
  -1  -5   8    0.39    0.14
  -1  -5   8    0.20    0.16
   1  -5  -8    0.20    0.17
  -1   5   8    0.29    0.12
   1   5  -8    0.53    0.13
   1   5  -8   -0.05    0.06
   0  -5  -8    3.13    0.21
   0  -5   8    3.22    0.24
   0  -5   8    2.47    0.22
   0  -5  -8    2.77    0.26
   0   5  -8    3.35    0.25
   0   5  -8    2.92    0.23
   0   5  -8    2.76    0.19
  -1  -5  -8   42.58    1.31
  -1  -5  -8   42.21    1.40
   1  -5   8   40.77    1.34
   1  -5   8   41.56    1.35
  -1   5  -8   42.18    1.29
  -1   5  -8   40.77    1.46
  -1   5  -8   42.60    1.43
  -2  -5  -8    0.53    0.16
  -2  -5  -8    0.44    0.19
   2  -5   8    0.41    0.15
   2  -5   8    0.58    0.17
  -2   5  -8    0.29    0.14
  -2   5  -8    0.37    0.15
  -2   5  -8    0.43    0.17
   3  -5   8    6.10    0.35
  -3  -5  -8    5.28    0.39
  -3  -5  -8    5.73    0.34
  -3   5  -8    7.13    0.42
  -3   5  -8    6.39    0.34
  -3   5  -8    5.89    0.37
  -4  -5  -8    6.19    0.42
   4  -5   8    6.28    0.39
  -4  -5  -8    5.55    0.36
  -4   5  -8    6.49    0.45
  -4   5  -8    5.77    0.35
  -5  -5  -8   -0.06    0.20
  -5  -5  -8   -0.29    0.23
   5  -5   8    0.31    0.21
  -5   5  -8   -0.39    0.20
  -5   5  -8   -0.09    0.22
   6  -5   8   13.04    0.62
  -6  -5  -8   12.79    0.62
  -6   5  -8   13.17    0.71
  -6   5  -8   13.46    0.64
   7  -5   8    0.44    0.27
  -7  -5  -8    0.57    0.30
  -7   5  -8    0.67    0.32
  -7   5  -8    0.54    0.34
  -8  -5  -8    0.52    0.32
   8  -5   8    0.85    0.31
  -8   5  -8    1.17    0.39
  -8   5  -8    1.04    0.36
  -9  -5  -8   -0.27    0.34
  -9   5  -8   -0.01    0.36
  -9   5  -8    0.01    0.35
 -10   6   8    0.09    0.40
 -10   6   8    0.94    0.39
  -9  -6   8   -0.13    0.31
   9  -6  -8   -0.37    0.37
  -9   6   8    0.36    0.35
  -9   6   8   -0.11    0.32
   8  -6  -8    0.45    0.36
  -8  -6   8    0.32    0.29
  -8   6   8    0.40    0.31
  -8   6   8    0.59    0.33
   7  -6  -8    2.05    0.38
  -7  -6   8    1.99    0.33
   7   6  -8    1.61    0.24
  -7   6   8    1.65    0.34
  -7   6   8    1.84    0.36
  -6  -6   8   -0.08    0.22
  -6  -6   8    0.16    0.33
   6  -6  -8    0.17    0.29
  -6   6   8   -0.29    0.25
  -6   6   8    0.06    0.24
   6   6  -8   -0.16    0.16
  -5  -6   8    1.62    0.34
  -5  -6   8    1.83    0.28
   5  -6  -8    1.62    0.31
   5   6  -8    1.44    0.23
  -5   6   8    1.32    0.27
  -5   6   8    0.82    0.27
  -4  -6   8   18.10    0.77
  -4  -6   8   17.18    0.69
   4  -6  -8   18.20    0.75
  -4   6   8   16.76    0.70
  -4   6   8   17.48    0.74
   4   6  -8   16.98    0.73
  -3  -6   8    0.21    0.21
  -3  -6   8   -0.01    0.18
   3  -6  -8    0.23    0.23
  -3   6   8    0.12    0.18
   3   6  -8    0.18    0.16
  -3   6   8   -0.03    0.17
  -2  -6   8   42.57    1.46
  -2  -6   8   42.31    1.39
   2  -6  -8   44.06    1.45
   2   6  -8   42.73    1.53
  -2   6   8   42.11    1.45
   1  -6  -8    0.72    0.15
   1  -6  -8    1.01    0.24
  -1  -6   8    0.67    0.18
  -1  -6   8    0.62    0.21
   1   6  -8    0.89    0.19
   0  -6   8    2.49    0.24
   0  -6  -8    2.78    0.22
   0  -6   8    2.07    0.25
   0  -6  -8    2.10    0.26
   0   6  -8    2.75    0.21
   0   6  -8    2.58    0.23
   1  -6   8    0.40    0.18
  -1  -6  -8    0.51    0.17
  -1  -6  -8    0.42    0.23
   1  -6   8    0.25    0.17
  -1   6  -8    0.44    0.18
  -1   6  -8    0.21    0.14
  -1   6  -8    0.59    0.16
  -2  -6  -8    7.05    0.36
  -2  -6  -8    6.78    0.44
   2  -6   8    7.28    0.40
   2  -6   8    7.74    0.38
  -2   6  -8    6.89    0.39
  -2   6  -8    6.55    0.43
  -2   6  -8    6.97    0.35
  -3  -6  -8    1.66    0.27
  -3  -6  -8    1.81    0.25
   3  -6   8    1.74    0.24
  -3   6  -8    1.58    0.24
  -3   6  -8    1.81    0.27
   4  -6   8   13.97    0.62
  -4  -6  -8   13.24    0.66
  -4  -6  -8   13.79    0.61
  -4   6  -8   14.13    0.60
  -4   6  -8   13.89    0.68
   5  -6   8    1.66    0.27
  -5  -6  -8    1.61    0.34
  -5  -6  -8    1.38    0.27
  -5   6  -8    1.71    0.28
  -5   6  -8    1.28    0.29
   6  -6   8    4.76    0.41
  -6  -6  -8    4.45    0.40
  -6   6  -8    4.36    0.42
  -6   6  -8    4.52    0.46
   6   6   8    4.92    0.37
   7  -6   8    0.03    0.27
  -7  -6  -8   -0.19    0.26
  -7   6  -8    0.04    0.33
  -7   6  -8   -0.23    0.31
  -8  -6  -8   -0.35    0.33
   8  -6   8    0.97    0.32
  -8   6  -8    0.52    0.37
  -8   6  -8    0.25    0.34
  -9  -6  -8    0.25    0.38
  -9   6  -8    0.16    0.41
  -9   6  -8    0.45    0.38
  -9  -7   8    1.17    0.38
  -9   7   8    0.56    0.38
  -9   7   8    0.25    0.39
   8  -7  -8    0.10    0.38
  -8  -7   8    0.69    0.33
  -8   7   8    0.97    0.39
  -8   7   8    1.01    0.37
   7  -7  -8    0.20    0.35
  -7  -7   8    0.47    0.30
  -7   7   8    0.26    0.29
  -7   7   8    0.11    0.33
  -6  -7   8    2.66    0.38
   6  -7  -8    3.16    0.41
  -6  -7   8    2.91    0.45
  -6   7   8    2.97    0.38
   6   7  -8    2.80    0.31
  -6   7   8    3.68    0.42
   5  -7  -8   12.46    0.66
  -5  -7   8   11.60    0.69
  -5  -7   8   10.77    0.59
  -5   7   8   12.22    0.63
   5   7  -8   12.49    0.60
  -5   7   8   12.75    0.62
  -4  -7   8    0.67    0.24
   4  -7  -8    0.89    0.30
  -4  -7   8    1.34    0.30
  -4   7   8    0.83    0.24
   4   7  -8    0.70    0.22
  -4   7   8    1.05    0.29
   3  -7  -8    2.80    0.35
  -3  -7   8    3.01    0.35
  -3  -7   8    3.08    0.32
  -3   7   8    2.73    0.32
  -3   7   8    2.66    0.29
   3   7  -8    3.17    0.30
  -2  -7   8    0.99    0.27
   2  -7  -8    1.43    0.28
  -2  -7   8    1.27    0.24
   2   7  -8    1.22    0.24
  -2   7   8    0.94    0.23
  -1  -7   8    0.97    0.23
   1  -7  -8    0.48    0.26
  -1  -7   8    0.34    0.24
   0  -7  -8    9.45    0.53
   0  -7  -8   10.06    0.46
   0  -7   8   10.53    0.53
   0  -7   8   10.71    0.50
  -1  -7  -8   18.68    0.80
   1  -7   8   17.59    0.73
  -1  -7  -8   18.65    0.70
   1  -7   8   19.02    0.74
  -1   7  -8   18.33    0.77
  -1   7  -8   18.29    0.68
   2  -7   8    1.36    0.26
   2  -7   8    1.22    0.24
  -2  -7  -8    1.30    0.30
  -2  -7  -8    1.04    0.22
   2   7   8    1.32    0.24
  -2   7  -8    1.53    0.23
  -2   7  -8    1.93    0.27
  -3  -7  -8    0.33    0.20
   3  -7   8    0.50    0.22
  -3  -7  -8    0.43    0.29
  -3   7  -8    0.06    0.21
   3   7   8   -0.15    0.18
  -3   7  -8    0.33    0.25
  -4  -7  -8    0.10    0.28
  -4  -7  -8    0.30    0.24
   4  -7   8    0.20    0.21
  -4   7  -8    0.68    0.24
  -4   7  -8    0.43    0.25
   4   7   8    0.38    0.21
  -5  -7  -8    0.67    0.26
   5  -7   8    0.58    0.26
  -5  -7  -8    0.21    0.34
  -5   7  -8    0.53    0.31
  -5   7  -8    0.25    0.27
   5   7   8    0.79    0.23
   6  -7   8    4.91    0.43
  -6  -7  -8    5.81    0.47
  -6   7  -8    4.88    0.48
  -6   7  -8    5.32    0.47
   7  -7   8    0.60    0.31
  -7  -7  -8    0.47    0.34
  -7   7  -8    0.26    0.36
  -7   7  -8    0.08    0.34
  -8  -7  -8    0.33    0.37
  -8   7  -8    0.21    0.39
  -8   7  -8    0.23    0.37
   8  -8  -8    0.21    0.42
  -8  -8   8    0.25    0.36
  -8   8   8    0.25    0.41
  -8   8   8    0.19    0.36
   7  -8  -8    1.02    0.40
  -7  -8   8    0.79    0.45
  -7  -8   8    1.17    0.38
  -7   8   8    0.61    0.35
  -7   8   8    0.58    0.38
   6  -8  -8    0.15    0.35
  -6  -8   8    0.44    0.33
  -6  -8   8   -0.20    0.36
  -6   8   8    0.30    0.29
  -6   8   8    0.41    0.35
   5  -8  -8    2.87    0.42
  -5  -8   8    2.81    0.43
  -5  -8   8    2.57    0.39
  -5   8   8    2.33    0.37
   5   8  -8    2.52    0.33
  -5   8   8    2.28    0.36
  -4  -8   8    0.18    0.32
  -4  -8   8    0.80    0.30
   4  -8  -8    0.88    0.31
   4   8  -8    0.68    0.26
  -4   8   8    0.30    0.28
  -3  -8   8    3.13    0.39
   3  -8  -8    3.91    0.42
  -3  -8   8    3.71    0.39
  -3   8   8    3.24    0.37
   3   8  -8    3.49    0.36
  -2  -8   8    1.66    0.30
   2  -8  -8    2.10    0.34
  -2  -8   8    2.26    0.33
  -2   8   8    1.80    0.30
   1  -8  -8    2.86    0.39
  -1  -8   8    2.43    0.31
  -1  -8   8    2.34    0.35
   0  -8   8    6.87    0.43
   0  -8   8    6.59    0.48
   0  -8  -8    6.74    0.52
   0  -8  -8    6.53    0.40
   1  -8   8    5.98    0.44
   1  -8   8    6.03    0.43
  -1  -8  -8    5.82    0.39
  -1  -8  -8    7.25    0.53
   2  -8   8    9.06    0.51
   2  -8   8    9.37    0.52
  -2  -8  -8    9.45    0.60
  -2  -8  -8    8.21    0.47
  -2   8  -8    8.34    0.46
  -2   8  -8    8.29    0.53
   3  -8   8    0.67    0.26
  -3  -8  -8    0.50    0.26
  -3  -8  -8    0.84    0.34
  -3   8  -8    0.57    0.25
   3   8   8    0.33    0.23
  -3   8  -8    1.09    0.30
   4  -8   8    1.16    0.30
  -4  -8  -8    0.53    0.28
  -4  -8  -8    1.21    0.36
  -4   8  -8    0.85    0.30
   4   8   8    1.05    0.28
  -4   8  -8    0.61    0.28
  -5  -8  -8    1.85    0.45
   5  -8   8    1.49    0.32
  -5  -8  -8    2.26    0.37
  -5   8  -8    1.88    0.36
  -5   8  -8    1.97    0.38
  -6  -8  -8    0.41    0.33
   6  -8   8    0.89    0.31
  -6   8  -8    0.38    0.34
  -6   8  -8    0.02    0.33
  -7  -8  -8    0.12    0.33
  -7   8  -8   -0.03    0.36
  -7   8  -8   -0.02    0.33
  -7  -9   8    0.13    0.45
  -7  -9   8    0.21    0.38
   7  -9  -8   -0.22    0.41
  -7   9   8   -0.08    0.40
  -7   9   8    0.15    0.37
  -6  -9   8    0.15    0.34
  -6  -9   8    0.09    0.45
   6  -9  -8   -0.43    0.38
  -6   9   8    0.06    0.34
  -6   9   8   -0.12    0.33
  -5  -9   8    0.39    0.36
   5  -9  -8    0.65    0.40
  -5  -9   8    0.18    0.40
  -5   9   8    0.18    0.33
  -4  -9   8    0.18    0.31
   4  -9  -8    0.58    0.38
  -4  -9   8    0.73    0.38
  -4   9   8   -0.16    0.28
   4   9  -8   -0.18    0.26
   3  -9  -8    4.11    0.45
  -3  -9   8    3.87    0.46
  -3  -9   8    3.32    0.42
  -3   9   8    3.86    0.42
   2  -9  -8    0.87    0.38
  -2  -9   8    0.71    0.32
  -2  -9   8    1.24    0.33
  -2   9   8    0.91    0.32
  -1  -9   8    0.29    0.29
  -1  -9   8    0.01    0.32
   1  -9  -8    0.71    0.34
   0  -9  -8   -0.07    0.34
   0  -9   8    0.54    0.27
   0  -9   8    0.31    0.31
  -1  -9  -8    0.73    0.26
   1  -9   8    0.56    0.29
  -1  -9  -8    0.72    0.37
   1  -9   8    1.02    0.33
  -2  -9  -8    0.89    0.38
  -2  -9  -8    0.94    0.29
   2  -9   8    0.74    0.32
   2  -9   8    0.49    0.29
  -2   9  -8    0.84    0.28
  -3  -9  -8    1.65    0.33
   3  -9   8    2.48    0.34
  -3  -9  -8    1.85    0.40
  -3   9  -8    1.92    0.33
  -4  -9  -8    0.56    0.31
  -4  -9  -8    1.05    0.42
   4  -9   8    1.57    0.34
  -4   9  -8    1.11    0.33
  -4   9  -8    1.49    0.36
  -5  -9  -8    0.28    0.33
   5  -9   8    0.41    0.31
  -5  -9  -8    0.24    0.45
  -5   9  -8    0.49    0.35
  -5   9  -8    0.69    0.35
  -6  -9  -8    0.90    0.38
   6  -9   8    1.29    0.36
  -6   9  -8    0.86    0.39
  -6   9  -8    0.83    0.39
   6 -10  -8    0.50    0.46
  -6 -10   8    0.37    0.41
  -6 -10   8    0.62    0.51
  -6  10   8    0.64    0.41
   5 -10  -8    0.54    0.40
  -5 -10   8    0.27    0.37
  -5 -10   8    0.18    0.45
  -5  10   8    0.45    0.39
   4 -10  -8    4.98    0.55
  -4 -10   8    3.87    0.51
  -4 -10   8    4.60    0.56
  -4  10   8    4.33    0.51
  -3 -10   8   -0.11    0.38
   3 -10  -8    0.35    0.42
  -3 -10   8    0.29    0.33
  -3  10   8   -0.18    0.33
  -2 -10   8    0.01    0.30
  -2 -10   8    0.49    0.38
   2 -10  -8   -0.07    0.40
  -2  10   8    0.22    0.33
   1 -10  -8    0.39    0.38
  -1 -10   8    0.67    0.32
  -1 -10   8    0.66    0.40
  -1  10   8    0.68    0.34
   0 -10  -8    0.09    0.41
   0 -10   8    0.49    0.33
   0 -10   8    0.40    0.37
  -1 -10  -8    0.01    0.27
  -1 -10  -8    0.07    0.41
   1 -10   8   -0.30    0.34
   1 -10   8    0.27    0.29
  -2 -10  -8   -0.03    0.29
   2 -10   8   -0.07    0.30
  -2 -10  -8    0.76    0.44
   2 -10   8    0.29    0.35
   3 -10   8    0.41    0.32
  -3 -10  -8    0.02    0.41
  -3 -10  -8    0.33    0.31
  -4 -10  -8   -0.05    0.43
  -4 -10  -8    0.19    0.32
   4 -10   8   -0.34    0.30
  -4  10  -8    0.18    0.34
  -5 -10  -8    0.25    0.36
  -5 -10  -8    0.19    0.51
   5 -10   8   -0.06    0.32
  -5  10  -8    0.05    0.35
  -4 -11   8    0.53    0.47
  -4 -11   8    0.62    0.44
   4 -11  -8   -0.09    0.47
  -4  11   8   -0.23    0.40
  -3 -11   8    0.96    0.41
   3 -11  -8    0.88    0.48
  -3 -11   8    1.15    0.48
  -3  11   8    0.85    0.41
   2 -11  -8    0.11    0.47
  -2 -11   8    0.05    0.37
  -2 -11   8    0.64    0.44
  -2  11   8   -0.03    0.37
   1 -11  -8    0.55    0.47
  -1 -11   8    0.62    0.42
  -1 -11   8   -0.09    0.35
  -1  11   8    0.28    0.38
   0 -11  -8    0.76    0.50
   0 -11   8    1.02    0.40
   0 -11   8    1.30    0.46
   0  11   8    1.44    0.38
   1 -11   8    0.78    0.38
   1 -11   8    0.71    0.42
  -1 -11  -8    0.84    0.49
   2 -11   8    0.55    0.37
  -2 -11  -8    0.79    0.34
  -2 -11  -8    1.17    0.51
  -3 -11  -8    0.30    0.48
   3 -11   8    0.84    0.37
  -3 -11  -8    0.36    0.35
 -10   0   9   -0.10    0.27
  10   0  -9    0.39    0.43
   9   0  -9    1.31    0.42
  -9   0   9    1.67    0.29
   8   0  -9   -0.33    0.30
  -8   0   9   -0.21    0.20
   7   0  -9   11.32    0.61
  -7   0   9   10.69    0.52
   6   0  -9    0.12    0.22
  -6   0   9   -0.11    0.15
   5   0  -9    3.64    0.21
  -5   0   9    3.39    0.21
  -5   0   9    3.58    0.25
   4   0  -9    0.00    0.08
  -4   0   9    0.01    0.10
  -4   0   9    0.04    0.07
  -3   0   9  171.45    5.32
  -3   0   9  160.71    5.18
   3   0  -9  161.88    5.37
   2   0  -9   -0.07    0.07
   1   0  -9   47.76    1.63
   0   0  -9   -0.07    0.06
   0   0  -9   -0.02    0.07
  -1   0  -9   13.70    0.52
   1   0   9   12.68    0.51
  -1   0  -9   12.68    0.49
  -2   0  -9    0.00    0.09
  -2   0  -9    0.05    0.08
   2   0   9   -0.05    0.07
  -3   0  -9   22.85    0.75
   3   0   9   21.93    0.82
  -3   0  -9   22.12    0.79
  -3   0  -9   21.62    0.75
  -4   0  -9   -0.06    0.13
  -4   0  -9    0.16    0.14
  -4   0  -9    0.06    0.12
  -5   0  -9    0.31    0.18
  -5   0  -9    0.53    0.19
  -5   0  -9    0.23    0.14
  -6   0  -9    0.40    0.20
  -6   0  -9    0.28    0.20
  -6   0  -9   -0.10    0.17
  -7   0  -9    0.26    0.24
  -7   0  -9    0.32    0.26
  -7   0  -9    0.36    0.21
  -8   0  -9    0.07    0.28
  -8   0  -9    0.10    0.28
  -9   0  -9   -0.16    0.31
  -9   0  -9    0.03    0.30
 -10   0  -9   -0.02    0.37
 -11   1   9   -0.06    0.31
  10  -1  -9    2.16    0.47
 -10   1   9    1.63    0.34
  10   1  -9    2.01    0.48
   9  -1  -9    0.37    0.37
   9   1  -9    0.03    0.37
  -9   1   9   -0.27    0.22
  -8  -1   9    2.97    0.30
   8  -1  -9    2.57    0.40
  -8   1   9    2.87    0.32
  -7  -1   9    2.15    0.24
   7  -1  -9    3.01    0.34
  -7   1   9    2.39    0.27
   7   1  -9    2.67    0.19
   6  -1  -9    9.70    0.50
  -6  -1   9    9.47    0.44
   6   1  -9    8.51    0.39
  -6   1   9    8.96    0.44
  -6   1   9    9.63    0.41
  -6   1   9    9.09    0.45
   5  -1  -9    0.63    0.21
  -5  -1   9    0.92    0.15
  -5   1   9    1.09    0.15
   5   1  -9    0.84    0.14
  -5   1   9    1.06    0.17
  -5   1   9    1.17    0.15
   4  -1  -9   61.82    2.05
  -4  -1   9   61.37    2.10
  -4   1   9   65.25    2.08
  -4   1   9   66.21    1.90
   4   1  -9   64.18    2.14
  -4   1   9   64.54    2.13
   3  -1  -9   34.65    1.20
   3  -1  -9   34.25    1.16
  -3   1   9   33.94    1.16
   3   1  -9   35.98    1.20
   2  -1  -9    1.25    0.13
  -2   1   9    1.28    0.12
   2   1  -9    1.31    0.13
  -1  -1   9   55.99    1.80
   1  -1  -9   53.53    1.86
   1   1  -9   54.78    1.82
   1   1  -9   56.88    1.86
   0  -1  -9  105.21    3.40
   0  -1   9  104.05    3.36
   0   1  -9   99.05    3.30
   0   1  -9  104.49    3.40
   1  -1   9   17.31    0.64
  -1  -1  -9   17.96    0.64
  -1   1  -9   16.61    0.63
  -1   1  -9   17.31    0.65
  -2  -1  -9   41.82    1.32
  -2  -1  -9   41.96    1.39
  -2   1  -9   43.24    1.41
  -2   1  -9   40.95    1.45
  -2   1  -9   41.02    1.29
   2   1   9   42.87    1.45
  -2   1  -9   44.00    1.46
  -3  -1  -9   10.99    0.45
   3  -1   9   11.22    0.46
  -3  -1  -9   10.58    0.42
  -3  -1  -9   11.00    0.43
  -3   1  -9   10.91    0.42
   3   1   9   10.82    0.45
  -3   1  -9   10.07    0.47
  -3   1  -9   10.78    0.46
  -4  -1  -9    6.43    0.31
  -4  -1  -9    6.04    0.34
  -4  -1  -9    6.18    0.33
  -4   1  -9    5.90    0.32
  -4   1  -9    6.18    0.35
  -4   1  -9    5.39    0.34
  -4   1  -9    5.94    0.35
  -5  -1  -9    1.20    0.21
  -5  -1  -9    1.20    0.23
  -5  -1  -9    1.52    0.19
  -5   1  -9    1.35    0.21
  -5   1  -9    1.30    0.23
  -5   1  -9    1.31    0.21
  -5   1  -9    0.99    0.19
  -6  -1  -9    5.05    0.40
  -6  -1  -9    4.53    0.35
  -6   1  -9    5.57    0.37
  -6   1  -9    5.32    0.38
  -6   1  -9    5.39    0.37
  -7  -1  -9    1.93    0.32
  -7  -1  -9    1.10    0.26
  -7   1  -9    1.67    0.28
  -7   1  -9    1.88    0.32
  -7   1  -9    1.70    0.30
  -8  -1  -9    1.60    0.33
  -8  -1  -9    1.89    0.34
  -8   1  -9    1.87    0.34
  -8   1  -9    1.84    0.33
  -9  -1  -9    1.05    0.35
  -9  -1  -9    0.68    0.36
  -9   1  -9    1.09    0.37
 -10  -1  -9    1.05    0.40
 -10  -1  -9    0.64    0.41
 -10   1  -9    0.87    0.40
 -11   2   9    0.55    0.35
  11   2  -9    0.30    0.48
  10  -2  -9    1.36    0.47
  10   2  -9    1.04    0.47
 -10   2   9    1.44    0.33
   9  -2  -9    7.32    0.58
  -9   2   9    5.57    0.47
   8  -2  -9    2.09    0.38
  -8   2   9    1.39    0.28
   8   2  -9    1.49    0.15
  -7  -2   9    2.77    0.26
   7  -2  -9    2.71    0.36
  -7   2   9    2.48    0.30
   7   2  -9    3.01    0.23
  -7   2   9    3.52    0.30
   6  -2  -9    1.72    0.28
  -6  -2   9    1.81    0.19
  -6   2   9    1.21    0.19
  -6   2   9    1.68    0.21
  -6   2   9    1.49    0.22
   6   2  -9    1.59    0.17
  -5  -2   9   23.87    0.79
   5  -2  -9   22.48    0.89
  -5   2   9   24.60    0.87
  -5   2   9   25.14    0.81
  -5   2   9   21.46    0.89
   5   2  -9   24.69    0.86
   4  -2  -9    1.20    0.20
   4   2  -9    1.16    0.14
  -4   2   9    1.67    0.17
  -4   2   9    0.95    0.15
   3  -2  -9    6.01    0.33
   3   2  -9    6.92    0.30
  -3   2   9    6.63    0.32
  -3   2   9    6.88    0.29
   2   2  -9    1.47    0.17
   2   2  -9    1.84    0.15
  -2   2   9    1.74    0.14
   1   2  -9   22.19    0.84
   1   2  -9   24.01    0.84
   1   2  -9   24.09    0.78
   0  -2   9   11.77    0.44
   0   2  -9   11.73    0.47
   0   2  -9   11.74    0.44
   0   2  -9   11.94    0.48
   1  -2   9  121.24    3.89
  -1   2  -9  117.47    3.88
  -1   2  -9  116.92    3.78
  -1   2  -9  119.43    3.90
   2  -2   9   -0.01    0.10
  -2  -2  -9    0.14    0.11
  -2   2  -9    0.06    0.11
  -2   2  -9    0.05    0.09
  -2   2  -9   -0.03    0.08
  -2   2  -9    0.11    0.09
  -3  -2  -9    9.27    0.38
  -3  -2  -9    9.13    0.41
   3  -2   9    8.97    0.42
  -3   2  -9    9.09    0.38
  -3   2  -9    9.96    0.44
  -3   2  -9    9.27    0.43
  -4  -2  -9    3.06    0.25
  -4  -2  -9    3.25    0.28
   4  -2   9    3.14    0.26
  -4   2  -9    3.08    0.26
  -4   2  -9    3.13    0.24
  -4   2  -9    3.62    0.28
  -5  -2  -9   21.56    0.79
  -5  -2  -9   21.63    0.82
  -5   2  -9   21.49    0.79
  -5   2  -9   20.48    0.84
  -6  -2  -9    2.17    0.31
  -6  -2  -9    2.21    0.28
  -6   2  -9    2.26    0.28
  -6   2  -9    2.42    0.30
  -7  -2  -9    7.16    0.46
  -7  -2  -9    8.52    0.54
  -7   2  -9    8.12    0.49
  -7   2  -9    8.58    0.55
  -8  -2  -9    0.17    0.28
   8  -2   9    0.57    0.29
  -8  -2  -9    0.38    0.32
  -8   2  -9    0.03    0.28
  -8   2  -9    0.60    0.29
  -9  -2  -9    0.38    0.34
   9  -2   9    0.41    0.32
  -9  -2  -9    0.40    0.32
  -9   2  -9    0.06    0.35
  -9   2  -9    1.37    0.37
 -10  -2  -9    0.17    0.33
 -10  -2  -9    0.69    0.40
  10  -2   9   -0.29    0.33
 -10   2  -9    0.31    0.36
 -10   2  -9   -0.51    0.33
  11   3  -9    0.20    0.50
 -11   3   9    0.05    0.35
  10  -3  -9    0.21    0.40
 -10   3   9    0.13    0.32
   9  -3  -9   -0.41    0.34
  -9   3   9    0.16    0.29
   9   3  -9    0.13    0.11
   8  -3  -9    5.72    0.49
  -8   3   9    4.71    0.40
   8   3  -9    4.69    0.31
  -8   3   9    5.57    0.42
  -7  -3   9    0.26    0.20
   7  -3  -9    0.14    0.27
  -7   3   9    0.02    0.21
   7   3  -9    0.27    0.14
  -7   3   9    0.56    0.23
  -6  -3   9   22.78    0.84
   6  -3  -9   24.52    0.93
  -6   3   9   25.41    0.98
  -6   3   9   24.14    0.93
   6   3  -9   24.99    0.89
  -6   3   9   24.53    0.87
   5  -3  -9    5.38    0.36
  -5  -3   9    5.93    0.31
  -5   3   9    5.50    0.34
   5   3  -9    5.23    0.29
  -5   3   9    6.05    0.33
  -4  -3   9   29.27    0.95
   4  -3  -9   28.15    1.01
   4   3  -9   29.35    1.03
  -4   3   9   28.87    1.03
  -4   3   9   29.49    0.96
   3  -3  -9   23.82    0.86
  -3  -3   9   23.41    0.85
  -3  -3   9   24.91    0.80
  -3   3   9   24.76    0.86
  -3   3   9   24.84    0.81
   3   3  -9   23.94    0.87
   3   3  -9   23.54    0.88
  -2  -3   9    0.30    0.12
   2  -3  -9    0.04    0.13
   2   3  -9    0.21    0.12
  -2   3   9    0.10    0.10
   2   3  -9    0.21    0.10
   1  -3  -9    0.86    0.14
  -1   3   9    0.83    0.11
   1   3  -9    0.56    0.11
   1   3  -9    0.93    0.14
   1   3  -9    0.73    0.08
   0   3  -9  121.67    3.95
   0   3  -9  119.85    3.91
   0   3  -9  118.76    3.83
   1  -3   9   15.07    0.55
  -1   3  -9   15.00    0.58
  -1   3  -9   15.27    0.60
  -1   3  -9   15.51    0.59
  -1   3  -9   15.28    0.51
   2  -3   9    2.82    0.23
  -2  -3  -9    2.42    0.19
  -2   3  -9    2.78    0.21
  -2   3  -9    2.51    0.19
  -2   3  -9    2.79    0.23
  -2   3  -9    2.54    0.21
   3  -3   9   16.64    0.65
  -3  -3  -9   16.90    0.65
  -3  -3  -9   17.25    0.62
  -3   3  -9   18.07    0.70
  -3   3  -9   17.55    0.62
  -3   3  -9   16.42    0.69
   4  -3   9    0.25    0.16
  -4  -3  -9    0.15    0.15
  -4  -3  -9   -0.19    0.16
  -4   3  -9    0.43    0.18
  -4   3  -9    0.24    0.16
  -4   3  -9    0.29    0.16
  -5  -3  -9    7.09    0.38
  -5  -3  -9    7.48    0.41
   5  -3   9    6.61    0.42
  -5   3  -9    7.07    0.39
  -5   3  -9    7.13    0.44
  -6  -3  -9   -0.13    0.22
  -6  -3  -9    0.14    0.19
   6  -3   9    0.29    0.23
  -6   3  -9    0.07    0.23
  -6   3  -9    0.53    0.22
  -7  -3  -9   -0.17    0.24
   7  -3   9    0.05    0.25
  -7  -3  -9    0.08    0.26
  -7   3  -9    0.01    0.27
  -7   3  -9    0.12    0.27
   8  -3   9    0.25    0.28
  -8  -3  -9    0.21    0.29
  -8  -3  -9    0.17    0.30
  -8   3  -9    0.18    0.31
  -8   3  -9    0.37    0.30
   9  -3   9    0.27    0.31
  -9  -3  -9   -0.24    0.29
  -9  -3  -9    0.09    0.33
  -9   3  -9    0.29    0.35
  -9   3  -9    0.17    0.36
 -10  -3  -9    1.11    0.40
 -10  -3  -9    1.46    0.41
  10  -3   9   -0.44    0.33
 -10   3  -9    1.61    0.44
 -10   3  -9    2.16    0.47
 -10   4   9    0.75    0.35
   9  -4  -9   -0.34    0.35
  -9   4   9    0.25    0.31
  -9   4   9    0.00    0.30
   8  -4  -9    1.87    0.38
   8   4  -9    1.87    0.22
  -8   4   9    1.57    0.33
  -8   4   9    1.27    0.31
  -7  -4   9    0.25    0.20
   7  -4  -9    0.32    0.30
  -7   4   9   -0.06    0.22
   7   4  -9    0.54    0.15
  -7   4   9   -0.16    0.23
  -6  -4   9    0.85    0.21
   6  -4  -9    1.28    0.27
  -6   4   9    0.72    0.22
   6   4  -9    0.86    0.16
  -6   4   9    1.28    0.24
   5  -4  -9   64.16    2.10
  -5  -4   9   66.42    2.00
   5   4  -9   62.95    2.18
  -5   4   9   64.39    2.15
  -5   4   9   64.48    2.01
   4  -4  -9    1.81    0.24
  -4  -4   9    1.96    0.21
  -4  -4   9    1.83    0.26
   4   4  -9    1.76    0.18
  -4   4   9    2.02    0.22
  -4   4   9    1.89    0.21
  -3  -4   9   44.78    1.38
   3  -4  -9   42.34    1.44
  -3  -4   9   43.23    1.45
   3   4  -9   40.31    1.47
  -3   4   9   43.74    1.47
  -3   4   9   44.05    1.38
   3   4  -9   46.18    1.52
   2  -4  -9    0.94    0.17
  -2  -4   9    0.85    0.15
  -2  -4   9    1.02    0.18
  -2   4   9    0.79    0.14
   2   4  -9    1.12    0.15
   2   4  -9    0.98    0.15
   1  -4  -9   16.74    0.63
  -1  -4   9   16.36    0.61
  -1  -4   9   16.61    0.60
  -1   4   9   16.17    0.60
   1   4  -9   17.34    0.63
   0  -4   9    2.27    0.20
   0  -4  -9    2.88    0.23
   0  -4   9    2.51    0.20
   0   4  -9    2.46    0.20
   0   4  -9    2.05    0.17
   0   4  -9    2.62    0.21
  -1  -4  -9   35.00    1.17
  -1  -4  -9   36.16    1.10
   1  -4   9   35.11    1.14
  -1   4  -9   35.55    1.25
  -1   4  -9   34.59    1.09
  -1   4  -9   34.40    1.23
  -1   4  -9   35.56    1.22
  -2  -4  -9    0.63    0.17
   2  -4   9    0.85    0.16
  -2  -4  -9    1.18    0.16
  -2   4  -9    0.96    0.18
  -2   4  -9    1.08    0.16
  -2   4  -9    0.94    0.16
   3  -4   9    7.68    0.40
  -3  -4  -9    7.33    0.36
  -3   4  -9    8.19    0.38
  -3   4  -9    8.12    0.41
  -3   4  -9    7.67    0.42
  -4  -4  -9    6.57    0.42
  -4  -4  -9    7.28    0.37
   4  -4   9    8.04    0.43
  -4   4  -9    6.93    0.41
  -4   4  -9    7.89    0.38
  -4   4  -9    7.21    0.46
  -5  -4  -9    2.26    0.28
   5  -4   9    1.74    0.26
  -5   4  -9    2.23    0.27
  -5   4  -9    2.66    0.31
  -6  -4  -9    1.17    0.28
   6  -4   9    0.68    0.26
  -6  -4  -9    1.12    0.26
  -6   4  -9    1.60    0.31
  -6   4  -9    1.15    0.28
  -7  -4  -9    0.59    0.28
  -7  -4  -9    0.77    0.29
   7  -4   9    0.56    0.27
  -7   4  -9    0.21    0.29
  -7   4  -9    1.07    0.32
  -8  -4  -9    0.44    0.31
   8  -4   9    0.36    0.30
  -8  -4  -9    0.23    0.32
  -8   4  -9    0.42    0.34
  -8   4  -9    0.30    0.33
   9  -4   9    1.36    0.38
  -9  -4  -9    1.51    0.40
  -9  -4  -9    1.38    0.39
  -9   4  -9    2.22    0.44
  -9   4  -9    1.09    0.41
 -10  -4  -9   -0.05    0.37
 -10   4  -9    0.41    0.39
 -10   4  -9    0.47    0.41
 -10   5   9    1.81    0.41
 -10   5   9    1.12    0.42
   9  -5  -9   -0.67    0.37
  -9   5   9   -0.43    0.31
  -9   5   9   -0.11    0.31
   8  -5  -9    0.10    0.34
  -8  -5   9   -0.41    0.23
   8   5  -9    0.05    0.17
  -8   5   9    0.23    0.30
  -8   5   9    0.18    0.27
   7  -5  -9    0.14    0.30
  -7  -5   9   -0.01    0.22
   7   5  -9    0.06    0.15
  -7   5   9   -0.17    0.26
  -7   5   9    0.27    0.25
   6  -5  -9    2.99    0.36
  -6  -5   9    1.93    0.27
  -6   5   9    2.12    0.31
   6   5  -9    2.37    0.24
  -6   5   9    2.66    0.32
  -5  -5   9    1.21    0.30
   5  -5  -9    1.42    0.29
  -5  -5   9    0.93    0.22
   5   5  -9    1.30    0.20
  -5   5   9    1.26    0.24
  -5   5   9    1.33    0.25
  -4  -5   9   17.01    0.71
  -4  -5   9   15.42    0.63
   4  -5  -9   16.05    0.68
  -4   5   9   15.77    0.64
  -4   5   9   15.60    0.65
   4   5  -9   15.85    0.66
  -3  -5   9    1.05    0.22
   3  -5  -9    0.75    0.21
  -3  -5   9    0.56    0.16
  -3   5   9    0.78    0.19
   3   5  -9    0.59    0.16
  -3   5   9    0.27    0.16
   2  -5  -9   -0.01    0.18
  -2  -5   9    0.14    0.15
  -2  -5   9    0.24    0.18
   2   5  -9    0.32    0.14
  -2   5   9    0.00    0.13
   2   5  -9    0.19    0.13
  -1  -5   9    8.38    0.40
  -1  -5   9    8.97    0.42
   1  -5  -9    8.76    0.44
  -1   5   9    8.66    0.38
   1   5  -9    9.07    0.41
   0  -5   9   14.30    0.55
   0  -5  -9   13.51    0.58
   0  -5  -9   14.29    0.51
   0  -5   9   14.69    0.56
   0   5  -9   13.89    0.57
   0   5  -9   13.83    0.60
   0   5  -9   13.69    0.56
   0   5  -9   14.15    0.49
   1  -5   9   10.39    0.45
   1  -5   9   11.17    0.44
  -1  -5  -9   10.70    0.50
  -1  -5  -9   11.02    0.43
  -1   5  -9    9.83    0.48
  -1   5  -9    9.90    0.46
  -1   5  -9   10.28    0.41
  -2  -5  -9   20.82    0.80
   2  -5   9   21.28    0.73
  -2  -5  -9   20.91    0.74
   2  -5   9   20.95    0.77
  -2   5  -9   20.94    0.72
  -2   5  -9   21.59    0.82
  -2   5  -9   21.13    0.81
  -3  -5  -9    3.08    0.27
   3  -5   9    3.45    0.29
  -3  -5  -9    2.95    0.31
  -3   5  -9    3.18    0.31
  -3   5  -9    3.05    0.26
  -3   5  -9    3.54    0.29
  -4  -5  -9    0.30    0.20
   4  -5   9    0.49    0.21
  -4  -5  -9    0.80    0.25
  -4   5  -9    0.47    0.22
  -4   5  -9    0.27    0.18
   5  -5   9    3.07    0.31
  -5  -5  -9    2.70    0.31
  -5   5  -9    2.26    0.32
  -5   5  -9    2.79    0.31
  -6  -5  -9    5.35    0.42
   6  -5   9    5.01    0.41
  -6   5  -9    5.15    0.46
  -6   5  -9    6.02    0.45
  -7  -5  -9    0.17    0.28
   7  -5   9    0.39    0.28
  -7   5  -9    0.31    0.30
  -7   5  -9    0.19    0.28
   8  -5   9    1.24    0.34
  -8  -5  -9    0.75    0.34
  -8   5  -9    0.39    0.34
  -8   5  -9    0.70    0.35
  -9  -5  -9    0.04    0.32
   9  -5   9    0.41    0.34
  -9   5  -9   -0.36    0.38
  -9   5  -9    0.06    0.39
 -10   6   9    0.26    0.35
 -10   6   9    0.13    0.40
   9  -6  -9    0.13    0.40
  -9  -6   9    0.43    0.34
  -9   6   9   -0.08    0.34
  -9   6   9    0.31    0.36
  -8  -6   9   -0.26    0.27
   8  -6  -9   -0.23    0.34
  -8   6   9    0.01    0.29
  -8   6   9    0.21    0.29
  -7  -6   9    0.12    0.25
   7  -6  -9   -0.14    0.32
  -7   6   9   -0.07    0.28
  -7   6   9    0.00    0.25
   7   6  -9    0.02    0.18
  -6  -6   9    1.68    0.30
   6  -6  -9    1.90    0.35
  -6  -6   9    1.63    0.39
  -6   6   9    1.77    0.32
   6   6  -9    1.97    0.26
  -6   6   9    2.13    0.33
  -5  -6   9    2.27    0.30
  -5  -6   9    2.39    0.37
   5  -6  -9    2.64    0.33
  -5   6   9    2.38    0.31
  -5   6   9    2.51    0.31
   5   6  -9    2.67    0.27
   4  -6  -9    0.29    0.24
  -4  -6   9    0.33    0.21
  -4  -6   9    0.62    0.27
   4   6  -9    0.24    0.17
  -4   6   9    0.11    0.19
  -4   6   9    0.36    0.21
   3  -6  -9    3.17    0.32
  -3  -6   9    2.81    0.29
  -3  -6   9    2.98    0.33
  -3   6   9    3.43    0.30
   3   6  -9    3.33    0.28
  -3   6   9    2.98    0.26
  -2  -6   9    6.05    0.40
  -2  -6   9    5.64    0.36
   2  -6  -9    6.34    0.39
   2   6  -9    7.01    0.39
  -2   6   9    5.67    0.36
  -1  -6   9    3.78    0.31
   1  -6  -9    3.96    0.33
  -1  -6   9    3.94    0.31
   1   6  -9    4.54    0.29
   1   6  -9    3.53    0.30
   0  -6   9    2.81    0.26
   0  -6  -9    3.50    0.25
   0  -6  -9    2.84    0.29
   0  -6   9    3.48    0.29
   0   6  -9    3.41    0.27
  -1  -6  -9    9.74    0.52
  -1  -6  -9    9.80    0.43
   1  -6   9   10.07    0.48
   1  -6   9   10.07    0.46
  -1   6  -9   10.06    0.42
  -1   6  -9   10.10    0.50
  -1   6  -9    9.75    0.47
   2  -6   9    0.23    0.17
   2  -6   9    0.14    0.19
  -2  -6  -9    0.29    0.18
  -2  -6  -9    0.04    0.22
  -2   6  -9    0.13    0.16
  -2   6  -9    0.24    0.20
  -2   6  -9    0.34    0.16
  -3  -6  -9    3.94    0.32
   3  -6   9    4.30    0.34
  -3  -6  -9    3.58    0.37
  -3   6  -9    3.81    0.34
  -3   6  -9    3.53    0.30
   4  -6   9    1.67    0.27
  -4  -6  -9    1.45    0.31
  -4  -6  -9    1.90    0.28
  -4   6  -9    2.11    0.28
  -4   6  -9    1.74    0.29
  -5  -6  -9    3.80    0.37
   5  -6   9    3.69    0.35
  -5   6  -9    3.05    0.34
  -5   6  -9    4.25    0.41
   6  -6   9   -0.36    0.24
  -6  -6  -9   -0.20    0.26
  -6   6  -9   -0.09    0.29
  -6   6  -9   -0.05    0.25
  -7  -6  -9    1.93    0.35
   7  -6   9    3.35    0.39
  -7   6  -9    2.70    0.41
  -7   6  -9    2.53    0.41
   8  -6   9    0.32    0.33
  -8  -6  -9    1.02    0.37
  -8   6  -9    0.31    0.39
  -8   6  -9    0.26    0.37
  -9  -6  -9    0.31    0.38
  -9   6  -9   -0.12    0.42
  -9   6  -9    0.07    0.38
  -9  -7   9   -0.46    0.31
   9  -7  -9    0.16    0.44
  -9   7   9    0.08    0.34
  -9   7   9   -0.02    0.38
  -8  -7   9    0.69    0.34
   8  -7  -9    0.80    0.40
  -8   7   9    0.20    0.37
  -8   7   9    0.17    0.31
   7  -7  -9    1.29    0.40
  -7  -7   9    0.82    0.32
  -7   7   9    0.93    0.36
  -7   7   9    1.20    0.32
  -6  -7   9    2.18    0.36
   6  -7  -9    2.83    0.39
  -6  -7   9    2.70    0.44
   6   7  -9    2.05    0.29
  -6   7   9    2.40    0.37
  -6   7   9    2.14    0.35
  -5  -7   9    2.18    0.38
   5  -7  -9    2.75    0.36
  -5  -7   9    2.23    0.34
   5   7  -9    2.31    0.29
  -5   7   9    2.03    0.33
  -5   7   9    1.86    0.32
  -4  -7   9   19.87    0.83
   4  -7  -9   19.56    0.85
  -4  -7   9   19.60    0.88
   4   7  -9   20.96    0.87
  -4   7   9   20.46    0.82
  -4   7   9   20.31    0.84
   3  -7  -9   -0.30    0.23
  -3  -7   9   -0.18    0.25
  -3  -7   9   -0.02    0.23
  -3   7   9    0.36    0.23
   3   7  -9    0.30    0.19
  -3   7   9    0.00    0.20
   2  -7  -9    0.24    0.26
  -2  -7   9    0.58    0.24
  -2  -7   9    0.07    0.22
   2   7  -9    0.39    0.20
  -1  -7   9    0.08    0.21
  -1  -7   9    0.56    0.25
   1  -7  -9    0.26    0.24
   0  -7   9   11.69    0.56
   0  -7  -9   10.97    0.49
   0  -7  -9   12.52    0.61
   0  -7   9   11.78    0.57
  -1  -7  -9    0.30    0.19
   1  -7   9    0.79    0.23
  -1  -7  -9    0.71    0.26
   1  -7   9    0.65    0.23
  -1   7  -9    0.37    0.18
  -1   7  -9    0.54    0.22
   2  -7   9   15.63    0.63
  -2  -7  -9   13.65    0.67
  -2  -7  -9   13.69    0.57
   2  -7   9   14.09    0.63
  -2   7  -9   13.56    0.57
  -2   7  -9   13.30    0.65
  -3  -7  -9    3.60    0.39
   3  -7   9    3.13    0.33
  -3  -7  -9    3.41    0.33
  -3   7  -9    2.69    0.30
  -3   7  -9    2.54    0.32
   4  -7   9    4.76    0.41
  -4  -7  -9    5.09    0.47
  -4  -7  -9    4.79    0.39
  -4   7  -9    4.48    0.41
  -4   7  -9    4.84    0.39
   4   7   9    4.37    0.38
  -5  -7  -9    4.99    0.54
  -5  -7  -9    6.73    0.49
   5  -7   9    6.22    0.46
  -5   7  -9    6.24    0.51
  -5   7  -9    6.26    0.47
   5   7   9    6.22    0.43
   6  -7   9   -0.02    0.27
  -6  -7  -9    0.34    0.28
  -6   7  -9   -0.01    0.32
  -6   7  -9    0.04    0.31
   7  -7   9   -0.33    0.30
  -7  -7  -9   -0.32    0.31
  -7   7  -9   -0.34    0.30
  -7   7  -9    0.28    0.33
  -8  -7  -9    0.48    0.38
  -8   7  -9    0.74    0.41
  -8   7  -9    0.44    0.40
   8  -8  -9    0.55    0.44
  -8  -8   9    0.04    0.34
  -8   8   9    0.65    0.42
  -8   8   9    0.14    0.33
  -7  -8   9    1.10    0.49
   7  -8  -9    1.06    0.42
  -7  -8   9    1.78    0.39
  -7   8   9    1.96    0.43
  -7   8   9    1.17    0.37
  -6  -8   9   -0.47    0.29
  -6  -8   9   -0.13    0.36
   6  -8  -9    0.00    0.34
  -6   8   9   -0.19    0.33
  -6   8   9    0.35    0.31
  -5  -8   9    6.95    0.60
  -5  -8   9    7.31    0.56
   5  -8  -9    7.65    0.54
  -5   8   9    7.08    0.56
  -5   8   9    8.89    0.55
   5   8  -9    7.95    0.53
  -4  -8   9    0.05    0.26
   4  -8  -9    0.54    0.34
  -4  -8   9    0.52    0.34
  -4   8   9    0.88    0.31
   4   8  -9    0.14    0.24
  -3  -8   9    3.81    0.39
   3  -8  -9    4.36    0.45
  -3  -8   9    4.69    0.45
  -3   8   9    3.97    0.39
   3   8  -9    4.45    0.40
  -2  -8   9    0.93    0.29
  -2  -8   9    0.73    0.30
   2  -8  -9    0.63    0.33
  -2   8   9    0.87    0.29
   1  -8  -9    0.38    0.29
  -1  -8   9    0.41    0.26
  -1  -8   9    0.82    0.28
   0  -8  -9    0.60    0.30
   0  -8  -9    1.04    0.23
   0  -8   9    1.57    0.28
   0  -8   9    1.54    0.28
  -1  -8  -9    5.29    0.46
   1  -8   9    4.79    0.39
   1  -8   9    5.52    0.42
  -1  -8  -9    5.34    0.38
   2  -8   9    0.70    0.27
   2  -8   9    1.33    0.29
  -2  -8  -9    1.28    0.33
  -2  -8  -9    1.27    0.26
  -2   8  -9    0.98    0.28
  -2   8  -9    0.75    0.24
   3  -8   9    1.22    0.30
  -3  -8  -9    1.61    0.38
  -3  -8  -9    1.02    0.28
  -3   8  -9    1.54    0.29
  -3   8  -9    1.69    0.32
   3   8   9    1.23    0.28
   4  -8   9    0.40    0.26
  -4  -8  -9   -0.04    0.26
  -4  -8  -9    0.22    0.33
   4   8   9    0.19    0.24
  -4   8  -9    0.42    0.28
  -4   8  -9    0.35    0.28
  -5  -8  -9    0.49    0.40
  -5  -8  -9    0.23    0.27
   5  -8   9    0.75    0.30
  -5   8  -9   -0.09    0.29
  -5   8  -9    0.07    0.31
   6  -8   9    0.46    0.31
  -6  -8  -9    0.63    0.34
  -6   8  -9    0.47    0.32
  -6   8  -9    0.81    0.37
   7  -8   9    0.62    0.34
  -7  -8  -9   -0.32    0.34
  -7   8  -9    0.42    0.38
  -7   8  -9    0.28    0.37
   7  -9  -9   -0.04    0.43
  -7  -9   9   -0.68    0.47
  -7  -9   9    0.05    0.37
  -7   9   9    0.39    0.37
  -7   9   9   -0.12    0.40
  -6  -9   9    0.50    0.46
   6  -9  -9    0.29    0.41
  -6  -9   9    0.50    0.39
  -6   9   9    0.09    0.38
  -5  -9   9    0.70    0.38
  -5  -9   9    0.54    0.38
   5  -9  -9    1.63    0.42
  -5   9   9    0.85    0.38
   4  -9  -9    0.11    0.37
  -4  -9   9   -0.28    0.35
  -4  -9   9    0.55    0.32
  -4   9   9    0.39    0.33
   4   9  -9    0.19    0.27
  -3  -9   9   -0.43    0.30
   3  -9  -9    0.26    0.37
  -3  -9   9    0.14    0.35
  -3   9   9   -0.20    0.29
   2  -9  -9    1.32    0.36
  -2  -9   9    1.28    0.34
  -2  -9   9    0.75    0.30
  -2   9   9    0.70    0.32
   1  -9  -9    3.76    0.49
  -1  -9   9    4.93    0.49
  -1  -9   9    3.60    0.41
   0  -9  -9    4.43    0.50
   0  -9   9    3.91    0.40
   0  -9   9    4.46    0.44
  -1  -9  -9    2.64    0.42
   1  -9   9    3.46    0.40
  -1  -9  -9    3.48    0.35
   1  -9   9    3.64    0.41
  -2  -9  -9    0.53    0.27
  -2  -9  -9    0.95    0.39
   2  -9   9    0.59    0.29
  -3  -9  -9    0.54    0.39
   3  -9   9   -0.01    0.28
  -3  -9  -9    0.87    0.28
  -3   9  -9    1.02    0.30
   4  -9   9    0.04    0.30
  -4  -9  -9    0.06    0.37
  -4  -9  -9    0.12    0.30
  -4   9  -9    0.10    0.30
  -4   9  -9    0.22    0.33
   5  -9   9   -0.41    0.30
  -5  -9  -9   -0.08    0.47
  -5  -9  -9   -0.03    0.32
  -5   9  -9   -0.17    0.32
  -5   9  -9    0.45    0.36
   6  -9   9    0.10    0.34
  -6  -9  -9    0.22    0.35
  -6   9  -9    0.24    0.36
  -6   9  -9    0.16    0.36
  -6 -10   9   -0.23    0.49
  -6 -10   9    0.80    0.41
   6 -10  -9   -0.33    0.44
  -6  10   9   -0.05    0.38
   5 -10  -9    0.00    0.44
  -5 -10   9    0.58    0.40
  -5 -10   9   -0.16    0.42
  -5  10   9    0.24    0.40
  -4 -10   9    0.41    0.39
  -4 -10   9    0.43    0.38
   4 -10  -9    0.36    0.42
  -4  10   9    0.00    0.36
   3 -10  -9    1.06    0.41
  -3 -10   9    0.56    0.36
  -3 -10   9    0.96    0.42
  -3  10   9    0.70    0.36
   2 -10  -9    0.05    0.41
  -2 -10   9   -0.21    0.36
  -2 -10   9    0.22    0.34
  -2  10   9    0.16    0.34
   1 -10  -9    2.50    0.48
  -1 -10   9    2.21    0.40
  -1 -10   9    1.99    0.42
  -1  10   9    1.65    0.39
   0 -10  -9    2.64    0.49
   0 -10   9    1.65    0.38
   0 -10   9    1.76    0.42
   1 -10   9    2.51    0.39
   1 -10   9    1.96    0.42
  -1 -10  -9    1.78    0.44
  -2 -10  -9    0.43    0.29
   2 -10   9   -0.17    0.31
  -2 -10  -9    0.82    0.45
  -3 -10  -9   -0.30    0.29
  -3 -10  -9   -0.02    0.41
   3 -10   9    0.43    0.33
  -4 -10  -9    0.93    0.35
  -4 -10  -9    1.04    0.48
   4 -10   9    0.53    0.33
  -4  10  -9    0.61    0.35
  -5 -10  -9    0.97    0.54
  -5 -10  -9    1.28    0.39
   5 -10   9    1.23    0.37
  -5  10  -9    0.76    0.38
  -5  10  -9    0.80    0.39
   3 -11  -9    0.23    0.43
  -3 -11   9    0.59    0.45
  -3 -11   9    0.12    0.36
  -3  11   9    0.52    0.41
  -2 -11   9    0.46    0.40
   2 -11  -9    0.10    0.47
  -2 -11   9   -0.26    0.41
  -2  11   9   -0.40    0.36
   1 -11  -9   -0.18    0.47
  -1 -11   9   -0.30    0.36
  -1 -11   9    0.23    0.40
  -1  11   9    0.41    0.38
   0 -11   9    1.40    0.46
   0 -11  -9    0.86    0.50
   0 -11   9    0.65    0.40
   0  11   9    1.31    0.38
   1 -11   9   -0.19    0.35
  -1 -11  -9    0.17    0.47
   1 -11   9    0.10    0.41
  -2 -11  -9    0.40    0.32
  -2 -11  -9   -0.12    0.47
   2 -11   9   -0.04    0.35
  -3 -11  -9    0.14    0.35
  -3 -11  -9    0.06    0.44
   3 -11   9    0.51    0.37
  11   0 -10   -0.19    0.45
  10   0 -10    5.09    0.60
 -10   0  10    4.14    0.42
  -9   0  10   -0.35    0.23
   9   0 -10    0.09    0.37
   8   0 -10    0.99    0.33
  -8   0  10    0.95    0.24
   7   0 -10    0.19    0.28
  -7   0  10   -0.02    0.18
   6   0 -10   37.05    1.29
   6   0 -10   35.60    1.22
  -6   0  10   34.37    1.23
  -5   0  10   -0.03    0.09
  -5   0  10    0.06    0.12
   5   0 -10    0.13    0.10
  -4   0  10    0.24    0.11
  -4   0  10    0.26    0.08
   4   0 -10    0.37    0.10
   3   0 -10    0.00    0.08
   2   0 -10    1.63    0.16
   1   0 -10    0.04    0.08
   0   0 -10   46.59    1.57
   0   0 -10   44.51    1.51
   1   0  10   -0.03    0.07
  -1   0 -10   -0.05    0.07
  -1   0 -10   -0.03    0.09
  -2   0 -10    8.80    0.40
  -2   0 -10    9.48    0.39
  -2   0 -10    9.16    0.37
  -3   0 -10    0.12    0.11
  -3   0 -10    0.18    0.11
  -3   0 -10   -0.05    0.11
  -4   0 -10   14.11    0.56
  -4   0 -10   14.78    0.59
  -5   0 -10    0.20    0.18
  -5   0 -10    0.16    0.16
  -5   0 -10    0.07    0.16
  -6   0 -10   50.21    1.67
  -6   0 -10   48.29    1.59
  -6   0 -10   46.34    1.59
  -7   0 -10    0.13    0.25
  -7   0 -10    0.00    0.21
  -7   0 -10   -0.17    0.25
  -8   0 -10    1.63    0.35
  -8   0 -10    1.46    0.32
  -9   0 -10    0.14    0.31
  -9   0 -10   -0.06    0.32
 -10   0 -10   -0.21    0.38
  11   1 -10    0.10    0.49
 -11   1  10   -0.02    0.31
  10  -1 -10    0.75    0.44
 -10   1  10    1.11    0.30
  10   1 -10    1.00    0.45
   9  -1 -10    0.11    0.36
   9   1 -10    0.57    0.39
  -9   1  10    0.74    0.26
   8  -1 -10   -0.16    0.30
  -8  -1  10    0.32    0.19
  -8   1  10    0.36    0.23
   7  -1 -10    2.44    0.34
  -7  -1  10    2.73    0.26
  -7   1  10    2.48    0.28
   7   1 -10    2.54    0.20
   6  -1 -10    6.07    0.44
  -6  -1  10    6.50    0.37
  -6   1  10    6.28    0.32
   6   1 -10    6.00    0.32
  -6   1  10    6.09    0.38
  -5  -1  10   32.02    1.14
   5  -1 -10   34.70    1.18
  -5   1  10   33.48    1.05
  -5   1  10   33.05    1.18
  -5   1  10   34.37    1.16
   5   1 -10   32.57    1.17
  -4  -1  10   22.39    0.79
   4  -1 -10   22.79    0.85
  -4   1  10   22.36    0.83
   4   1 -10   23.37    0.85
  -4   1  10   24.57    0.75
   3  -1 -10    1.81    0.19
   3  -1 -10    2.03    0.16
  -3   1  10    1.79    0.16
   3   1 -10    1.64    0.16
   2  -1 -10   15.98    0.62
   2   1 -10   16.64    0.62
  -1  -1  10    6.83    0.25
   1   1 -10    6.06    0.30
   0  -1 -10    0.19    0.10
   0  -1 -10    0.10    0.08
   0  -1  10   -0.03    0.06
   0   1 -10   -0.08    0.09
  -1  -1 -10   90.19    2.71
  -1  -1 -10   90.46    3.04
  -1  -1 -10   82.17    2.94
   1  -1  10   95.16    3.04
  -1   1 -10   97.75    3.05
  -1   1 -10   95.96    2.96
  -2  -1 -10   16.66    0.59
  -2  -1 -10   16.51    0.60
  -2   1 -10   16.29    0.64
  -2   1 -10   15.68    0.56
  -2   1 -10   16.29    0.63
  -2   1 -10   16.72    0.63
  -3  -1 -10    0.10    0.11
  -3  -1 -10    0.19    0.10
  -3  -1 -10    0.28    0.13
  -3   1 -10    0.15    0.11
  -3   1 -10    0.19    0.12
  -3   1 -10    0.19    0.11
  -4  -1 -10    2.04    0.19
  -4  -1 -10    1.66    0.19
  -4  -1 -10    1.76    0.22
  -4   1 -10    1.49    0.20
  -4   1 -10    1.56    0.20
  -4   1 -10    1.89    0.21
  -5  -1 -10    7.43    0.37
  -5  -1 -10    6.77    0.39
  -5  -1 -10    6.99    0.40
  -5   1 -10    6.93    0.40
  -5   1 -10    7.09    0.41
  -5   1 -10    6.71    0.42
  -5   1 -10    7.00    0.42
  -6  -1 -10    1.55    0.28
  -6  -1 -10    0.83    0.23
  -6   1 -10    0.93    0.23
  -6   1 -10    0.78    0.25
  -6   1 -10    0.87    0.25
  -7  -1 -10    7.01    0.49
  -7  -1 -10    6.40    0.47
  -7   1 -10    6.40    0.49
  -7   1 -10    5.84    0.46
  -8  -1 -10    0.13    0.29
  -8  -1 -10    0.19    0.28
  -8   1 -10   -0.08    0.26
  -8   1 -10    0.08    0.30
  -9  -1 -10   -0.11    0.34
  -9  -1 -10    0.29    0.33
  -9   1 -10   -0.05    0.34
 -10  -1 -10    1.98    0.46
 -10  -1 -10    2.10    0.43
 -10   1 -10    1.32    0.41
 -11   2  10   -0.04    0.33
  11   2 -10   -0.16    0.48
  10  -2 -10    0.22    0.42
 -10   2  10   -0.18    0.30
  10   2 -10    0.03    0.44
   9  -2 -10    1.14    0.39
  -9   2  10    0.95    0.30
   8  -2 -10    1.77    0.36
  -8   2  10    1.69    0.30
   8   2 -10    1.93    0.18
   7  -2 -10    5.20    0.45
  -7   2  10    4.70    0.36
   7   2 -10    4.92    0.30
  -7   2  10    5.03    0.36
   6  -2 -10    9.52    0.55
  -6   2  10   10.74    0.46
  -6   2  10   10.82    0.50
   6   2 -10   10.69    0.46
  -5  -2  10   17.69    0.61
   5  -2 -10   17.14    0.72
  -5   2  10   18.30    0.64
  -5   2  10   16.95    0.68
   5   2 -10   17.62    0.67
   4  -2 -10   22.71    0.87
   4   2 -10   23.98    0.88
  -4   2  10   25.10    0.87
  -4   2  10   25.46    0.80
   3  -2 -10   10.40    0.47
  -3   2  10   11.12    0.42
   3   2 -10   11.56    0.46
  -3   2  10   11.39    0.45
   2  -2 -10   25.27    0.88
   2   2 -10   26.35    0.94
   2   2 -10   25.29    0.93
  -2   2  10   27.07    0.89
   1   2 -10   11.46    0.49
   1   2 -10   13.30    0.44
   1   2 -10   12.30    0.51
   0  -2  10  109.07    3.52
   0   2 -10  105.47    3.46
   0   2 -10  109.07    3.51
   1  -2  10   17.31    0.64
  -1   2 -10   17.19    0.65
  -1   2 -10   16.85    0.63
  -1   2 -10   16.69    0.65
  -2  -2 -10   73.61    2.26
   2  -2  10   73.20    2.27
  -2   2 -10   76.76    2.45
  -2   2 -10   75.74    2.51
  -2   2 -10   75.25    2.51
  -2   2 -10   75.44    2.23
   3  -2  10    0.15    0.13
  -3  -2 -10    0.07    0.13
  -3  -2 -10    0.12    0.12
  -3  -2 -10    0.43    0.11
  -3   2 -10    0.06    0.13
  -3   2 -10    0.37    0.14
  -3   2 -10    0.00    0.11
  -4  -2 -10    0.17    0.15
  -4  -2 -10    0.85    0.19
   4  -2  10    0.09    0.14
  -4   2 -10    0.24    0.16
  -4   2 -10    0.14    0.14
  -4   2 -10    0.09    0.15
  -5  -2 -10    4.75    0.31
   5  -2  10    4.39    0.34
  -5  -2 -10    4.75    0.36
  -5   2 -10    4.47    0.34
  -5   2 -10    4.89    0.36
  -6  -2 -10    1.62    0.28
  -6  -2 -10    1.50    0.26
  -6   2 -10    1.51    0.27
  -6   2 -10    1.65    0.26
   7  -2  10    0.63    0.25
  -7  -2 -10    0.38    0.28
  -7  -2 -10    0.64    0.27
  -7   2 -10    0.58    0.28
  -7   2 -10    0.88    0.29
  -8  -2 -10    0.61    0.30
   8  -2  10    0.12    0.28
  -8  -2 -10    0.44    0.30
  -8   2 -10    0.46    0.31
  -9  -2 -10    0.88    0.35
   9  -2  10    0.51    0.33
  -9  -2 -10    0.32    0.36
  -9   2 -10    0.79    0.38
  -9   2 -10    0.12    0.33
 -10  -2 -10    0.52    0.40
 -10  -2 -10    1.34    0.41
  10  -2  10   -0.10    0.35
 -10   2 -10    0.53    0.42
 -11   3  10    0.55    0.34
  11   3 -10    0.43    0.53
  10  -3 -10   -0.35    0.40
 -10   3  10    0.35    0.34
   9  -3 -10    0.45    0.38
  -9   3  10    0.55    0.29
   9   3 -10    0.49    0.13
   8  -3 -10    0.88    0.32
  -8   3  10    0.52    0.27
  -8   3  10    0.70    0.27
   8   3 -10    0.63    0.18
   7  -3 -10   16.33    0.74
  -7   3  10   16.28    0.68
  -7   3  10   17.18    0.74
   7   3 -10   16.36    0.66
   6  -3 -10    0.10    0.25
  -6  -3  10    0.13    0.16
  -6   3  10    0.24    0.19
  -6   3  10    0.20    0.19
   6   3 -10    0.22    0.13
  -6   3  10   -0.04    0.16
  -5  -3  10   14.82    0.56
   5  -3 -10   14.87    0.65
  -5   3  10   14.66    0.61
  -5   3  10   14.34    0.58
   5   3 -10   14.68    0.59
  -4  -3  10   12.15    0.46
   4  -3 -10   11.93    0.52
   4   3 -10   11.22    0.51
  -4   3  10   11.85    0.48
   4   3 -10   12.43    0.50
  -4   3  10   11.75    0.52
  -3  -3  10    3.51    0.22
   3  -3 -10    3.37    0.26
  -3  -3  10    3.87    0.28
  -3   3  10    3.29    0.23
  -3   3  10    3.33    0.24
   3   3 -10    3.28    0.22
   3   3 -10    3.11    0.26
  -2  -3  10   16.93    0.65
   2  -3 -10   17.76    0.66
  -2   3  10   17.27    0.64
   2   3 -10   17.61    0.68
   2   3 -10   17.61    0.67
   2   3 -10   18.34    0.59
   1  -3 -10   81.42    2.54
   1   3 -10   83.52    2.67
   1   3 -10   82.38    2.66
  -1   3  10   80.08    2.61
   0  -3  10    8.61    0.37
   0   3 -10    8.52    0.39
   0   3 -10    9.00    0.36
   0   3 -10    8.72    0.40
  -1   3 -10   52.16    1.77
  -1   3 -10   51.82    1.75
  -1   3 -10   51.11    1.55
  -1   3 -10   52.23    1.73
   2  -3  10    4.41    0.28
  -2  -3 -10    4.02    0.24
  -2   3 -10    4.13    0.26
  -2   3 -10    4.31    0.24
  -2   3 -10    4.22    0.31
   3  -3  10   11.76    0.51
  -3  -3 -10   12.03    0.51
  -3  -3 -10   11.86    0.48
  -3   3 -10   11.76    0.53
  -3   3 -10   12.37    0.48
  -3   3 -10   11.17    0.53
   4  -3  10    0.54    0.18
  -4  -3 -10    0.56    0.18
  -4  -3 -10    0.64    0.21
  -4   3 -10    0.45    0.17
  -4   3 -10    0.61    0.17
  -4   3 -10    0.56    0.18
  -5  -3 -10   10.88    0.53
   5  -3  10   11.18    0.55
  -5  -3 -10   11.66    0.53
  -5   3 -10   12.28    0.60
  -5   3 -10   11.38    0.52
   6  -3  10    0.02    0.22
  -6  -3 -10   -0.12    0.23
  -6  -3 -10    0.00    0.21
  -6   3 -10    0.17    0.23
  -6   3 -10   -0.12    0.23
   7  -3  10    0.06    0.23
  -7  -3 -10    0.04    0.26
  -7  -3 -10    0.19    0.27
  -7   3 -10   -0.03    0.27
  -7   3 -10    0.51    0.29
  -8  -3 -10    0.26    0.30
   8  -3  10    0.12    0.28
  -8  -3 -10    0.02    0.30
  -8   3 -10   -0.15    0.28
  -8   3 -10    0.08    0.29
  -9  -3 -10    0.13    0.34
  -9  -3 -10    0.04    0.33
   9  -3  10    0.16    0.32
  -9   3 -10    0.60    0.37
  -9   3 -10   -0.14    0.35
 -10  -3 -10    0.42    0.38
  10  -3  10    0.19    0.37
 -10  -3 -10    0.31    0.38
 -10   3 -10   -0.09    0.42
 -10   3 -10    0.62    0.41
  10  -4 -10    1.03    0.45
 -10   4  10    0.39    0.33
   9  -4 -10    1.02    0.40
  -9   4  10    1.28    0.34
  -9   4  10    0.89    0.35
   8  -4 -10    0.07    0.33
  -8   4  10    0.66    0.29
  -8   4  10    0.67    0.30
   8   4 -10    0.42    0.17
   7  -4 -10    0.08    0.29
  -7  -4  10   -0.02    0.19
  -7   4  10    0.15    0.24
  -7   4  10    0.21    0.24
   7   4 -10    0.07    0.14
   6  -4 -10    3.95    0.37
  -6  -4  10    3.75    0.31
  -6   4  10    3.59    0.33
   6   4 -10    3.89    0.27
  -6   4  10    3.31    0.32
  -5  -4  10   16.93    0.66
   5  -4 -10   17.93    0.74
  -5   4  10   17.40    0.72
   5   4 -10   16.49    0.68
  -5   4  10   17.49    0.67
  -4  -4  10   20.31    0.71
   4  -4 -10   19.53    0.77
  -4  -4  10   18.73    0.76
  -4   4  10   20.41    0.72
   4   4 -10   18.35    0.76
   4   4 -10   20.02    0.76
  -4   4  10   19.31    0.76
   3  -4 -10    0.41    0.17
  -3  -4  10    0.43    0.17
  -3  -4  10    0.25    0.14
   3   4 -10    0.21    0.12
  -3   4  10    0.35    0.16
   3   4 -10    0.35    0.16
  -3   4  10    0.12    0.13
  -2  -4  10    1.83    0.21
  -2  -4  10    1.52    0.17
   2  -4 -10    1.16    0.20
  -2   4  10    1.72    0.17
   2   4 -10    1.46    0.17
   2   4 -10    1.56    0.19
  -1  -4  10   15.14    0.56
   1  -4 -10   15.46    0.60
  -1  -4  10   15.21    0.57
   1   4 -10   15.44    0.60
   1   4 -10   15.15    0.55
  -1   4  10   14.64    0.56
   0  -4 -10   17.27    0.65
   0  -4  10   17.45    0.62
   0  -4  10   17.39    0.63
   0   4 -10   17.16    0.68
   0   4 -10   16.85    0.64
   0   4 -10   16.89    0.66
   1  -4  10    0.76    0.15
  -1  -4 -10    0.47    0.13
  -1  -4 -10    0.64    0.16
  -1   4 -10    0.63    0.13
  -1   4 -10    0.83    0.13
  -1   4 -10    0.88    0.17
  -1   4 -10    0.89    0.15
  -2  -4 -10   21.37    0.81
   2  -4  10   23.26    0.80
  -2  -4 -10   22.09    0.76
  -2   4 -10   22.23    0.85
  -2   4 -10   22.40    0.75
  -2   4 -10   22.81    0.85
  -3  -4 -10   -0.04    0.11
  -3  -4 -10    0.09    0.15
   3  -4  10    0.24    0.17
  -3   4 -10    0.16    0.18
  -3   4 -10    0.12    0.15
  -3   4 -10    0.19    0.14
   4  -4  10   27.88    1.00
  -4  -4 -10   27.99    0.97
  -4   4 -10   27.64    0.96
  -4   4 -10   28.44    1.07
  -5  -4 -10    3.83    0.33
   5  -4  10    3.26    0.32
  -5   4 -10    3.34    0.35
  -5   4 -10    5.05    0.36
   6  -4  10   16.73    0.73
  -6  -4 -10   15.69    0.70
  -6  -4 -10   16.32    0.69
  -6   4 -10   16.52    0.70
  -6   4 -10   16.21    0.79
   7  -4  10    1.80    0.34
  -7  -4 -10    2.59    0.36
  -7  -4 -10    1.72    0.33
  -7   4 -10    2.29    0.37
  -7   4 -10    1.67    0.34
  -8  -4 -10    1.53    0.36
   8  -4  10    1.88    0.36
  -8  -4 -10    2.21    0.38
  -8   4 -10    2.55    0.42
  -8   4 -10    1.63    0.39
   9  -4  10    0.07    0.33
  -9  -4 -10    0.21    0.35
  -9  -4 -10    0.13    0.35
  -9   4 -10   -0.02    0.38
  -9   4 -10    0.86    0.41
 -10  -4 -10   -0.04    0.39
  10  -4  10   -0.09    0.35
 -10   4 -10    0.10    0.42
 -10   4 -10    0.30    0.42
  10  -5 -10    0.75    0.46
 -10   5  10    1.27    0.40
   9  -5 -10    0.05    0.39
  -9   5  10    0.09    0.34
  -9   5  10   -0.02    0.29
   8  -5 -10    2.11    0.42
  -8  -5  10    1.11    0.31
  -8   5  10    1.54    0.32
  -8   5  10    2.14    0.37
  -7  -5  10    3.43    0.35
   7  -5 -10    3.41    0.42
  -7   5  10    3.39    0.38
   7   5 -10    3.32    0.28
  -7   5  10    2.56    0.34
  -6  -5  10    6.40    0.42
   6  -5 -10    7.32    0.51
  -6   5  10    7.47    0.47
  -6   5  10    6.49    0.45
   6   5 -10    6.85    0.39
  -5  -5  10    9.39    0.56
  -5  -5  10    7.81    0.44
   5  -5 -10    9.16    0.53
   5   5 -10    9.12    0.45
  -5   5  10    9.24    0.48
  -5   5  10    9.44    0.49
  -4  -5  10    0.34    0.22
   4  -5 -10    0.32    0.21
  -4  -5  10    0.21    0.17
  -4   5  10    0.31    0.19
   4   5 -10    0.21    0.16
  -4   5  10    0.45    0.18
  -3  -5  10    5.12    0.32
  -3  -5  10    4.60    0.34
   3  -5 -10    5.90    0.39
  -3   5  10    4.46    0.33
   3   5 -10    5.24    0.32
  -3   5  10    5.10    0.32
  -2  -5  10    0.64    0.20
  -2  -5  10    0.87    0.17
   2  -5 -10    0.58    0.19
   2   5 -10    0.42    0.15
  -2   5  10    0.71    0.16
   2   5 -10    0.88    0.17
  -1  -5  10   26.58    0.94
   1  -5 -10   27.91    0.99
  -1  -5  10   27.52    0.96
   1   5 -10   29.09    1.00
  -1   5  10   28.01    0.96
   0  -5 -10   11.48    0.42
   0  -5  10   11.09    0.48
   0  -5 -10   11.10    0.51
   0  -5  10   11.30    0.47
   0   5 -10   10.21    0.46
   0   5 -10   10.72    0.49
   0   5 -10   10.99    0.51
   0   5 -10   11.03    0.41
  -1  -5 -10   13.41    0.60
   1  -5  10   15.08    0.55
  -1  -5 -10   15.15    0.54
   1  -5  10   13.62    0.57
  -1   5 -10   13.80    0.59
  -1   5 -10   14.39    0.52
  -1   5 -10   15.38    0.62
  -2  -5 -10   12.22    0.56
  -2  -5 -10   13.30    0.50
   2  -5  10   12.66    0.54
  -2   5 -10   12.39    0.55
  -2   5 -10   12.53    0.57
  -2   5 -10   12.86    0.50
  -3  -5 -10    0.80    0.19
   3  -5  10    0.70    0.20
  -3   5 -10    0.51    0.18
  -3   5 -10    0.42    0.20
  -3   5 -10    0.58    0.18
   4  -5  10    0.16    0.20
  -4  -5 -10    0.13    0.20
  -4  -5 -10    0.15    0.18
  -4   5 -10    0.27    0.22
  -4   5 -10    0.39    0.20
  -5  -5 -10    2.65    0.31
   5  -5  10    2.77    0.32
  -5   5 -10    1.86    0.28
  -5   5 -10    2.18    0.33
  -6  -5 -10    0.77    0.28
   6  -5  10    1.00    0.29
  -6   5 -10    0.67    0.27
  -6   5 -10    0.64    0.29
  -7  -5 -10    0.98    0.33
   7  -5  10    0.34    0.28
  -7   5 -10    0.88    0.35
  -7   5 -10    0.93    0.31
  -8  -5 -10    0.09    0.33
   8  -5  10    0.60    0.33
  -8   5 -10    0.31    0.36
  -8   5 -10    0.01    0.37
  -9  -5 -10   -0.15    0.36
   9  -5  10   -0.42    0.31
  -9   5 -10   -0.11    0.39
  -9   5 -10   -0.55    0.39
   9  -6 -10   -0.08    0.39
  -9   6  10    0.14    0.36
  -9   6  10   -0.31    0.33
  -8  -6  10    2.37    0.38
   8  -6 -10    3.40    0.46
  -8   6  10    2.50    0.42
  -8   6  10    2.95    0.40
  -7  -6  10    0.55    0.27
   7  -6 -10   -0.09    0.33
  -7   6  10   -0.24    0.26
  -7   6  10    0.29    0.27
   7   6 -10    0.23    0.19
  -6  -6  10   15.43    0.73
   6  -6 -10   17.97    0.80
  -6  -6  10   17.10    0.82
  -6   6  10   16.35    0.74
   6   6 -10   16.99    0.73
  -6   6  10   16.89    0.76
  -5  -6  10    0.35    0.28
  -5  -6  10    0.70    0.25
   5  -6 -10    0.37    0.29
  -5   6  10    1.13    0.26
   5   6 -10    0.59    0.20
  -5   6  10    0.73    0.27
  -4  -6  10    1.46    0.30
   4  -6 -10    1.09    0.29
  -4  -6  10    1.39    0.25
  -4   6  10    0.92    0.24
  -4   6  10    1.16    0.24
   4   6 -10    1.23    0.22
  -3  -6  10    0.56    0.23
   3  -6 -10    0.80    0.26
  -3   6  10    0.65    0.21
  -3   6  10    0.76    0.21
   3   6 -10    0.89    0.20
  -2  -6  10   18.90    0.77
  -2  -6  10   18.62    0.74
   2  -6 -10   18.16    0.77
   2   6 -10   19.95    0.79
  -2   6  10   19.12    0.74
  -1  -6  10    6.12    0.38
  -1  -6  10    6.21    0.38
   1  -6 -10    6.00    0.42
   1   6 -10    5.60    0.38
   1   6 -10    5.65    0.35
   0  -6 -10   27.27    0.90
   0  -6  10   28.30    0.97
   0  -6  10   26.99    0.96
   0  -6 -10   28.48    1.01
   0   6 -10   26.74    1.00
   0   6 -10   26.67    1.00
  -1  -6 -10    1.12    0.24
   1  -6  10    1.03    0.21
  -1  -6 -10    0.93    0.18
   1  -6  10    1.04    0.23
  -1   6 -10    0.86    0.21
  -1   6 -10    0.99    0.19
  -1   6 -10    1.32    0.18
  -2  -6 -10   -0.07    0.22
   2  -6  10   -0.06    0.19
  -2  -6 -10   -0.03    0.17
  -2   6 -10    0.07    0.16
  -2   6 -10    0.17    0.17
  -2   6 -10    0.21    0.21
  -3  -6 -10    2.62    0.32
  -3  -6 -10    2.49    0.26
   3  -6  10    2.72    0.29
  -3   6 -10    2.97    0.33
  -3   6 -10    2.07    0.26
   4  -6  10    0.95    0.25
  -4  -6 -10    0.66    0.22
  -4  -6 -10    0.43    0.27
  -4   6 -10    0.80    0.24
  -4   6 -10    0.75    0.26
  -5  -6 -10    0.84    0.27
   5  -6  10    0.76    0.25
  -5   6 -10    0.40    0.26
  -5   6 -10    1.20    0.30
   6  -6  10    0.58    0.27
  -6  -6 -10   -0.18    0.27
  -6   6 -10   -0.29    0.28
  -6   6 -10   -0.22    0.28
  -7  -6 -10    1.61    0.34
   7  -6  10    1.81    0.35
  -7   6 -10    1.17    0.38
  -7   6 -10    1.06    0.34
   8  -6  10    0.58    0.34
  -8  -6 -10    1.22    0.38
  -8   6 -10    2.46    0.45
  -8   6 -10    1.96    0.43
  -9  -6 -10    0.07    0.39
  -9   6 -10    0.30    0.42
  -9   6 -10   -0.38    0.42
   9  -7 -10   -0.19    0.44
  -9  -7  10   -0.02    0.34
  -9   7  10    0.42    0.41
  -9   7  10   -0.13    0.36
  -8  -7  10    0.05    0.31
   8  -7 -10   -0.49    0.38
  -8   7  10   -0.09    0.36
  -8   7  10   -0.23    0.32
  -7  -7  10    0.29    0.30
   7  -7 -10    0.38    0.35
  -7   7  10    0.07    0.33
  -7   7  10   -0.10    0.28
  -6  -7  10   -0.11    0.36
   6  -7 -10    0.72    0.36
  -6  -7  10    0.40    0.29
  -6   7  10    0.13    0.30
  -6   7  10    0.09    0.28
   6   7 -10    0.17    0.20
   5  -7 -10    3.32    0.42
  -5  -7  10    3.58    0.45
  -5  -7  10    3.50    0.39
  -5   7  10    3.21    0.39
   5   7 -10    3.38    0.34
  -5   7  10    2.99    0.35
   4  -7 -10    0.22    0.29
  -4  -7  10   -0.06    0.24
  -4  -7  10    0.00    0.29
  -4   7  10    0.18    0.23
   4   7 -10    0.14    0.21
  -4   7  10    0.27    0.26
  -3  -7  10   -0.11    0.26
   3  -7 -10   -0.09    0.26
  -3  -7  10    0.00    0.21
   3   7 -10    0.44    0.22
  -3   7  10    0.41    0.24
  -2  -7  10   18.20    0.75
  -2  -7  10   18.94    0.79
   2  -7 -10   19.22    0.81
   2   7 -10   18.28    0.80
  -1  -7  10    3.69    0.35
   1  -7 -10    4.05    0.40
  -1  -7  10    4.25    0.35
   0  -7  10    4.93    0.37
   0  -7 -10    4.54    0.31
   0  -7 -10    5.85    0.43
   0  -7  10    4.11    0.35
  -1  -7 -10   12.04    0.52
   1  -7  10   13.23    0.57
  -1  -7 -10   11.56    0.61
   1  -7  10   11.70    0.57
  -1   7 -10   11.18    0.58
  -2  -7 -10    2.06    0.25
   2  -7  10    2.43    0.31
  -2  -7 -10    1.80    0.32
  -2   7 -10    1.78    0.25
  -2   7 -10    1.96    0.30
  -3  -7 -10   -0.19    0.26
   3  -7  10    0.28    0.23
  -3  -7 -10    0.19    0.20
  -3   7 -10   -0.13    0.24
  -3   7 -10    0.08    0.21
   4  -7  10   -0.02    0.25
  -4  -7 -10    0.32    0.25
  -4  -7 -10    0.65    0.32
  -4   7 -10    0.44    0.23
  -4   7 -10    0.17    0.28
  -5  -7 -10    1.15    0.29
   5  -7  10    1.13    0.30
   5   7  10    1.11    0.26
  -5   7 -10    0.93    0.31
  -5   7 -10    1.37    0.32
   6  -7  10    0.20    0.29
  -6  -7 -10   -0.10    0.30
  -6   7 -10    0.98    0.36
  -6   7 -10   -0.16    0.28
   7  -7  10    0.57    0.34
  -7  -7 -10    0.97    0.37
  -7   7 -10    0.58    0.38
  -7   7 -10    0.45    0.36
  -8  -7 -10    0.34    0.34
   8  -7  10    1.00    0.37
  -8   7 -10    0.50    0.41
  -8   7 -10    0.58    0.43
  -8  -8  10    0.23    0.35
   8  -8 -10    0.37    0.43
  -8   8  10    0.30    0.36
  -8   8  10    0.02    0.40
  -7  -8  10    0.78    0.36
   7  -8 -10    0.74    0.41
  -7   8  10    0.06    0.37
  -7   8  10    0.30    0.32
   6  -8 -10    1.24    0.40
  -6  -8  10    0.30    0.32
  -6  -8  10    0.46    0.39
  -6   8  10    0.32    0.32
  -6   8  10    0.21    0.34
  -5  -8  10   -0.14    0.30
  -5  -8  10   -0.07    0.35
   5  -8 -10   -0.08    0.34
  -5   8  10   -0.27    0.27
   5   8 -10   -0.07    0.24
  -5   8  10    0.16    0.32
  -4  -8  10    1.29    0.37
   4  -8 -10    2.08    0.37
  -4  -8  10    2.33    0.37
   4   8 -10    2.31    0.31
  -4   8  10    1.96    0.34
   3  -8 -10    3.56    0.41
  -3  -8  10    2.77    0.40
  -3  -8  10    4.03    0.39
  -3   8  10    2.65    0.37
   3   8 -10    3.03    0.35
   2  -8 -10    1.28    0.33
  -2  -8  10    1.27    0.32
  -2  -8  10    1.65    0.32
  -2   8  10    1.19    0.31
  -1  -8  10   -0.40    0.24
  -1  -8  10   -0.03    0.27
   1  -8 -10   -0.21    0.30
   0  -8 -10    5.56    0.50
   0  -8  10    5.83    0.44
   0  -8  10    5.43    0.43
   1  -8  10    2.40    0.32
  -1  -8 -10    1.53    0.26
  -1  -8 -10    1.52    0.36
   2  -8  10    0.21    0.26
  -2  -8 -10   -0.17    0.22
  -2  -8 -10    0.31    0.31
  -2   8 -10    0.28    0.26
  -2   8 -10    0.11    0.22
  -3  -8 -10   -0.08    0.32
   3  -8  10    0.12    0.27
  -3  -8 -10    0.12    0.25
  -3   8 -10    0.51    0.27
   3   8  10    0.30    0.25
  -3   8 -10    0.03    0.24
   4  -8  10    3.28    0.39
  -4  -8 -10    3.05    0.45
  -4  -8 -10    2.85    0.35
  -4   8 -10    3.29    0.40
   4   8  10    3.34    0.37
  -4   8 -10    3.04    0.37
  -5  -8 -10    0.65    0.32
   5  -8  10    0.35    0.30
  -5   8 -10    0.50    0.31
  -5   8 -10    0.70    0.33
  -6  -8 -10    3.33    0.44
   6  -8  10    3.62    0.43
  -6   8 -10    2.83    0.43
  -6   8 -10    3.26    0.45
   7  -8  10    0.31    0.34
  -7  -8 -10    0.03    0.36
  -7   8 -10   -0.39    0.37
  -7   8 -10    0.23    0.36
  -7  -9  10    2.51    0.47
   7  -9 -10    2.54    0.51
  -7  -9  10    1.31    0.56
  -7   9  10    0.73    0.40
  -7   9  10    0.89    0.39
  -6  -9  10    1.60    0.42
  -6  -9  10    1.48    0.50
   6  -9 -10    1.07    0.44
  -6   9  10    1.31    0.41
  -5  -9  10    3.34    0.48
  -5  -9  10    3.70    0.53
   5  -9 -10    3.53    0.50
  -5   9  10    2.43    0.44
   4  -9 -10    0.89    0.40
  -4  -9  10    1.08    0.34
  -4  -9  10    0.70    0.39
  -4   9  10    0.33    0.34
   4   9 -10    0.58    0.27
  -3  -9  10    1.15    0.35
  -3  -9  10    1.40    0.39
   3  -9 -10    1.21    0.38
  -3   9  10    0.47    0.32
  -2  -9  10    0.11    0.28
   2  -9 -10    0.26    0.37
  -2  -9  10   -0.01    0.29
  -2   9  10   -0.06    0.27
   1  -9 -10    6.76    0.58
  -1  -9  10    5.72    0.50
  -1  -9  10    5.89    0.49
   0  -9  10    1.69    0.33
   0  -9  10    1.48    0.35
   0  -9 -10    2.45    0.41
  -1  -9 -10    0.43    0.33
  -1  -9 -10    0.15    0.26
   1  -9  10    0.12    0.29
   1  -9  10    0.07    0.30
  -2  -9 -10    0.55    0.26
   2  -9  10    0.09    0.26
  -2  -9 -10   -0.07    0.36
  -3  -9 -10    0.92    0.39
  -3  -9 -10    0.53    0.27
   3  -9  10    0.69    0.31
  -3   9 -10    0.30    0.30
  -3   9 -10    0.35    0.29
  -4  -9 -10    0.87    0.31
  -4  -9 -10    1.59    0.45
   4  -9  10    1.74    0.37
  -4   9 -10    2.42    0.37
  -4   9 -10    1.53    0.38
  -5  -9 -10   -0.06    0.44
  -5  -9 -10    0.04    0.30
   5  -9  10    0.39    0.34
  -5   9 -10    0.25    0.33
  -5   9 -10    0.32    0.35
   6  -9  10   -0.54    0.32
  -6  -9 -10    0.24    0.32
  -6   9 -10    0.29    0.37
  -6   9 -10    0.29    0.38
   5 -10 -10    0.39    0.45
  -5 -10  10   -0.02    0.41
  -5 -10  10    0.03    0.39
  -5  10  10    0.68    0.41
  -4 -10  10    1.32    0.46
  -4 -10  10    1.65    0.43
   4 -10 -10    1.15    0.43
  -4  10  10    1.25    0.42
   3 -10 -10    1.69    0.47
  -3 -10  10    1.19    0.42
  -3 -10  10    0.99    0.37
  -3  10  10    1.35    0.39
   2 -10 -10   -0.06    0.42
  -2 -10  10   -0.16    0.37
  -2 -10  10    0.18    0.32
  -2  10  10    0.05    0.35
   1 -10 -10    0.37    0.43
  -1 -10  10    0.95    0.35
  -1 -10  10    0.30    0.36
  -1  10  10    0.69    0.35
   0 -10  10    1.35    0.40
   0 -10  10    0.99    0.35
   0 -10 -10    1.04    0.46
   1 -10  10   -0.03    0.33
   1 -10  10   -0.44    0.34
  -1 -10 -10   -0.12    0.37
   2 -10  10    3.22    0.44
  -2 -10 -10    3.11    0.40
  -2 -10 -10    3.89    0.55
   3 -10  10    0.12    0.31
  -3 -10 -10    0.38    0.42
  -3 -10 -10    0.33    0.31
  -4 -10 -10   -0.22    0.32
  -4 -10 -10    0.60    0.46
   4 -10  10   -0.08    0.32
   5 -10  10    0.85    0.37
  -5 -10 -10   -0.10    0.35
  -5 -10 -10    0.84    0.57
  -5  10 -10    0.22    0.36
  -5  10 -10    0.34    0.38
   3 -11 -10   -0.08    0.48
  -3 -11  10   -0.40    0.38
  -3 -11  10   -0.46    0.39
  -3  11  10    0.42    0.40
   2 -11 -10   -0.16    0.46
  -2 -11  10    0.59    0.44
  -2 -11  10    0.91    0.39
  -2  11  10    0.52    0.39
  -1 -11  10    0.72    0.42
   1 -11 -10    0.61    0.50
  -1 -11  10    0.80    0.39
  -1  11  10    0.49    0.40
   0 -11  10    0.37    0.39
   0 -11 -10   -0.62    0.46
   0 -11  10   -0.39    0.39
   0  11  10    0.09    0.37
   1 -11  10    1.52    0.39
  -1 -11 -10    2.01    0.54
  -2 -11 -10   -0.68    0.46
   2 -11  10    0.39    0.35
  11   0 -11    0.47    0.49
 -10   0  11   -0.03    0.29
  10   0 -11   -0.71    0.39
   9   0 -11   -0.08    0.38
  -9   0  11    0.15    0.25
  -8   0  11   -0.18    0.19
   8   0 -11   -0.18    0.31
  -7   0  11   11.01    0.55
   7   0 -11   11.38    0.63
   6   0 -11   -0.06    0.23
   6   0 -11    0.08    0.10
  -6   0  11    0.12    0.15
   5   0 -11   20.19    0.82
   5   0 -11   21.62    0.79
  -5   0  11   21.81    0.80
   4   0 -11    0.04    0.10
  -4   0  11    0.12    0.12
  -4   0  11    0.09    0.07
   3   0 -11    0.83    0.13
   2   0 -11   -0.01    0.08
   0   0 -11    0.06    0.09
   0   0 -11    0.11    0.11
  -1   0 -11  116.01    3.84
  -1   0 -11  116.80    3.41
  -1   0 -11  113.92    3.72
   1   0  11  118.73    3.84
  -2   0 -11   -0.04    0.09
  -2   0 -11    0.37    0.12
  -2   0 -11   -0.14    0.08
  -3   0 -11   21.82    0.76
  -3   0 -11   21.36    0.75
  -3   0 -11   22.44    0.81
  -4   0 -11    0.12    0.16
  -4   0 -11    0.20    0.14
  -4   0 -11    0.13    0.14
  -5   0 -11   22.53    0.83
  -5   0 -11   22.43    0.86
  -5   0 -11   22.12    0.84
  -6   0 -11    0.01    0.19
  -6   0 -11    0.35    0.23
  -6   0 -11    0.44    0.24
  -7   0 -11    7.18    0.50
  -7   0 -11    7.21    0.47
  -7   0 -11    6.79    0.51
  -8   0 -11    0.26    0.30
  -8   0 -11   -0.13    0.27
  -9   0 -11    2.06    0.41
  -9   0 -11    1.71    0.39
 -10   0 -11    0.06    0.40
  11  -1 -11   -0.18    0.47
  11   1 -11   -0.37    0.48
 -11   1  11    0.19    0.35
  10  -1 -11   -0.37    0.40
  10   1 -11    0.13    0.45
 -10   1  11    0.09    0.29
  -9  -1  11    4.61    0.38
   9  -1 -11    4.71    0.53
  -9   1  11    4.01    0.39
   9   1 -11    4.12    0.53
   8  -1 -11    4.27    0.44
  -8  -1  11    3.98    0.34
   8   1 -11    4.63    0.47
  -8   1  11    3.57    0.34
  -7  -1  11    3.93    0.30
   7  -1 -11    3.50    0.40
  -7   1  11    3.29    0.31
   7   1 -11    3.03    0.23
  -6  -1  11    4.41    0.33
   6  -1 -11    5.06    0.40
  -6   1  11    4.25    0.32
   6   1 -11    4.32    0.28
   5  -1 -11    5.49    0.39
  -5   1  11    5.45    0.32
  -5   1  11    5.08    0.29
  -5   1  11    4.84    0.27
   5   1 -11    5.25    0.30
   4  -1 -11    0.85    0.19
  -4  -1  11    0.62    0.07
   4   1 -11    0.52    0.12
  -4   1  11    0.43    0.11
  -4   1  11    0.35    0.13
   3  -1 -11    0.53    0.15
   3  -1 -11    0.47    0.11
   3   1 -11    0.56    0.12
  -3   1  11    0.55    0.12
   2  -1 -11   66.35    2.23
   2   1 -11   66.00    2.23
  -1  -1  11   20.33    0.69
   1   1 -11   19.92    0.75
   0  -1  11   20.52    0.73
   0  -1 -11   20.31    0.76
   0  -1 -11   19.59    0.74
   0   1 -11   20.59    0.76
   1  -1  11    7.18    0.30
  -1  -1 -11    5.85    0.28
  -1  -1 -11    5.76    0.30
  -1  -1 -11    4.81    0.30
  -1   1 -11    5.68    0.31
  -1   1 -11    6.12    0.32
  -2  -1 -11    0.43    0.11
  -2  -1 -11    0.28    0.12
  -2   1 -11    0.45    0.12
  -2   1 -11    0.35    0.13
  -2   1 -11    0.48    0.12
  -3  -1 -11    1.80    0.21
  -3  -1 -11    1.99    0.19
  -3  -1 -11    2.11    0.18
  -3   1 -11    1.83    0.20
  -3   1 -11    1.77    0.19
  -3   1 -11    1.85    0.20
  -4  -1 -11   24.31    0.86
  -4  -1 -11   23.23    0.83
  -4  -1 -11   23.02    0.85
  -4   1 -11   24.09    0.94
  -4   1 -11   24.60    0.85
  -4   1 -11   24.44    0.91
  -5  -1 -11    3.48    0.27
  -5  -1 -11    4.10    0.34
  -5  -1 -11    3.44    0.30
  -5   1 -11    3.49    0.30
  -5   1 -11    3.05    0.29
  -6  -1 -11    1.50    0.27
  -6  -1 -11    1.88    0.29
  -6   1 -11    2.05    0.30
  -6   1 -11    2.01    0.28
  -7  -1 -11   10.70    0.56
  -7  -1 -11   10.67    0.58
  -7   1 -11   10.80    0.58
  -7   1 -11   10.54    0.61
  -8  -1 -11    0.78    0.32
  -8  -1 -11    0.24    0.30
  -8   1 -11    0.52    0.29
  -8   1 -11    0.71    0.33
  -9  -1 -11    0.15    0.34
  -9  -1 -11    0.28    0.32
  -9   1 -11    0.07    0.32
 -10  -1 -11    0.57    0.39
 -10  -1 -11    0.15    0.40
 -10   1 -11    0.02    0.37
  11  -2 -11    0.17    0.50
 -11   2  11    0.47    0.33
  11   2 -11    0.66    0.51
  10  -2 -11   -0.01    0.41
  10   2 -11    0.40    0.46
 -10   2  11    0.43    0.29
   9  -2 -11    0.87    0.39
  -9   2  11    1.24    0.29
   8  -2 -11    2.26    0.39
  -8   2  11    1.76    0.29
   8   2 -11    1.56    0.19
   7  -2 -11    1.51    0.35
   7   2 -11    2.36    0.23
  -7   2  11    2.03    0.27
   6  -2 -11   11.03    0.59
  -6   2  11   11.96    0.55
  -6   2  11   11.32    0.54
   6   2 -11   11.46    0.50
  -5  -2  11    9.23    0.37
   5  -2 -11    8.51    0.48
  -5   2  11    7.11    0.37
   5   2 -11    9.84    0.42
  -5   2  11    8.98    0.43
  -5   2  11    9.40    0.43
   4  -2 -11   17.37    0.69
  -4   2  11   17.47    0.67
   4   2 -11   17.27    0.66
  -4   2  11   16.77    0.60
   3  -2 -11    0.35    0.15
  -3   2  11    0.33    0.12
   3   2 -11    0.37    0.11
   2  -2 -11   12.52    0.51
  -2   2  11   13.02    0.50
   2   2 -11   13.65    0.53
   2   2 -11   13.18    0.55
   1   2 -11   12.14    0.52
   0  -2  11    1.97    0.15
   0  -2 -11    2.78    0.19
   0   2 -11    2.26    0.19
   0   2 -11    1.79    0.19
   0   2 -11    2.19    0.15
  -1  -2 -11    3.28    0.22
   1  -2  11    2.58    0.19
  -1   2 -11    3.04    0.23
  -1   2 -11    2.74    0.19
  -1   2 -11    2.83    0.21
  -1   2 -11    2.88    0.18
  -2  -2 -11   51.17    1.58
  -2  -2 -11   50.49    1.60
  -2  -2 -11   50.56    1.69
   2  -2  11   51.62    1.61
  -2   2 -11   51.70    1.77
  -2   2 -11   52.20    1.57
  -2   2 -11   51.74    1.77
  -2   2 -11   53.60    1.74
  -3  -2 -11   49.34    1.55
  -3  -2 -11   48.80    1.61
  -3  -2 -11   49.64    1.53
   3  -2  11   49.42    1.56
  -3   2 -11   50.55    1.67
  -3   2 -11   47.67    1.51
  -3   2 -11   47.37    1.71
  -4  -2 -11    1.01    0.19
  -4  -2 -11    0.90    0.20
   4  -2  11    0.91    0.19
  -4   2 -11    1.13    0.20
  -4   2 -11    0.65    0.17
  -4   2 -11    1.23    0.21
  -5  -2 -11   11.50    0.57
  -5  -2 -11   11.70    0.54
   5  -2  11   12.43    0.56
  -5   2 -11   12.77    0.55
  -5   2 -11   12.08    0.60
  -6  -2 -11    4.77    0.40
   6  -2  11    4.62    0.38
  -6  -2 -11    4.55    0.36
  -6   2 -11    4.50    0.37
  -6   2 -11    3.86    0.37
  -7  -2 -11    1.30    0.32
  -7  -2 -11    1.62    0.31
   7  -2  11    2.13    0.33
  -7   2 -11    1.32    0.31
  -7   2 -11    1.63    0.33
   8  -2  11    0.85    0.29
  -8  -2 -11    0.24    0.29
  -8  -2 -11    0.59    0.33
  -8   2 -11    0.01    0.32
  -8   2 -11    0.53    0.31
  -9  -2 -11    0.07    0.33
   9  -2  11    0.21    0.33
  -9  -2 -11   -0.03    0.35
  -9   2 -11   -0.07    0.35
  -9   2 -11   -0.13    0.32
  10  -2  11    0.18    0.36
 -10  -2 -11    0.34    0.39
 -10  -2 -11    0.26    0.39
 -10   2 -11    0.27    0.41
 -11   3  11    0.58    0.34
  11   3 -11    0.36    0.53
  10  -3 -11    1.55    0.49
 -10   3  11    1.35    0.34
   9  -3 -11    3.67    0.48
   9   3 -11    1.98    0.20
  -9   3  11    2.25    0.35
   8  -3 -11   -0.16    0.32
  -8   3  11   -0.10    0.26
   8   3 -11    0.23    0.16
   7  -3 -11    0.06    0.29
  -7   3  11    0.47    0.23
  -7   3  11   -0.08    0.21
   7   3 -11    0.01    0.14
   6  -3 -11   55.99    1.88
  -6  -3  11   54.54    1.75
   6   3 -11   56.38    1.91
  -6   3  11   56.07    1.98
  -6   3  11   56.53    1.77
  -6   3  11   55.03    1.90
   5  -3 -11    9.77    0.52
  -5  -3  11   10.46    0.43
  -5   3  11    9.83    0.48
  -5   3  11   10.15    0.46
   5   3 -11    9.87    0.45
   4  -3 -11    0.02    0.18
  -4  -3  11    0.05    0.12
   4   3 -11    0.07    0.15
  -4   3  11    0.05    0.12
   4   3 -11    0.12    0.12
  -4   3  11    0.14    0.14
   3  -3 -11    0.14    0.14
  -3  -3  11    0.21    0.12
   3   3 -11    0.21    0.15
   3   3 -11    0.10    0.11
  -3   3  11    0.23    0.12
   2  -3 -11   76.47    2.38
  -2  -3  11   76.28    2.37
  -2  -3  11   78.66    2.27
  -2   3  11   74.72    2.44
   2   3 -11   74.66    2.44
   2   3 -11   72.47    2.48
   2   3 -11   76.33    2.54
  -1  -3  11    0.11    0.11
  -1  -3  11    0.05    0.11
   1  -3 -11    0.09    0.13
   1   3 -11    0.19    0.07
   1   3 -11    0.03    0.04
   1   3 -11    0.16    0.14
   0  -3 -11  126.48    3.92
   0  -3  11  128.51    3.78
   0   3 -11  128.87    4.10
   0   3 -11  127.38    4.17
   0   3 -11  128.91    4.22
  -1  -3 -11    2.36    0.19
   1  -3  11    1.91    0.19
  -1   3 -11    1.98    0.20
  -1   3 -11    1.64    0.18
  -1   3 -11    1.75    0.16
  -1   3 -11    1.93    0.16
  -2  -3 -11   38.49    1.21
   2  -3  11   35.33    1.24
  -2   3 -11   38.54    1.33
  -2   3 -11   38.94    1.36
  -2   3 -11   40.41    1.20
   3  -3  11    0.50    0.17
  -3  -3 -11    0.77    0.16
  -3  -3 -11    0.92    0.20
  -3   3 -11    0.53    0.15
  -3   3 -11    0.40    0.14
  -3   3 -11    0.81    0.19
  -4  -3 -11   23.20    0.83
   4  -3  11   23.35    0.87
  -4  -3 -11   23.78    0.87
  -4   3 -11   24.73    0.94
  -4   3 -11   22.78    0.83
  -4   3 -11   23.40    0.92
  -5  -3 -11    1.87    0.27
  -5  -3 -11    1.54    0.25
   5  -3  11    1.48    0.24
  -5   3 -11    1.77    0.25
  -5   3 -11    2.07    0.28
  -6  -3 -11    2.83    0.33
  -6  -3 -11    2.95    0.33
   6  -3  11    3.41    0.36
  -6   3 -11    4.06    0.39
  -6   3 -11    3.76    0.37
   7  -3  11    1.70    0.32
  -7  -3 -11    1.94    0.34
  -7  -3 -11    1.34    0.32
  -7   3 -11    1.58    0.31
  -7   3 -11    1.84    0.35
   8  -3  11    0.54    0.31
  -8  -3 -11    0.16    0.31
  -8  -3 -11    0.99    0.32
  -8   3 -11    0.72    0.35
  -8   3 -11    1.24    0.36
  -9  -3 -11    1.02    0.37
  -9  -3 -11    0.63    0.37
   9  -3  11    1.63    0.38
  -9   3 -11    1.43    0.42
  -9   3 -11    1.13    0.37
  10  -3  11    1.18    0.40
 -10  -3 -11    0.42    0.39
 -10  -3 -11    0.85    0.41
 -10   3 -11   -0.06    0.39
 -10   3 -11    0.82    0.43
  10  -4 -11    0.45    0.44
 -10   4  11    0.46    0.35
   9  -4 -11    3.03    0.47
  -9   4  11    1.66    0.35
   8  -4 -11    0.56    0.33
  -8   4  11    0.38    0.28
  -8   4  11    0.26    0.28
   8   4 -11    0.64    0.19
   7  -4 -11    1.49    0.33
   7   4 -11    1.77    0.22
  -7   4  11    1.48    0.30
  -7   4  11    1.72    0.28
   6  -4 -11    3.89    0.39
  -6  -4  11    4.53    0.33
  -6   4  11    3.81    0.34
  -6   4  11    3.41    0.32
   6   4 -11    3.39    0.27
   5  -4 -11   -0.13    0.23
  -5  -4  11    0.11    0.16
  -5   4  11   -0.03    0.17
  -5   4  11   -0.01    0.17
   5   4 -11   -0.10    0.13
   4  -4 -11    3.42    0.31
  -4  -4  11    2.98    0.31
  -4  -4  11    3.44    0.27
   4   4 -11    2.85    0.24
  -4   4  11    2.87    0.26
  -4   4  11    2.79    0.27
   4   4 -11    3.30    0.28
   3  -4 -11   37.49    1.30
  -3  -4  11   39.02    1.24
  -3  -4  11   38.05    1.31
  -3   4  11   38.82    1.32
   3   4 -11   38.02    1.34
   3   4 -11   39.56    1.37
  -2  -4  11   -0.11    0.12
  -2  -4  11    0.25    0.16
   2  -4 -11   -0.06    0.16
  -2   4  11    0.10    0.13
   2   4 -11    0.05    0.12
   2   4 -11   -0.26    0.13
  -1  -4  11   43.82    1.33
  -1  -4  11   41.73    1.36
   1  -4 -11   42.27    1.38
   1   4 -11   40.66    1.42
  -1   4  11   40.80    1.38
   1   4 -11   41.08    1.40
   0  -4  11    3.62    0.26
   0  -4  11    3.38    0.24
   0  -4 -11    3.11    0.25
   0   4 -11    2.88    0.18
   0   4 -11    2.96    0.25
   0   4 -11    3.52    0.22
   0   4 -11    3.28    0.25
  -1  -4 -11    3.87    0.27
  -1  -4 -11    3.68    0.22
   1  -4  11    4.23    0.28
  -1   4 -11    3.54    0.23
  -1   4 -11    3.55    0.22
  -1   4 -11    3.45    0.28
   2  -4  11    7.33    0.39
  -2  -4 -11    6.19    0.38
  -2  -4 -11    7.99    0.36
  -2   4 -11    7.67    0.35
  -2   4 -11    7.46    0.43
  -2   4 -11    7.92    0.39
  -3  -4 -11    4.96    0.35
   3  -4  11    6.00    0.35
  -3  -4 -11    5.92    0.33
  -3   4 -11    5.27    0.34
  -3   4 -11    6.18    0.41
  -3   4 -11    5.05    0.30
  -4  -4 -11    0.90    0.20
   4  -4  11    1.12    0.22
  -4   4 -11    1.19    0.22
  -4   4 -11    1.07    0.24
  -5  -4 -11    0.04    0.20
   5  -4  11   -0.05    0.19
  -5   4 -11    0.37    0.23
  -5   4 -11    0.49    0.23
   6  -4  11    2.38    0.33
  -6  -4 -11    2.31    0.32
  -6  -4 -11    2.88    0.35
  -6   4 -11    1.98    0.34
  -6   4 -11    2.48    0.32
  -7  -4 -11    0.40    0.30
  -7  -4 -11    0.29    0.28
   7  -4  11   -0.09    0.24
  -7   4 -11    0.06    0.31
  -7   4 -11   -0.10    0.27
   8  -4  11   -0.11    0.27
  -8  -4 -11    0.12    0.32
  -8  -4 -11    0.16    0.29
  -8   4 -11    0.09    0.33
  -8   4 -11    0.26    0.35
  -9  -4 -11    0.11    0.35
   9  -4  11   -0.14    0.33
  -9  -4 -11   -0.04    0.35
  -9   4 -11   -0.19    0.38
  -9   4 -11    0.50    0.37
  10  -5 -11   -0.20    0.43
 -10   5  11    0.39    0.34
   9  -5 -11    0.15    0.40
  -9   5  11    0.40    0.33
  -9   5  11   -0.05    0.33
   8  -5 -11    0.35    0.37
  -8   5  11    0.85    0.33
  -8   5  11    0.54    0.29
  -7  -5  11   -0.03    0.22
   7  -5 -11    0.42    0.33
  -7   5  11    0.32    0.27
   7   5 -11    0.33    0.18
  -7   5  11    0.01    0.26
  -6  -5  11    6.85    0.43
   6  -5 -11    7.21    0.52
  -6   5  11    6.26    0.45
  -6   5  11    6.83    0.45
   6   5 -11    7.13    0.39
   5  -5 -11    7.11    0.49
  -5  -5  11    7.29    0.47
  -5  -5  11    7.37    0.42
  -5   5  11    7.06    0.42
  -5   5  11    7.07    0.44
   5   5 -11    7.01    0.40
   4  -5 -11    1.40    0.26
  -4  -5  11    0.74    0.25
  -4  -5  11    0.68    0.20
  -4   5  11    0.64    0.19
   4   5 -11    0.55    0.17
  -4   5  11    0.93    0.22
   3  -5 -11   20.37    0.80
  -3  -5  11   21.17    0.81
  -3  -5  11   21.04    0.77
  -3   5  11   20.02    0.78
   3   5 -11   21.57    0.83
  -2  -5  11   13.88    0.58
   2  -5 -11   14.94    0.63
  -2  -5  11   14.47    0.60
  -2   5  11   14.01    0.58
   2   5 -11   13.98    0.59
   2   5 -11   15.07    0.62
   1  -5 -11    3.87    0.30
  -1  -5  11    3.27    0.27
  -1  -5  11    3.18    0.27
   1   5 -11    4.28    0.30
  -1   5  11    3.21    0.24
   1   5 -11    3.62    0.29
   0  -5  11   15.13    0.59
   0  -5  11   14.87    0.61
   0  -5 -11   15.91    0.54
   0  -5 -11   15.10    0.63
   0   5 -11   14.58    0.63
   0   5 -11   14.59    0.59
   0   5 -11   15.44    0.64
   1  -5  11    6.79    0.34
   1  -5  11    6.39    0.38
  -1  -5 -11    7.12    0.40
  -1  -5 -11    7.04    0.34
  -1   5 -11    6.28    0.32
  -1   5 -11    6.75    0.36
  -1   5 -11    6.51    0.38
  -2  -5 -11    0.65    0.21
   2  -5  11    0.44    0.18
  -2  -5 -11    0.61    0.17
  -2   5 -11    0.63    0.19
  -2   5 -11    0.43    0.16
  -2   5 -11    0.23    0.15
  -3  -5 -11    8.41    0.43
  -3  -5 -11    8.67    0.47
   3  -5  11    9.60    0.48
  -3   5 -11    9.26    0.43
  -3   5 -11    8.66    0.52
   4  -5  11    3.50    0.33
  -4  -5 -11    3.89    0.33
  -4   5 -11    4.29    0.33
  -4   5 -11    3.97    0.36
  -5  -5 -11    0.01    0.22
   5  -5  11   -0.14    0.20
  -5   5 -11    0.37    0.28
  -5   5 -11    0.11    0.23
  -6  -5 -11    0.85    0.28
   6  -5  11    0.87    0.28
  -6   5 -11    0.22    0.31
  -6   5 -11    0.87    0.28
   7  -5  11    0.18    0.28
  -7  -5 -11    0.08    0.30
  -7   5 -11    0.24    0.32
  -7   5 -11   -0.10    0.31
  -8  -5 -11    0.67    0.35
   8  -5  11    0.39    0.33
  -8   5 -11    0.48    0.39
  -8   5 -11    0.53    0.37
  -9  -5 -11    0.00    0.37
   9  -5  11   -0.15    0.33
  -9   5 -11    0.01    0.40
  -9   5 -11    0.55    0.43
   9  -6 -11   -0.15    0.40
  -9   6  11    0.16    0.36
  -9   6  11    0.11    0.34
  -8  -6  11    0.21    0.29
   8  -6 -11    0.47    0.36
  -8   6  11    0.04    0.32
  -8   6  11    0.28    0.29
  -7  -6  11    4.62    0.43
   7  -6 -11    4.34    0.45
  -7   6  11    4.28    0.44
   7   6 -11    4.05    0.34
  -7   6  11    4.55    0.43
  -6  -6  11    0.13    0.24
   6  -6 -11    0.72    0.34
  -6   6  11    0.27    0.24
   6   6 -11    0.26    0.19
  -6   6  11    0.27    0.27
  -5  -6  11   11.86    0.66
  -5  -6  11   10.97    0.56
   5  -6 -11   12.57    0.65
   5   6 -11   11.80    0.57
  -5   6  11   12.05    0.60
  -5   6  11   11.16    0.59
   4  -6 -11    0.42    0.28
  -4  -6  11    0.30    0.27
  -4  -6  11    0.62    0.22
   4   6 -11    0.98    0.22
  -4   6  11    0.73    0.22
  -4   6  11    0.08    0.21
   3  -6 -11    2.15    0.30
  -3  -6  11    2.01    0.30
  -3  -6  11    1.51    0.25
   3   6 -11    2.04    0.25
  -3   6  11    2.12    0.29
  -3   6  11    2.01    0.25
   2  -6 -11    0.70    0.23
  -2  -6  11    0.65    0.23
  -2  -6  11    0.96    0.22
  -2   6  11    0.81    0.19
   2   6 -11    0.90    0.20
   1  -6 -11   39.73    1.37
  -1  -6  11   39.75    1.33
  -1  -6  11   38.56    1.35
   1   6 -11   39.39    1.38
   1   6 -11   41.70    1.46
   0  -6  11    0.20    0.19
   0  -6 -11    0.31    0.22
   0  -6 -11   -0.10    0.15
   0  -6  11    0.26    0.19
   0   6 -11    0.17    0.18
  -1  -6 -11    0.20    0.23
  -1  -6 -11    0.54    0.17
   1  -6  11    0.82    0.21
   1  -6  11    0.40    0.21
  -1   6 -11    0.45    0.16
  -1   6 -11    0.53    0.17
  -1   6 -11    0.73    0.21
   2  -6  11   -0.07    0.18
  -2  -6 -11   -0.18    0.17
  -2  -6 -11    0.06    0.22
  -2   6 -11    0.01    0.21
  -2   6 -11    0.13    0.16
  -2   6 -11   -0.03    0.16
   3  -6  11   24.05    0.90
  -3  -6 -11   23.92    0.87
  -3  -6 -11   23.74    0.94
  -3   6 -11   24.75    0.86
  -3   6 -11   22.63    0.97
  -4  -6 -11    1.54    0.26
  -4  -6 -11    1.31    0.30
   4  -6  11    1.95    0.29
  -4   6 -11    1.27    0.26
  -4   6 -11    1.56    0.30
  -5  -6 -11   19.18    0.80
   5  -6  11   19.17    0.82
  -5   6 -11   20.72    0.92
  -5   6 -11   19.77    0.81
  -6  -6 -11   -0.09    0.25
   6  -6  11    0.25    0.28
  -6   6 -11    0.03    0.30
  -6   6 -11    0.21    0.33
  -7  -6 -11    0.39    0.31
   7  -6  11    0.07    0.30
  -7   6 -11    0.58    0.36
  -7   6 -11    1.15    0.38
   8  -6  11    0.00    0.33
  -8  -6 -11   -0.11    0.35
  -8   6 -11   -0.20    0.36
  -8   6 -11    0.67    0.40
   9  -7 -11   -0.41    0.44
  -9   7  11   -0.31    0.38
  -9   7  11    0.52    0.35
   8  -7 -11    0.49    0.43
  -8  -7  11    0.01    0.30
  -8   7  11    0.34    0.38
  -8   7  11    0.82    0.36
  -7  -7  11    3.35    0.43
   7  -7 -11    3.23    0.48
  -7   7  11    2.73    0.38
  -7   7  11    3.58    0.46
   6  -7 -11    2.05    0.42
  -6  -7  11    1.61    0.33
  -6  -7  11    1.90    0.44
  -6   7  11    2.12    0.38
  -6   7  11    2.03    0.34
   6   7 -11    1.96    0.28
  -5  -7  11    0.01    0.30
  -5  -7  11   -0.43    0.24
   5  -7 -11    0.77    0.34
  -5   7  11    0.17    0.25
   5   7 -11   -0.03    0.21
  -5   7  11   -0.05    0.28
   4  -7 -11    0.71    0.31
  -4  -7  11    0.68    0.31
  -4  -7  11    0.49    0.24
  -4   7  11    0.86    0.27
   4   7 -11    0.96    0.25
  -4   7  11    0.80    0.26
   3  -7 -11    1.67    0.33
  -3  -7  11    1.48    0.29
  -3  -7  11    1.65    0.30
  -3   7  11    1.44    0.28
   3   7 -11    1.19    0.24
  -2  -7  11   12.09    0.60
  -2  -7  11   11.37    0.58
   2  -7 -11   12.01    0.62
   2   7 -11   11.01    0.59
   1  -7 -11    1.39    0.29
  -1  -7  11    1.31    0.25
  -1  -7  11    1.37    0.26
   0  -7  11    0.91    0.23
   0  -7  11    0.57    0.24
   0  -7 -11    0.86    0.29
   0   7 -11    0.76    0.22
   1  -7  11    1.30    0.28
  -1  -7 -11    1.16    0.22
  -1  -7 -11    1.59    0.32
   1  -7  11    0.96    0.25
  -1   7 -11    1.51    0.27
  -2  -7 -11    1.29    0.28
   2  -7  11    1.16    0.25
  -2  -7 -11    1.43    0.24
  -2   7 -11    1.27    0.27
  -2   7 -11    1.16    0.23
  -3  -7 -11    0.14    0.27
   3  -7  11    0.19    0.25
  -3  -7 -11   -0.03    0.22
  -3   7 -11    0.09    0.22
  -3   7 -11    0.09    0.26
   4  -7  11    1.33    0.30
  -4  -7 -11    1.59    0.34
  -4  -7 -11    0.83    0.28
  -4   7 -11    1.76    0.33
  -4   7 -11    1.58    0.29
   5  -7  11    0.83    0.30
  -5  -7 -11   -0.24    0.26
  -5   7 -11    0.15    0.29
  -5   7 -11    0.18    0.28
  -6  -7 -11    0.56    0.32
   6  -7  11    0.51    0.32
  -6   7 -11    0.29    0.34
  -6   7 -11    0.80    0.34
   7  -7  11    2.26    0.40
  -7  -7 -11    1.62    0.40
  -7   7 -11    1.92    0.44
  -7   7 -11    1.47    0.41
   8  -7  11    1.21    0.40
  -8  -7 -11    1.27    0.42
  -8   7 -11    0.80    0.42
  -8   7 -11    1.81    0.47
  -8  -8  11    0.48    0.38
   8  -8 -11    0.40    0.45
  -8   8  11    1.15    0.41
  -8   8  11    0.83    0.38
   7  -8 -11    0.01    0.40
  -7  -8  11    0.36    0.35
  -7   8  11    0.15    0.31
  -7   8  11    0.74    0.39
   6  -8 -11    0.77    0.40
  -6  -8  11    0.61    0.33
  -6  -8  11    0.46    0.42
  -6   8  11    0.97    0.33
  -6   8  11    0.53    0.36
   5  -8 -11   -0.34    0.34
  -5  -8  11   -0.11    0.30
  -5  -8  11    0.29    0.34
   5   8 -11    0.10    0.24
  -5   8  11    0.03    0.31
  -5   8  11   -0.06    0.26
   4  -8 -11    3.84    0.43
  -4  -8  11    3.06    0.40
  -4  -8  11    3.22    0.42
   4   8 -11    3.88    0.37
  -4   8  11    3.60    0.40
  -3  -8  11    3.26    0.40
  -3  -8  11    4.20    0.41
   3  -8 -11    4.56    0.46
  -3   8  11    3.08    0.39
   3   8 -11    3.74    0.37
  -2  -8  11    6.25    0.46
  -2  -8  11    7.36    0.51
   2  -8 -11    7.56    0.53
  -1  -8  11   15.60    0.73
   1  -8 -11   16.53    0.79
  -1  -8  11   15.47    0.72
   0  -8  11   -0.05    0.26
   0  -8 -11    0.46    0.33
   0  -8  11    0.34    0.25
  -1  -8 -11    1.39    0.25
   1  -8  11    1.18    0.30
  -1  -8 -11    1.70    0.37
   1  -8  11    1.11    0.29
  -2  -8 -11    5.27    0.39
   2  -8  11    4.83    0.43
  -2  -8 -11    5.18    0.48
  -2   8 -11    4.82    0.43
  -3  -8 -11    0.05    0.33
  -3  -8 -11    0.19    0.23
   3  -8  11    0.75    0.30
   3   8  11    0.12    0.25
  -3   8 -11    0.17    0.27
  -3   8 -11    0.11    0.23
  -4  -8 -11    0.42    0.34
  -4  -8 -11    0.04    0.25
   4  -8  11    0.03    0.29
  -4   8 -11    0.32    0.31
   4   8  11    0.30    0.26
  -4   8 -11    0.15    0.27
  -5  -8 -11   -0.26    0.26
   5  -8  11    0.48    0.31
  -5   8 -11    0.56    0.34
  -5   8 -11   -0.01    0.27
  -6  -8 -11    0.73    0.36
   6  -8  11    0.72    0.34
  -6   8 -11    0.52    0.35
  -6   8 -11    0.29    0.37
  -7  -8 -11    0.14    0.37
   7  -8  11   -0.20    0.33
  -7   8 -11    0.26    0.38
  -7   8 -11    0.43    0.40
  -7  -9  11    1.02    0.43
   7  -9 -11    1.90    0.50
  -7   9  11    1.14    0.45
  -7   9  11    1.58    0.39
  -6  -9  11    1.12    0.49
  -6  -9  11    1.16    0.41
   6  -9 -11    1.53    0.46
  -6   9  11    0.70    0.38
   5  -9 -11    0.29    0.41
  -5  -9  11    0.05    0.40
  -5  -9  11    0.03    0.36
  -5   9  11    0.31    0.36
  -4  -9  11    0.02    0.36
   4  -9 -11    0.12    0.39
  -4  -9  11    0.01    0.31
  -4   9  11    0.21    0.34
  -3  -9  11    1.07    0.36
   3  -9 -11    0.67    0.37
  -3  -9  11    0.94    0.37
  -3   9  11    0.46    0.33
  -2  -9  11    2.82    0.42
   2  -9 -11    3.41    0.47
  -2  -9  11    2.61    0.39
  -2   9  11    2.81    0.39
  -1  -9  11    2.89    0.41
  -1  -9  11    2.66    0.40
   1  -9 -11    2.45    0.42
   0  -9  11    7.60    0.56
   0  -9 -11    9.00    0.61
   0  -9  11    8.58    0.60
  -1  -9 -11    0.14    0.36
   1  -9  11    0.42    0.29
   1  -9  11    0.65    0.33
   2  -9  11    1.61    0.35
  -2  -9 -11    0.90    0.28
  -2  -9 -11    0.79    0.39
  -3  -9 -11    0.03    0.24
  -3  -9 -11    0.29    0.38
   3  -9  11    0.50    0.31
  -3   9 -11   -0.22    0.29
  -4  -9 -11    1.58    0.35
  -4  -9 -11    0.91    0.43
   4  -9  11    2.01    0.37
  -4   9 -11    1.40    0.34
  -4   9 -11    1.93    0.37
   5  -9  11    0.12    0.32
  -5  -9 -11    0.73    0.36
  -5   9 -11   -0.13    0.32
  -5   9 -11    0.08    0.36
  -6  -9 -11    0.08    0.35
   6  -9  11    0.08    0.35
  -6   9 -11    0.10    0.35
  -6   9 -11   -0.09    0.36
   5 -10 -11   -0.41    0.44
  -5 -10  11   -0.43    0.43
  -5 -10  11   -0.08    0.39
  -5  10  11    0.29    0.37
   4 -10 -11    0.47    0.45
  -4 -10  11    0.76    0.41
  -4 -10  11    0.96    0.39
  -4  10  11    0.51    0.39
  -3 -10  11    0.26    0.37
  -3 -10  11    0.85    0.38
   3 -10 -11    0.15    0.44
  -3  10  11    0.01    0.35
  -2 -10  11    0.22    0.34
  -2 -10  11    0.42    0.38
   2 -10 -11    0.91    0.45
  -2  10  11    0.18    0.35
   1 -10 -11    0.15    0.44
  -1 -10  11    0.35    0.37
  -1 -10  11    0.05    0.35
  -1  10  11    0.28    0.35
   0 -10  11    0.58    0.36
   0 -10  11    0.43    0.36
   0 -10 -11    0.84    0.45
  -1 -10 -11    0.27    0.39
   1 -10  11   -0.07    0.33
   2 -10  11   -0.35    0.32
  -2 -10 -11    0.19    0.42
  -2 -10 -11    0.46    0.29
   3 -10  11   -0.03    0.34
  -3 -10 -11    0.29    0.31
  -3 -10 -11   -0.06    0.41
  -4 -10 -11   -0.28    0.43
  -4 -10 -11    0.26    0.33
   4 -10  11    0.03    0.34
  -3 -11  11    0.15    0.44
  -3 -11  11    0.29    0.42
   3 -11 -11   -0.08    0.50
  -3  11  11    0.75    0.42
  -2 -11  11    0.90    0.43
  -2 -11  11    0.44    0.44
   2 -11 -11    0.28    0.44
  -2  11  11    0.85    0.41
  -1 -11  11    0.05    0.39
   1 -11 -11   -0.01    0.49
  -1 -11  11   -0.07    0.40
  -1  11  11   -0.26    0.37
   0 -11  11   -0.31    0.34
   0 -11 -11    0.47    0.48
   0 -11  11   -0.08    0.38
  -1 -11 -11    0.76    0.50
   1 -11  11   -0.26    0.37
  -2 -11 -11    0.05    0.48
   2 -11  11    0.12    0.38
  11   0 -12   -0.43    0.46
  10   0 -12    2.03    0.51
 -10   0  12    2.60    0.37
   9   0 -12    0.23    0.40
  -9   0  12   -0.16    0.25
   8   0 -12    2.50    0.42
  -8   0  12    2.17    0.30
  -7   0  12    0.09    0.18
   7   0 -12    0.12    0.28
   6   0 -12    6.12    0.33
   6   0 -12    6.97    0.47
  -6   0  12    6.95    0.40
   5   0 -12    0.27    0.20
  -5   0  12    0.13    0.13
   5   0 -12   -0.01    0.11
  -4   0  12   11.63    0.43
   4   0 -12   11.23    0.52
   4   0 -12   10.68    0.48
   3   0 -12   -0.10    0.13
   3   0 -12   -0.08    0.09
   2   0 -12   10.97    0.48
   1   0 -12    0.05    0.04
   1   0 -12    0.13    0.11
   0   0 -12   29.56    1.07
  -1   0 -12   -0.07    0.11
  -1   0 -12    0.13    0.10
  -1   0 -12    0.07    0.09
   1   0  12   -0.07    0.08
  -2   0 -12   15.31    0.55
  -2   0 -12   14.42    0.54
  -2   0 -12   14.85    0.59
  -2   0 -12   14.18    0.60
  -3   0 -12    0.08    0.13
  -3   0 -12   -0.04    0.12
  -3   0 -12    0.06    0.13
  -4   0 -12   18.30    0.72
  -4   0 -12   18.83    0.70
  -4   0 -12   17.72    0.70
  -5   0 -12   -0.33    0.18
  -5   0 -12    0.04    0.17
  -5   0 -12   -0.04    0.17
  -6   0 -12   24.40    0.96
  -6   0 -12   24.91    0.95
  -6   0 -12   24.18    0.93
  -7   0 -12    0.24    0.28
  -7   0 -12    0.02    0.27
  -7   0 -12   -0.02    0.23
  -8   0 -12   11.36    0.67
  -8   0 -12   11.65    0.68
  -9   0 -12    0.47    0.37
  -9   0 -12    0.12    0.33
 -10   0 -12    2.41    0.49
  11  -1 -12   -0.16    0.50
  11   1 -12   -0.30    0.52
 -11   1  12    0.09    0.34
  10  -1 -12    1.64    0.49
 -10   1  12    1.70    0.36
  10   1 -12    2.12    0.51
  -9  -1  12    3.31    0.36
   9  -1 -12    4.16    0.52
  -9   1  12    3.17    0.37
   9   1 -12    3.45    0.52
  -8  -1  12    0.87    0.24
   8  -1 -12    0.95    0.36
   8   1 -12    1.48    0.39
   7  -1 -12    7.48    0.50
  -7  -1  12    7.92    0.46
   7   1 -12    7.90    0.38
  -7   1  12    7.84    0.44
   6  -1 -12    2.06    0.31
   6   1 -12    0.91    0.16
  -6   1  12    0.99    0.20
   5  -1 -12    1.67    0.27
  -5   1  12    1.42    0.17
  -5   1  12    1.92    0.22
  -5   1  12    1.56    0.18
   5   1 -12    1.93    0.20
   4  -1 -12    4.59    0.33
   4  -1 -12    4.71    0.28
  -4   1  12    5.02    0.24
   4   1 -12    4.89    0.29
  -4   1  12    4.63    0.28
   3  -1 -12   81.61    2.63
   3  -1 -12   85.39    2.80
   3   1 -12   84.19    2.80
   2  -1 -12    2.12    0.19
   2  -1 -12    1.86    0.18
  -2  -1  12    1.96    0.10
   2   1 -12    2.39    0.20
   2   1 -12    2.30    0.19
  -1  -1  12   28.58    0.95
   1   1 -12   27.29    1.00
   0  -1 -12    7.52    0.36
   0  -1 -12    7.46    0.37
   0  -1  12    7.12    0.32
   0   1 -12    7.55    0.36
   0   1 -12    7.18    0.38
  -1  -1 -12   14.37    0.57
  -1  -1 -12   14.58    0.52
  -1  -1 -12   12.72    0.56
   1  -1  12   14.14    0.56
  -1   1 -12   13.80    0.57
  -1   1 -12   14.46    0.58
  -1   1 -12   14.40    0.50
   2  -1  12   15.45    0.58
  -2  -1 -12   15.79    0.59
  -2  -1 -12   15.42    0.56
  -2  -1 -12   15.19    0.61
  -2   1 -12   15.37    0.64
  -2   1 -12   15.61    0.55
  -2   1 -12   16.56    0.64
  -3  -1 -12   22.82    0.80
  -3  -1 -12   21.64    0.81
  -3  -1 -12   22.60    0.77
  -3   1 -12   22.37    0.77
  -3   1 -12   22.44    0.84
  -4  -1 -12   17.65    0.70
  -4  -1 -12   17.05    0.68
  -4  -1 -12   17.20    0.71
  -4   1 -12   18.07    0.69
  -4   1 -12   21.53    0.75
  -5  -1 -12    1.39    0.23
  -5  -1 -12    1.63    0.25
  -5  -1 -12    1.61    0.21
  -5   1 -12    1.24    0.24
  -5   1 -12    0.87    0.22
  -6  -1 -12    5.19    0.40
  -6  -1 -12    6.18    0.43
  -6   1 -12    6.29    0.44
  -6   1 -12    5.91    0.45
  -7  -1 -12    0.61    0.28
  -7  -1 -12    0.36    0.29
  -7   1 -12    0.54    0.27
  -7   1 -12    0.73    0.27
  -8  -1 -12    0.33    0.31
  -8  -1 -12   -0.09    0.27
  -8   1 -12   -0.06    0.31
  -8   1 -12   -0.12    0.28
  -9  -1 -12    0.72    0.40
  -9  -1 -12    0.02    0.31
  -9   1 -12    0.68    0.37
 -10  -1 -12   -0.04    0.41
 -10  -1 -12    0.06    0.39
 -10   1 -12   -0.02    0.41
  11  -2 -12    0.09    0.48
  11   2 -12    0.39    0.52
 -11   2  12    0.34    0.35
  10  -2 -12   -0.50    0.40
  10   2 -12   -0.27    0.45
 -10   2  12    0.01    0.31
   9  -2 -12    0.04    0.34
  -9   2  12   -0.06    0.25
   8  -2 -12    2.22    0.41
   8   2 -12    2.04    0.21
  -8   2  12    2.11    0.30
   7  -2 -12    3.22    0.40
   7   2 -12    3.26    0.27
  -7   2  12    3.08    0.32
   6  -2 -12    0.15    0.23
   6   2 -12    0.19    0.14
  -6   2  12    0.01    0.11
  -6   2  12    0.10    0.19
   5  -2 -12   -0.04    0.20
  -5   2  12    0.23    0.17
  -5   2  12    0.01    0.04
   5   2 -12    0.05    0.13
   4  -2 -12   39.99    1.38
   4   2 -12   42.24    1.43
  -4   2  12   40.05    1.39
   3  -2 -12    3.42    0.27
   3   2 -12    3.25    0.25
   3   2 -12    3.35    0.23
  -3   2  12    3.28    0.23
   2  -2 -12  116.15    3.65
   2   2 -12  115.56    3.82
   2   2 -12  124.18    3.92
   1   2 -12    2.40    0.22
   0  -2 -12    9.09    0.39
   0  -2  12    7.96    0.35
   0   2 -12    7.85    0.40
   0   2 -12    8.34    0.39
   0   2 -12    9.08    0.35
   1  -2  12    2.39    0.20
  -1  -2 -12    2.46    0.21
   1  -2  12    2.60    0.19
  -1   2 -12    2.68    0.21
  -1   2 -12    2.37    0.18
  -1   2 -12    2.11    0.21
  -1   2 -12    2.41    0.17
   2  -2  12    7.40    0.38
  -2  -2 -12    7.68    0.34
  -2  -2 -12    7.84    0.38
  -2  -2 -12    8.22    0.39
  -2   2 -12    8.48    0.43
  -2   2 -12    8.13    0.38
  -2   2 -12    7.83    0.35
  -3  -2 -12   10.55    0.45
   3  -2  12   10.78    0.47
  -3  -2 -12   11.02    0.48
  -3  -2 -12   10.44    0.44
  -3   2 -12   10.67    0.49
  -3   2 -12   10.28    0.43
  -3   2 -12   10.32    0.50
   4  -2  12   18.09    0.72
  -4  -2 -12   18.27    0.70
  -4  -2 -12   18.22    0.73
  -4   2 -12   18.87    0.77
  -4   2 -12   18.51    0.77
  -4   2 -12   18.64    0.70
  -5  -2 -12    0.29    0.19
   5  -2  12    0.10    0.19
  -5  -2 -12    0.34    0.22
  -5   2 -12    0.24    0.21
  -5   2 -12    0.12    0.21
  -6  -2 -12    1.36    0.25
   6  -2  12    1.28    0.26
  -6  -2 -12    0.81    0.28
  -6   2 -12    1.41    0.26
  -6   2 -12    1.37    0.27
   7  -2  12    2.59    0.37
  -7  -2 -12    3.01    0.39
  -7  -2 -12    2.57    0.34
  -7   2 -12    2.18    0.37
  -7   2 -12    2.71    0.37
   8  -2  12   -0.09    0.26
  -8  -2 -12   -0.17    0.31
  -8  -2 -12    0.07    0.30
  -8   2 -12   -0.17    0.29
  -8   2 -12   -0.08    0.30
  -9  -2 -12    0.74    0.38
   9  -2  12    0.38    0.35
  -9  -2 -12    0.31    0.37
  -9   2 -12    0.37    0.39
  -9   2 -12    0.69    0.37
  10  -2  12    0.65    0.39
 -10  -2 -12   -0.02    0.39
 -10  -2 -12    0.30    0.40
 -10   2 -12    0.20    0.42
  11  -3 -12   -0.40    0.46
  11   3 -12   -0.20    0.50
 -11   3  12   -0.09    0.35
  10  -3 -12   -0.03    0.44
 -10   3  12    0.56    0.33
   9  -3 -12    0.97    0.42
   9   3 -12    1.09    0.19
  -9   3  12    1.01    0.32
   8  -3 -12    0.01    0.33
   8   3 -12   -0.02    0.16
  -8   3  12    0.06    0.23
   7  -3 -12   10.51    0.62
   7   3 -12    9.97    0.49
  -7   3  12   10.78    0.52
  -7   3  12   10.22    0.54
   6  -3 -12    4.01    0.37
  -6   3  12    4.53    0.35
  -6   3  12    3.47    0.33
  -6   3  12    4.12    0.33
   6   3 -12    4.24    0.28
  -5  -3  12    1.80    0.20
   5  -3 -12    1.27    0.25
   5   3 -12    1.62    0.19
  -5   3  12    1.37    0.23
  -5   3  12    1.66    0.22
  -4  -3  12    2.69    0.22
   4  -3 -12    2.19    0.27
   4   3 -12    2.63    0.22
   4   3 -12    2.11    0.25
  -4   3  12    2.77    0.24
  -4   3  12    2.19    0.22
  -3  -3  12   18.49    0.64
   3  -3 -12   17.05    0.69
   3   3 -12   17.35    0.72
  -3   3  12   18.62    0.68
   3   3 -12   18.71    0.71
   2  -3 -12    2.11    0.22
  -2  -3  12    2.69    0.23
  -2  -3  12    2.49    0.20
   2   3 -12    2.72    0.25
   2   3 -12    2.13    0.20
  -2   3  12    2.38    0.20
  -1  -3  12   31.56    1.05
   1  -3 -12   31.51    1.07
  -1  -3  12   33.67    1.03
   1   3 -12   32.66    1.07
   1   3 -12   29.87    1.12
   0  -3  12   23.57    0.80
   0  -3 -12   23.53    0.82
   0   3 -12   23.53    0.83
   0   3 -12   23.97    0.87
   0   3 -12   22.81    0.88
  -1  -3 -12    0.10    0.12
   1  -3  12    0.17    0.13
  -1   3 -12    0.09    0.10
  -1   3 -12    0.09    0.13
  -1   3 -12    0.03    0.11
  -1   3 -12    0.09    0.11
  -2  -3 -12    0.39    0.13
   2  -3  12    0.25    0.14
  -2   3 -12    0.42    0.13
  -2   3 -12    0.31    0.13
  -2   3 -12    0.48    0.17
   3  -3  12   34.21    1.17
  -3  -3 -12   33.27    1.13
  -3   3 -12   35.65    1.26
  -3   3 -12   35.70    1.27
  -3   3 -12   34.52    1.13
  -4  -3 -12   10.23    0.52
  -4  -3 -12   10.28    0.48
   4  -3  12   10.57    0.50
  -4   3 -12   10.27    0.52
  -4   3 -12   10.19    0.54
  -4   3 -12   10.07    0.46
  -5  -3 -12    3.46    0.33
   5  -3  12    2.83    0.32
  -5  -3 -12    2.44    0.28
  -5   3 -12    3.31    0.33
  -5   3 -12    2.48    0.29
  -6  -3 -12    1.06    0.26
   6  -3  12    0.57    0.26
  -6  -3 -12    1.26    0.28
  -6   3 -12    0.83    0.26
  -6   3 -12    1.10    0.31
  -7  -3 -12   -0.08    0.24
   7  -3  12    0.26    0.28
  -7  -3 -12   -0.04    0.27
  -7   3 -12   -0.36    0.27
  -7   3 -12    0.20    0.27
  -8  -3 -12    1.81    0.36
   8  -3  12    1.16    0.34
  -8  -3 -12    1.05    0.35
  -8   3 -12    0.90    0.36
  -8   3 -12    2.08    0.41
   9  -3  12    0.13    0.31
  -9  -3 -12   -0.37    0.31
  -9  -3 -12   -0.23    0.33
  -9   3 -12    0.37    0.37
  -9   3 -12    0.13    0.39
 -10  -3 -12   -0.47    0.38
 -10  -3 -12    0.25    0.40
  10  -3  12   -0.15    0.36
 -10   3 -12    0.28    0.43
 -10   3 -12    0.72    0.46
  10  -4 -12    1.59    0.48
 -10   4  12    1.14    0.35
   9  -4 -12    0.43    0.40
  -9   4  12   -0.21    0.27
   8  -4 -12   13.41    0.73
  -8   4  12   12.42    0.65
   8   4 -12   12.06    0.57
  -8   4  12   11.68    0.63
   7  -4 -12    0.06    0.31
   7   4 -12    0.33    0.17
  -7   4  12    0.08    0.24
  -7   4  12    0.39    0.27
   6  -4 -12    1.09    0.30
  -6  -4  12    0.66    0.21
  -6   4  12    0.92    0.24
   6   4 -12    0.82    0.17
  -6   4  12    0.89    0.24
   5  -4 -12    1.19    0.26
  -5  -4  12    0.96    0.21
  -5   4  12    0.97    0.23
  -5   4  12    1.09    0.22
   5   4 -12    1.11    0.18
  -4  -4  12    0.47    0.16
   4  -4 -12    0.79    0.23
  -4   4  12   -0.03    0.17
   4   4 -12    0.37    0.15
   4   4 -12    0.33    0.19
  -4   4  12    0.19    0.18
   3  -4 -12    1.00    0.21
  -3  -4  12    0.72    0.21
  -3  -4  12    0.53    0.16
   3   4 -12    0.73    0.20
   3   4 -12    0.52    0.15
  -3   4  12    0.70    0.18
  -2  -4  12   25.45    0.93
  -2  -4  12   27.02    0.90
   2  -4 -12   27.22    0.95
   2   4 -12   26.00    0.98
  -2   4  12   26.73    0.94
   2   4 -12   26.67    0.99
  -1  -4  12    3.30    0.25
   1  -4 -12    3.52    0.27
  -1  -4  12    3.44    0.26
   1   4 -12    3.02    0.18
   1   4 -12    3.29    0.27
   1   4 -12    2.11    0.22
   0  -4 -12    2.72    0.24
   0  -4  12    2.76    0.22
   0  -4  12    3.17    0.25
   0   4 -12    2.72    0.20
   0   4 -12    3.13    0.26
   0   4 -12    2.88    0.24
   0   4 -12    2.61    0.18
  -1  -4 -12    1.71    0.17
   1  -4  12    1.56    0.20
  -1  -4 -12    1.44    0.20
  -1   4 -12    1.47    0.22
  -1   4 -12    1.49    0.17
  -1   4 -12    1.64    0.17
  -2  -4 -12   34.55    1.08
   2  -4  12   31.75    1.12
  -2   4 -12   33.28    1.21
  -2   4 -12   32.48    1.07
  -2   4 -12   34.48    1.21
   3  -4  12    0.21    0.18
  -3  -4 -12    0.02    0.16
  -3   4 -12    0.04    0.19
  -3   4 -12    0.24    0.16
  -3   4 -12    0.30    0.17
  -4  -4 -12   10.90    0.51
   4  -4  12   11.24    0.54
  -4   4 -12   11.70    0.52
  -4   4 -12   11.21    0.58
   5  -4  12    0.99    0.24
  -5  -4 -12    0.89    0.24
  -5   4 -12    1.08    0.25
  -5   4 -12    0.92    0.27
  -6  -4 -12    2.98    0.37
  -6  -4 -12    3.19    0.34
   6  -4  12    2.67    0.34
  -6   4 -12    2.95    0.36
  -6   4 -12    2.95    0.40
  -7  -4 -12   -0.10    0.28
  -7  -4 -12    0.19    0.30
   7  -4  12    0.27    0.29
  -7   4 -12   -0.16    0.29
  -7   4 -12   -0.27    0.29
  -8  -4 -12    1.02    0.36
  -8  -4 -12    0.27    0.33
   8  -4  12    1.10    0.35
  -8   4 -12    0.94    0.36
  -8   4 -12    0.49    0.36
  -9  -4 -12    0.71    0.38
  -9  -4 -12    0.47    0.39
   9  -4  12    1.05    0.38
  -9   4 -12    0.73    0.41
  -9   4 -12    0.57    0.39
  10  -5 -12    0.21    0.47
 -10   5  12   -0.16    0.34
   9  -5 -12    2.97    0.50
  -9   5  12    1.96    0.43
  -9   5  12    2.24    0.39
   8  -5 -12    2.44    0.43
  -8   5  12    3.13    0.38
  -8   5  12    2.81    0.41
  -7  -5  12    1.87    0.30
   7  -5 -12    1.13    0.37
   7   5 -12    1.40    0.23
  -7   5  12    1.74    0.31
  -7   5  12    1.88    0.33
  -6  -5  12    3.07    0.33
   6  -5 -12    2.68    0.38
  -6   5  12    3.14    0.33
  -6   5  12    2.91    0.34
   6   5 -12    3.05    0.28
  -5  -5  12    0.78    0.22
   5  -5 -12    0.61    0.30
  -5   5  12    0.43    0.23
  -5   5  12    0.53    0.21
   5   5 -12    0.45    0.18
  -4  -5  12    5.91    0.37
   4  -5 -12    5.32    0.40
  -4  -5  12    6.40    0.44
  -4   5  12    4.95    0.35
   4   5 -12    5.66    0.35
  -4   5  12    5.25    0.36
   3  -5 -12   23.83    0.90
  -3  -5  12   23.51    0.89
  -3  -5  12   23.70    0.86
  -3   5  12   23.90    0.89
   3   5 -12   23.95    0.92
  -2  -5  12    5.13    0.34
  -2  -5  12    6.02    0.35
   2  -5 -12    5.24    0.39
   2   5 -12    5.65    0.35
  -2   5  12    5.96    0.34
   2   5 -12    5.58    0.37
  -1  -5  12   17.70    0.66
   1  -5 -12   17.40    0.70
  -1  -5  12   16.80    0.67
   1   5 -12   17.59    0.72
   1   5 -12   17.25    0.70
   0  -5 -12    3.00    0.21
   0  -5  12    2.99    0.27
   0  -5 -12    2.54    0.28
   0  -5  12    2.88    0.25
   0   5 -12    2.90    0.27
   0   5 -12    2.54    0.22
  -1  -5 -12    2.78    0.22
   1  -5  12    2.75    0.23
   1  -5  12    2.00    0.24
  -1  -5 -12    2.14    0.25
  -1   5 -12    1.75    0.24
  -1   5 -12    2.11    0.20
  -1   5 -12    2.35    0.22
  -2  -5 -12    0.64    0.22
   2  -5  12    0.79    0.21
  -2  -5 -12    0.80    0.18
  -2   5 -12    0.88    0.22
  -2   5 -12    1.07    0.18
  -2   5 -12    1.21    0.20
  -3  -5 -12    7.95    0.50
  -3  -5 -12   11.92    0.49
   3  -5  12   10.21    0.51
  -3   5 -12   11.73    0.57
  -3   5 -12   11.49    0.49
   4  -5  12    1.24    0.26
  -4  -5 -12    0.45    0.22
  -4   5 -12    0.91    0.23
  -4   5 -12    0.80    0.26
   5  -5  12    0.22    0.23
  -5  -5 -12    0.71    0.24
  -5   5 -12    0.39    0.25
  -5   5 -12    0.12    0.28
  -6  -5 -12    3.62    0.39
   6  -5  12    4.26    0.42
  -6   5 -12    4.36    0.42
  -6   5 -12    3.58    0.43
   7  -5  12    0.46    0.31
  -7  -5 -12    0.27    0.31
  -7   5 -12    0.26    0.30
  -7   5 -12   -0.24    0.33
  -8  -5 -12    1.68    0.37
   8  -5  12    1.31    0.38
  -8   5 -12    1.47    0.42
  -8   5 -12    1.89    0.43
  -9  -5 -12    0.30    0.39
   9  -5  12    0.07    0.35
  -9   5 -12    0.54    0.45
  -9   5 -12    0.02    0.38
   9  -6 -12    0.66    0.45
  -9   6  12    0.93    0.37
  -9   6  12    0.52    0.39
   8  -6 -12   -0.69    0.37
  -8   6  12    0.14    0.32
  -8   6  12    0.26    0.33
   7  -6 -12    0.01    0.35
  -7  -6  12    0.16    0.27
  -7   6  12   -0.31    0.28
  -7   6  12   -0.33    0.28
  -6  -6  12    0.40    0.25
   6  -6 -12   -0.57    0.31
   6   6 -12    0.40    0.20
  -6   6  12    0.21    0.27
  -6   6  12    0.35    0.26
   5  -6 -12    3.20    0.39
  -5  -6  12    3.34    0.35
  -5  -6  12    2.77    0.39
  -5   6  12    2.92    0.35
  -5   6  12    2.89    0.32
   5   6 -12    2.42    0.28
  -4  -6  12    7.11    0.47
  -4  -6  12    6.45    0.43
   4  -6 -12    7.90    0.52
  -4   6  12    7.39    0.45
  -4   6  12    6.88    0.45
   4   6 -12    6.79    0.42
  -3  -6  12    2.98    0.31
   3  -6 -12    2.64    0.33
  -3  -6  12    3.09    0.34
   3   6 -12    2.92    0.29
  -3   6  12    2.96    0.28
  -3   6  12    2.84    0.30
  -2  -6  12   20.67    0.79
  -2  -6  12   19.19    0.79
   2  -6 -12   19.85    0.81
   2   6 -12   19.74    0.82
  -1  -6  12    2.24    0.27
   1  -6 -12    2.47    0.31
  -1  -6  12    2.06    0.25
   1   6 -12    2.08    0.25
   1   6 -12    2.07    0.26
   0  -6 -12   16.80    0.73
   0  -6  12   17.76    0.68
   0  -6  12   16.64    0.68
   0   6 -12   16.93    0.72
   1  -6  12    3.22    0.28
  -1  -6 -12    3.15    0.33
  -1  -6 -12    2.77    0.25
   1  -6  12    2.34    0.28
  -1   6 -12    3.43    0.32
   2  -6  12    0.56    0.22
  -2  -6 -12    0.86    0.26
  -2  -6 -12    0.35    0.19
  -2   6 -12    0.26    0.18
  -2   6 -12    0.41    0.24
  -3  -6 -12    2.55    0.33
   3  -6  12    2.25    0.30
  -3  -6 -12    3.61    0.32
  -3   6 -12    3.15    0.35
  -3   6 -12    2.48    0.28
  -4  -6 -12    1.62    0.27
   4  -6  12    1.14    0.29
  -4   6 -12    1.32    0.31
  -4   6 -12    1.00    0.25
   5  -6  12    0.37    0.27
  -5  -6 -12    0.70    0.26
  -5   6 -12    0.79    0.29
  -5   6 -12    0.75    0.31
   6  -6  12    6.97    0.49
  -6  -6 -12    8.24    0.53
  -6   6 -12    6.70    0.57
  -6   6 -12    7.37    0.53
  -7  -6 -12    0.35    0.31
   7  -6  12    0.76    0.34
  -7   6 -12    1.14    0.35
  -7   6 -12    0.79    0.37
  -8  -6 -12    0.56    0.39
   8  -6  12   -0.15    0.34
  -8   6 -12    0.79    0.41
  -8   6 -12    0.82    0.41
   9  -7 -12    0.96    0.48
  -9   7  12    0.22    0.37
  -9   7  12    0.11    0.40
  -8  -7  12    0.40    0.34
   8  -7 -12    0.54    0.44
  -8   7  12    0.10    0.33
  -8   7  12   -0.09    0.33
  -7  -7  12    1.69    0.37
   7  -7 -12    2.44    0.46
  -7   7  12    1.87    0.37
  -7   7  12    1.85    0.41
   6  -7 -12    0.34    0.38
  -6  -7  12    0.77    0.40
  -6  -7  12    0.63    0.30
  -6   7  12    0.51    0.32
   6   7 -12    0.56    0.24
  -6   7  12    0.32    0.29
  -5  -7  12   -0.31    0.25
   5  -7 -12   -0.56    0.32
  -5  -7  12    0.23    0.34
  -5   7  12    0.15    0.27
   5   7 -12    0.30    0.23
  -5   7  12    0.19    0.28
  -4  -7  12    0.63    0.32
   4  -7 -12    0.49    0.29
  -4  -7  12    0.31    0.24
   4   7 -12    0.72    0.24
  -4   7  12    0.66    0.25
  -4   7  12    0.44    0.28
   3  -7 -12   20.89    0.87
  -3  -7  12   20.35    0.84
  -3  -7  12   18.74    0.85
  -3   7  12   20.23    0.82
   3   7 -12   20.11    0.86
  -2  -7  12    0.57    0.25
   2  -7 -12    0.09    0.28
  -2  -7  12    0.62    0.27
   2   7 -12    0.25    0.21
  -1  -7  12    0.15    0.23
   1  -7 -12    0.41    0.26
  -1  -7  12    0.30    0.22
   0  -7  12    6.71    0.45
   0  -7 -12    7.09    0.50
   0  -7  12    7.15    0.43
   0   7 -12    7.52    0.46
   1  -7  12    1.85    0.29
  -1  -7 -12    0.66    0.27
  -1  -7 -12    1.05    0.22
  -1   7 -12    0.84    0.24
  -2  -7 -12    3.11    0.30
   2  -7  12    2.83    0.33
  -2  -7 -12    3.02    0.37
  -2   7 -12    3.03    0.34
  -2   7 -12    3.11    0.29
  -3  -7 -12    7.45    0.52
   3  -7  12    7.44    0.49
  -3  -7 -12    7.97    0.44
  -3   7 -12    7.24    0.43
  -3   7 -12    8.84    0.55
   4  -7  12    0.53    0.29
  -4  -7 -12    0.15    0.26
  -4   7 -12    0.34    0.25
  -4   7 -12    0.94    0.32
   5  -7  12    0.20    0.27
  -5  -7 -12    0.23    0.29
  -5   7 -12    0.67    0.34
  -5   7 -12    0.29    0.29
   6  -7  12    0.76    0.31
  -6  -7 -12    0.97    0.32
  -6   7 -12    1.13    0.37
  -6   7 -12    0.83    0.35
   7  -7  12    0.21    0.34
  -7  -7 -12    0.24    0.35
  -7   7 -12    0.33    0.33
  -7   7 -12    0.10    0.39
  -8  -7 -12    0.12    0.39
   8  -7  12    0.73    0.41
  -8   7 -12    0.36    0.39
  -8   7 -12    0.33    0.44
   8  -8 -12   -0.52    0.44
  -8  -8  12    0.04    0.36
  -8   8  12    1.04    0.37
  -8   8  12    0.44    0.42
  -7  -8  12    1.16    0.38
   7  -8 -12    0.59    0.43
  -7   8  12    1.13    0.42
  -7   8  12    0.67    0.33
  -6  -8  12    2.69    0.42
  -6  -8  12    2.72    0.51
   6  -8 -12    2.35    0.47
  -6   8  12    2.43    0.39
  -6   8  12    1.70    0.41
  -5  -8  12    0.22    0.38
  -5  -8  12    0.33    0.32
   5  -8 -12    0.06    0.36
   5   8 -12    0.13    0.25
  -5   8  12    0.45    0.33
  -5   8  12    0.07    0.29
  -4  -8  12    0.47    0.34
   4  -8 -12    0.37    0.36
  -4  -8  12    0.05    0.30
   4   8 -12    0.12    0.25
  -4   8  12    0.24    0.28
  -3  -8  12    1.69    0.35
  -3  -8  12    1.30    0.32
   3  -8 -12    1.86    0.40
  -3   8  12    1.64    0.34
  -2  -8  12    0.51    0.29
   2  -8 -12    0.24    0.34
  -2  -8  12    0.08    0.29
  -1  -8  12    2.44    0.37
   1  -8 -12    3.75    0.44
  -1  -8  12    3.03    0.37
   0  -8  12    0.06    0.24
   0  -8 -12   -0.46    0.31
   0  -8  12    0.35    0.27
  -1  -8 -12    2.00    0.38
   1  -8  12    1.43    0.30
  -2  -8 -12    3.47    0.34
   2  -8  12    3.53    0.40
  -2  -8 -12    4.33    0.46
  -2   8 -12    3.73    0.40
  -3  -8 -12    2.06    0.40
  -3  -8 -12    2.48    0.33
   3  -8  12    3.01    0.38
  -3   8 -12    2.24    0.37
  -3   8 -12    2.26    0.31
   4  -8  12    2.81    0.40
  -4  -8 -12    2.05    0.35
  -4  -8 -12    2.54    0.43
   4   8  12    2.35    0.35
  -4   8 -12    1.90    0.39
  -4   8 -12    2.24    0.34
  -5  -8 -12    0.14    0.30
   5  -8  12    0.41    0.32
  -5   8 -12   -0.22    0.30
  -5   8 -12    0.06    0.30
  -6  -8 -12    0.66    0.33
   6  -8  12    0.49    0.35
  -6   8 -12   -0.23    0.34
  -6   8 -12    0.19    0.37
  -7  -8 -12    0.49    0.39
   7  -8  12    0.75    0.38
  -7   8 -12    0.81    0.42
  -7   8 -12    0.93    0.42
   7  -9 -12    2.12    0.51
  -7  -9  12    1.82    0.46
  -7   9  12    1.85    0.42
  -7   9  12    1.42    0.47
  -6  -9  12   -0.12    0.45
   6  -9 -12    0.91    0.46
  -6  -9  12    0.12    0.34
  -6   9  12    0.11    0.39
   5  -9 -12    0.43    0.42
  -5  -9  12   -0.28    0.32
  -5  -9  12   -0.25    0.37
  -5   9  12   -0.06    0.33
   4  -9 -12    0.98    0.43
  -4  -9  12    1.79    0.43
  -4  -9  12    1.50    0.40
  -4   9  12    1.46    0.39
  -3  -9  12    4.18    0.47
  -3  -9  12    3.98    0.47
   3  -9 -12    2.56    0.45
  -3   9  12    3.10    0.43
  -2  -9  12    0.27    0.34
   2  -9 -12   -0.08    0.37
  -2  -9  12   -0.21    0.33
  -2   9  12    0.73    0.35
  -1  -9  12    0.50    0.33
   1  -9 -12    1.16    0.39
  -1  -9  12    1.07    0.34
   0  -9  12    0.28    0.31
   0  -9 -12    0.05    0.34
   0  -9  12    0.09    0.31
  -1  -9 -12    0.57    0.35
   1  -9  12    0.42    0.32
  -2  -9 -12    0.87    0.28
  -2  -9 -12    0.54    0.38
   2  -9  12    0.50    0.31
   3  -9  12    0.52    0.33
  -3  -9 -12    0.23    0.28
  -3  -9 -12    0.82    0.41
  -3   9 -12    0.60    0.33
  -4  -9 -12    0.11    0.31
   4  -9  12    0.13    0.34
  -4  -9 -12    0.74    0.42
  -4   9 -12    0.27    0.35
  -4   9 -12    0.33    0.31
   5  -9  12    0.56    0.36
  -5  -9 -12    0.45    0.34
  -5   9 -12    0.65    0.35
  -5   9 -12    0.63    0.36
   6  -9  12    0.93    0.39
  -6  -9 -12    0.67    0.38
  -6   9 -12   -0.07    0.38
  -6   9 -12    0.83    0.40
  -5 -10  12    1.33    0.45
  -5 -10  12    2.11    0.53
   5 -10 -12    1.52    0.48
  -5  10  12    1.24    0.45
  -4 -10  12    0.62    0.41
   4 -10 -12    0.49    0.46
  -4 -10  12    0.40    0.44
  -4  10  12    1.21    0.42
   3 -10 -12    0.46    0.45
  -3 -10  12    1.29    0.42
  -3 -10  12    0.64    0.41
  -3  10  12    0.48    0.38
  -2 -10  12    8.79    0.64
   2 -10 -12    7.94    0.71
  -2 -10  12    7.85    0.63
  -2  10  12    9.26    0.65
  -1 -10  12    1.08    0.40
  -1 -10  12    0.59    0.38
   1 -10 -12    0.44    0.45
   0 -10  12   -0.05    0.36
   0 -10 -12   -0.06    0.43
   0 -10  12    0.04    0.35
  -1 -10 -12    0.19    0.43
   1 -10  12    0.44    0.37
  -2 -10 -12   -0.29    0.37
   2 -10  12   -0.21    0.34
  -3 -10 -12    0.35    0.31
   3 -10  12    0.45    0.35
  -3 -10 -12   -0.16    0.42
  -4 -10 -12    0.41    0.46
   4 -10  12    0.23    0.36
  -4 -10 -12   -0.20    0.32
  -3 -11  12   -0.23    0.39
  -3 -11  12   -0.78    0.41
   3 -11 -12   -0.23    0.49
  -3  11  12   -0.11    0.37
  -2 -11  12   -0.26    0.41
  -2 -11  12   -0.10    0.41
   2 -11 -12   -0.06    0.48
  -2  11  12   -0.03    0.36
   1 -11 -12    2.09    0.56
  -1 -11  12    1.44    0.44
  -1 -11  12    1.97    0.47
  -1  11  12    1.04    0.43
   0 -11  12   -0.34    0.39
   0 -11 -12    0.03    0.48
   0 -11  12    0.11    0.41
  -1 -11 -12    0.26    0.48
   1 -11  12    0.69    0.38
   2 -11  12    0.10    0.38
  -2 -11 -12    1.24    0.54
  11   0 -13   -0.19    0.47
  10   0 -13   -0.13    0.43
 -10   0  13    0.63    0.31
   9   0 -13    0.57    0.38
  -9   0  13   -0.03    0.23
   8   0 -13   -0.59    0.28
  -8   0  13   -0.04    0.22
   7   0 -13    2.39    0.38
  -7   0  13    3.28    0.31
   6   0 -13   -0.06    0.24
   6   0 -13    0.00    0.12
  -6   0  13   -0.18    0.15
   5   0 -13   67.53    2.18
   5   0 -13   65.20    2.25
   4   0 -13    0.06    0.17
   4   0 -13   -0.04    0.11
  -4   0  13   -0.09    0.07
   3   0 -13   10.97    0.48
   3   0 -13   10.37    0.47
   2   0 -13   -0.03    0.10
   2   0 -13    0.11    0.12
   1   0 -13   34.78    1.21
   0   0 -13    0.11    0.12
   0   0 -13   -0.02    0.09
  -1   0 -13   86.07    2.97
  -1   0 -13   92.35    2.72
  -1   0 -13   96.42    3.07
  -2   0 -13   -0.09    0.12
  -2   0 -13   -0.14    0.12
  -2   0 -13    0.02    0.11
  -3   0 -13   19.18    0.76
  -3   0 -13   19.91    0.72
  -3   0 -13   19.94    0.72
  -4   0 -13    0.08    0.16
  -4   0 -13   -0.10    0.15
  -4   0 -13    0.27    0.16
  -5   0 -13    2.60    0.27
  -5   0 -13    2.57    0.29
  -5   0 -13    2.09    0.28
  -6   0 -13    0.08    0.21
  -6   0 -13    0.08    0.22
  -6   0 -13    0.08    0.22
  -7   0 -13    1.18    0.31
  -7   0 -13    1.62    0.34
  -8   0 -13    0.02    0.33
  -8   0 -13    0.11    0.30
  -9   0 -13    0.62    0.39
 -10   0 -13   -0.40    0.40
  11  -1 -13   -0.19    0.48
  11   1 -13   -0.40    0.49
 -11   1  13   -0.29    0.33
  10  -1 -13    0.16    0.44
 -10   1  13   -0.01    0.31
  10   1 -13   -0.47    0.44
   9  -1 -13    2.58    0.48
   9   1 -13    3.53    0.50
  -9   1  13    2.86    0.37
   8  -1 -13    6.51    0.55
  -8   1  13    6.19    0.47
   8   1 -13    5.44    0.52
   7  -1 -13    0.38    0.30
   7   1 -13    0.34    0.15
  -7   1  13    0.70    0.22
   6  -1 -13    0.92    0.28
   6   1 -13    0.94    0.17
  -6   1  13    1.38    0.22
   5  -1 -13   11.08    0.55
  -5   1  13   11.22    0.50
   5   1 -13   10.74    0.50
   4  -1 -13   53.55    1.86
   4  -1 -13   55.34    1.78
   4   1 -13   52.70    1.87
  -4   1  13   53.59    1.79
  -4   1  13   55.14    1.63
   3  -1 -13   10.25    0.46
   3  -1 -13   10.84    0.48
   3   1 -13   10.91    0.48
  -2  -1  13   56.60    1.87
   2  -1 -13   56.63    1.83
   2  -1 -13   57.32    1.98
   2   1 -13   59.78    1.98
   2   1 -13   57.65    1.92
  -1  -1  13   49.65    1.64
   1   1 -13   49.19    1.67
   0  -1 -13   17.23    0.69
   0  -1  13   17.55    0.64
   0  -1 -13   18.33    0.68
   0   1 -13   16.29    0.68
   0   1 -13   16.58    0.68
  -1  -1 -13    7.73    0.40
  -1  -1 -13    8.84    0.36
  -1  -1 -13    8.13    0.40
  -1   1 -13    7.78    0.40
  -1   1 -13    8.38    0.41
  -1   1 -13    7.91    0.33
   2  -1  13   75.32    2.25
  -2  -1 -13   74.14    2.23
  -2  -1 -13   72.97    2.24
  -2  -1 -13   72.23    2.42
  -2   1 -13   73.77    2.22
  -2   1 -13   74.92    2.44
  -3  -1 -13    0.04    0.13
  -3  -1 -13    0.05    0.16
  -3  -1 -13    0.24    0.14
  -3   1 -13    0.30    0.15
  -3   1 -13    0.37    0.16
  -4  -1 -13    2.85    0.26
  -4  -1 -13    2.68    0.24
  -4  -1 -13    1.74    0.24
  -4   1 -13    2.27    0.25
  -5  -1 -13    1.85    0.28
  -5  -1 -13    2.42    0.24
  -5  -1 -13    2.24    0.28
  -5   1 -13    1.48    0.24
  -5   1 -13    1.97    0.27
  -6  -1 -13    5.09    0.40
  -6  -1 -13    5.41    0.44
  -6   1 -13    5.59    0.43
  -6   1 -13    5.13    0.40
  -7  -1 -13    0.73    0.30
  -7  -1 -13    1.17    0.31
  -7   1 -13    0.73    0.29
  -7   1 -13    1.45    0.33
  -8  -1 -13   -0.18    0.29
  -8  -1 -13    0.77    0.33
  -8   1 -13   -0.04    0.32
  -8   1 -13   -0.03    0.30
  -9  -1 -13   -0.43    0.35
  -9  -1 -13    0.34    0.34
  -9   1 -13    0.79    0.39
 -10  -1 -13    0.34    0.42
 -10  -1 -13   -0.04    0.40
  10  -1  13   -0.30    0.35
 -10   1 -13    0.66    0.44
  11  -2 -13    1.58    0.53
  11   2 -13    0.92    0.53
 -11   2  13    0.19    0.37
  10  -2 -13   -0.68    0.41
  10   2 -13    0.28    0.47
 -10   2  13    0.03    0.30
   9  -2 -13    5.21    0.53
  -9   2  13    4.25    0.40
   8  -2 -13    1.14    0.35
   8   2 -13    0.52    0.17
  -8   2  13    0.61    0.27
   7  -2 -13    8.74    0.56
   7   2 -13    9.06    0.46
  -7   2  13    9.47    0.50
   6  -2 -13    0.59    0.27
  -6   2  13   -0.11    0.19
   6   2 -13    0.10    0.14
   5  -2 -13    3.23    0.32
  -5   2  13    2.76    0.24
   5   2 -13    3.56    0.26
  -5   2  13    3.10    0.27
   4  -2 -13    1.09    0.21
   4   2 -13    1.09    0.16
  -4   2  13    1.01    0.18
   3  -2 -13   58.03    1.92
   3   2 -13   58.22    1.99
  -3   2  13   61.37    1.97
   3   2 -13   60.59    2.03
   2  -2 -13    0.40    0.14
   2   2 -13    0.28    0.12
   2   2 -13    0.24    0.14
   1  -2 -13    7.04    0.35
  -1  -2  13    8.02    0.31
   1   2 -13    7.69    0.40
   0  -2 -13    5.06    0.30
   0  -2  13    4.60    0.25
   0   2 -13    4.38    0.30
   0   2 -13    4.80    0.29
   1  -2  13   52.41    1.66
  -1  -2 -13   53.58    1.79
  -1   2 -13   54.73    1.85
  -1   2 -13   52.73    1.81
  -1   2 -13   54.39    1.82
  -1   2 -13   53.54    1.62
  -2  -2 -13    0.12    0.12
  -2  -2 -13   -0.08    0.12
   2  -2  13   -0.15    0.12
  -2   2 -13    0.10    0.11
  -2   2 -13    0.18    0.15
  -2   2 -13    0.03    0.12
  -3  -2 -13    4.19    0.27
   3  -2  13    3.37    0.29
  -3  -2 -13    4.17    0.31
  -3  -2 -13    3.98    0.28
  -3   2 -13    4.23    0.30
  -3   2 -13    4.07    0.31
  -3   2 -13    4.11    0.26
  -4  -2 -13    0.41    0.19
  -4  -2 -13    0.06    0.19
   4  -2  13   -0.03    0.16
  -4   2 -13    0.20    0.20
  -4   2 -13    0.42    0.17
  -4   2 -13    0.12    0.15
  -5  -2 -13    3.02    0.30
   5  -2  13    2.43    0.29
  -5  -2 -13    2.82    0.32
  -5   2 -13    2.70    0.30
  -5   2 -13    2.24    0.30
  -6  -2 -13    2.77    0.32
  -6  -2 -13    2.60    0.35
   6  -2  13    3.15    0.35
  -6   2 -13    2.51    0.34
  -6   2 -13    2.39    0.33
   7  -2  13    7.15    0.51
  -7  -2 -13    9.33    0.55
  -7  -2 -13    8.53    0.55
  -7   2 -13    9.10    0.57
  -7   2 -13    8.54    0.57
  -8  -2 -13    0.18    0.30
   8  -2  13    0.31    0.31
  -8  -2 -13    0.21    0.33
  -8   2 -13    0.34    0.31
  -8   2 -13   -0.41    0.28
   9  -2  13    1.83    0.41
  -9  -2 -13    2.80    0.46
  -9  -2 -13    1.94    0.43
  -9   2 -13    1.84    0.44
  -9   2 -13    2.03    0.43
 -10  -2 -13    0.00    0.40
  10  -2  13   -0.04    0.37
 -10  -2 -13   -0.30    0.39
 -10   2 -13    0.36    0.43
  11  -3 -13   -0.33    0.50
 -11   3  13    1.18    0.39
  11   3 -13    0.37    0.53
  10  -3 -13    1.90    0.49
 -10   3  13    1.48    0.35
   9  -3 -13    0.01    0.39
  -9   3  13    0.34    0.30
   8  -3 -13    0.12    0.34
   8   3 -13    0.30    0.19
  -8   3  13    0.47    0.25
   7  -3 -13    1.03    0.34
  -7   3  13    1.58    0.29
   7   3 -13    1.31    0.21
  -7   3  13    1.21    0.26
   6  -3 -13    1.36    0.31
   6   3 -13    1.59    0.21
  -6   3  13    1.49    0.26
  -6   3  13    1.87    0.25
  -5  -3  13    0.20    0.16
   5  -3 -13    0.05    0.21
   5   3 -13    0.20    0.14
  -5   3  13    0.35    0.18
  -5   3  13    0.05    0.18
   4  -3 -13   36.54    1.32
  -4  -3  13   39.51    1.22
  -4   3  13   38.56    1.32
   4   3 -13   38.23    1.36
   4   3 -13   38.24    1.36
  -4   3  13   38.12    1.23
   3  -3 -13   13.25    0.58
  -3  -3  13   13.22    0.52
   3   3 -13   14.00    0.58
   3   3 -13   13.72    0.61
  -3   3  13   13.99    0.57
  -2  -3  13   12.23    0.47
   2  -3 -13   11.51    0.51
   2   3 -13   11.64    0.52
   2   3 -13   12.56    0.56
  -1  -3  13   18.99    0.68
  -1  -3  13   19.28    0.67
   1  -3 -13   18.24    0.69
   1   3 -13   19.38    0.66
   1   3 -13   17.64    0.74
   0  -3 -13    5.85    0.31
   0  -3  13    5.25    0.29
   0   3 -13    5.52    0.27
   0   3 -13    5.15    0.37
   0   3 -13    5.60    0.32
   1  -3  13    0.99    0.17
  -1  -3 -13    1.13    0.15
  -1  -3 -13    1.06    0.16
  -1  -3 -13    1.40    0.17
  -1   3 -13    1.05    0.18
  -1   3 -13    0.66    0.13
  -1   3 -13    0.88    0.14
   2  -3  13   27.37    0.98
  -2  -3 -13   29.69    0.95
  -2   3 -13   29.52    1.06
  -2   3 -13   29.12    1.06
  -2   3 -13   27.93    0.93
   3  -3  13    3.13    0.28
  -3  -3 -13    3.39    0.27
  -3   3 -13    4.02    0.30
  -3   3 -13    3.43    0.26
  -3   3 -13    2.92    0.29
  -4  -3 -13    1.12    0.25
   4  -3  13    1.28    0.24
  -4  -3 -13    1.12    0.22
  -4   3 -13    1.36    0.25
  -4   3 -13    1.16    0.22
  -5  -3 -13    6.51    0.42
   5  -3  13    7.44    0.46
  -5  -3 -13    6.69    0.47
  -5   3 -13    6.37    0.42
  -5   3 -13    6.43    0.50
   6  -3  13    0.24    0.23
  -6  -3 -13    0.29    0.23
  -6  -3 -13   -0.23    0.25
  -6   3 -13    0.38    0.26
  -6   3 -13   -0.26    0.24
  -7  -3 -13    0.63    0.29
   7  -3  13    0.81    0.31
  -7  -3 -13    0.35    0.27
  -7   3 -13    0.65    0.31
  -7   3 -13    1.23    0.35
   8  -3  13    0.02    0.28
  -8  -3 -13    0.06    0.32
  -8  -3 -13    0.31    0.31
  -8   3 -13    0.36    0.33
  -8   3 -13    0.58    0.36
   9  -3  13   -0.09    0.33
  -9  -3 -13    0.57    0.39
  -9  -3 -13    0.58    0.38
  -9   3 -13    0.61    0.38
  -9   3 -13    0.90    0.41
  10  -4 -13   -0.17    0.44
 -10   4  13   -0.02    0.33
   9  -4 -13   -0.18    0.40
  -9   4  13   -0.23    0.29
   8  -4 -13    0.19    0.33
   8   4 -13    0.34    0.20
  -8   4  13   -0.26    0.24
   7  -4 -13    0.21    0.30
  -7   4  13    0.01    0.24
   7   4 -13    0.36    0.18
  -7   4  13    0.27    0.24
   6  -4 -13    1.30    0.32
  -6  -4  13    1.03    0.22
   6   4 -13    1.43    0.21
  -6   4  13    1.69    0.26
  -6   4  13    1.11    0.25
  -5  -4  13    3.62    0.29
   5  -4 -13    3.46    0.36
   5   4 -13    3.20    0.27
  -5   4  13    2.87    0.29
  -5   4  13    3.76    0.31
  -4  -4  13   -0.01    0.15
   4  -4 -13    0.37    0.21
   4   4 -13    0.14    0.19
  -4   4  13    0.20    0.18
   4   4 -13    0.28    0.14
  -4   4  13    0.47    0.19
   3  -4 -13   71.16    2.26
  -3  -4  13   68.83    2.25
  -3  -4  13   68.65    2.14
  -3   4  13   70.49    2.29
   3   4 -13   69.13    2.33
   3   4 -13   70.85    2.38
  -2  -4  13    0.43    0.15
  -2  -4  13    0.59    0.19
   2  -4 -13    0.52    0.20
   2   4 -13    0.53    0.15
   2   4 -13    0.65    0.19
  -2   4  13    0.39    0.15
   1  -4 -13    3.99    0.31
  -1  -4  13    3.71    0.28
  -1  -4  13    4.44    0.30
   1   4 -13    4.27    0.30
   1   4 -13    4.49    0.35
   0  -4 -13   13.70    0.55
   0  -4  13   13.74    0.51
   0  -4  13   13.49    0.54
   0   4 -13   13.41    0.60
   0   4 -13   12.50    0.58
   0   4 -13   13.14    0.52
  -1  -4 -13   22.44    0.81
  -1  -4 -13   22.56    0.75
   1  -4  13   22.12    0.80
  -1   4 -13   23.01    0.84
  -1   4 -13   22.08    0.74
  -1   4 -13   21.78    0.86
   2  -4  13    0.67    0.19
  -2  -4 -13    0.55    0.16
  -2  -4 -13    0.40    0.16
  -2   4 -13    0.60    0.16
  -2   4 -13    0.30    0.15
  -2   4 -13    0.65    0.20
   3  -4  13   24.00    0.92
  -3  -4 -13   25.89    0.89
  -3   4 -13   26.16    0.99
  -3   4 -13   24.82    0.87
  -3   4 -13   25.34    0.99
   4  -4  13   -0.20    0.21
  -4  -4 -13    0.40    0.20
  -4   4 -13    0.21    0.24
  -4   4 -13    0.18    0.20
   5  -4  13    3.26    0.35
  -5  -4 -13    2.62    0.30
  -5   4 -13    3.16    0.38
  -5   4 -13    3.13    0.32
  -6  -4 -13    3.98    0.38
  -6  -4 -13    4.54    0.43
   6  -4  13    4.29    0.41
  -6   4 -13    3.87    0.40
  -6   4 -13    4.00    0.43
  -7  -4 -13    0.64    0.32
  -7  -4 -13    0.59    0.32
   7  -4  13    0.15    0.27
  -7   4 -13    0.02    0.31
  -7   4 -13    0.22    0.34
  -8  -4 -13   -0.11    0.33
   8  -4  13    0.00    0.30
  -8  -4 -13    0.20    0.34
  -8   4 -13    0.35    0.36
  -8   4 -13    0.10    0.36
  -9  -4 -13   -0.49    0.35
  -9  -4 -13    0.09    0.35
   9  -4  13   -0.42    0.32
  -9   4 -13    0.51    0.42
  -9   4 -13   -0.08    0.40
  10  -5 -13   -0.34    0.46
 -10   5  13   -0.58    0.33
   9  -5 -13    0.72    0.44
  -9   5  13    0.15    0.30
   8  -5 -13    3.98    0.51
  -8   5  13    2.33    0.39
  -8   5  13    2.23    0.36
   7  -5 -13    0.13    0.31
  -7   5  13   -0.05    0.26
  -7   5  13   -0.44    0.25
   7   5 -13   -0.07    0.17
   6  -5 -13    0.07    0.30
  -6  -5  13    0.32    0.22
   6   5 -13    0.17    0.18
  -6   5  13    0.16    0.24
  -6   5  13   -0.19    0.24
   5  -5 -13    1.87    0.31
  -5  -5  13    1.20    0.24
  -5   5  13    1.60    0.27
   5   5 -13    1.56    0.23
  -5   5  13    1.51    0.28
  -4  -5  13   22.33    0.87
  -4  -5  13   21.48    0.82
   4  -5 -13   22.44    0.89
   4   5 -13   22.67    0.88
  -4   5  13   20.13    0.82
  -4   5  13   22.10    0.85
  -3  -5  13    5.31    0.35
  -3  -5  13    5.50    0.38
   3  -5 -13    5.69    0.41
   3   5 -13    5.38    0.36
   3   5 -13    5.31    0.38
  -3   5  13    5.71    0.37
  -2  -5  13    9.86    0.46
  -2  -5  13    8.36    0.46
   2  -5 -13    9.38    0.50
   2   5 -13   10.32    0.49
  -2   5  13    8.73    0.43
   2   5 -13    8.80    0.47
  -1  -5  13    2.21    0.24
  -1  -5  13    2.06    0.24
   1  -5 -13    1.68    0.26
   1   5 -13    1.67    0.23
   1   5 -13    1.96    0.24
   0  -5 -13    7.52    0.43
   0  -5  13    7.24    0.41
   0  -5  13    8.35    0.39
   0   5 -13    7.36    0.45
  -1  -5 -13    5.33    0.29
   1  -5  13    4.51    0.35
  -1  -5 -13    4.54    0.34
  -1   5 -13    4.59    0.27
  -1   5 -13    5.24    0.38
  -1   5 -13    5.34    0.32
  -2  -5 -13   14.31    0.62
   2  -5  13   13.44    0.60
  -2  -5 -13   14.25    0.57
  -2   5 -13   14.35    0.56
  -2   5 -13   15.27    0.64
  -2   5 -13   14.61    0.66
   3  -5  13    5.24    0.39
  -3  -5 -13    4.74    0.34
  -3   5 -13    4.62    0.39
  -3   5 -13    4.42    0.33
   4  -5  13    2.72    0.31
  -4  -5 -13    2.92    0.30
  -4   5 -13    3.25    0.38
  -4   5 -13    2.52    0.28
  -5  -5 -13    1.12    0.26
   5  -5  13    0.76    0.26
  -5   5 -13    1.24    0.30
  -5   5 -13    1.14    0.28
   6  -5  13    1.12    0.31
  -6  -5 -13    0.28    0.29
  -6   5 -13    0.59    0.30
  -6   5 -13    1.18    0.37
   7  -5  13    0.09    0.31
  -7  -5 -13    0.40    0.32
  -7   5 -13    0.63    0.38
  -7   5 -13    0.07    0.32
  -8  -5 -13    0.15    0.36
   8  -5  13    0.78    0.35
  -8   5 -13    0.38    0.38
  -8   5 -13   -0.08    0.37
  -9  -5 -13    0.09    0.39
   9  -5  13    0.13    0.36
  -9   5 -13    0.43    0.45
  -9   5 -13    0.08    0.42
   9  -6 -13    2.92    0.53
  -9   6  13    1.42    0.43
  -9   6  13    1.83    0.41
   8  -6 -13    0.71    0.43
  -8   6  13    0.78    0.34
  -8   6  13    1.52    0.38
   7  -6 -13    0.50    0.38
  -7  -6  13    0.79    0.30
  -7   6  13   -0.03    0.29
  -7   6  13    0.30    0.32
  -6  -6  13    0.41    0.25
   6  -6 -13    0.18    0.31
  -6   6  13   -0.14    0.26
   6   6 -13    0.06    0.20
  -6   6  13    0.49    0.26
  -5  -6  13    2.58    0.38
  -5  -6  13    3.02    0.34
   5  -6 -13    2.81    0.37
  -5   6  13    2.76    0.32
   5   6 -13    3.27    0.32
  -5   6  13    3.14    0.36
   4  -6 -13    2.59    0.37
  -4  -6  13    1.72    0.29
  -4  -6  13    2.13    0.34
  -4   6  13    2.29    0.30
   4   6 -13    2.11    0.27
  -4   6  13    1.87    0.26
  -3  -6  13    0.60    0.26
   3  -6 -13    0.13    0.25
  -3  -6  13    0.47    0.23
   3   6 -13    0.55    0.20
  -3   6  13    0.94    0.22
   2  -6 -13    1.35    0.29
  -2  -6  13    0.54    0.22
  -2  -6  13    0.68    0.24
   2   6 -13    0.86    0.21
   1  -6 -13    0.06    0.24
  -1  -6  13   -0.21    0.19
  -1  -6  13   -0.10    0.17
   1   6 -13    0.26    0.20
   0  -6  13    0.77    0.22
   0  -6  13    0.65    0.22
   0  -6 -13    0.47    0.25
   0   6 -13    0.62    0.23
  -1  -6 -13    5.29    0.31
   1  -6  13    4.60    0.38
  -1  -6 -13    5.73    0.42
  -1   6 -13    4.80    0.38
  -2  -6 -13    4.48    0.39
   2  -6  13    4.39    0.37
  -2  -6 -13    4.16    0.31
  -2   6 -13    3.37    0.36
  -2   6 -13    4.05    0.30
  -3  -6 -13    0.68    0.28
  -3  -6 -13    1.22    0.24
   3  -6  13    0.84    0.24
  -3   6 -13    0.89    0.21
  -3   6 -13    1.03    0.27
  -4  -6 -13    1.27    0.27
   4  -6  13    0.58    0.25
  -4   6 -13    1.19    0.27
  -4   6 -13    0.93    0.30
   5  -6  13    0.75    0.30
  -5  -6 -13    0.41    0.27
  -5   6 -13    1.01    0.29
  -5   6 -13    0.89    0.34
   6  -6  13    0.80    0.32
  -6  -6 -13    0.58    0.30
  -6   6 -13    1.29    0.33
  -6   6 -13    0.67    0.34
   7  -6  13    0.89    0.35
  -7  -6 -13    1.19    0.35
  -7   6 -13    1.07    0.40
  -7   6 -13    1.22    0.38
   8  -6  13   -0.12    0.35
  -8  -6 -13    0.86    0.39
  -8   6 -13    0.04    0.39
  -8   6 -13    0.41    0.40
   9  -7 -13    0.99    0.50
  -9   7  13    0.69    0.43
  -9   7  13    1.07    0.39
  -8  -7  13    2.18    0.40
   8  -7 -13    2.34    0.50
  -8   7  13    2.20    0.39
  -8   7  13    1.91    0.44
   7  -7 -13    0.41    0.37
  -7  -7  13   -0.07    0.30
  -7   7  13   -0.03    0.31
  -7   7  13   -0.03    0.34
  -6  -7  13   -0.02    0.28
   6  -7 -13    0.05    0.37
  -6   7  13   -0.18    0.27
  -6   7  13    0.63    0.33
   5  -7 -13    9.81    0.64
  -5  -7  13    9.47    0.63
  -5  -7  13    9.09    0.56
  -5   7  13    8.01    0.56
  -5   7  13    8.57    0.54
   5   7 -13    9.31    0.54
  -4  -7  13   11.06    0.63
  -4  -7  13    9.61    0.56
   4  -7 -13    9.85    0.63
  -4   7  13    9.29    0.55
  -4   7  13   10.15    0.58
   4   7 -13    9.95    0.57
   3  -7 -13    1.66    0.35
  -3  -7  13    2.00    0.33
  -3  -7  13    1.42    0.31
  -3   7  13    1.40    0.30
   3   7 -13    1.49    0.27
  -2  -7  13   11.51    0.59
   2  -7 -13   11.38    0.64
  -2  -7  13   11.61    0.60
   1  -7 -13    0.02    0.26
  -1  -7  13    0.18    0.23
  -1  -7  13    0.56    0.26
   0  -7  13    5.44    0.38
   0  -7  13    4.71    0.40
   0  -7 -13    5.18    0.44
   0   7 -13    5.00    0.39
   1  -7  13    0.66    0.26
  -1  -7 -13    0.73    0.21
  -1  -7 -13    0.91    0.28
  -1   7 -13    1.01    0.27
   2  -7  13    4.82    0.42
  -2  -7 -13    5.42    0.45
  -2  -7 -13    5.53    0.37
  -2   7 -13    5.58    0.44
  -3  -7 -13    0.99    0.27
  -3  -7 -13    0.47    0.30
   3  -7  13    0.56    0.28
  -3   7 -13    0.47    0.27
  -3   7 -13    1.09    0.25
   4  -7  13    0.95    0.31
  -4  -7 -13    0.94    0.28
  -4   7 -13    0.97    0.28
  -4   7 -13    1.49    0.33
  -5  -7 -13    1.14    0.32
   5  -7  13    1.21    0.34
  -5   7 -13    2.25    0.36
  -5   7 -13    1.91    0.40
   6  -7  13    2.75    0.42
  -6  -7 -13    2.57    0.41
  -6   7 -13    2.01    0.41
  -6   7 -13    2.22    0.37
  -7  -7 -13    0.30    0.37
   7  -7  13    0.48    0.33
  -7   7 -13   -0.24    0.38
  -7   7 -13    0.23    0.37
  -8  -8  13    0.78    0.39
   8  -8 -13   -0.09    0.46
  -8   8  13    0.11    0.41
  -8   8  13    0.45    0.37
   7  -8 -13    0.60    0.45
  -7  -8  13    0.65    0.36
  -7   8  13    0.45    0.32
  -7   8  13    0.78    0.40
  -6  -8  13   -0.27    0.41
   6  -8 -13   -0.17    0.39
  -6  -8  13   -0.45    0.30
  -6   8  13   -0.08    0.35
  -6   8  13    0.14    0.32
   5  -8 -13    1.80    0.43
  -5  -8  13    2.19    0.37
  -5  -8  13    1.38    0.42
   5   8 -13    1.41    0.30
  -5   8  13    2.38    0.41
   4  -8 -13   -0.03    0.32
  -4  -8  13    0.54    0.29
  -4  -8  13   -0.14    0.33
   4   8 -13    0.44    0.25
  -4   8  13   -0.07    0.27
  -3  -8  13    8.82    0.58
   3  -8 -13    8.95    0.63
  -3  -8  13    8.53    0.54
  -3   8  13    8.47    0.57
  -2  -8  13    1.09    0.32
  -2  -8  13    0.84    0.32
   2  -8 -13    1.75    0.39
  -1  -8  13    0.67    0.30
  -1  -8  13    0.38    0.29
   1  -8 -13    1.01    0.35
   0  -8 -13    0.18    0.33
   0  -8  13    0.18    0.28
   0  -8  13   -0.37    0.25
   1  -8  13    5.34    0.47
  -1  -8 -13    6.53    0.53
  -1   8 -13    6.66    0.49
   2  -8  13    0.20    0.30
  -2  -8 -13   -0.04    0.23
  -2  -8 -13    0.26    0.32
  -2   8 -13   -0.15    0.25
   3  -8  13    1.02    0.31
  -3  -8 -13    0.52    0.27
  -3  -8 -13    1.44    0.38
  -3   8 -13    0.82    0.33
   4  -8  13    0.11    0.31
  -4  -8 -13   -0.23    0.27
  -4   8 -13   -0.36    0.30
  -4   8 -13    0.09    0.28
   5  -8  13    0.17    0.33
  -5  -8 -13    0.08    0.29
  -5   8 -13   -0.12    0.30
  -5   8 -13    0.10    0.32
   6  -8  13    0.57    0.35
  -6  -8 -13    0.36    0.35
  -6   8 -13    0.32    0.40
  -6   8 -13   -0.02    0.35
   7  -8  13    0.84    0.38
  -7  -8 -13    0.26    0.38
  -7   8 -13    0.69    0.43
  -7   8 -13    0.15    0.39
   7  -9 -13    1.13    0.48
  -7  -9  13    0.81    0.42
  -7   9  13    0.00    0.41
  -7   9  13   -0.35    0.35
  -6  -9  13   -0.36    0.44
  -6  -9  13    0.35    0.38
   6  -9 -13   -0.51    0.43
  -6   9  13    0.28    0.40
  -5  -9  13    0.49    0.44
  -5  -9  13    0.26    0.37
   5  -9 -13    0.43    0.43
  -5   9  13    0.61    0.39
  -4  -9  13    0.42    0.39
  -4  -9  13   -0.31    0.34
   4  -9 -13    0.70    0.44
  -4   9  13    0.79    0.36
  -3  -9  13    0.46    0.37
   3  -9 -13    0.28    0.37
  -3  -9  13    0.32    0.32
  -3   9  13    0.26    0.34
  -2  -9  13   -0.07    0.33
   2  -9 -13    0.43    0.40
  -2  -9  13    0.12    0.33
  -2   9  13    0.55    0.35
  -1  -9  13    3.31    0.43
  -1  -9  13    3.65    0.44
   1  -9 -13    3.39    0.49
   0  -9 -13    0.16    0.37
   0  -9  13   -0.66    0.27
   0  -9  13    0.20    0.31
   1  -9  13    2.61    0.39
  -1  -9 -13    3.54    0.48
  -2  -9 -13    2.03    0.44
   2  -9  13    2.71    0.41
  -3  -9 -13    1.09    0.41
   3  -9  13    0.76    0.35
  -3  -9 -13    0.64    0.30
  -3   9 -13    0.55    0.35
  -4  -9 -13   -0.23    0.29
   4  -9  13   -0.13    0.34
  -4   9 -13    0.26    0.35
   5  -9  13    0.38    0.34
  -5  -9 -13    0.56    0.35
  -5   9 -13    0.02    0.34
  -5   9 -13    0.16    0.38
  -5 -10  13    0.44    0.43
  -5 -10  13   -0.79    0.43
   5 -10 -13    0.07    0.47
  -5  10  13    0.35    0.42
  -4 -10  13   -0.01    0.41
  -4 -10  13    0.21    0.39
   4 -10 -13   -0.41    0.45
  -4  10  13    0.54    0.40
  -3 -10  13   -0.13    0.35
   3 -10 -13    0.35    0.45
  -3 -10  13    0.54    0.41
  -3  10  13   -0.39    0.32
   2 -10 -13    0.51    0.46
  -2 -10  13    0.24    0.38
  -2 -10  13   -0.23    0.34
  -2  10  13   -0.29    0.32
  -1 -10  13    0.61    0.38
  -1 -10  13    0.80    0.38
   1 -10 -13    1.32    0.48
   0 -10 -13    0.50    0.45
   0 -10  13    0.48    0.36
   0 -10  13    0.17    0.36
  -1 -10 -13   -0.21    0.42
   1 -10  13    0.99    0.36
  -2 -10 -13    0.28    0.44
   2 -10  13    0.36    0.38
  -3 -10 -13    0.66    0.32
  -3 -10 -13    1.38    0.50
   3 -10  13    0.87    0.36
  -4 -10 -13    0.38    0.35
   4 -10  13    0.56    0.38
  -2 -11  13    0.56    0.43
   2 -11 -13   -0.24    0.49
  -2 -11  13    0.72    0.44
  -2  11  13    0.11    0.42
  -1 -11  13    0.24    0.43
   1 -11 -13    0.57    0.52
  -1 -11  13    0.00    0.42
  -1  11  13   -0.30    0.40
   0 -11  13    0.27    0.41
   0 -11 -13   -0.60    0.46
  -1 -11 -13   -0.11    0.47
   1 -11  13    0.13    0.41
  11   0 -14    0.10    0.48
 -10   0  14    7.80    0.58
  10   0 -14    7.94    0.70
  -9   0  14    0.07    0.26
   9   0 -14    0.34    0.42
  -8   0  14    1.46    0.28
   8   0 -14    1.74    0.40
  -7   0  14    0.25    0.19
   7   0 -14   -0.43    0.28
   6   0 -14    5.10    0.41
   6   0 -14    3.95    0.29
  -6   0  14    3.40    0.30
   5   0 -14    0.05    0.21
   5   0 -14    0.11    0.13
   4   0 -14   77.81    2.67
   4   0 -14   79.83    2.52
   3   0 -14   -0.16    0.14
   3   0 -14   -0.04    0.11
   2   0 -14    0.43    0.13
   2   0 -14    0.44    0.13
   1   0 -14    0.08    0.13
   1   0 -14    0.00    0.09
   0   0 -14   53.01    1.86
   0   0 -14   54.91    1.81
   0   0 -14   53.19    1.62
  -1   0 -14    0.33    0.12
  -1   0 -14    0.44    0.16
  -1   0 -14    0.06    0.11
  -2   0 -14    5.38    0.34
  -2   0 -14    5.54    0.30
  -2   0 -14    6.04    0.33
  -3   0 -14    0.06    0.15
  -3   0 -14    0.02    0.14
  -3   0 -14   -0.26    0.13
  -4   0 -14   20.20    0.77
  -4   0 -14   20.50    0.77
  -4   0 -14   20.63    0.82
  -5   0 -14    0.11    0.20
  -5   0 -14   -0.03    0.18
  -5   0 -14   -0.08    0.20
  -6   0 -14    7.44    0.49
  -6   0 -14    7.10    0.49
  -6   0 -14    7.75    0.48
  -7   0 -14   -0.07    0.29
  -7   0 -14    0.22    0.30
  -8   0 -14   10.82    0.64
  -8   0 -14    9.78    0.63
  -9   0 -14    0.09    0.38
 -10   0 -14    1.52    0.49
  11  -1 -14   -0.89    0.46
  11   1 -14   -0.05    0.50
 -11   1  14   -0.22    0.33
  10  -1 -14    3.17    0.53
  10   1 -14    2.18    0.53
 -10   1  14    2.21    0.39
   9  -1 -14   -0.07    0.39
   9   1 -14    0.22    0.37
  -9   1  14    0.08    0.29
   8  -1 -14    0.52    0.35
   8   1 -14    0.61    0.34
  -8   1  14    0.24    0.26
   8   1 -14    0.40    0.16
   7  -1 -14    0.03    0.28
   7   1 -14    0.25    0.15
  -7   1  14   -0.14    0.21
   6  -1 -14    1.81    0.31
   6   1 -14    1.43    0.20
  -6   1  14    1.48    0.23
   5  -1 -14    9.73    0.52
   5   1 -14   10.18    0.48
  -5   1  14    9.04    0.46
   4  -1 -14   29.50    1.05
   4  -1 -14   29.37    1.09
  -4   1  14   30.29    0.94
   4   1 -14   28.84    1.09
   3  -1 -14   30.04    1.04
   3  -1 -14   30.73    1.11
   3   1 -14   28.77    1.10
  -2  -1  14   42.26    1.40
   2  -1 -14   42.24    1.38
   2  -1 -14   42.48    1.51
   2   1 -14   42.55    1.50
   2   1 -14   42.75    1.47
  -1  -1  14   23.95    0.86
   1  -1 -14   25.43    0.89
   1  -1 -14   25.17    0.94
   1   1 -14   24.21    0.91
   0  -1 -14    0.56    0.14
   0  -1 -14    0.42    0.14
   0  -1  14    0.80    0.12
   0   1 -14    0.53    0.13
   0   1 -14    0.95    0.17
  -1  -1 -14   11.48    0.52
   1  -1  14   12.25    0.47
  -1  -1 -14   10.50    0.51
  -1  -1 -14   11.87    0.46
  -1   1 -14   10.48    0.52
  -1   1 -14   11.93    0.44
  -1   1 -14   11.76    0.52
   2  -1  14    8.61    0.39
  -2  -1 -14    7.71    0.41
  -2  -1 -14    8.43    0.38
  -2  -1 -14    7.80    0.35
  -2   1 -14    7.28    0.41
  -2   1 -14    8.27    0.37
  -3  -1 -14   13.17    0.54
  -3  -1 -14   13.16    0.56
  -3  -1 -14   13.56    0.58
  -3   1 -14   14.56    0.60
  -3   1 -14   13.63    0.55
  -4  -1 -14    1.83    0.22
  -4  -1 -14    1.60    0.23
  -4  -1 -14    1.61    0.25
  -4   1 -14    1.45    0.22
  -4   1 -14    1.64    0.24
  -5  -1 -14    0.53    0.19
  -5  -1 -14    0.51    0.22
  -5  -1 -14    0.19    0.21
  -5   1 -14    0.52    0.23
  -5   1 -14    0.84    0.22
  -6  -1 -14   -0.15    0.23
  -6  -1 -14    0.39    0.25
  -6   1 -14    0.15    0.22
  -6   1 -14    0.69    0.25
  -7  -1 -14    1.94    0.34
  -7  -1 -14    1.73    0.37
  -7   1 -14    2.11    0.37
  -7   1 -14    1.93    0.32
  -8  -1 -14    1.14    0.37
  -8  -1 -14    1.09    0.36
  -8   1 -14    0.97    0.34
  -8   1 -14    0.72    0.32
  -9  -1 -14    0.65    0.37
  -9  -1 -14    0.40    0.39
  -9   1 -14    0.36    0.37
 -10  -1 -14    0.10    0.40
  10  -1  14    0.33    0.38
 -10  -1 -14    1.17    0.44
 -10   1 -14    0.51    0.46
  11  -2 -14    0.42    0.49
  11   2 -14    0.77    0.54
 -11   2  14    0.37    0.37
  10  -2 -14   -0.46    0.42
 -10   2  14   -0.26    0.32
  10   2 -14   -0.58    0.40
   9  -2 -14   -0.36    0.38
  -9   2  14    0.02    0.29
   9   2 -14    0.16    0.15
   8  -2 -14   -0.13    0.34
   8   2 -14    0.13    0.17
  -8   2  14    0.02    0.25
   7  -2 -14    1.56    0.35
  -7   2  14    1.53    0.26
   7   2 -14    1.18    0.21
   6  -2 -14   12.15    0.62
   6   2 -14   12.43    0.56
  -6   2  14   12.25    0.60
   5  -2 -14   15.12    0.68
  -5   2  14   15.99    0.67
   5   2 -14   16.43    0.67
  -5   2  14   15.62    0.60
   4  -2 -14   15.42    0.66
  -4   2  14   16.67    0.64
   4   2 -14   16.36    0.67
   3  -2 -14   20.04    0.78
   3   2 -14   21.58    0.82
   3   2 -14   21.08    0.81
   2  -2 -14    0.11    0.14
   2   2 -14    0.03    0.15
   2   2 -14    0.09    0.12
   1  -2 -14   13.07    0.51
  -1  -2  14   13.34    0.48
   0  -2  14   31.67    0.99
   0  -2 -14   30.66    1.07
   0  -2  14   30.65    1.05
   0   2 -14   29.93    1.10
   0   2 -14   27.16    1.08
   1  -2  14    3.63    0.24
  -1  -2 -14    3.39    0.27
  -1   2 -14    3.12    0.21
  -1   2 -14    2.52    0.24
  -1   2 -14    3.15    0.23
  -1   2 -14    2.88    0.27
  -2  -2 -14   57.49    1.73
   2  -2  14   55.12    1.74
  -2  -2 -14   56.45    1.71
  -2  -2 -14   50.64    1.84
  -2   2 -14   57.27    1.91
  -2   2 -14   55.50    1.88
  -2   2 -14   54.72    1.69
  -3  -2 -14    4.79    0.34
   3  -2  14    5.42    0.36
  -3  -2 -14    5.97    0.32
  -3  -2 -14    5.74    0.35
  -3   2 -14    5.57    0.31
  -3   2 -14    5.58    0.34
  -3   2 -14    5.54    0.38
  -4  -2 -14    9.75    0.50
   4  -2  14    9.63    0.48
  -4  -2 -14    9.48    0.47
  -4   2 -14    9.62    0.52
  -4   2 -14    9.86    0.48
  -5  -2 -14    0.11    0.21
  -5  -2 -14   -0.19    0.22
   5  -2  14    0.26    0.20
  -5   2 -14    0.44    0.21
  -5   2 -14    0.07    0.21
  -6  -2 -14   -0.13    0.24
  -6  -2 -14    0.06    0.22
   6  -2  14   -0.19    0.21
  -6   2 -14   -0.09    0.23
  -6   2 -14   -0.04    0.25
  -7  -2 -14    1.61    0.33
  -7  -2 -14    1.74    0.36
   7  -2  14    1.18    0.30
  -7   2 -14    1.28    0.35
  -7   2 -14    1.69    0.36
  -8  -2 -14   -0.09    0.32
   8  -2  14    0.11    0.30
  -8  -2 -14    0.17    0.34
  -8   2 -14    0.09    0.34
  -8   2 -14    0.60    0.35
  -9  -2 -14   -0.05    0.37
   9  -2  14    0.13    0.32
  -9  -2 -14   -0.12    0.36
  -9   2 -14    0.11    0.37
  -9   2 -14   -0.32    0.38
  10  -3 -14    0.13    0.45
 -10   3  14    0.80    0.34
   9  -3 -14    5.69    0.56
  -9   3  14    4.88    0.46
   8  -3 -14    1.03    0.39
  -8   3  14    1.79    0.32
   8   3 -14    2.00    0.27
   7  -3 -14    0.60    0.33
   7   3 -14    0.46    0.18
  -7   3  14    0.37    0.24
   6  -3 -14    1.49    0.30
   6   3 -14    1.46    0.21
  -6   3  14    1.33    0.25
  -6   3  14    2.11    0.27
   5  -3 -14   85.73    2.83
  -5   3  14   87.46    2.67
  -5   3  14   91.08    2.90
   5   3 -14   87.89    2.98
   5   3 -14   89.29    2.91
   4  -3 -14    2.32    0.29
  -4  -3  14    2.51    0.22
   4   3 -14    2.55    0.29
  -4   3  14    2.16    0.24
   4   3 -14    2.38    0.24
  -4   3  14    2.58    0.24
   3  -3 -14    9.42    0.46
  -3  -3  14    9.00    0.39
   3   3 -14    8.73    0.43
  -3   3  14    9.54    0.44
   3   3 -14    8.57    0.48
  -2  -3  14   14.74    0.54
   2  -3 -14   13.67    0.58
   2   3 -14   14.72    0.61
   2   3 -14   13.04    0.62
  -1  -3  14   32.20    1.05
   1  -3 -14   33.49    1.09
   1   3 -14   30.01    1.16
   1   3 -14   30.83    1.16
   1   3 -14   32.62    1.08
   0  -3 -14    5.46    0.31
   0  -3  14    5.03    0.31
   0  -3 -14    5.80    0.32
   0   3 -14    5.06    0.38
   0   3 -14    5.11    0.27
   0   3 -14    5.14    0.33
  -1  -3 -14   41.79    1.28
   1  -3  14   39.20    1.33
  -1  -3 -14   41.60    1.41
  -1  -3 -14   40.98    1.34
  -1   3 -14   40.98    1.43
  -1   3 -14   42.78    1.45
  -1   3 -14   41.21    1.27
  -2  -3 -14    0.01    0.13
   2  -3  14    0.02    0.15
  -2   3 -14    0.22    0.18
  -2   3 -14    0.22    0.14
  -2   3 -14    0.12    0.14
   3  -3  14    0.19    0.18
  -3  -3 -14   -0.02    0.16
  -3   3 -14    0.13    0.15
  -3   3 -14    0.34    0.21
  -3   3 -14    0.46    0.16
   4  -3  14   -0.01    0.19
  -4  -3 -14    0.15    0.19
  -4  -3 -14    0.07    0.21
  -4   3 -14    0.05    0.19
  -4   3 -14    0.28    0.21
   5  -3  14   10.54    0.54
  -5  -3 -14   10.71    0.54
  -5  -3 -14   10.18    0.57
  -5   3 -14   10.47    0.54
  -5   3 -14   10.46    0.59
  -6  -3 -14    0.48    0.27
   6  -3  14    0.97    0.27
  -6  -3 -14    0.69    0.29
  -6   3 -14    0.52    0.30
  -6   3 -14    0.50    0.27
   7  -3  14   -0.10    0.28
  -7  -3 -14   -0.33    0.29
  -7  -3 -14    0.47    0.28
  -7   3 -14    0.09    0.30
  -7   3 -14   -0.64    0.30
   8  -3  14    0.35    0.31
  -8  -3 -14    0.61    0.35
  -8  -3 -14    0.45    0.36
  -8   3 -14    1.03    0.39
  -8   3 -14    0.38    0.35
   9  -3  14   -0.05    0.34
  -9  -3 -14    0.45    0.38
  -9  -3 -14    0.41    0.39
  -9   3 -14    0.57    0.42
  -9   3 -14    0.63    0.42
  10  -4 -14    0.07    0.46
 -10   4  14    0.43    0.35
   9  -4 -14   -0.26    0.40
  -9   4  14   -0.19    0.30
   8  -4 -14    0.35    0.38
  -8   4  14    0.15    0.26
   8   4 -14    0.60    0.22
   7  -4 -14    1.15    0.36
  -7   4  14    1.02    0.29
  -7   4  14    0.70    0.27
   7   4 -14    1.19    0.22
   6  -4 -14    7.28    0.53
  -6   4  14    7.33    0.45
  -6   4  14    8.19    0.49
   6   4 -14    6.80    0.41
   5  -4 -14    0.64    0.27
  -5  -4  14    0.99    0.20
  -5   4  14    0.63    0.21
  -5   4  14    0.61    0.22
   5   4 -14    0.78    0.18
   4  -4 -14    0.42    0.24
  -4  -4  14    0.31    0.16
  -4   4  14    0.64    0.20
   4   4 -14    0.32    0.21
  -4   4  14    0.22    0.19
   4   4 -14    0.26    0.16
   3  -4 -14   13.04    0.59
  -3  -4  14   12.60    0.53
  -3   4  14   12.99    0.57
   3   4 -14   13.15    0.61
   3   4 -14   12.89    0.57
   2  -4 -14   13.56    0.58
  -2  -4  14   14.30    0.58
  -2  -4  14   13.97    0.56
   2   4 -14   14.35    0.61
   2   4 -14   13.05    0.62
  -1  -4  14    0.60    0.17
   1  -4 -14    0.78    0.19
  -1  -4  14    1.11    0.20
   1   4 -14    0.45    0.19
   1   4 -14    0.57    0.16
   0  -4 -14    1.71    0.22
   0  -4  14    1.84    0.22
   0  -4  14    1.45    0.19
   0   4 -14    1.69    0.17
   0   4 -14    1.83    0.24
   0   4 -14    1.66    0.21
  -1  -4 -14   12.68    0.55
  -1  -4 -14   14.03    0.51
   1  -4  14   13.49    0.56
  -1   4 -14   12.80    0.49
  -1   4 -14   13.33    0.55
  -1   4 -14   13.59    0.61
  -2  -4 -14    0.05    0.18
   2  -4  14    0.25    0.18
  -2  -4 -14    0.19    0.16
  -2   4 -14    0.48    0.20
  -2   4 -14    0.17    0.15
  -2   4 -14    0.23    0.15
  -3  -4 -14    0.79    0.21
   3  -4  14    0.67    0.22
  -3   4 -14    0.80    0.25
  -3   4 -14    0.74    0.20
  -3   4 -14    0.70    0.19
  -4  -4 -14    0.07    0.18
   4  -4  14   -0.15    0.21
  -4   4 -14    0.18    0.19
  -4   4 -14    0.22    0.24
  -5  -4 -14    0.87    0.26
   5  -4  14    0.22    0.22
  -5   4 -14    0.50    0.28
  -5   4 -14    0.47    0.25
   6  -4  14    5.65    0.47
  -6  -4 -14    7.12    0.48
  -6   4 -14    5.70    0.45
  -6   4 -14    6.23    0.54
   7  -4  14    0.33    0.32
  -7  -4 -14    0.87    0.34
  -7  -4 -14    0.51    0.33
  -7   4 -14    0.74    0.37
  -7   4 -14    0.92    0.33
   8  -4  14    2.32    0.42
  -8  -4 -14    2.34    0.42
  -8  -4 -14    2.44    0.41
  -8   4 -14    1.76    0.43
  -8   4 -14    2.20    0.44
  -9  -4 -14    0.11    0.38
  -9  -4 -14    0.14    0.40
   9  -4  14    0.03    0.36
  -9   4 -14    0.42    0.43
  -9   4 -14    0.38    0.44
  10  -5 -14   -0.41    0.46
 -10   5  14    0.37    0.34
   9  -5 -14    0.10    0.44
  -9   5  14    0.28    0.33
   8  -5 -14    4.72    0.53
  -8   5  14    5.36    0.47
  -8   5  14    6.22    0.52
   7  -5 -14   -0.26    0.34
  -7   5  14    0.36    0.29
  -7   5  14    0.37    0.28
   7   5 -14    0.30    0.19
  -6  -5  14    6.92    0.44
   6  -5 -14    7.42    0.55
  -6   5  14    6.81    0.47
   6   5 -14    7.13    0.43
  -6   5  14    7.26    0.48
  -5  -5  14    5.28    0.39
   5  -5 -14    6.25    0.48
  -5   5  14    5.25    0.39
  -5   5  14    5.26    0.41
   5   5 -14    5.37    0.37
  -4  -5  14    3.18    0.36
   4  -5 -14    3.64    0.36
  -4  -5  14    3.33    0.31
  -4   5  14    3.02    0.31
  -4   5  14    3.27    0.31
   4   5 -14    2.81    0.28
  -3  -5  14    4.62    0.37
   3  -5 -14    4.36    0.38
  -3  -5  14    5.22    0.35
   3   5 -14    4.58    0.33
   3   5 -14    4.44    0.36
  -3   5  14    4.21    0.33
  -2  -5  14    2.26    0.25
  -2  -5  14    2.50    0.28
   2  -5 -14    2.02    0.28
   2   5 -14    2.23    0.27
  -2   5  14    2.19    0.23
   2   5 -14    2.17    0.24
  -1  -5  14    1.59    0.23
  -1  -5  14    1.33    0.22
   1  -5 -14    1.72    0.26
   1   5 -14    1.54    0.22
   1   5 -14    1.71    0.25
   0  -5  14    0.45    0.18
   0  -5  14    0.47    0.19
   0  -5 -14    0.72    0.23
   0   5 -14    0.61    0.20
  -1  -5 -14   22.44    0.78
  -1  -5 -14   22.40    0.85
   1  -5  14   23.17    0.85
  -1   5 -14   22.81    0.91
  -1   5 -14   21.65    0.86
  -2  -5 -14    5.93    0.35
   2  -5  14    6.62    0.40
  -2  -5 -14    5.89    0.40
  -2   5 -14    6.57    0.35
  -2   5 -14    6.34    0.44
  -2   5 -14    7.42    0.41
  -3  -5 -14    1.61    0.25
   3  -5  14    1.80    0.27
  -3   5 -14    1.95    0.25
  -3   5 -14    1.56    0.29
   4  -5  14    3.27    0.35
  -4  -5 -14    3.91    0.35
  -4   5 -14    3.36    0.38
  -4   5 -14    3.84    0.34
  -5  -5 -14    0.75    0.27
   5  -5  14    0.43    0.25
  -5   5 -14    0.08    0.29
  -5   5 -14    0.30    0.26
  -6  -5 -14    3.16    0.39
   6  -5  14    2.41    0.38
  -6   5 -14    3.93    0.48
  -6   5 -14    3.48    0.39
   7  -5  14    1.10    0.35
  -7  -5 -14    0.01    0.32
  -7   5 -14    0.79    0.40
  -7   5 -14    0.93    0.36
   8  -5  14    0.95    0.38
  -8  -5 -14    0.94    0.40
  -8   5 -14    1.12    0.45
  -8   5 -14    0.02    0.38
  -9   5 -14   -0.21    0.41
   9  -6 -14   -0.36    0.44
  -9   6  14    0.22    0.32
  -9   6  14   -0.02    0.37
   8  -6 -14    0.21    0.41
  -8   6  14   -0.13    0.33
  -8   6  14    0.08    0.31
   7  -6 -14    0.24    0.38
  -7  -6  14   -0.15    0.26
  -7   6  14    0.33    0.28
  -7   6  14    0.06    0.28
   6  -6 -14    4.88    0.49
  -6  -6  14    4.11    0.41
   6   6 -14    4.35    0.37
  -6   6  14    4.56    0.44
  -6   6  14    4.57    0.41
  -5  -6  14    1.72    0.30
   5  -6 -14    2.22    0.37
  -5   6  14    2.15    0.33
   5   6 -14    2.68    0.30
  -5   6  14    1.94    0.29
   4  -6 -14   12.33    0.64
  -4  -6  14   13.83    0.67
  -4  -6  14   12.83    0.61
  -4   6  14   12.75    0.61
   4   6 -14   12.61    0.62
  -4   6  14   11.77    0.59
   3  -6 -14   -0.01    0.27
  -3  -6  14   -0.31    0.21
  -3  -6  14   -0.02    0.21
   3   6 -14    0.07    0.18
  -3   6  14    0.19    0.21
  -2  -6  14    0.57    0.24
  -2  -6  14    0.28    0.22
   2  -6 -14    0.63    0.25
   2   6 -14    0.40    0.19
   1  -6 -14    4.12    0.38
  -1  -6  14    3.97    0.34
  -1  -6  14    4.30    0.36
   1   6 -14    3.59    0.34
   0  -6  14   47.09    1.57
   0  -6 -14   48.43    1.62
   0  -6  14   46.86    1.56
   0   6 -14   46.88    1.66
  -1  -6 -14    0.11    0.18
   1  -6  14    0.11    0.23
  -1  -6 -14    0.09    0.24
  -1   6 -14   -0.01    0.23
  -2  -6 -14   13.12    0.57
  -2  -6 -14   14.73    0.65
   2  -6  14   14.08    0.63
  -2   6 -14   13.38    0.56
  -2   6 -14   13.61    0.66
   3  -6  14    0.07    0.24
  -3  -6 -14    0.09    0.19
  -3   6 -14   -0.10    0.20
  -3   6 -14    0.19    0.26
   4  -6  14   -0.05    0.26
  -4  -6 -14    0.03    0.23
  -4   6 -14   -0.03    0.24
  -4   6 -14   -0.01    0.28
  -5  -6 -14    0.13    0.27
   5  -6  14    0.18    0.28
  -5   6 -14    0.03    0.24
  -5   6 -14    0.31    0.32
   6  -6  14    0.42    0.32
  -6  -6 -14   -0.07    0.30
  -6   6 -14   -0.21    0.30
  -6   6 -14    0.00    0.32
   7  -6  14    0.00    0.33
  -7  -6 -14   -0.02    0.33
  -7   6 -14    0.52    0.38
  -7   6 -14    0.05    0.35
   8  -6  14    0.31    0.37
  -8  -6 -14    0.33    0.38
  -8   6 -14   -0.51    0.42
  -8   6 -14   -0.15    0.36
   8  -7 -14    1.74    0.49
  -8   7  14    1.24    0.35
  -8   7  14    0.84    0.40
  -7  -7  14    0.22    0.31
   7  -7 -14   -0.11    0.41
  -7   7  14    0.02    0.31
  -7   7  14    0.27    0.32
  -6  -7  14   -0.15    0.27
   6  -7 -14    0.42    0.35
  -6   7  14    0.09    0.31
  -6   7  14   -0.03    0.28
  -5  -7  14    0.48    0.35
   5  -7 -14    0.72    0.35
  -5  -7  14    0.92    0.30
  -5   7  14    0.47    0.28
   5   7 -14    0.91    0.25
  -5   7  14    0.40    0.31
  -4  -7  14    0.40    0.25
  -4  -7  14   -0.10    0.30
   4  -7 -14    0.32    0.34
  -4   7  14   -0.08    0.24
   4   7 -14    0.30    0.24
  -4   7  14    0.24    0.28
  -3  -7  14    4.44    0.42
   3  -7 -14    3.80    0.43
  -3  -7  14    3.57    0.39
   3   7 -14    4.28    0.38
  -3   7  14    3.76    0.39
  -2  -7  14    0.99    0.29
   2  -7 -14    0.82    0.33
  -2  -7  14    1.26    0.29
   1  -7 -14    1.16    0.30
  -1  -7  14    1.30    0.28
  -1  -7  14    1.60    0.32
   0  -7 -14   11.86    0.62
   0  -7  14   10.56    0.59
   0  -7  14   11.74    0.55
   0   7 -14   11.42    0.60
  -1  -7 -14    1.41    0.32
   1  -7  14    0.58    0.27
  -1   7 -14    1.25    0.29
  -2  -7 -14    1.22    0.24
  -2  -7 -14    0.63    0.30
   2  -7  14    0.91    0.29
  -2   7 -14    0.78    0.30
  -3  -7 -14    2.31    0.38
   3  -7  14    2.09    0.35
  -3  -7 -14    1.97    0.30
  -3   7 -14    2.38    0.30
  -3   7 -14    2.04    0.36
   4  -7  14    0.59    0.29
  -4  -7 -14    0.64    0.26
  -4   7 -14    0.66    0.33
  -4   7 -14    0.39    0.25
   5  -7  14    0.38    0.31
  -5  -7 -14    0.29    0.30
  -5   7 -14    0.49    0.36
  -5   7 -14    0.84    0.31
   6  -7  14   -0.01    0.33
  -6  -7 -14    0.04    0.32
  -6   7 -14    0.15    0.33
  -6   7 -14   -0.10    0.34
   7  -7  14    0.40    0.37
  -7  -7 -14    0.38    0.34
  -7   7 -14   -0.03    0.36
  -7   7 -14    0.28    0.42
  -8  -8  14    0.71    0.39
   8  -8 -14   -0.40    0.46
  -8   8  14    0.15    0.36
  -8   8  14   -0.26    0.39
   7  -8 -14    1.30    0.48
  -7  -8  14    0.72    0.38
  -7   8  14    0.53    0.33
  -7   8  14    0.62    0.39
   6  -8 -14    0.99    0.43
  -6  -8  14    0.27    0.34
  -6   8  14    1.29    0.38
  -6   8  14    0.25    0.31
   5  -8 -14    0.67    0.40
  -5  -8  14    0.05    0.31
  -5  -8  14    0.20    0.38
  -5   8  14   -0.04    0.33
   4  -8 -14    3.33    0.44
  -4  -8  14    3.22    0.42
  -4  -8  14    2.94    0.45
  -4   8  14    3.63    0.43
   4   8 -14    3.14    0.37
  -3  -8  14    0.18    0.30
   3  -8 -14   -0.36    0.34
  -3  -8  14   -0.56    0.30
  -3   8  14    0.02    0.29
  -2  -8  14    0.83    0.30
  -2  -8  14    0.70    0.31
   2  -8 -14    1.14    0.35
  -1  -8  14    4.61    0.44
  -1  -8  14    4.73    0.43
   1  -8 -14    5.70    0.51
   0  -8  14    0.18    0.26
   0  -8 -14    0.55    0.35
   0  -8  14    0.16    0.27
   1  -8  14    0.08    0.28
  -1  -8 -14    0.35    0.32
  -1   8 -14   -0.08    0.27
  -2  -8 -14    0.73    0.26
  -2  -8 -14    0.79    0.35
   2  -8  14    1.01    0.33
  -2   8 -14    0.31    0.31
  -3  -8 -14    2.56    0.43
   3  -8  14    2.63    0.38
  -3  -8 -14    2.27    0.33
  -3   8 -14    2.29    0.39
   4  -8  14    1.16    0.35
  -4  -8 -14    0.40    0.29
  -4   8 -14    0.63    0.30
  -4   8 -14    0.91    0.34
   5  -8  14    0.73    0.36
  -5  -8 -14    0.35    0.32
  -5   8 -14    0.32    0.36
  -5   8 -14    0.40    0.32
   6  -8  14    0.66    0.39
  -6  -8 -14    1.11    0.38
  -6   8 -14    1.06    0.36
  -6   8 -14    2.53    0.48
   6  -9 -14    1.40    0.46
  -6  -9  14    1.87    0.44
  -6  -9  14    0.96    0.46
  -6   9  14    0.62    0.40
  -5  -9  14    7.40    0.63
   5  -9 -14    8.30    0.68
  -5  -9  14    7.99    0.67
  -5   9  14    7.31    0.63
   4  -9 -14    1.76    0.46
  -4  -9  14    0.92    0.41
  -4  -9  14    0.81    0.36
  -4   9  14    1.28    0.39
   3  -9 -14    0.79    0.43
  -3  -9  14    1.06    0.38
  -3  -9  14    0.30    0.37
  -3   9  14    0.35    0.33
   2  -9 -14    0.13    0.40
  -2  -9  14    0.68    0.35
  -2  -9  14    0.34    0.34
  -1  -9  14    3.43    0.44
  -1  -9  14    4.69    0.49
   1  -9 -14    4.86    0.54
   0  -9  14    0.61    0.34
   0  -9 -14    1.05    0.40
  -1  -9 -14    2.47    0.47
   1  -9  14    2.98    0.44
   2  -9  14    0.78    0.35
  -2  -9 -14    1.03    0.41
  -3  -9 -14   -0.51    0.38
  -3  -9 -14   -0.04    0.28
   3  -9  14    0.39    0.35
  -3   9 -14   -0.25    0.32
   4  -9  14   -0.01    0.33
  -4  -9 -14    0.20    0.30
  -4   9 -14    0.10    0.32
   5  -9  14    0.11    0.37
  -5  -9 -14    0.44    0.35
  -5   9 -14    0.17    0.39
  -5   9 -14    0.53    0.36
   5 -10 -14    0.96    0.52
  -5 -10  14    1.39    0.47
  -5 -10  14    1.17    0.50
  -5  10  14    1.17    0.43
  -4 -10  14    0.34    0.43
   4 -10 -14    0.47    0.44
  -4 -10  14    0.08    0.40
  -4  10  14   -0.68    0.37
   3 -10 -14   -0.22    0.44
  -3 -10  14   -0.09    0.38
  -3 -10  14    0.37    0.40
  -3  10  14    0.11    0.39
  -2 -10  14   -0.03    0.39
   2 -10 -14    0.37    0.46
  -2 -10  14    0.29    0.38
  -2  10  14   -0.59    0.36
   1 -10 -14    1.20    0.47
  -1 -10  14    1.16    0.42
  -1 -10  14    0.87    0.38
   0 -10 -14    2.32    0.50
   0 -10  14    2.44    0.43
   1 -10  14   -0.24    0.36
  -1 -10 -14   -0.66    0.39
  -2 -10 -14    0.08    0.43
   2 -10  14    0.46    0.39
  -3 -10 -14   -0.47    0.43
   3 -10  14    0.17    0.35
   4 -10  14    1.45    0.42
  -4 -10 -14    0.66    0.36
  -1 -11  14    0.34    0.41
   1 -11 -14   -0.08    0.50
  -1 -11  14   -0.16    0.39
  -1  11  14   -0.48    0.39
   0 -11 -14   -0.88    0.46
   0 -11  14    0.18    0.39
  11   0 -15   -0.75    0.48
  10   0 -15   -0.45    0.43
  -9   0  15    6.87    0.54
   9   0 -15    8.00    0.68
  -8   0  15    0.46    0.26
   8   0 -15   -0.26    0.34
   7   0 -15    2.30    0.38
   6   0 -15    0.07    0.26
   6   0 -15   -0.09    0.14
   5   0 -15    6.90    0.45
   5   0 -15    6.65    0.38
   4   0 -15   -0.13    0.13
   4   0 -15    0.20    0.19
   3   0 -15    3.62    0.29
   3   0 -15    3.46    0.27
   2   0 -15    0.01    0.13
   2   0 -15    0.12    0.12
   1   0 -15   11.13    0.51
   1   0 -15   11.00    0.52
   0   0 -15    0.22    0.11
   0   0  15    0.28    0.10
   0   0 -15   -0.13    0.11
  -1   0 -15  221.12    6.32
  -1   0 -15  217.44    7.13
  -1   0 -15  214.89    6.91
  -2   0 -15    0.14    0.15
  -2   0 -15   -0.05    0.14
  -3   0 -15    4.22    0.31
  -3   0 -15    4.37    0.30
  -3   0 -15    4.71    0.33
  -4   0 -15    0.01    0.18
  -4   0 -15    0.19    0.18
  -4   0 -15    0.57    0.21
  -5   0 -15   14.85    0.68
  -5   0 -15   13.67    0.64
  -5   0 -15   14.07    0.65
  -6   0 -15    0.21    0.27
  -6   0 -15    0.00    0.23
  -6   0 -15    0.04    0.26
  -7   0 -15    3.15    0.40
  -7   0 -15    2.90    0.38
  -8   0 -15    0.01    0.35
  -9   0 -15    0.19    0.41
  11  -1 -15   -0.55    0.49
  11   1 -15    0.55    0.53
 -11   1  15    0.16    0.35
  10  -1 -15   -0.18    0.45
  10   1 -15   -0.14    0.42
 -10   1  15   -0.07    0.31
   9  -1 -15    0.85    0.42
   9   1 -15    0.82    0.42
  -9   1  15   -0.02    0.28
   8  -1 -15    0.16    0.32
   8   1 -15    0.16    0.36
   8   1 -15    0.49    0.17
  -8   1  15    0.09    0.24
   7  -1 -15    5.48    0.47
   7   1 -15    4.62    0.33
  -7   1  15    5.46    0.39
   6  -1 -15   20.57    0.87
   6   1 -15   19.64    0.81
  -6   1  15   21.07    0.83
   5  -1 -15   15.50    0.67
   5   1 -15   14.88    0.65
   4  -1 -15    0.61    0.16
   4  -1 -15    1.18    0.22
   4   1 -15    1.49    0.20
   3  -1 -15    6.77    0.35
   3  -1 -15    6.12    0.36
   3   1 -15    6.70    0.37
  -2  -1  15   18.39    0.64
   2  -1 -15   19.12    0.69
   2  -1 -15   18.07    0.75
   2   1 -15   17.84    0.75
   2   1 -15   19.34    0.75
  -1  -1  15    4.30    0.23
   1  -1 -15    4.51    0.30
   1  -1 -15    4.79    0.30
   1   1 -15    4.10    0.30
   1   1 -15    4.35    0.31
   0  -1 -15   32.93    1.23
   0  -1 -15   34.32    1.19
   0  -1  15   34.04    1.18
   0   1 -15   32.60    1.21
   0   1 -15   33.54    1.23
   0   1 -15   34.06    1.05
  -1  -1 -15    8.84    0.45
   1  -1  15    8.88    0.41
  -1  -1 -15    9.50    0.46
  -1  -1 -15    9.56    0.41
  -1   1 -15    8.71    0.47
  -1   1 -15    9.37    0.39
  -1   1 -15   10.08    0.47
  -2  -1 -15    0.25    0.13
  -2  -1 -15   -0.09    0.14
  -2  -1 -15    0.12    0.14
   2  -1  15    0.39    0.15
  -2   1 -15    0.09    0.17
  -2   1 -15    0.28    0.14
  -3  -1 -15    3.57    0.28
  -3  -1 -15    3.75    0.30
  -3  -1 -15    3.11    0.27
  -3   1 -15    2.87    0.25
  -3   1 -15    3.08    0.29
  -4  -1 -15    3.40    0.31
  -4  -1 -15    3.80    0.32
  -4  -1 -15    3.84    0.31
  -4   1 -15    2.91    0.28
  -4   1 -15    3.89    0.33
  -5  -1 -15   -0.12    0.20
  -5  -1 -15   -0.37    0.21
  -5   1 -15    0.42    0.24
  -5   1 -15    0.49    0.23
  -6  -1 -15    1.17    0.28
  -6  -1 -15    1.40    0.30
  -6   1 -15    1.41    0.29
  -6   1 -15    1.40    0.30
  -7  -1 -15    6.79    0.53
  -7  -1 -15    6.52    0.54
  -7   1 -15    6.71    0.53
  -7   1 -15    6.29    0.51
  -8  -1 -15    0.42    0.36
  -8  -1 -15   -0.45    0.31
  -8   1 -15    0.10    0.35
  -9  -1 -15    2.61    0.46
  -9  -1 -15    3.27    0.50
  -9   1 -15    3.07    0.50
  11  -2 -15   -0.20    0.50
  11   2 -15    0.16    0.51
 -11   2  15    0.12    0.33
  10  -2 -15    0.29    0.46
  10   2 -15    0.72    0.45
 -10   2  15    0.83    0.36
   9  -2 -15    0.30    0.41
  -9   2  15    0.12    0.31
   8  -2 -15    1.25    0.40
  -8   2  15    1.33    0.31
   8   2 -15    1.12    0.21
   7  -2 -15    9.42    0.57
  -7   2  15    7.62    0.48
   7   2 -15    8.91    0.47
   6  -2 -15    0.18    0.27
  -6   2  15    0.14    0.21
   6   2 -15   -0.22    0.15
   5  -2 -15   21.10    0.85
   5   2 -15   20.10    0.83
  -5   2  15   21.02    0.83
   4  -2 -15    7.19    0.43
   4   2 -15    7.80    0.41
  -4   2  15    7.56    0.40
  -4   2  15    7.09    0.35
   3  -2 -15   15.35    0.63
   3   2 -15   16.11    0.66
   3   2 -15   15.21    0.67
   2  -2 -15   14.12    0.55
   2   2 -15   13.36    0.59
   2   2 -15   14.08    0.62
   1  -2 -15   26.22    0.91
  -1  -2  15   26.86    0.91
   1   2 -15   24.54    0.98
   1   2 -15   27.09    0.99
   0  -2  15   12.86    0.50
   0  -2 -15   12.89    0.57
   0  -2  15   13.24    0.52
   0   2 -15   13.22    0.57
   0   2 -15   12.32    0.58
  -1  -2 -15    0.25    0.16
  -1  -2 -15    0.13    0.12
   1  -2  15    0.36    0.14
  -1   2 -15    0.33    0.17
  -1   2 -15    0.39    0.12
  -2  -2 -15    0.39    0.17
   2  -2  15    0.77    0.18
  -2  -2 -15    0.73    0.16
  -2  -2 -15    0.81    0.19
  -2   2 -15    0.80    0.16
  -2   2 -15    0.64    0.21
   3  -2  15    6.46    0.37
  -3  -2 -15    6.40    0.36
  -3  -2 -15    6.24    0.38
  -3  -2 -15    6.90    0.40
  -3   2 -15    6.70    0.38
  -3   2 -15    6.04    0.35
  -3   2 -15    5.74    0.41
  -4  -2 -15   12.95    0.58
   4  -2  15   13.13    0.60
  -4  -2 -15   13.59    0.57
  -4   2 -15   13.28    0.64
  -4   2 -15   12.01    0.56
  -5  -2 -15    6.60    0.43
   5  -2  15    6.00    0.44
  -5  -2 -15    6.71    0.41
  -5   2 -15    6.55    0.51
  -5   2 -15    6.88    0.42
  -6  -2 -15    0.48    0.27
  -6  -2 -15    0.70    0.28
   6  -2  15    0.43    0.27
  -6   2 -15    0.92    0.29
  -6   2 -15    1.00    0.31
  -7  -2 -15    0.12    0.28
  -7  -2 -15    0.63    0.33
   7  -2  15    0.50    0.30
  -7   2 -15    0.60    0.32
  -7   2 -15    0.36    0.32
  -8  -2 -15   -0.13    0.30
   8  -2  15    0.41    0.30
  -8  -2 -15   -0.38    0.33
  -8   2 -15   -0.12    0.34
  -8   2 -15    0.04    0.35
  -9  -2 -15    0.36    0.36
  -9  -2 -15    0.09    0.35
   9  -2  15    0.07    0.35
  -9   2 -15    0.31    0.36
  -9   2 -15    0.33    0.39
  10  -3 -15   -0.29    0.44
 -10   3  15    0.30    0.33
   9  -3 -15    2.30    0.46
  -9   3  15    1.93    0.36
   8  -3 -15    0.65    0.38
  -8   3  15    0.18    0.26
   8   3 -15    0.57    0.21
   7  -3 -15    2.81    0.42
  -7   3  15    3.00    0.34
   7   3 -15    2.86    0.29
   6  -3 -15    1.04    0.29
   6   3 -15    1.83    0.23
  -6   3  15    1.51    0.26
  -6   3  15    1.56    0.26
   5  -3 -15    0.37    0.26
  -5   3  15    0.23    0.21
   5   3 -15    0.58    0.22
   5   3 -15    0.35    0.17
  -5   3  15   -0.07    0.18
  -4  -3  15   98.14    2.89
   4  -3 -15   94.91    3.06
  -4   3  15   99.03    3.14
   4   3 -15   94.79    3.24
   4   3 -15   96.84    3.19
  -4   3  15   95.32    2.90
   3  -3 -15   10.28    0.49
  -3  -3  15   10.23    0.44
   3   3 -15    9.60    0.47
   3   3 -15   10.94    0.54
   2  -3 -15   13.46    0.57
  -2  -3  15   14.19    0.53
   2   3 -15   12.78    0.58
   2   3 -15   13.08    0.62
  -1  -3  15    1.79    0.19
   1  -3 -15    1.88    0.22
   1   3 -15    1.38    0.22
   1   3 -15    2.00    0.22
   0  -3 -15   86.21    2.73
   0  -3 -15   72.72    2.59
   0  -3  15   85.24    2.53
   0   3 -15   84.21    2.76
   0   3 -15   84.28    2.83
   0   3 -15   87.36    2.76
   1  -3  15    1.87    0.22
  -1  -3 -15    2.66    0.25
  -1  -3 -15    2.07    0.21
  -1  -3 -15    2.06    0.19
  -1   3 -15    2.33    0.19
  -1   3 -15    1.94    0.19
  -1   3 -15    2.00    0.25
  -2  -3 -15   23.75    0.81
   2  -3  15   24.00    0.86
  -2   3 -15   22.64    0.92
  -2   3 -15   23.00    0.80
  -2   3 -15   23.60    0.90
  -3  -3 -15    0.31    0.18
   3  -3  15    0.24    0.19
  -3   3 -15    0.35    0.18
  -3   3 -15    0.24    0.20
  -3   3 -15    0.09    0.16
  -4  -3 -15   16.09    0.67
   4  -3  15   16.23    0.69
  -4  -3 -15   17.24    0.69
  -4   3 -15   16.06    0.66
  -4   3 -15   16.16    0.78
  -5  -3 -15    0.75    0.26
  -5  -3 -15    1.20    0.25
   5  -3  15    0.58    0.23
  -5   3 -15    0.33    0.25
  -5   3 -15    0.49    0.27
   6  -3  15    4.31    0.41
  -6  -3 -15    4.42    0.42
  -6  -3 -15    4.39    0.44
  -6   3 -15    4.73    0.41
  -6   3 -15    4.83    0.48
  -7  -3 -15    3.23    0.40
   7  -3  15    2.46    0.39
  -7  -3 -15    2.55    0.39
  -7   3 -15    1.68    0.40
  -7   3 -15    2.53    0.38
  -8  -3 -15   -0.44    0.30
  -8  -3 -15    0.50    0.35
   8  -3  15   -0.06    0.29
  -8   3 -15   -0.64    0.34
  -8   3 -15    0.31    0.35
  -9  -3 -15    0.52    0.37
  -9  -3 -15    0.70    0.38
   9  -3  15    0.35    0.37
  -9   3 -15    0.14    0.42
  -9   3 -15    0.48    0.40
  10  -4 -15    0.04    0.48
 -10   4  15    0.00    0.32
   9  -4 -15   -0.78    0.39
  -9   4  15    0.18    0.29
   8  -4 -15   -0.16    0.37
  -8   4  15    0.23    0.27
   7  -4 -15    2.80    0.42
  -7   4  15    2.85    0.35
   7   4 -15    3.29    0.30
  -7   4  15    2.74    0.34
   6  -4 -15   -0.28    0.28
   6   4 -15   -0.05    0.16
  -6   4  15    0.27    0.23
  -6   4  15   -0.23    0.22
  -5  -4  15    1.09    0.21
   5  -4 -15    0.73    0.28
  -5   4  15    0.80    0.24
   5   4 -15    0.53    0.18
   5   4 -15    0.63    0.25
  -5   4  15    0.71    0.23
  -4  -4  15    1.41    0.21
   4  -4 -15    1.32    0.28
   4   4 -15    1.48    0.27
  -4   4  15    1.59    0.24
   4   4 -15    1.23    0.21
  -4   4  15    1.44    0.23
  -3  -4  15    4.45    0.31
   3  -4 -15    4.82    0.36
   3   4 -15    4.79    0.33
  -3   4  15    5.05    0.36
   3   4 -15    5.14    0.38
   2  -4 -15    1.48    0.24
  -2  -4  15    0.78    0.20
  -2  -4  15    0.46    0.17
   2   4 -15    0.15    0.20
   2   4 -15    0.37    0.16
  -1  -4  15   63.09    1.98
   1  -4 -15   63.07    2.05
  -1  -4  15   64.55    2.02
   1   4 -15   64.05    2.20
   1   4 -15   62.12    2.15
   0  -4 -15    5.09    0.34
   0  -4  15    5.40    0.35
   0  -4  15    5.11    0.31
   0  -4 -15    5.12    0.34
   0   4 -15    4.97    0.37
   1  -4  15   24.21    0.87
  -1  -4 -15   23.93    0.80
  -1   4 -15   23.32    0.89
  -1   4 -15   24.49    0.95
  -1   4 -15   22.39    0.78
  -2  -4 -15    0.51    0.17
   2  -4  15    0.29    0.18
  -2   4 -15    0.38    0.18
  -2   4 -15    0.47    0.21
  -2   4 -15    0.54    0.17
   3  -4  15    0.64    0.22
  -3  -4 -15    0.36    0.20
  -3   4 -15    0.93    0.21
  -3   4 -15    0.60    0.23
   4  -4  15    0.48    0.23
  -4  -4 -15    1.01    0.24
  -4   4 -15    0.52    0.27
  -4   4 -15    1.01    0.24
  -5  -4 -15    0.60    0.26
   5  -4  15    0.25    0.26
  -5   4 -15    0.04    0.25
  -5   4 -15    0.26    0.28
   6  -4  15   -0.28    0.27
  -6  -4 -15    0.64    0.28
  -6   4 -15    0.23    0.32
  -6   4 -15    0.13    0.29
   7  -4  15   -0.05    0.31
  -7  -4 -15   -0.37    0.32
  -7  -4 -15   -0.13    0.31
  -7   4 -15   -0.12    0.32
  -7   4 -15    0.70    0.37
  -8  -4 -15   -0.47    0.33
   8  -4  15    0.37    0.35
  -8  -4 -15    0.20    0.36
  -8   4 -15    0.11    0.38
  -8   4 -15    0.12    0.40
  -9  -4 -15    0.42    0.40
  -9  -4 -15   -0.42    0.34
   9  -4  15    1.02    0.41
  -9   4 -15    0.16    0.44
  -9   4 -15   -0.49    0.38
  10  -5 -15   -0.21    0.48
 -10   5  15    0.64    0.38
   9  -5 -15    0.54    0.46
  -9   5  15    1.40    0.37
   8  -5 -15    0.39    0.41
  -8   5  15    0.00    0.27
   7  -5 -15    0.51    0.37
  -7   5  15    0.44    0.31
  -7   5  15    0.89    0.28
   7   5 -15    0.58    0.22
  -6  -5  15    4.58    0.39
   6  -5 -15    4.84    0.48
  -6   5  15    5.73    0.44
  -6   5  15    5.28    0.41
   6   5 -15    4.68    0.37
  -5  -5  15    2.62    0.31
   5  -5 -15    2.02    0.34
  -5   5  15    1.76    0.28
   5   5 -15    2.47    0.28
  -5   5  15    2.57    0.30
  -4  -5  15    2.61    0.28
   4  -5 -15    1.75    0.32
  -4   5  15    1.60    0.26
   4   5 -15    1.62    0.24
  -4   5  15    1.89    0.26
  -3  -5  15   11.50    0.56
   3  -5 -15   10.94    0.58
  -3  -5  15   11.58    0.53
   3   5 -15   11.57    0.58
  -3   5  15   10.84    0.53
   3   5 -15   11.09    0.55
  -2  -5  15    9.35    0.48
   2  -5 -15    9.67    0.52
  -2  -5  15    9.28    0.47
   2   5 -15    9.36    0.52
   2   5 -15   10.15    0.51
  -1  -5  15    9.29    0.48
   1  -5 -15    9.73    0.50
  -1  -5  15    8.98    0.45
   1   5 -15    9.16    0.49
   1   5 -15    9.49    0.52
   0  -5 -15    8.33    0.46
   0  -5  15    7.67    0.43
   0   5 -15    8.12    0.50
   1  -5  15    0.40    0.21
  -1  -5 -15    0.55    0.17
  -1  -5 -15    1.07    0.25
  -1   5 -15    0.94    0.26
  -2  -5 -15    0.43    0.19
  -2  -5 -15    0.05    0.16
   2  -5  15    0.29    0.22
  -2   5 -15    0.51    0.24
  -2   5 -15    0.38    0.18
  -2   5 -15    0.73    0.20
  -3  -5 -15    8.56    0.43
   3  -5  15    8.10    0.47
  -3   5 -15    8.72    0.44
  -3   5 -15    9.33    0.57
  -4  -5 -15    2.50    0.31
   4  -5  15    2.73    0.33
  -4   5 -15    2.75    0.37
  -4   5 -15    2.96    0.32
  -5  -5 -15    5.44    0.43
   5  -5  15    3.85    0.40
  -5   5 -15    4.56    0.47
  -5   5 -15    4.16    0.38
  -6  -5 -15    0.78    0.31
   6  -5  15    0.70    0.29
  -6   5 -15   -0.01    0.35
  -6   5 -15    0.59    0.29
   7  -5  15    0.02    0.29
  -7  -5 -15    0.23    0.31
  -7   5 -15   -0.25    0.37
  -7   5 -15   -0.03    0.34
   8  -5  15    0.17    0.35
  -8  -5 -15   -0.18    0.36
  -8   5 -15    0.24    0.44
  -8   5 -15   -0.14    0.37
   9  -6 -15    0.68    0.49
  -9   6  15    0.53    0.36
   8  -6 -15    0.58    0.44
  -8   6  15   -0.11    0.31
  -8   6  15    0.12    0.34
   7  -6 -15    1.82    0.44
  -7   6  15    2.22    0.35
  -7   6  15    1.82    0.38
  -6  -6  15    0.33    0.27
   6  -6 -15    0.41    0.35
   6   6 -15    0.16    0.20
  -6   6  15    0.36    0.28
  -6   6  15    0.39    0.28
   5  -6 -15   11.99    0.67
  -5  -6  15   10.60    0.58
  -5   6  15   12.29    0.59
  -5   6  15   10.61    0.60
   5   6 -15   11.48    0.60
   4  -6 -15    0.12    0.30
  -4  -6  15   -0.12    0.27
  -4  -6  15    0.27    0.23
  -4   6  15   -0.23    0.21
  -4   6  15   -0.55    0.21
   4   6 -15    0.06    0.20
  -3  -6  15    2.06    0.29
  -3  -6  15    1.71    0.32
   3  -6 -15    2.03    0.33
  -3   6  15    2.18    0.27
   3   6 -15    2.17    0.28
   2  -6 -15    1.12    0.29
  -2  -6  15    0.93    0.25
  -2  -6  15    0.91    0.26
   2   6 -15    0.78    0.22
   2   6 -15    1.57    0.26
  -1  -6  15    1.45    0.27
  -1  -6  15    1.95    0.27
   1  -6 -15    1.03    0.27
   1   6 -15    1.58    0.27
   0  -6  15    1.04    0.26
   0  -6 -15    1.54    0.30
   0   6 -15    1.07    0.27
  -1  -6 -15   11.97    0.61
   1  -6  15   12.28    0.61
  -1   6 -15   13.15    0.65
  -2  -6 -15    0.13    0.19
  -2  -6 -15    0.54    0.28
   2  -6  15    0.31    0.25
  -2   6 -15    0.50    0.25
   3  -6  15    1.87    0.31
  -3  -6 -15    1.92    0.28
  -3   6 -15    1.69    0.27
  -3   6 -15    1.97    0.36
  -4  -6 -15    0.15    0.22
   4  -6  15    0.25    0.25
  -4   6 -15   -0.04    0.30
  -4   6 -15    0.67    0.25
   5  -6  15    5.08    0.46
  -5  -6 -15    5.52    0.46
  -5   6 -15    6.05    0.54
  -5   6 -15    4.61    0.43
   6  -6  15    0.03    0.32
  -6  -6 -15    0.18    0.32
  -6   6 -15   -0.14    0.31
  -6   6 -15    0.14    0.34
  -7  -6 -15    2.79    0.44
   7  -6  15    2.54    0.43
  -7   6 -15    2.47    0.43
  -7   6 -15    2.47    0.50
  -8  -6 -15   -0.14    0.35
   8  -6  15    0.24    0.38
  -8   6 -15   -0.30    0.44
  -8   6 -15    0.24    0.37
   8  -7 -15    0.23    0.46
  -8   7  15    0.13    0.37
  -8   7  15    0.80    0.36
   7  -7 -15    0.68    0.43
  -7  -7  15    0.09    0.32
  -7   7  15    0.52    0.33
  -7   7  15    0.30    0.36
   6  -7 -15    3.82    0.51
  -6  -7  15    3.40    0.42
  -6   7  15    3.24    0.40
  -6   7  15    3.74    0.45
  -5  -7  15    0.73    0.31
   5  -7 -15    0.76    0.39
  -5  -7  15    1.03    0.35
  -5   7  15    1.09    0.34
   5   7 -15    0.98    0.27
  -5   7  15    1.24    0.31
   4  -7 -15    0.67    0.33
  -4  -7  15    0.80    0.32
  -4  -7  15    0.27    0.28
  -4   7  15    0.66    0.28
  -4   7  15    0.79    0.27
   4   7 -15    0.76    0.25
  -3  -7  15    0.16    0.27
  -3  -7  15    0.47    0.25
   3  -7 -15    0.52    0.30
   3   7 -15   -0.11    0.21
   2  -7 -15    6.31    0.51
  -2  -7  15    6.56    0.45
  -2  -7  15    6.62    0.46
  -1  -7  15   -0.23    0.23
   1  -7 -15    0.11    0.30
  -1  -7  15   -0.01    0.23
   0  -7 -15    5.48    0.47
   0  -7  15    6.81    0.45
   0   7 -15    6.13    0.47
  -1  -7 -15    0.40    0.29
   1  -7  15    0.59    0.26
  -1   7 -15   -0.03    0.25
  -2  -7 -15    0.64    0.24
   2  -7  15    0.16    0.25
  -2  -7 -15    0.38    0.30
  -2   7 -15    0.47    0.30
   3  -7  15    0.93    0.30
  -3  -7 -15    0.89    0.26
  -3   7 -15    0.28    0.30
   4  -7  15    0.73    0.32
  -4  -7 -15    0.05    0.26
  -4   7 -15    0.03    0.26
  -4   7 -15    0.53    0.35
  -5  -7 -15    1.62    0.34
   5  -7  15    1.07    0.36
  -5   7 -15    1.05    0.39
  -5   7 -15    0.88    0.32
   6  -7  15    0.03    0.32
  -6  -7 -15    0.60    0.35
  -6   7 -15    0.40    0.37
  -6   7 -15   -0.43    0.32
   7  -7  15    0.10    0.37
  -7  -7 -15   -0.12    0.32
  -7   7 -15    0.53    0.43
  -7   7 -15   -0.37    0.36
  -7  -8  15   -0.18    0.34
   7  -8 -15   -0.80    0.43
  -7   8  15   -0.21    0.38
  -7   8  15    0.39    0.32
  -6  -8  15    1.08    0.38
   6  -8 -15    0.39    0.43
  -6   8  15    1.12    0.35
  -6   8  15    0.48    0.37
  -5  -8  15    0.34    0.39
   5  -8 -15    0.34    0.36
  -5  -8  15    0.29    0.33
  -5   8  15    0.39    0.32
  -4  -8  15   -0.06    0.34
  -4  -8  15    0.04    0.31
   4  -8 -15   -0.49    0.36
   4   8 -15    0.10    0.26
  -4   8  15    0.36    0.33
   3  -8 -15   -0.16    0.36
  -3  -8  15    0.67    0.33
  -3  -8  15    0.30    0.32
  -3   8  15    0.44    0.33
  -2  -8  15    2.22    0.38
   2  -8 -15    1.88    0.41
  -2  -8  15    2.74    0.39
   1  -8 -15   12.44    0.66
  -1  -8  15   10.43    0.63
  -1  -8  15   10.91    0.60
   0  -8 -15    1.10    0.37
   0  -8  15    1.62    0.33
   1  -8  15    5.84    0.48
  -1  -8 -15    6.33    0.54
  -1   8 -15    5.87    0.49
  -2  -8 -15    0.50    0.34
   2  -8  15    0.09    0.31
  -2   8 -15    0.51    0.31
   3  -8  15   -0.32    0.30
  -3  -8 -15   -0.16    0.25
  -3   8 -15    0.27    0.30
  -4  -8 -15    0.88    0.31
   4  -8  15    1.38    0.38
  -4   8 -15    0.66    0.35
   5  -8  15    0.20    0.35
  -5  -8 -15   -0.54    0.30
  -5   8 -15    0.01    0.33
  -5   8 -15    0.10    0.34
   6  -8  15    0.08    0.36
  -6  -8 -15    0.09    0.34
  -6   8 -15   -0.35    0.34
  -6   8 -15    0.09    0.40
  -6  -9  15    0.50    0.40
   6  -9 -15    0.24    0.47
  -6   9  15    0.34    0.42
   5  -9 -15    1.46    0.48
  -5  -9  15    0.11    0.38
  -5  -9  15    1.05    0.46
  -5   9  15    1.95    0.43
   4  -9 -15    1.89    0.47
  -4  -9  15    2.66    0.45
  -4  -9  15    2.75    0.46
  -4   9  15    1.57    0.41
  -3  -9  15    0.22    0.33
  -3  -9  15    0.14    0.36
   3  -9 -15    0.43    0.43
  -3   9  15    0.20    0.36
   2  -9 -15   -0.02    0.36
  -2  -9  15    0.00    0.36
  -2  -9  15    0.34    0.35
  -1  -9  15   -0.21    0.31
   1  -9 -15    0.54    0.41
  -1  -9  15   -0.18    0.33
   0  -9  15    2.83    0.44
   0  -9 -15    2.50    0.46
   1  -9  15    0.14    0.34
  -1  -9 -15    0.43    0.38
   2  -9  15    1.13    0.38
  -2  -9 -15    1.93    0.46
  -3  -9 -15    0.32    0.42
   3  -9  15    0.48    0.34
  -3  -9 -15   -0.40    0.28
  -3   9 -15   -0.10    0.32
  -4  -9 -15    0.76    0.33
   4  -9  15    0.15    0.38
  -4   9 -15    0.96    0.39
  -5  -9 -15    0.45    0.35
   5  -9  15    0.73    0.40
  -5   9 -15    0.16    0.36
   4 -10 -15    0.84    0.50
  -4 -10  15   -0.36    0.42
  -4 -10  15    0.20    0.38
  -4  10  15    0.03    0.41
  -3 -10  15   -0.23    0.40
   3 -10 -15   -0.05    0.47
  -3 -10  15    0.13    0.41
  -3  10  15   -0.02    0.35
  -2 -10  15    0.68    0.42
   2 -10 -15    0.30    0.46
  -2 -10  15    0.44    0.41
  -2  10  15    0.28    0.37
   1 -10 -15    0.09    0.44
  -1 -10  15    0.75    0.41
  -1 -10  15   -0.08    0.35
   0 -10 -15   -0.37    0.42
   0 -10  15    0.71    0.40
   1 -10  15    0.05    0.38
  -1 -10 -15   -0.19    0.41
   2 -10  15   -0.04    0.39
  -2 -10 -15   -0.03    0.43
   3 -10  15    0.19    0.36
  -3 -10 -15    0.91    0.47
  11   0 -16    1.04    0.52
  10   0 -16    0.45    0.47
   9   0 -16    0.11    0.40
   8   0 -16    5.88    0.56
   7   0 -16    0.08    0.28
   6   0 -16   19.48    0.82
   6   0 -16   18.56    0.78
   5   0 -16   -0.14    0.13
   5   0 -16   -0.22    0.19
   4   0 -16   10.24    0.49
   4   0 -16    9.95    0.50
   3   0 -16    0.08    0.13
   3   0 -16    0.03    0.16
   2   0 -16    1.33    0.19
   2   0 -16    1.52    0.21
   2   0 -16    1.37    0.19
   1   0 -16   -0.02    0.15
   1   0 -16    0.10    0.12
   0   0 -16    1.28    0.19
   0   0 -16    0.96    0.15
   0   0 -16    1.16    0.20
  -1   0 -16    0.39    0.17
  -1   0 -16    0.75    0.15
  -2   0 -16    0.24    0.16
  -2   0 -16    0.20    0.16
  -3   0 -16    0.01    0.17
  -3   0 -16   -0.11    0.17
  -3   0 -16    0.04    0.18
  -4   0 -16    0.51    0.22
  -4   0 -16    0.32    0.20
  -4   0 -16    0.32    0.21
  -5   0 -16    0.25    0.22
  -5   0 -16   -0.12    0.23
  -5   0 -16    0.01    0.21
  -6   0 -16    2.38    0.35
  -6   0 -16    1.88    0.33
  -6   0 -16    2.19    0.32
  -7   0 -16    0.08    0.32
  -7   0 -16   -0.14    0.28
  -8   0 -16    0.19    0.36
  -9   0 -16    0.53    0.42
  11  -1 -16    0.37    0.54
 -11   1  16    0.30    0.38
  11   1 -16    0.74    0.53
  10  -1 -16    0.43    0.48
  10   1 -16    0.63    0.49
 -10   1  16    0.65    0.34
   9  -1 -16    0.53    0.42
  -9   1  16   -0.10    0.26
   9   1 -16    0.41    0.39
   8  -1 -16    0.05    0.35
   8   1 -16    0.07    0.17
   8   1 -16    0.38    0.37
  -8   1  16    0.12    0.24
   7  -1 -16   14.01    0.69
   7   1 -16   12.14    0.70
   7   1 -16   12.46    0.59
  -7   1  16   13.45    0.63
   6  -1 -16    1.23    0.31
  -6   1  16    1.04    0.24
   6   1 -16    1.02    0.21
   5  -1 -16   13.22    0.62
   5   1 -16   12.78    0.59
   4  -1 -16   15.86    0.69
   4  -1 -16   16.91    0.69
   4   1 -16   16.42    0.69
   3  -1 -16   21.41    0.83
   3  -1 -16   22.49    0.89
   3   1 -16   23.85    0.90
   2  -1 -16    1.76    0.21
   2  -1 -16    1.70    0.21
   2   1 -16    1.67    0.21
   2   1 -16    1.19    0.22
  -1  -1  16   73.97    2.52
   1  -1 -16   78.72    2.61
   1  -1 -16   76.84    2.52
   1   1 -16   76.49    2.61
   1   1 -16   75.32    2.53
   0  -1  16    0.04    0.10
   0  -1 -16    0.35    0.16
   0  -1  16    0.02    0.11
   0  -1 -16    0.11    0.13
   0   1 -16   -0.02    0.13
   0   1 -16    0.11    0.11
   0   1 -16    0.12    0.17
  -1  -1 -16    0.78    0.16
  -1  -1 -16    0.98    0.16
  -1  -1 -16    0.78    0.19
   1  -1  16    0.74    0.15
  -1   1 -16    0.78    0.15
  -1   1 -16    0.57    0.20
  -2  -1 -16    1.27    0.19
  -2  -1 -16    1.19    0.18
   2  -1  16    0.89    0.18
  -2  -1 -16    0.58    0.19
  -2   1 -16    1.12    0.22
  -2   1 -16    1.02    0.18
  -3  -1 -16    9.71    0.51
  -3  -1 -16   10.52    0.47
  -3  -1 -16    9.94    0.47
   3  -1  16   10.30    0.49
  -3   1 -16   10.46    0.55
  -3   1 -16   10.25    0.47
  -4  -1 -16    6.92    0.44
  -4  -1 -16    7.87    0.45
  -4  -1 -16    7.64    0.43
  -4   1 -16    7.21    0.42
  -4   1 -16    6.96    0.46
  -5  -1 -16    4.42    0.38
  -5  -1 -16    4.12    0.39
  -5   1 -16    4.05    0.39
  -5   1 -16    3.76    0.35
  -6  -1 -16    7.09    0.47
  -6  -1 -16    5.18    0.47
  -6   1 -16    6.78    0.51
  -6   1 -16    7.51    0.47
  -7  -1 -16   -0.02    0.27
  -7  -1 -16   -0.01    0.31
  -7   1 -16    0.27    0.31
  -7   1 -16    0.59    0.30
  -8  -1 -16    0.16    0.35
  -8  -1 -16    0.06    0.33
  -8   1 -16    0.22    0.33
   9  -1  16    0.17    0.36
  -9  -1 -16    0.08    0.36
  -9  -1 -16    0.69    0.41
  -9   1 -16    0.20    0.41
  10  -2 -16    0.85    0.49
 -10   2  16    1.31    0.37
  10   2 -16    1.06    0.48
   9  -2 -16    2.83    0.50
   9   2 -16    1.94    0.50
  -9   2  16    1.25    0.33
   8  -2 -16    0.97    0.36
   8   2 -16    0.83    0.21
  -8   2  16    0.76    0.29
   7  -2 -16    0.98    0.35
  -7   2  16    1.23    0.28
   7   2 -16    1.35    0.23
   6  -2 -16    1.95    0.33
   6   2 -16    2.15    0.26
  -6   2  16    2.00    0.27
   5  -2 -16    2.64    0.33
   5   2 -16    2.33    0.26
  -5   2  16    2.44    0.28
   4  -2 -16   18.54    0.75
   4   2 -16   18.99    0.78
   4   2 -16   18.29    0.76
  -4   2  16   18.30    0.66
   3  -2 -16    8.13    0.44
   3   2 -16    8.39    0.45
   3   2 -16    8.71    0.47
   2  -2 -16   54.40    1.80
   2   2 -16   56.96    1.96
   2   2 -16   56.46    1.91
   1  -2 -16    0.18    0.14
  -1  -2  16    0.41    0.13
   1   2 -16    0.17    0.14
   1   2 -16    0.31    0.19
   0  -2  16   60.71    2.04
   0  -2  16   58.91    1.87
   0  -2 -16   59.37    1.91
   0  -2 -16   61.08    2.03
   0   2 -16   61.88    1.82
   0   2 -16   61.06    2.11
   0   2 -16   60.83    2.06
   1  -2  16    0.27    0.15
  -1  -2 -16    0.33    0.13
  -1  -2 -16    0.22    0.16
  -1   2 -16    0.24    0.13
  -1   2 -16    0.11    0.19
   2  -2  16    2.98    0.27
  -2  -2 -16    2.48    0.23
  -2  -2 -16    2.84    0.26
  -2  -2 -16    2.33    0.26
  -2   2 -16    2.78    0.23
  -2   2 -16    2.08    0.27
  -3  -2 -16    0.08    0.17
  -3  -2 -16    0.30    0.20
  -3  -2 -16    0.05    0.17
   3  -2  16    0.32    0.18
  -3   2 -16    0.39    0.21
  -3   2 -16    0.64    0.19
  -4  -2 -16    9.00    0.46
   4  -2  16    7.84    0.45
  -4  -2 -16    8.99    0.44
  -4   2 -16    7.60    0.51
  -4   2 -16    7.84    0.45
  -5  -2 -16    2.46    0.32
   5  -2  16    2.40    0.30
  -5  -2 -16    2.97    0.33
  -5   2 -16    3.09    0.38
  -5   2 -16    2.33    0.32
   6  -2  16    2.88    0.35
  -6  -2 -16    2.70    0.36
  -6  -2 -16    2.51    0.35
  -6   2 -16    2.52    0.36
  -6   2 -16    3.04    0.40
  -7  -2 -16    0.32    0.31
  -7  -2 -16    0.28    0.32
   7  -2  16    0.08    0.26
  -7   2 -16   -0.05    0.31
  -7   2 -16   -0.34    0.31
  -8  -2 -16    0.28    0.33
  -8  -2 -16    0.01    0.35
   8  -2  16   -0.05    0.33
  -8   2 -16   -0.29    0.35
  -8   2 -16    0.14    0.36
  -9  -2 -16    0.16    0.39
  -9  -2 -16    0.30    0.39
   9  -2  16   -0.15    0.36
  -9   2 -16    0.22    0.41
  10  -3 -16   -0.03    0.46
 -10   3  16    0.28    0.37
   9  -3 -16    0.49    0.43
  -9   3  16    0.57    0.31
   8  -3 -16    0.37    0.38
  -8   3  16   -0.04    0.26
   8   3 -16    0.01    0.20
   7  -3 -16    0.19    0.32
  -7   3  16    0.59    0.27
   7   3 -16    0.31    0.19
   6  -3 -16    0.49    0.31
   6   3 -16    0.71    0.21
  -6   3  16    1.05    0.25
   5  -3 -16    3.77    0.37
   5   3 -16    5.16    0.33
   5   3 -16    4.38    0.38
  -5   3  16    4.80    0.34
  -5   3  16    4.23    0.35
   4  -3 -16    2.12    0.28
  -4   3  16    1.33    0.23
   4   3 -16    1.37    0.27
  -4   3  16    1.75    0.24
   4   3 -16    1.63    0.22
  -3  -3  16    9.13    0.41
   3  -3 -16    8.97    0.47
   3   3 -16    9.63    0.52
   3   3 -16    8.89    0.46
  -2  -3  16    0.04    0.14
   2  -3 -16    0.19    0.18
   2   3 -16    0.09    0.20
   2   3 -16    0.11    0.14
  -1  -3  16   11.23    0.48
   1  -3 -16   10.49    0.49
   1   3 -16   12.02    0.54
   1   3 -16   11.10    0.55
   0  -3 -16   11.34    0.54
   0  -3  16   11.04    0.49
   0   3 -16    9.94    0.52
   0   3 -16   11.47    0.47
   0   3 -16   11.92    0.58
   1  -3  16    8.79    0.45
  -1  -3 -16    8.71    0.42
  -1  -3 -16    9.98    0.41
  -1  -3 -16    9.33    0.47
  -1   3 -16    9.68    0.43
  -1   3 -16    8.99    0.39
  -1   3 -16    9.31    0.51
   2  -3  16    9.69    0.48
  -2  -3 -16   10.21    0.45
  -2   3 -16   10.30    0.44
  -2   3 -16   10.24    0.48
  -2   3 -16   10.72    0.58
   3  -3  16    0.21    0.18
  -3  -3 -16    0.33    0.19
  -3   3 -16    0.30    0.17
  -3   3 -16    0.59    0.26
  -3   3 -16    0.26    0.18
  -4  -3 -16    0.36    0.22
  -4  -3 -16    0.43    0.24
   4  -3  16    0.50    0.22
  -4   3 -16    0.24    0.21
  -4   3 -16    0.47    0.26
   5  -3  16    4.15    0.40
  -5  -3 -16    5.41    0.42
  -5  -3 -16    5.43    0.44
  -5   3 -16    5.07    0.46
  -5   3 -16    4.95    0.40
  -6  -3 -16    2.34    0.33
  -6  -3 -16    1.99    0.36
   6  -3  16    2.10    0.33
  -6   3 -16    2.24    0.40
  -6   3 -16    2.44    0.37
  -7  -3 -16    0.84    0.35
   7  -3  16    0.75    0.33
  -7  -3 -16    0.81    0.34
  -7   3 -16    0.73    0.33
  -7   3 -16    1.17    0.39
  -8  -3 -16    0.20    0.36
   8  -3  16   -0.08    0.32
  -8  -3 -16    0.58    0.36
  -8   3 -16   -0.16    0.38
  -8   3 -16    0.17    0.38
  -9  -3 -16    0.36    0.41
  -9  -3 -16    0.29    0.40
   9  -3  16   -0.40    0.34
  -9   3 -16    0.16    0.44
  -9   3 -16   -0.07    0.41
  10  -4 -16   -0.45    0.47
 -10   4  16   -0.36    0.36
   9  -4 -16    1.06    0.47
  -9   4  16    1.53    0.38
   8  -4 -16    8.60    0.67
  -8   4  16    9.29    0.56
   7  -4 -16   -0.07    0.33
  -7   4  16    0.16    0.25
   7   4 -16   -0.13    0.17
   6  -4 -16   22.66    0.93
   6   4 -16   20.50    0.87
  -6   4  16   21.00    0.84
  -6   4  16   20.21    0.86
   5  -4 -16    0.70    0.29
   5   4 -16    0.07    0.16
  -5   4  16    0.07    0.20
   5   4 -16    0.25    0.25
  -5   4  16    0.08    0.23
   4  -4 -16    0.89    0.27
  -4  -4  16    0.53    0.18
  -4   4  16    0.43    0.21
   4   4 -16    0.54    0.23
  -4   4  16    0.92    0.21
   4   4 -16    0.41    0.18
   3  -4 -16    1.50    0.25
  -3  -4  16    1.24    0.21
   3   4 -16    0.80    0.19
   3   4 -16    1.40    0.26
   2  -4 -16    0.56    0.22
  -2  -4  16    1.04    0.20
   2   4 -16    0.65    0.22
   2   4 -16    0.79    0.19
   1  -4 -16   10.42    0.51
  -1  -4  16   11.13    0.50
  -1  -4  16   10.99    0.48
   1   4 -16   10.65    0.57
   1   4 -16   10.09    0.52
   0  -4  16    6.13    0.38
   0  -4 -16    6.50    0.39
   0  -4 -16    6.59    0.38
   0   4 -16    7.00    0.43
  -1  -4 -16    5.14    0.29
   1  -4  16    4.69    0.34
  -1   4 -16    5.21    0.40
   2  -4  16    1.67    0.25
  -2  -4 -16    2.56    0.25
  -2   4 -16    1.98    0.24
  -2   4 -16    1.88    0.23
  -2   4 -16    1.88    0.29
   3  -4  16   -0.20    0.18
  -3  -4 -16   -0.11    0.18
  -3   4 -16    0.26    0.26
  -3   4 -16    0.04    0.18
   4  -4  16    4.74    0.42
  -4  -4 -16    6.16    0.40
  -4   4 -16    6.18    0.40
  -4   4 -16    4.97    0.45
  -5  -4 -16    1.08    0.27
   5  -4  16    0.87    0.27
  -5   4 -16    1.36    0.33
  -5   4 -16    1.41    0.29
  -6  -4 -16    0.79    0.31
   6  -4  16    0.43    0.30
  -6   4 -16    0.47    0.30
  -6   4 -16    0.08    0.31
   7  -4  16   -0.06    0.28
  -7  -4 -16    0.17    0.32
  -7   4 -16   -0.05    0.33
  -7   4 -16    0.25    0.34
  -8  -4 -16    1.95    0.40
   8  -4  16    1.00    0.36
  -8  -4 -16    1.86    0.43
  -8   4 -16    1.24    0.46
  -8   4 -16    1.66    0.44
  -9  -4 -16   -0.16    0.39
   9  -4  16    0.55    0.40
  -9   4 -16    0.35    0.47
  -9   4 -16    0.03    0.43
   9  -5 -16   -0.54    0.43
  -9   5  16    0.25    0.31
   8  -5 -16   -0.13    0.41
  -8   5  16    0.44    0.29
   7  -5 -16    4.48    0.52
   7   5 -16    5.59    0.40
  -7   5  16    5.24    0.47
  -7   5  16    4.65    0.42
   6  -5 -16    0.82    0.35
  -6   5  16    0.68    0.28
  -6   5  16    0.46    0.27
   6   5 -16    0.43    0.21
  -5  -5  16    2.92    0.33
   5  -5 -16    2.04    0.35
  -5   5  16    2.24    0.30
  -5   5  16    2.69    0.31
   5   5 -16    2.82    0.30
   4  -5 -16    3.20    0.38
  -4  -5  16    3.28    0.32
  -4   5  16    2.88    0.31
  -4   5  16    2.50    0.31
   4   5 -16    3.18    0.30
  -3  -5  16    6.99    0.42
   3  -5 -16    6.73    0.44
  -3  -5  16    7.13    0.43
   3   5 -16    7.37    0.48
  -3   5  16    7.17    0.44
   3   5 -16    7.15    0.43
  -2  -5  16   13.61    0.62
   2  -5 -16   14.45    0.65
  -2  -5  16   14.05    0.63
   2   5 -16   14.43    0.66
   2   5 -16   15.90    0.69
  -1  -5  16   15.10    0.63
  -1  -5  16   14.99    0.64
   1  -5 -16   16.09    0.68
   1   5 -16   15.75    0.71
   0  -5  16    9.69    0.50
   0  -5 -16   10.89    0.52
   0   5 -16    9.88    0.54
   1  -5  16    0.35    0.20
  -1  -5 -16    0.29    0.22
  -1   5 -16    0.78    0.25
  -2  -5 -16    1.02    0.21
   2  -5  16    0.68    0.25
  -2   5 -16    0.24    0.24
  -2   5 -16    0.88    0.20
   3  -5  16    3.82    0.37
  -3  -5 -16    4.44    0.35
  -3   5 -16    4.45    0.42
  -3   5 -16    5.05    0.35
   4  -5  16    0.03    0.24
  -4  -5 -16    0.09    0.23
  -4   5 -16    0.12    0.27
  -4   5 -16    0.01    0.23
  -5  -5 -16    1.59    0.32
   5  -5  16    2.29    0.36
  -5   5 -16    2.44    0.34
  -5   5 -16    1.77    0.38
  -6  -5 -16    0.57    0.30
   6  -5  16    0.43    0.32
  -6   5 -16    0.70    0.33
  -6   5 -16    0.98    0.39
  -7  -5 -16   -0.02    0.32
   7  -5  16    0.01    0.33
  -7   5 -16    0.33    0.35
  -7   5 -16    0.74    0.40
  -8  -5 -16    0.80    0.41
   8  -5  16    0.10    0.33
  -8   5 -16    0.38    0.37
  -8   5 -16    1.10    0.47
   9  -6 -16   -0.35    0.46
  -9   6  16    0.29    0.33
   8  -6 -16   -0.01    0.43
  -8   6  16    0.36    0.30
  -8   6  16    0.13    0.35
   7  -6 -16    1.84    0.42
  -7   6  16    0.77    0.32
  -7   6  16    2.25    0.40
  -6  -6  16    0.02    0.28
   6  -6 -16    0.75    0.38
  -6   6  16   -0.33    0.26
  -6   6  16   -0.18    0.28
   6   6 -16    0.28    0.23
   5  -6 -16    0.43    0.34
  -5  -6  16    0.35    0.25
  -5   6  16    0.05    0.26
  -5   6  16    0.33    0.27
   5   6 -16    0.22    0.21
  -4  -6  16    0.26    0.24
   4  -6 -16   -0.26    0.27
  -4  -6  16    0.35    0.30
   4   6 -16    0.35    0.21
  -4   6  16    0.13    0.22
  -4   6  16    0.39    0.26
  -3  -6  16    7.67    0.47
   3  -6 -16    7.41    0.53
  -3  -6  16    6.41    0.48
  -3   6  16    8.18    0.47
   3   6 -16    7.94    0.48
   2  -6 -16   18.17    0.79
  -2  -6  16   17.11    0.74
  -2  -6  16   19.18    0.77
   2   6 -16   18.97    0.80
   2   6 -16   17.85    0.81
   1  -6 -16   -0.05    0.26
  -1  -6  16   -0.16    0.23
  -1  -6  16   -0.10    0.22
   1   6 -16    0.28    0.24
   0  -6 -16    5.70    0.44
   0  -6  16    5.64    0.44
   0   6 -16    6.64    0.48
   1  -6  16    2.33    0.33
  -1  -6 -16    2.57    0.33
  -1   6 -16    2.40    0.34
  -2  -6 -16   -0.08    0.25
  -2  -6 -16    0.02    0.20
   2  -6  16    0.37    0.26
  -2   6 -16    0.55    0.27
  -3  -6 -16    0.38    0.24
   3  -6  16    0.64    0.29
  -3   6 -16    0.80    0.24
  -3   6 -16   -0.11    0.29
   4  -6  16    1.80    0.33
  -4  -6 -16    1.77    0.30
  -4   6 -16    1.51    0.30
  -4   6 -16    1.28    0.36
  -5  -6 -16    0.02    0.25
   5  -6  16   -0.16    0.26
  -5   6 -16   -0.07    0.33
  -5   6 -16   -0.42    0.28
  -6  -6 -16   -0.33    0.30
   6  -6  16    0.35    0.33
  -6   6 -16    0.33    0.36
  -6   6 -16    0.15    0.33
  -7  -6 -16    1.02    0.39
   7  -6  16    0.15    0.35
  -7   6 -16    0.65    0.39
  -7   6 -16    0.88    0.45
   8  -6  16    0.91    0.41
  -8  -6 -16    1.22    0.41
  -8   6 -16    1.10    0.44
  -8   6 -16    0.69    0.46
   8  -7 -16    0.41    0.47
  -8   7  16    0.30    0.38
  -8   7  16    0.31    0.35
   7  -7 -16    1.56    0.47
  -7   7  16    1.42    0.40
  -7   7  16    1.43    0.36
   6  -7 -16    0.51    0.38
  -6  -7  16    0.22    0.30
  -6   7  16    0.10    0.27
  -6   7  16    0.23    0.34
  -5  -7  16    1.77    0.35
   5  -7 -16    2.83    0.43
  -5   7  16    2.70    0.36
   5   7 -16    2.50    0.33
  -5   7  16    2.48    0.37
  -4  -7  16    3.39    0.43
  -4  -7  16    3.27    0.40
   4  -7 -16    3.66    0.46
  -4   7  16    3.29    0.36
  -4   7  16    3.29    0.41
   4   7 -16    3.69    0.38
  -3  -7  16    3.77    0.42
  -3  -7  16    3.79    0.41
   3  -7 -16    4.22    0.46
   3   7 -16    3.52    0.36
   2  -7 -16   -0.47    0.30
  -2  -7  16   -0.33    0.25
  -2  -7  16    0.23    0.27
   1  -7 -16   21.82    0.91
  -1  -7  16   20.53    0.85
  -1  -7  16   21.11    0.88
   0  -7  16    3.92    0.39
   0  -7 -16    3.63    0.40
   0   7 -16    2.91    0.36
  -1  -7 -16    1.46    0.33
   1  -7  16    1.23    0.32
  -1   7 -16    1.78    0.33
  -2  -7 -16    5.26    0.37
   2  -7  16    5.16    0.45
  -2  -7 -16    5.75    0.48
  -2   7 -16    4.78    0.47
  -3  -7 -16    1.44    0.29
   3  -7  16    1.97    0.37
  -3   7 -16    1.43    0.36
   4  -7  16    1.37    0.34
  -4  -7 -16    1.12    0.30
  -4   7 -16    1.60    0.39
  -4   7 -16    1.56    0.32
   5  -7  16    0.98    0.37
  -5  -7 -16    0.24    0.31
  -5   7 -16    1.18    0.33
  -5   7 -16    1.20    0.41
  -6  -7 -16    0.24    0.33
   6  -7  16   -0.01    0.35
  -6   7 -16    0.04    0.40
  -6   7 -16   -0.08    0.34
   7  -7  16    0.34    0.39
  -7  -7 -16    0.80    0.39
  -7   7 -16    0.79    0.40
  -7   7 -16    1.12    0.44
  -7  -8  16   -0.15    0.36
   7  -8 -16   -0.06    0.46
  -7   8  16   -0.02    0.31
  -7   8  16    0.38    0.40
  -6  -8  16    1.46    0.40
   6  -8 -16    0.93    0.46
  -6   8  16    1.49    0.38
  -6   8  16    1.19    0.39
  -5  -8  16    0.45    0.34
   5  -8 -16    1.18    0.43
  -5  -8  16    1.35    0.44
  -5   8  16    1.18    0.39
   4  -8 -16    0.21    0.35
  -4  -8  16   -0.10    0.35
  -4  -8  16    0.50    0.33
   4   8 -16    0.51    0.27
  -4   8  16    0.06    0.30
   3  -8 -16    0.48    0.38
  -3  -8  16    0.83    0.36
  -3  -8  16    1.08    0.36
  -3   8  16    0.62    0.32
   2  -8 -16    1.22    0.40
  -2  -8  16    1.07    0.34
  -2  -8  16    1.04    0.32
  -1  -8  16    1.37    0.32
  -1  -8  16    1.63    0.37
   1  -8 -16    1.77    0.40
   0  -8  16    0.83    0.31
   0  -8 -16    0.58    0.36
  -1  -8 -16    0.24    0.33
   1  -8  16   -0.05    0.28
  -1   8 -16    0.21    0.30
   2  -8  16    0.58    0.34
  -2  -8 -16    0.31    0.34
  -2   8 -16    0.45    0.31
  -3  -8 -16    1.36    0.31
   3  -8  16    1.69    0.38
  -3   8 -16    1.58    0.37
   4  -8  16    0.54    0.36
  -4  -8 -16    1.10    0.32
  -4   8 -16    0.71    0.35
   5  -8  16    0.18    0.34
  -5  -8 -16    0.49    0.33
  -5   8 -16   -0.06    0.32
  -5   8 -16   -0.14    0.35
   6  -8  16    0.05    0.38
  -6  -8 -16   -0.06    0.35
  -6   8 -16    0.50    0.38
  -6   8 -16    0.27    0.40
   6  -9 -16    0.13    0.48
  -6  -9  16    0.09    0.39
  -6   9  16    0.02    0.40
  -5  -9  16    1.03    0.40
   5  -9 -16    0.86    0.48
  -5  -9  16    0.27    0.44
  -5   9  16    0.10    0.39
   4  -9 -16    1.12    0.47
  -4  -9  16    0.35    0.37
  -4  -9  16    1.06    0.39
  -4   9  16    0.40    0.38
  -3  -9  16    0.58    0.38
  -3  -9  16    0.42    0.35
   3  -9 -16    0.98    0.45
  -3   9  16    1.11    0.36
  -2  -9  16    2.62    0.45
   2  -9 -16    2.53    0.48
  -2  -9  16    2.67    0.43
   1  -9 -16    1.39    0.43
  -1  -9  16    1.56    0.39
  -1  -9  16    2.07    0.40
   0  -9 -16    0.01    0.38
   0  -9  16   -0.04    0.35
  -1  -9 -16    0.80    0.41
   1  -9  16    0.03    0.34
   2  -9  16    0.41    0.36
  -2  -9 -16    0.11    0.39
   3  -9  16    0.26    0.37
  -3   9 -16    0.28    0.36
  -4  -9 -16    1.20    0.36
   4  -9  16    2.30    0.46
  -4   9 -16    1.60    0.41
  -5  -9 -16    0.32    0.34
   5  -9  16   -0.20    0.38
  -5   9 -16    0.18    0.40
  -4 -10  16    1.98    0.49
  -4 -10  16    1.01    0.48
   4 -10 -16    1.76    0.54
  -4  10  16    1.44    0.43
  -3 -10  16    0.97    0.41
   3 -10 -16    2.32    0.54
  -3 -10  16    0.81    0.43
  -3  10  16    1.24    0.45
   2 -10 -16    0.35    0.48
  -2 -10  16    0.84    0.41
  -2 -10  16    1.02    0.41
  -2  10  16    0.70    0.42
  -1 -10  16    0.10    0.39
   1 -10 -16   -0.49    0.43
   0 -10 -16    2.61    0.51
   0 -10  16    2.21    0.48
  -1 -10 -16    0.60    0.44
   1 -10  16    0.02    0.39
   2 -10  16    0.67    0.42
  -2 -10 -16    0.07    0.43
   3 -10  16    0.14    0.40
  11   0 -17   -0.28    0.52
  10   0 -17    0.04    0.46
   9   0 -17    3.04    0.51
   8   0 -17    0.13    0.33
   7   0 -17    0.44    0.33
   6   0 -17   -0.03    0.16
   6   0 -17    0.38    0.28
   5   0 -17   11.18    0.57
   5   0 -17   11.83    0.56
   4   0 -17   -0.05    0.18
   4   0 -17   -0.07    0.15
   3   0 -17   40.89    1.49
   3   0 -17   41.34    1.39
   2   0 -17    0.00    0.15
   2   0 -17    0.05    0.14
   2   0 -17   -0.08    0.13
   1   0 -17    1.88    0.18
   1   0 -17    1.84    0.22
   1   0 -17    1.45    0.21
   0   0 -17    0.24    0.17
   0   0 -17   -0.06    0.11
   0   0 -17   -0.11    0.13
   1   0  17    1.35    0.17
  -1   0 -17    1.23    0.23
  -1   0 -17    1.49    0.18
  -2   0 -17   -0.14    0.17
  -2   0 -17    0.03    0.15
  -3   0 -17   53.09    1.87
  -3   0 -17   55.02    1.73
  -4   0 -17   -0.06    0.19
  -4   0 -17    0.03    0.21
  -4   0 -17    0.07    0.21
  -5   0 -17    0.14    0.25
  -5   0 -17   -0.12    0.22
  -5   0 -17   -0.34    0.23
  -6   0 -17    0.18    0.27
  -6   0 -17    0.03    0.26
  -7   0 -17    1.31    0.35
  -8   0 -17    0.03    0.34
  -9   0 -17    0.18    0.38
  11  -1 -17    0.09    0.52
  11   1 -17    0.32    0.52
  10  -1 -17    0.72    0.49
  10   1 -17    0.09    0.48
   9  -1 -17    0.15    0.38
  -9   1  17   -0.56    0.29
   9   1 -17    0.41    0.39
   8  -1 -17    1.27    0.40
   8   1 -17    0.90    0.21
   8   1 -17    0.37    0.34
  -8   1  17    0.75    0.29
   7  -1 -17    5.75    0.49
   7   1 -17    5.86    0.39
   7   1 -17    6.55    0.54
   6  -1 -17    5.28    0.45
   6   1 -17    5.58    0.37
   5  -1 -17    9.90    0.55
   5   1 -17   10.50    0.52
   4  -1 -17    1.42    0.25
   4  -1 -17    1.80    0.23
   4   1 -17    1.16    0.22
   3  -1 -17    0.56    0.19
   3  -1 -17    0.76    0.18
   3   1 -17    0.46    0.18
   3   1 -17    0.74    0.18
   2  -1 -17   37.72    1.35
   2  -1 -17   36.81    1.23
   2   1 -17   35.64    1.34
   2   1 -17   35.72    1.32
   1  -1 -17    6.03    0.42
   1  -1 -17    6.80    0.41
   1   1 -17    7.02    0.40
   1   1 -17    7.63    0.42
   0  -1 -17   18.82    0.76
   0  -1 -17   18.35    0.79
   0  -1  17   19.17    0.68
   0   1 -17   19.30    0.79
   0   1 -17   18.79    0.65
   0   1 -17   19.69    0.80
  -1  -1 -17   33.43    1.21
  -1  -1 -17   32.93    1.08
  -1  -1 -17   33.73    1.10
   1  -1  17   34.94    1.11
  -1   1 -17   33.10    1.08
  -1   1 -17   31.48    1.23
  -2  -1 -17   15.12    0.57
  -2  -1 -17   14.07    0.56
  -2  -1 -17   12.57    0.62
   2  -1  17   14.47    0.58
  -2   1 -17   13.41    0.65
  -2   1 -17   14.06    0.56
  -3  -1 -17    4.32    0.35
  -3  -1 -17    4.74    0.35
   3  -1  17    5.17    0.34
  -3  -1 -17    5.10    0.35
  -3   1 -17    4.67    0.38
  -3   1 -17    4.67    0.33
  -4  -1 -17   14.40    0.62
  -4  -1 -17   14.86    0.62
  -4  -1 -17   13.37    0.65
  -4   1 -17   14.32    0.61
  -4   1 -17   14.64    0.71
  -5  -1 -17    0.00    0.24
  -5  -1 -17    0.08    0.23
  -5   1 -17    0.31    0.25
  -5   1 -17    0.38    0.26
  -6  -1 -17    0.28    0.28
  -6  -1 -17    0.45    0.28
  -6   1 -17   -0.15    0.25
  -6   1 -17    0.10    0.28
  -7  -1 -17    0.50    0.33
  -7  -1 -17    0.53    0.31
  -7   1 -17    0.50    0.31
  -7   1 -17    0.60    0.33
  -8  -1 -17    1.46    0.41
  -8  -1 -17    1.40    0.39
  -8   1 -17    1.44    0.41
  -9  -1 -17   -0.18    0.39
  -9  -1 -17   -0.12    0.39
   9  -1  17   -0.04    0.37
  -9   1 -17   -0.60    0.35
  10  -2 -17    0.98    0.51
  10   2 -17    0.67    0.46
 -10   2  17   -0.02    0.33
   9  -2 -17    1.93    0.48
  -9   2  17    2.59    0.37
   9   2 -17    2.01    0.49
   8  -2 -17    0.24    0.38
  -8   2  17    0.22    0.28
   8   2 -17    0.91    0.22
   7  -2 -17    7.90    0.59
  -7   2  17    7.56    0.48
   7   2 -17    7.59    0.46
   6  -2 -17    1.27    0.31
  -6   2  17    0.99    0.25
   6   2 -17    1.02    0.22
   5  -2 -17    2.04    0.31
   5   2 -17    1.56    0.22
   4  -2 -17    4.20    0.36
   4   2 -17    3.97    0.35
  -4   2  17    3.56    0.28
   4   2 -17    3.69    0.31
   3  -2 -17    7.59    0.42
   3   2 -17    7.34    0.42
   3   2 -17    6.97    0.47
  -2  -2  17   -0.09    0.12
   2  -2 -17    0.18    0.16
   2   2 -17    0.10    0.19
   2   2 -17   -0.05    0.14
   1  -2 -17   30.16    1.04
  -1  -2  17   30.32    1.01
   1  -2 -17   30.17    1.10
   1   2 -17   31.90    1.16
   1   2 -17   30.39    1.15
   0  -2 -17    0.54    0.18
   0  -2 -17    0.47    0.15
   0  -2  17    0.77    0.17
   0   2 -17    0.55    0.17
   0   2 -17    0.40    0.19
  -1  -2 -17   -0.01    0.17
  -1  -2 -17    0.46    0.15
   1  -2  17    0.09    0.15
  -1   2 -17   -0.11    0.18
  -1   2 -17    0.17    0.13
  -2  -2 -17    0.44    0.17
   2  -2  17    0.02    0.16
  -2  -2 -17   -0.31    0.17
  -2   2 -17    0.09    0.15
  -2   2 -17    0.00    0.19
   3  -2  17   10.55    0.50
  -3  -2 -17   10.46    0.52
  -3  -2 -17   10.87    0.49
  -3  -2 -17   10.47    0.54
  -3   2 -17   10.07    0.48
  -3   2 -17   10.24    0.60
  -4  -2 -17    0.50    0.22
  -4  -2 -17    0.47    0.22
   4  -2  17    0.37    0.22
  -4   2 -17    0.58    0.23
  -4   2 -17    0.52    0.24
  -5  -2 -17    0.41    0.24
  -5  -2 -17   -0.05    0.23
   5  -2  17   -0.05    0.22
  -5   2 -17   -0.11    0.21
  -5   2 -17    0.10    0.25
  -6  -2 -17    0.14    0.28
  -6  -2 -17   -0.32    0.24
   6  -2  17    0.00    0.26
  -6   2 -17    0.22    0.30
  -6   2 -17   -0.35    0.25
   7  -2  17    2.32    0.39
  -7  -2 -17    3.33    0.43
  -7  -2 -17    2.43    0.40
  -7   2 -17    3.10    0.42
  -7   2 -17    2.40    0.43
  -8  -2 -17    0.76    0.39
   8  -2  17   -0.17    0.32
  -8  -2 -17    0.33    0.36
  -8   2 -17    0.42    0.36
  -8   2 -17    0.49    0.36
   9  -2  17    1.29    0.40
  -9  -2 -17    0.96    0.43
  -9  -2 -17    0.83    0.43
  -9   2 -17    0.76    0.41
  10  -3 -17    0.58    0.49
 -10   3  17    0.96    0.36
   9  -3 -17    0.68    0.45
  -9   3  17   -0.15    0.32
   8  -3 -17    3.99    0.50
   8   3 -17    3.21    0.33
  -8   3  17    3.20    0.39
   7  -3 -17    0.28    0.34
   7   3 -17    0.06    0.19
  -7   3  17    0.05    0.25
   6  -3 -17    0.27    0.28
  -6   3  17    0.49    0.25
   6   3 -17    0.22    0.25
   6   3 -17    0.24    0.19
   5  -3 -17    8.37    0.52
   5   3 -17    7.73    0.53
  -5   3  17    7.73    0.47
   5   3 -17    7.07    0.42
   4  -3 -17    6.01    0.40
  -4   3  17    5.41    0.36
   4   3 -17    6.17    0.39
   4   3 -17    6.63    0.46
  -3  -3  17    4.31    0.30
   3  -3 -17    4.05    0.34
   3   3 -17    4.08    0.35
   3   3 -17    3.95    0.32
   2  -3 -17   68.12    2.22
  -2  -3  17   67.33    2.12
   2   3 -17   70.42    2.39
   2   3 -17   70.56    2.34
  -1  -3  17   18.30    0.70
   1  -3 -17   18.49    0.72
   1   3 -17   20.23    0.81
   1   3 -17   18.09    0.77
   0  -3 -17    7.84    0.44
   0  -3  17    7.55    0.39
   0   3 -17    6.97    0.45
   1  -3  17    3.77    0.30
  -1  -3 -17    4.47    0.33
  -1  -3 -17    3.70    0.26
  -1   3 -17    3.35    0.24
  -1   3 -17    3.98    0.28
  -1   3 -17    3.27    0.33
  -2  -3 -17   15.62    0.61
   2  -3  17   15.43    0.66
  -2   3 -17   16.14    0.68
  -2   3 -17   15.82    0.73
  -2   3 -17   15.32    0.60
   3  -3  17   -0.06    0.18
  -3  -3 -17    0.06    0.19
  -3   3 -17    0.28    0.19
  -3   3 -17    0.16    0.23
   4  -3  17    3.80    0.36
  -4  -3 -17    4.13    0.36
  -4  -3 -17    4.07    0.38
  -4   3 -17    3.70    0.40
  -4   3 -17    4.86    0.37
  -5  -3 -17    0.50    0.26
   5  -3  17    0.62    0.27
  -5  -3 -17    0.70    0.25
  -5   3 -17    0.24    0.26
  -5   3 -17    0.66    0.32
  -6  -3 -17    2.96    0.39
  -6  -3 -17    1.81    0.33
   6  -3  17    2.47    0.36
  -6   3 -17    2.53    0.41
  -6   3 -17    1.92    0.34
  -7  -3 -17    0.83    0.35
  -7  -3 -17    0.45    0.32
   7  -3  17    0.37    0.32
  -7   3 -17    0.49    0.35
  -7   3 -17    0.04    0.33
  -8  -3 -17    0.34    0.38
  -8  -3 -17    0.25    0.34
   8  -3  17   -0.19    0.34
  -8   3 -17    0.16    0.39
  -8   3 -17    0.31    0.42
  -9  -3 -17   -0.23    0.39
  -9  -3 -17    0.34    0.38
   9  -3  17    0.05    0.33
  -9   3 -17   -1.01    0.35
  -9   3 -17    0.36    0.46
  10  -4 -17   -0.23    0.48
 -10   4  17   -0.06    0.34
   9  -4 -17    0.60    0.46
  -9   4  17    0.32    0.36
   8  -4 -17    2.19    0.46
  -8   4  17    2.21    0.36
   7  -4 -17    0.21    0.32
   7   4 -17    0.98    0.24
  -7   4  17    0.86    0.31
   6  -4 -17    0.18    0.32
  -6   4  17   -0.13    0.25
  -6   4  17   -0.17    0.23
   6   4 -17   -0.01    0.18
   5  -4 -17    1.37    0.32
   5   4 -17    0.96    0.28
  -5   4  17    1.40    0.27
   5   4 -17    1.44    0.24
  -5   4  17    1.35    0.26
  -4  -4  17   13.53    0.59
   4  -4 -17   14.85    0.68
   4   4 -17   14.00    0.68
   4   4 -17   14.23    0.64
  -4   4  17   15.11    0.66
  -4   4  17   13.29    0.59
   3  -4 -17    8.06    0.48
  -3  -4  17    8.30    0.42
   3   4 -17    8.23    0.45
   3   4 -17    7.77    0.51
  -2  -4  17    0.98    0.19
   2  -4 -17    1.01    0.24
   2   4 -17    1.05    0.26
   2   4 -17    1.08    0.21
  -1  -4  17   33.98    1.15
   1  -4 -17   33.57    1.18
   1   4 -17   34.13    1.27
   1   4 -17   33.39    1.26
   0  -4 -17    1.86    0.25
   0  -4  17    1.63    0.24
   0   4 -17    1.75    0.27
  -1  -4 -17    8.10    0.36
   1  -4  17    6.83    0.41
  -1  -4 -17    6.94    0.40
  -1   4 -17    7.69    0.49
  -2  -4 -17    2.28    0.24
   2  -4  17    2.02    0.27
  -2   4 -17    1.81    0.23
  -2   4 -17    2.22    0.24
  -2   4 -17    2.40    0.33
  -3  -4 -17   17.08    0.69
   3  -4  17   17.79    0.74
  -3   4 -17   16.93    0.80
  -3   4 -17   17.59    0.68
   4  -4  17    0.42    0.24
  -4  -4 -17    0.13    0.23
  -4   4 -17   -0.01    0.22
  -4   4 -17    0.39    0.31
   5  -4  17    3.90    0.39
  -5  -4 -17    3.07    0.37
  -5   4 -17    3.40    0.45
  -5   4 -17    3.62    0.38
   6  -4  17   -0.04    0.28
  -6  -4 -17    0.40    0.31
  -6   4 -17   -0.16    0.32
  -6   4 -17   -0.35    0.26
   7  -4  17    1.40    0.35
  -7  -4 -17    0.34    0.34
  -7   4 -17    0.12    0.39
  -7   4 -17    0.24    0.33
   8  -4  17    0.39    0.35
  -8  -4 -17    0.37    0.38
  -8   4 -17    0.65    0.43
  -8   4 -17    0.28    0.40
   9  -5 -17    0.41    0.47
  -9   5  17    1.01    0.39
   8  -5 -17    1.59    0.46
  -8   5  17    1.01    0.34
   7  -5 -17   -0.04    0.36
  -7   5  17    0.32    0.30
  -7   5  17   -0.03    0.29
   6  -5 -17    2.19    0.41
  -6   5  17    2.20    0.35
  -6   5  17    2.56    0.35
   6   5 -17    2.43    0.30
  -5  -5  17    0.98    0.25
   5  -5 -17    0.56    0.30
  -5   5  17    1.38    0.27
   5   5 -17    1.22    0.24
  -5   5  17    0.78    0.26
  -4  -5  17    1.68    0.27
   4  -5 -17    0.97    0.32
  -4   5  17    1.09    0.27
  -4   5  17    1.80    0.28
   4   5 -17    1.28    0.24
  -3  -5  17    5.09    0.37
   3  -5 -17    3.73    0.36
   3   5 -17    3.98    0.38
   3   5 -17    3.44    0.34
  -2  -5  17   19.69    0.78
  -2  -5  17   19.90    0.80
   2  -5 -17   20.03    0.83
   2   5 -17   21.16    0.87
   2   5 -17   20.76    0.87
  -1  -5  17   21.75    0.84
  -1  -5  17   22.30    0.82
   1  -5 -17   20.39    0.85
   1   5 -17   22.56    0.92
   0  -5 -17    1.25    0.26
   0  -5  17    0.89    0.23
   0   5 -17    0.72    0.25
  -1  -5 -17   -0.18    0.21
   1  -5  17   -0.09    0.21
  -1   5 -17    0.06    0.24
   2  -5  17    3.92    0.36
  -2  -5 -17    4.81    0.34
  -2   5 -17    4.08    0.42
  -3  -5 -17    0.13    0.22
   3  -5  17    0.07    0.23
  -3   5 -17    0.07    0.21
  -3   5 -17    0.22    0.27
   4  -5  17    1.89    0.34
  -4  -5 -17    2.03    0.29
  -4   5 -17    2.23    0.39
  -4   5 -17    1.94    0.30
  -5  -5 -17    0.23    0.26
   5  -5  17    0.99    0.30
  -5   5 -17    0.41    0.36
  -5   5 -17    0.81    0.30
  -6  -5 -17    0.01    0.31
   6  -5  17   -0.17    0.30
  -6   5 -17    0.08    0.32
  -6   5 -17   -0.22    0.34
   7  -5  17    0.37    0.32
  -7  -5 -17    0.14    0.32
  -7   5 -17    0.39    0.43
  -7   5 -17    0.70    0.34
  -8  -5 -17    0.06    0.36
   8  -5  17    0.09    0.36
  -8   5 -17    0.75    0.40
  -8   5 -17    1.09    0.50
   9  -6 -17    4.25    0.62
  -9   6  17    3.82    0.51
   8  -6 -17    0.24    0.45
  -8   6  17    0.50    0.34
   7  -6 -17    3.08    0.50
  -7   6  17    3.61    0.43
  -7   6  17    2.10    0.40
   6  -6 -17    1.11    0.40
  -6   6  17    1.08    0.32
   6   6 -17    0.70    0.24
  -6   6  17    1.39    0.34
   5  -6 -17    0.83    0.36
  -5  -6  17    0.91    0.28
   5   6 -17    1.21    0.28
  -5   6  17    0.80    0.30
  -5   6  17    1.02    0.30
  -4  -6  17    0.25    0.25
   4  -6 -17    0.68    0.33
  -4   6  17    0.05    0.26
   4   6 -17    0.20    0.22
  -4   6  17    0.83    0.26
  -3  -6  17    3.64    0.39
  -3  -6  17    3.95    0.38
   3  -6 -17    3.05    0.40
   3   6 -17    3.70    0.35
  -2  -6  17    2.17    0.32
  -2  -6  17    2.51    0.32
   2  -6 -17    2.51    0.36
   2   6 -17    2.45    0.33
  -1  -6  17    1.56    0.29
  -1  -6  17    0.78    0.25
   1  -6 -17    1.17    0.28
   1   6 -17    1.11    0.29
   0  -6  17    1.35    0.29
   0  -6 -17    1.72    0.32
   0   6 -17    2.11    0.31
   1  -6  17   -0.20    0.21
  -1  -6 -17    0.08    0.26
  -1   6 -17    0.14    0.27
  -2  -6 -17    0.39    0.21
   2  -6  17    0.53    0.27
  -2   6 -17    0.07    0.28
   3  -6  17    0.64    0.30
  -3  -6 -17    0.64    0.25
  -3   6 -17    0.43    0.29
   4  -6  17   -0.01    0.27
  -4  -6 -17    0.24    0.26
  -4   6 -17   -0.26    0.25
  -4   6 -17   -0.24    0.30
  -5  -6 -17    0.62    0.31
   5  -6  17   -0.18    0.30
  -5   6 -17    0.23    0.34
  -5   6 -17    0.55    0.31
  -6  -6 -17   -0.38    0.31
   6  -6  17    0.51    0.33
  -6   6 -17   -0.24    0.32
  -6   6 -17   -0.29    0.39
  -7  -6 -17    1.15    0.40
   7  -6  17    0.72    0.36
  -7   6 -17    0.35    0.43
  -7   6 -17    0.76    0.39
   8  -7 -17    0.10    0.47
  -8   7  17    0.45    0.40
  -8   7  17    0.44    0.38
   7  -7 -17    0.27    0.41
  -7   7  17   -0.24    0.33
  -7   7  17   -0.23    0.35
   6  -7 -17    1.90    0.46
  -6  -7  17    1.49    0.36
  -6   7  17    1.48    0.37
  -6   7  17    1.10    0.37
  -5  -7  17    0.05    0.30
   5  -7 -17    0.29    0.39
  -5   7  17    0.38    0.32
  -5   7  17    0.38    0.30
   5   7 -17    0.31    0.26
  -4  -7  17    0.02    0.33
  -4  -7  17    0.51    0.30
   4  -7 -17    0.40    0.33
  -4   7  17    0.17    0.27
   4   7 -17    0.07    0.23
  -3  -7  17   12.46    0.66
  -3  -7  17   11.82    0.63
   3  -7 -17   12.55    0.70
  -2  -7  17   10.58    0.60
  -2  -7  17   10.35    0.58
   2  -7 -17   10.65    0.61
  -1  -7  17    0.80    0.29
   1  -7 -17    0.69    0.33
  -1  -7  17    1.02    0.31
   1   7 -17    0.95    0.29
   0  -7  17    2.05    0.33
   0  -7 -17    1.87    0.36
   0   7 -17    2.32    0.36
  -1  -7 -17    0.99    0.33
   1  -7  17    0.67    0.31
  -1   7 -17    0.80    0.32
   2  -7  17    5.39    0.48
  -2   7 -17    5.42    0.50
  -3  -7 -17    0.06    0.25
   3  -7  17   -0.03    0.29
  -3   7 -17    0.59    0.33
   4  -7  17    1.88    0.37
  -4  -7 -17    2.12    0.34
  -4   7 -17    1.82    0.33
  -4   7 -17    1.45    0.38
   5  -7  17    0.14    0.34
  -5  -7 -17    0.40    0.32
  -5   7 -17   -0.08    0.34
  -5   7 -17    0.14    0.31
  -6  -7 -17    0.08    0.33
   6  -7  17   -0.09    0.33
  -6   7 -17    0.29    0.41
  -6   7 -17   -0.18    0.34
  -7  -7 -17    0.97    0.41
   7  -7  17   -0.13    0.39
  -7   7 -17   -0.09    0.39
  -7   7 -17    0.22    0.45
  -7  -8  17   -0.52    0.35
   7  -8 -17    0.13    0.48
  -7   8  17    0.32    0.35
  -7   8  17    0.20    0.39
   6  -8 -17    1.19    0.48
  -6  -8  17    1.69    0.42
  -6   8  17    0.76    0.40
  -6   8  17    2.01    0.40
  -5  -8  17    0.66    0.35
   5  -8 -17    0.60    0.43
  -5   8  17    1.12    0.36
  -4  -8  17   -0.32    0.31
  -4  -8  17   -0.34    0.31
   4  -8 -17   -0.04    0.39
  -4   8  17    0.02    0.34
  -3  -8  17    4.26    0.48
   3  -8 -17    5.04    0.53
  -3  -8  17    4.52    0.47
  -3   8  17    4.73    0.50
  -2  -8  17    0.01    0.31
   2  -8 -17   -0.15    0.35
  -2  -8  17   -0.19    0.28
   1  -8 -17    1.55    0.39
  -1  -8  17    1.47    0.37
   0  -8  17    0.49    0.31
   0  -8 -17    0.36    0.32
   1  -8  17    1.30    0.37
  -1  -8 -17    1.64    0.40
  -1   8 -17    1.89    0.38
  -2  -8 -17    0.56    0.36
   2  -8  17   -0.11    0.30
  -2   8 -17    0.27    0.33
  -3  -8 -17    3.70    0.39
   3  -8  17    3.87    0.45
  -3   8 -17    3.71    0.48
  -4  -8 -17    0.23    0.30
   4  -8  17    0.12    0.36
  -4   8 -17    0.46    0.38
   5  -8  17    0.30    0.39
  -5  -8 -17    0.31    0.34
  -5   8 -17    0.40    0.42
  -6  -8 -17   -0.29    0.35
   6  -8  17    0.17    0.39
  -6   8 -17    0.54    0.44
  -6   8 -17   -0.45    0.35
  -6  -9  17   -0.42    0.37
   6  -9 -17   -0.39    0.47
  -6   9  17    0.02    0.41
  -5  -9  17    0.32    0.40
  -5  -9  17    0.66    0.38
   5  -9 -17    0.80    0.47
  -5   9  17    1.10    0.43
  -4  -9  17    2.40    0.45
   4  -9 -17    2.22    0.50
  -4  -9  17    1.51    0.41
  -4   9  17    1.81    0.43
  -3  -9  17    0.33    0.39
  -3  -9  17    0.65    0.40
   3  -9 -17    0.90    0.46
  -3   9  17    1.06    0.38
   2  -9 -17    1.12    0.41
  -2  -9  17    0.87    0.39
  -2  -9  17    1.08    0.40
  -1  -9  17   -0.54    0.32
   1  -9 -17    0.21    0.39
   0  -9 -17    0.63    0.40
   0  -9  17    0.69    0.39
   1  -9  17    0.51    0.36
  -1  -9 -17    0.91    0.42
   2  -9  17   -0.33    0.31
  -2  -9 -17   -0.02    0.39
   3  -9  17    1.51    0.44
  -3   9 -17    1.24    0.41
  -4  -9 -17   -0.04    0.31
   4  -9  17    0.35    0.40
  -4   9 -17    0.64    0.41
   4 -10 -17    0.82    0.52
  -4 -10  17    1.03    0.48
  -4 -10  17    0.11    0.43
  -4  10  17    0.79    0.44
   3 -10 -17   -0.14    0.47
  -3 -10  17   -0.37    0.37
  -3 -10  17    0.27    0.42
  -3  10  17    0.26    0.43
  -2 -10  17   -0.15    0.38
   2 -10 -17    0.10    0.46
  -2 -10  17   -0.48    0.40
  -2  10  17   -0.12    0.40
  -1 -10  17    0.18    0.42
   1 -10 -17    0.58    0.46
   0 -10 -17    0.09    0.44
   0 -10  17    0.01    0.41
   1 -10  17    0.61    0.42
  -1 -10 -17   -0.05    0.43
  -2 -10 -17    0.38    0.48
   2 -10  17   -0.03    0.40
  10   0 -18    1.23    0.51
   9   0 -18   -0.26    0.40
   8   0 -18   18.41    0.93
   7   0 -18   -0.11    0.29
   7   0 -18    0.01    0.17
   6   0 -18    2.71    0.37
   6   0 -18    2.20    0.28
   5   0 -18   -0.09    0.22
   5   0 -18   -0.20    0.14
   4   0 -18   63.16    2.06
   4   0 -18   62.42    2.20
   3   0 -18    0.04    0.18
   3   0 -18   -0.05    0.14
   2   0 -18   55.32    1.94
   2   0 -18   54.30    1.77
   2   0 -18   55.34    1.90
   1   0 -18   -0.06    0.14
   1   0 -18   -0.06    0.13
   1   0 -18    0.13    0.17
   0   0  18    0.17    0.12
   0   0 -18    0.12    0.15
   0   0 -18    0.43    0.21
  -1   0 -18    0.14    0.14
  -1   0 -18   -0.09    0.19
   1   0  18    0.07    0.12
  -2   0 -18    6.04    0.43
  -2   0 -18    6.17    0.36
  -3   0 -18    0.18    0.20
  -3   0 -18    0.02    0.19
  -4   0 -18    0.55    0.24
  -4   0 -18    0.33    0.23
  -5   0 -18    0.03    0.24
  -5   0 -18    0.20    0.25
  -6   0 -18   11.66    0.64
  -6   0 -18    9.43    0.64
  -7   0 -18   -0.12    0.33
  -8   0 -18    0.55    0.39
  -9   0 -18    0.42    0.43
  10  -1 -18    0.80    0.51
  10   1 -18    1.55    0.54
   9  -1 -18    0.81    0.44
   9   1 -18    1.16    0.46
   8  -1 -18    2.43    0.45
   8   1 -18    2.20    0.27
   8   1 -18    1.68    0.43
   7  -1 -18    0.13    0.32
   7   1 -18    0.03    0.19
   7   1 -18    0.45    0.31
   6  -1 -18    0.05    0.26
   6   1 -18    0.12    0.18
   6   1 -18    0.05    0.28
   5  -1 -18    7.02    0.42
   5  -1 -18    7.56    0.48
   5   1 -18    7.02    0.43
   4  -1 -18    1.48    0.23
   4  -1 -18    1.74    0.25
   4   1 -18    1.93    0.24
   3  -1 -18   20.58    0.76
   3  -1 -18   19.58    0.82
   3   1 -18   19.60    0.82
   3   1 -18   19.07    0.81
   2  -1 -18    7.04    0.43
   2  -1 -18    7.73    0.38
   2   1 -18    7.58    0.42
   2   1 -18    6.85    0.43
   1  -1 -18    0.76    0.19
   1  -1 -18    0.39    0.14
   1  -1 -18    0.36    0.18
   1   1 -18    0.40    0.19
   1   1 -18    0.44    0.16
   1   1 -18    0.41    0.15
   0  -1 -18   31.75    1.15
   0  -1  18   32.39    1.03
   0   1 -18   31.60    1.17
   0   1 -18   30.14    0.99
   0   1 -18   29.82    1.18
  -1  -1 -18   17.12    0.70
  -1  -1 -18   16.03    0.61
   1  -1  18   15.19    0.60
  -1   1 -18   14.61    0.58
  -1   1 -18   14.92    0.70
  -2  -1 -18   -0.34    0.17
   2  -1  18    0.46    0.17
  -2  -1 -18   -0.02    0.16
  -2  -1 -18    0.30    0.17
  -2   1 -18   -0.24    0.18
  -2   1 -18    0.12    0.16
  -3  -1 -18    0.71    0.22
  -3  -1 -18    0.70    0.20
   3  -1  18    0.74    0.20
  -3  -1 -18    0.58    0.21
  -3   1 -18    0.75    0.23
  -3   1 -18    0.71    0.21
  -4  -1 -18    4.43    0.36
   4  -1  18    4.18    0.35
  -4  -1 -18    5.27    0.39
  -4  -1 -18    5.26    0.40
  -4   1 -18    4.81    0.42
  -4   1 -18    4.36    0.37
  -5  -1 -18    0.39    0.27
  -5  -1 -18   -0.04    0.25
  -5   1 -18    0.82    0.30
  -5   1 -18    0.51    0.27
  -6  -1 -18    0.63    0.29
  -6  -1 -18    0.37    0.29
  -6   1 -18    0.79    0.32
  -6   1 -18    0.47    0.28
  -7  -1 -18    0.23    0.30
  -7  -1 -18    0.10    0.30
  -7   1 -18   -0.12    0.32
  -7   1 -18    0.29    0.33
  -8  -1 -18    0.11    0.37
  -8  -1 -18   -0.25    0.36
   8  -1  18    0.59    0.35
  -8   1 -18    0.01    0.37
   9  -1  18    0.62    0.39
  -9  -1 -18    0.09    0.42
  -9   1 -18    0.39    0.44
  10  -2 -18   -0.08    0.47
 -10   2  18    0.37    0.36
  10   2 -18    0.01    0.49
   9  -2 -18    2.98    0.52
   9   2 -18    2.32    0.50
  -9   2  18    2.43    0.39
   8  -2 -18    0.07    0.37
   8   2 -18    0.14    0.19
  -8   2  18    0.21    0.29
   7  -2 -18    0.32    0.31
  -7   2  18    0.18    0.25
   7   2 -18    0.34    0.21
   6  -2 -18    0.24    0.28
   6   2 -18    0.12    0.19
   5  -2 -18    5.29    0.44
   5   2 -18    5.93    0.39
   4  -2 -18    5.19    0.39
   4   2 -18    4.56    0.35
   4   2 -18    4.98    0.40
   3  -2 -18    2.44    0.27
   3   2 -18    2.29    0.29
   3   2 -18    2.36    0.26
   2  -2 -18    2.71    0.27
  -2  -2  18    4.63    0.27
   2   2 -18    2.73    0.30
   2   2 -18    3.49    0.30
   1  -2 -18   22.96    0.88
  -1  -2  18   22.91    0.79
   1  -2 -18   18.09    0.78
   1   2 -18   25.72    0.93
   1   2 -18   24.04    0.92
   0  -2  18   24.03    0.86
   0  -2 -18   24.91    0.86
   0  -2 -18   24.13    0.94
   0   2 -18   25.49    0.98
  -1  -2 -18   -0.02    0.14
   1  -2  18    0.08    0.16
  -1  -2 -18   -0.02    0.18
  -1   2 -18    0.03    0.20
  -1   2 -18    0.05    0.14
  -2  -2 -18   30.04    1.16
  -2  -2 -18   32.02    1.05
   2  -2  18   32.16    1.08
  -2   2 -18   30.86    1.04
  -2   2 -18   31.38    1.21
  -3  -2 -18    1.73    0.24
  -3  -2 -18    0.97    0.23
  -3  -2 -18    1.57    0.25
   3  -2  18    0.93    0.23
  -3   2 -18    1.04    0.20
  -3   2 -18    1.14    0.28
   4  -2  18    4.32    0.37
  -4  -2 -18    3.19    0.33
  -4  -2 -18    3.48    0.33
  -4   2 -18    3.94    0.35
  -4   2 -18    3.28    0.37
  -5  -2 -18    2.44    0.33
   5  -2  18    2.86    0.35
  -5  -2 -18    2.53    0.32
  -5   2 -18    2.02    0.32
  -5   2 -18    2.06    0.37
  -6  -2 -18    2.29    0.34
  -6  -2 -18    1.69    0.35
   6  -2  18    1.91    0.32
  -6   2 -18    1.68    0.34
  -6   2 -18    1.02    0.34
   7  -2  18    0.16    0.29
  -7  -2 -18    0.38    0.31
  -7  -2 -18    0.36    0.30
  -7   2 -18    0.45    0.33
  -7   2 -18   -0.44    0.31
   8  -2  18    0.26    0.36
  -8  -2 -18   -0.57    0.35
  -8  -2 -18   -0.43    0.34
  -8   2 -18    0.05    0.39
  -8   2 -18   -0.03    0.37
  -9  -2 -18    0.11    0.39
   9  -2  18   -0.13    0.38
  -9  -2 -18    0.06    0.40
  -9   2 -18    0.67    0.45
  10  -3 -18    0.46    0.48
 -10   3  18    0.44    0.37
  10   3 -18    0.40    0.51
   9  -3 -18    2.98    0.54
  -9   3  18    3.78    0.43
   8  -3 -18    0.57    0.41
  -8   3  18    0.86    0.29
   7  -3 -18    3.25    0.45
   7   3 -18    3.66    0.35
  -7   3  18    3.25    0.36
   6  -3 -18    2.16    0.37
   6   3 -18    2.24    0.34
  -6   3  18    1.63    0.28
   6   3 -18    1.52    0.25
   5  -3 -18    0.46    0.25
   5   3 -18   -0.19    0.16
   5   3 -18    0.55    0.24
   4  -3 -18    1.52    0.29
   4   3 -18    1.24    0.28
   4   3 -18    1.48    0.23
  -3  -3  18   77.18    2.37
   3  -3 -18   77.44    2.50
   3   3 -18   77.65    2.61
   3   3 -18   78.71    2.68
   2  -3 -18    4.60    0.34
  -2  -3  18    4.21    0.31
   2   3 -18    4.13    0.36
   2   3 -18    4.07    0.32
  -1  -3  18    1.37    0.21
   1  -3 -18    1.07    0.21
   1   3 -18    0.94    0.20
   1   3 -18    1.22    0.26
   0  -3  18    3.19    0.29
   0  -3 -18    3.10    0.27
   0  -3 -18    3.50    0.31
   0   3 -18    3.30    0.33
  -1  -3 -18   49.69    1.66
  -1  -3 -18   47.54    1.49
   1  -3  18   48.48    1.55
  -1   3 -18   44.43    1.69
  -2  -3 -18    1.30    0.21
   2  -3  18    0.87    0.22
  -2   3 -18    0.77    0.25
  -2   3 -18    0.62    0.20
  -3  -3 -18   12.40    0.55
   3  -3  18   12.51    0.58
  -3   3 -18   11.82    0.66
  -3   3 -18   13.43    0.56
   4  -3  18   -0.01    0.24
  -4  -3 -18   -0.05    0.22
  -4  -3 -18    0.14    0.23
  -4   3 -18    0.03    0.28
  -4   3 -18    0.43    0.24
  -5  -3 -18    0.88    0.30
   5  -3  18    1.29    0.30
  -5  -3 -18    1.07    0.30
  -5   3 -18    0.93    0.27
  -5   3 -18    0.92    0.34
   6  -3  18    0.13    0.29
  -6  -3 -18    0.49    0.28
  -6  -3 -18    0.09    0.27
  -6   3 -18    0.54    0.36
  -6   3 -18   -0.22    0.29
  -7  -3 -18    3.55    0.46
   7  -3  18    4.55    0.46
  -7  -3 -18    4.69    0.49
  -7   3 -18    2.98    0.51
  -7   3 -18    4.17    0.48
  -8  -3 -18    1.15    0.41
   8  -3  18    1.09    0.39
  -8  -3 -18    1.23    0.39
  -8   3 -18    0.27    0.40
  -8   3 -18    0.02    0.39
  10  -4 -18    0.72    0.52
 -10   4  18    0.97    0.40
   9  -4 -18    0.66    0.46
  -9   4  18    0.03    0.32
   8  -4 -18    0.14    0.37
  -8   4  18   -0.07    0.28
   7  -4 -18   -0.14    0.35
   7   4 -18    0.14    0.20
  -7   4  18    0.13    0.25
   6  -4 -18    0.64    0.31
  -6   4  18    1.17    0.27
   6   4 -18    0.72    0.23
   5  -4 -18    1.52    0.32
   5   4 -18    1.41    0.30
   5   4 -18    1.94    0.27
  -5   4  18    1.79    0.29
  -5   4  18    1.57    0.27
  -4  -4  18   19.09    0.75
   4  -4 -18   19.87    0.81
   4   4 -18   20.48    0.85
   4   4 -18   18.52    0.81
  -4   4  18   17.66    0.75
   3  -4 -18    2.03    0.30
  -3  -4  18    2.99    0.28
   3   4 -18    1.64    0.25
   3   4 -18    1.67    0.30
   2  -4 -18    0.16    0.22
  -2  -4  18   -0.03    0.17
   2   4 -18    0.23    0.22
   2   4 -18    1.11    0.22
   1  -4 -18    3.73    0.32
  -1  -4  18    3.59    0.31
   1   4 -18    3.32    0.35
   0  -4  18   11.40    0.54
   0  -4 -18   11.53    0.54
   0  -4 -18   11.48    0.57
   0   4 -18   11.03    0.61
   1  -4  18    1.16    0.23
  -1   4 -18    1.52    0.28
   2  -4  18   -0.11    0.20
  -2  -4 -18    0.18    0.19
  -2   4 -18    0.25    0.26
  -2   4 -18    0.27    0.18
   3  -4  18    2.65    0.32
  -3  -4 -18    2.37    0.29
  -3   4 -18    3.04    0.39
  -3   4 -18    2.50    0.28
   4  -4  18   -0.02    0.23
  -4  -4 -18   -0.07    0.24
  -4   4 -18    0.12    0.23
  -4   4 -18    0.83    0.32
   5  -4  18    0.25    0.28
  -5  -4 -18   -0.27    0.26
  -5   4 -18    0.22    0.27
  -5   4 -18    0.16    0.32
   6  -4  18    0.17    0.29
  -6  -4 -18    0.29    0.29
  -6   4 -18    0.41    0.38
  -6   4 -18    0.13    0.31
   7  -4  18    0.04    0.31
  -7  -4 -18    0.04    0.34
  -7   4 -18    0.15    0.41
  -7   4 -18   -0.16    0.35
  -8  -4 -18    1.19    0.40
   8  -4  18    0.98    0.37
  -8   4 -18    1.26    0.44
  -8   4 -18    0.70    0.47
   9  -5 -18   -0.15    0.46
  -9   5  18    0.43    0.36
   8  -5 -18    0.07    0.43
  -8   5  18    0.12    0.33
   7  -5 -18    0.08    0.39
  -7   5  18    0.84    0.33
   6  -5 -18    7.71    0.60
  -6   5  18    7.38    0.51
  -6   5  18    8.46    0.56
   6   5 -18    9.19    0.52
   5  -5 -18    8.51    0.55
   5   5 -18    8.63    0.51
  -5   5  18    8.38    0.54
  -5   5  18    7.62    0.49
   4  -5 -18   14.00    0.69
  -4  -5  18   12.41    0.61
   4   5 -18   13.73    0.66
  -4   5  18   12.94    0.63
   4   5 -18   14.10    0.69
   3  -5 -18   11.39    0.58
  -3  -5  18   11.10    0.56
   3   5 -18   11.61    0.61
   3   5 -18   12.63    0.61
  -2  -5  18    3.03    0.31
   2  -5 -18    2.55    0.33
   2   5 -18    2.79    0.34
   2   5 -18    2.18    0.29
  -1  -5  18    0.08    0.21
   1  -5 -18    0.14    0.24
   1   5 -18   -0.05    0.22
   0  -5  18   12.10    0.59
   0  -5 -18   12.19    0.58
   0   5 -18   11.46    0.62
   1  -5  18    2.45    0.31
  -1  -5 -18    2.35    0.30
  -1   5 -18    2.71    0.34
   2  -5  18   -0.27    0.21
  -2  -5 -18    0.19    0.21
  -2   5 -18   -0.22    0.24
  -3  -5 -18    3.60    0.33
   3  -5  18    3.09    0.35
  -3   5 -18    3.26    0.32
  -3   5 -18    2.53    0.40
  -4  -5 -18    2.15    0.32
   4  -5  18    2.46    0.35
  -4   5 -18    3.28    0.35
  -4   5 -18    1.65    0.37
  -5  -5 -18    0.12    0.28
   5  -5  18   -0.12    0.29
  -5   5 -18   -0.25    0.32
  -5   5 -18    0.36    0.30
   6  -5  18    0.06    0.32
  -6  -5 -18    0.11    0.32
  -6   5 -18    0.67    0.33
  -6   5 -18    0.10    0.40
  -7  -5 -18    0.65    0.37
   7  -5  18    0.19    0.35
  -7   5 -18    0.20    0.37
  -7   5 -18   -0.41    0.37
  -8  -5 -18    2.18    0.47
   8  -5  18    1.39    0.42
  -8   5 -18    1.34    0.46
  -8   5 -18    0.92    0.49
   9  -6 -18    0.47    0.50
  -9   6  18    0.29    0.39
   8  -6 -18    3.92    0.58
  -8   6  18    3.52    0.45
   7  -6 -18    0.47    0.43
  -7   6  18    0.21    0.33
  -7   6  18    0.02    0.33
   6  -6 -18    0.48    0.38
  -6   6  18   -0.21    0.29
  -6   6  18    0.57    0.32
  -5  -6  18    0.46    0.28
   5  -6 -18    0.25    0.32
  -5   6  18    0.69    0.30
  -5   6  18    0.77    0.29
   5   6 -18    0.94    0.26
  -4  -6  18   14.59    0.70
   4  -6 -18   14.91    0.76
  -4   6  18   15.90    0.73
   4   6 -18   15.28    0.75
  -4   6  18   14.59    0.72
  -3  -6  18    0.10    0.24
   3  -6 -18    0.47    0.29
  -3  -6  18    0.31    0.28
   3   6 -18    0.24    0.22
  -2  -6  18    0.78    0.28
   2  -6 -18    0.79    0.31
  -2  -6  18    1.22    0.29
   2   6 -18    1.22    0.30
   1  -6 -18    0.44    0.28
  -1  -6  18   -0.10    0.24
   1   6 -18    0.02    0.25
   0  -6 -18    8.72    0.53
   0  -6  18    8.78    0.53
   0   6 -18    7.82    0.55
  -1  -6 -18    1.24    0.31
   1  -6  18    1.06    0.29
  -1   6 -18    0.80    0.31
   2  -6  18   21.44    0.88
  -2   6 -18   21.58    0.96
   3  -6  18   -0.08    0.28
  -3  -6 -18   -0.12    0.23
  -3   6 -18   -0.22    0.31
  -4  -6 -18    1.57    0.32
   4  -6  18    1.16    0.32
  -4   6 -18    1.35    0.31
  -4   6 -18    1.37    0.39
   5  -6  18    0.57    0.34
  -5  -6 -18    0.81    0.32
  -5   6 -18    0.74    0.32
  -5   6 -18    0.65    0.40
  -6  -6 -18   -0.30    0.31
   6  -6  18    0.04    0.35
  -6   6 -18    0.37    0.32
  -6   6 -18   -0.12    0.38
   7  -6  18   -0.11    0.36
  -7  -6 -18    0.19    0.38
  -7   6 -18   -0.32    0.36
  -7   6 -18   -0.39    0.44
   8  -7 -18    1.18    0.52
  -8   7  18    1.13    0.42
  -8   7  18    1.11    0.39
   7  -7 -18    0.07    0.45
  -7   7  18   -0.28    0.34
  -7   7  18   -0.37    0.34
  -6  -7  18    0.50    0.35
   6  -7 -18    0.75    0.43
  -6   7  18    0.37    0.34
  -6   7  18    0.38    0.32
  -5  -7  18    0.57    0.32
   5  -7 -18    0.47    0.40
  -5   7  18    0.35    0.32
  -5   7  18    0.49    0.31
   5   7 -18    0.32    0.27
   4  -7 -18    0.43    0.34
  -4  -7  18    0.23    0.29
   4   7 -18    0.16    0.26
  -4   7  18    0.69    0.33
   3  -7 -18    0.57    0.32
  -3  -7  18    0.83    0.31
  -3  -7  18    1.10    0.34
  -2  -7  18    0.87    0.31
   2  -7 -18    0.36    0.34
  -2  -7  18    0.31    0.29
   1  -7 -18   -0.18    0.30
  -1  -7  18   -0.27    0.27
   1   7 -18    0.38    0.28
   0  -7 -18    0.09    0.30
   0  -7  18    0.01    0.27
   0   7 -18   -0.13    0.29
  -1  -7 -18    2.46    0.38
   1  -7  18    2.63    0.38
  -1   7 -18    2.02    0.37
   2  -7  18    2.09    0.36
  -2   7 -18    1.78    0.36
   3  -7  18   -0.34    0.30
  -3  -7 -18    0.25    0.26
  -3   7 -18    0.54    0.36
  -4  -7 -18    0.41    0.29
   4  -7  18   -0.61    0.28
  -4   7 -18   -0.04    0.36
  -5  -7 -18    1.00    0.35
   5  -7  18    0.40    0.38
  -5   7 -18    0.35    0.40
  -5   7 -18    0.44    0.33
   6  -7  18    0.08    0.35
  -6  -7 -18    0.33    0.36
  -6   7 -18    0.68    0.37
  -6   7 -18    1.18    0.47
   7  -8 -18   -0.42    0.47
  -7   8  18    0.64    0.37
  -7   8  18    0.04    0.40
  -6  -8  18    0.16    0.36
   6  -8 -18    0.27    0.45
  -6   8  18    0.35    0.38
   5  -8 -18    1.90    0.48
  -5  -8  18    2.09    0.42
  -5   8  18    1.39    0.41
  -4  -8  18    1.00    0.37
   4  -8 -18    1.59    0.44
  -4  -8  18    1.12    0.40
  -4   8  18    1.08    0.38
  -3  -8  18   -0.16    0.29
   3  -8 -18    0.62    0.39
  -3  -8  18    0.30    0.35
  -2  -8  18    3.02    0.42
   2  -8 -18    3.68    0.46
  -2  -8  18    3.05    0.43
  -1  -8  18    0.40    0.34
   1  -8 -18    0.77    0.37
   0  -8  18   -0.07    0.30
   0  -8 -18   -0.42    0.32
  -1  -8 -18    1.98    0.41
   1  -8  18    1.79    0.41
  -1   8 -18    2.04    0.40
   2  -8  18    0.08    0.35
  -2   8 -18   -0.18    0.33
   3  -8  18    0.58    0.37
  -3   8 -18    0.30    0.37
   4  -8  18    0.13    0.34
  -4  -8 -18    0.71    0.32
  -4   8 -18   -0.40    0.36
  -5  -8 -18    0.31    0.35
   5  -8  18    0.04    0.39
  -5   8 -18    0.44    0.40
  -5  -9  18   -0.32    0.37
   5  -9 -18   -0.04    0.47
  -5   9  18    0.24    0.40
  -4  -9  18    1.19    0.43
  -4  -9  18    1.81    0.46
   4  -9 -18    2.35    0.51
  -4   9  18    1.40    0.44
  -3  -9  18    9.65    0.66
   3  -9 -18   10.83    0.75
  -3  -9  18    8.61    0.68
  -3   9  18    8.32    0.67
  -2  -9  18    0.12    0.37
   2  -9 -18    0.49    0.42
  -2  -9  18    0.65    0.37
  -1  -9  18   -0.40    0.33
   1  -9 -18    0.50    0.41
   0  -9  18   -0.26    0.36
   0  -9 -18    0.35    0.39
  -1  -9 -18    5.03    0.56
   1  -9  18    6.05    0.56
   2  -9  18    0.33    0.38
  -2   9 -18   -0.19    0.34
   3  -9  18    0.71    0.39
  -3   9 -18    0.37    0.39
   4  -9  18   -0.51    0.38
  -4   9 -18    0.31    0.42
  -3 -10  18    0.16    0.39
   3 -10 -18    0.91    0.50
  -3 -10  18    1.06    0.45
  -3  10  18    0.88    0.46
  -2 -10  18    0.25    0.41
   2 -10 -18    0.63    0.47
  -2  10  18    0.71    0.45
  -1 -10  18    0.37    0.43
   1 -10 -18    0.46    0.42
   0 -10  18    0.21    0.41
   0 -10 -18    0.45    0.45
  -1 -10 -18    0.57    0.46
   1 -10  18   -0.10    0.38
   2 -10  18    0.85    0.42
  10   0 -19    0.34    0.47
   9   0 -19    0.88    0.44
   8   0 -19    0.69    0.40
   7   0 -19    5.99    0.54
   7   0 -19    6.25    0.42
   6   0 -19    0.21    0.27
   6   0 -19   -0.11    0.17
   5   0 -19    2.20    0.31
   5   0 -19    2.25    0.28
   4   0 -19   -0.03    0.17
   4   0 -19    0.13    0.22
   3   0 -19   12.95    0.57
   3   0 -19   12.15    0.59
   2   0 -19   -0.10    0.18
   2   0 -19    0.14    0.16
   2   0 -19    0.21    0.16
   1   0 -19   26.14    0.90
   1   0 -19   26.21    1.02
   1   0 -19   26.73    1.04
   0   0 -19   -0.33    0.17
   0   0  19    0.03    0.13
  -1   0 -19   43.58    1.40
   1   0  19   44.71    1.42
  -1   0 -19   44.54    1.57
  -2   0 -19   -0.24    0.14
  -2   0 -19   -0.49    0.18
  -3   0 -19   26.19    1.07
  -3   0 -19   27.85    0.97
  -4   0 -19    0.51    0.24
  -4   0 -19   -0.47    0.22
  -5   0 -19    0.36    0.25
  -5   0 -19    0.22    0.26
  -6   0 -19    0.58    0.32
  -7   0 -19    2.16    0.40
  -8   0 -19   -0.14    0.38
  -9   0 -19    0.16    0.45
  10  -1 -19    0.91    0.53
  10   1 -19    1.54    0.54
   9  -1 -19   -0.03    0.41
   9   1 -19    0.55    0.44
   8  -1 -19   -0.40    0.36
   8   1 -19   -0.19    0.18
   8   1 -19    0.17    0.35
   7  -1 -19    0.66    0.35
   7   1 -19    0.15    0.33
   7   1 -19    0.73    0.22
   6  -1 -19    3.86    0.41
   6   1 -19    3.50    0.41
   6   1 -19    3.18    0.32
   5  -1 -19    0.57    0.26
   5  -1 -19    0.89    0.22
   5   1 -19    0.91    0.21
   5   1 -19    0.61    0.25
   4  -1 -19   24.28    0.93
   4  -1 -19   24.57    1.00
   4   1 -19   25.31    1.00
   3  -1 -19    0.59    0.20
   3  -1 -19    0.59    0.21
   3   1 -19    0.68    0.24
   3   1 -19    0.34    0.17
   2  -1 -19    0.19    0.17
   2  -1 -19   -0.11    0.14
   2  -1 -19    0.02    0.17
   2   1 -19   -0.15    0.15
   2   1 -19    0.01    0.18
   2   1 -19    0.05    0.16
  -1  -1  19    0.97    0.17
   1  -1 -19    0.98    0.22
   1  -1 -19    0.85    0.17
   1  -1 -19    0.80    0.20
   1   1 -19    0.51    0.19
   1   1 -19    0.92    0.23
   1   1 -19    0.75    0.17
   0  -1  19   40.14    1.32
   0  -1 -19   42.07    1.47
   0   1  19   40.05    1.29
   0   1 -19   41.17    1.47
   0   1 -19   41.29    1.28
   1  -1  19   11.91    0.51
  -1  -1 -19   12.37    0.59
  -1   1 -19   11.71    0.61
  -1   1 -19   11.05    0.48
  -2  -1 -19    6.90    0.40
  -2  -1 -19    7.28    0.39
   2  -1  19    6.87    0.38
  -2  -1 -19    5.85    0.45
  -2   1 -19    6.30    0.45
  -2   1 -19    6.76    0.38
  -3  -1 -19   10.17    0.50
  -3  -1 -19    9.89    0.50
  -3  -1 -19    8.92    0.54
   3  -1  19   10.67    0.51
  -3   1 -19    9.64    0.48
  -3   1 -19    8.87    0.55
  -4  -1 -19    1.12    0.25
  -4  -1 -19    1.33    0.27
  -4  -1 -19    1.64    0.29
   4  -1  19    1.85    0.26
  -4   1 -19    1.45    0.32
  -4   1 -19    1.30    0.26
   5  -1  19    0.03    0.21
  -5  -1 -19   -0.12    0.23
  -5  -1 -19    0.09    0.26
  -5   1 -19   -0.05    0.27
  -5   1 -19   -0.17    0.25
   6  -1  19    0.95    0.31
  -6  -1 -19    0.84    0.30
  -6  -1 -19    1.07    0.34
  -6   1 -19    1.25    0.33
  -6   1 -19    0.47    0.29
  -7  -1 -19    0.07    0.34
  -7  -1 -19    0.10    0.34
   7  -1  19   -0.25    0.30
  -7   1 -19   -0.23    0.32
  -7   1 -19    0.26    0.35
   8  -1  19    0.25    0.35
  -8  -1 -19   -0.44    0.37
  -8  -1 -19   -0.39    0.37
  -8   1 -19   -0.57    0.32
   9  -1  19    0.87    0.39
  -9  -1 -19    1.22    0.45
  -9   1 -19    0.59    0.42
  10  -2 -19    0.67    0.50
  10   2 -19    0.34    0.50
   9  -2 -19    0.15    0.43
   9   2 -19    0.99    0.46
   8  -2 -19    1.53    0.43
   7  -2 -19    3.90    0.45
   7   2 -19    3.24    0.34
   6  -2 -19    3.83    0.41
   6   2 -19    3.57    0.34
   5  -2 -19   29.33    1.11
   5   2 -19   27.57    1.13
   5   2 -19   30.35    1.15
   4  -2 -19    3.05    0.32
   4   2 -19    3.08    0.30
   4   2 -19    3.57    0.37
   3  -2 -19    8.18    0.42
   3   2 -19    7.16    0.45
   3   2 -19    7.83    0.50
  -2  -2  19    3.23    0.25
   2  -2 -19    3.03    0.28
   2   2 -19    2.89    0.31
   2   2 -19    2.52    0.28
   1  -2 -19    6.94    0.43
  -1  -2  19    6.41    0.36
   1   2 -19    7.65    0.47
   1   2 -19    7.50    0.43
   0  -2  19   14.31    0.59
   0  -2 -19   15.21    0.65
   0   2 -19   14.99    0.69
   1  -2  19    6.61    0.39
  -1  -2 -19    7.80    0.46
  -1  -2 -19    6.11    0.34
  -1   2 -19    6.58    0.35
  -1   2 -19    6.11    0.45
  -2  -2 -19    0.01    0.17
  -2  -2 -19    0.10    0.20
   2  -2  19   -0.03    0.18
  -2   2 -19    0.18    0.17
  -2   2 -19   -0.21    0.21
  -3  -2 -19    0.06    0.19
  -3  -2 -19    0.19    0.21
   3  -2  19   -0.13    0.17
  -3   2 -19    0.23    0.20
  -3   2 -19   -0.13    0.24
  -4  -2 -19    0.18    0.23
  -4  -2 -19    0.36    0.23
   4  -2  19    0.31    0.22
  -4   2 -19    0.31    0.23
  -4   2 -19    0.31    0.28
   5  -2  19    4.70    0.42
  -5  -2 -19    5.36    0.44
  -5  -2 -19    3.78    0.39
  -5   2 -19    4.59    0.41
  -5   2 -19    5.20    0.48
   6  -2  19    1.53    0.34
  -6  -2 -19    1.64    0.33
  -6  -2 -19    2.73    0.40
  -6   2 -19    2.10    0.42
  -6   2 -19    2.12    0.37
  -7  -2 -19    0.63    0.33
  -7  -2 -19   -0.09    0.30
   7  -2  19    0.34    0.32
  -7   2 -19    0.66    0.36
  -7   2 -19    0.87    0.40
  -8  -2 -19    0.92    0.40
  -8  -2 -19    0.47    0.38
   8  -2  19    0.08    0.32
  -8   2 -19    1.19    0.42
  -8   2 -19   -0.36    0.38
  10  -3 -19   -0.04    0.48
 -10   3  19    0.64    0.35
  10   3 -19   -0.15    0.46
   9  -3 -19    0.35    0.44
  -9   3  19    0.45    0.32
   8  -3 -19    1.49    0.44
  -8   3  19    2.42    0.36
   7  -3 -19    3.85    0.49
   7   3 -19    3.89    0.37
  -7   3  19    3.71    0.40
   7   3 -19    3.34    0.41
   6  -3 -19    0.30    0.32
   6   3 -19    0.63    0.30
   6   3 -19    0.48    0.21
   5  -3 -19    1.39    0.30
   5   3 -19    0.92    0.29
   5   3 -19    1.04    0.23
   4  -3 -19    6.71    0.45
   4   3 -19    6.20    0.41
   4   3 -19    6.21    0.45
   3  -3 -19    2.01    0.28
   3   3 -19    2.16    0.29
   3   3 -19    2.02    0.27
  -2  -3  19   24.67    0.90
   2  -3 -19   24.84    0.95
   2   3 -19   27.04    1.03
   2   3 -19   26.58    1.04
  -1  -3  19    0.68    0.19
   1  -3 -19    0.77    0.21
   1  -3 -19    0.26    0.19
   1   3 -19    0.69    0.20
   1   3 -19    0.46    0.23
   0  -3 -19   15.27    0.66
   0  -3 -19   14.87    0.61
   0  -3  19   13.39    0.60
   0   3 -19   14.29    0.71
   1  -3  19    2.31    0.28
  -1  -3 -19    3.49    0.32
  -1   3 -19    2.42    0.33
  -2  -3 -19   13.29    0.57
   2  -3  19   14.96    0.62
  -2   3 -19   14.73    0.57
  -2   3 -19   13.60    0.74
   3  -3  19    2.84    0.32
  -3  -3 -19    3.34    0.32
  -3   3 -19    3.15    0.40
  -3   3 -19    3.41    0.31
  -4  -3 -19    0.95    0.27
   4  -3  19    0.94    0.28
  -4   3 -19    0.71    0.23
  -4   3 -19    0.56    0.32
  -5  -3 -19    0.79    0.27
  -5  -3 -19    0.84    0.30
   5  -3  19    0.50    0.26
  -5   3 -19    0.34    0.28
  -5   3 -19    0.29    0.34
   6  -3  19    3.32    0.40
  -6  -3 -19    3.82    0.44
  -6  -3 -19    3.13    0.41
  -6   3 -19    4.14    0.49
  -6   3 -19    3.09    0.39
  -7  -3 -19    0.16    0.32
  -7  -3 -19    1.07    0.37
   7  -3  19    0.50    0.35
  -7   3 -19    1.01    0.38
  -7   3 -19    0.49    0.39
  -8  -3 -19    0.29    0.39
  -8  -3 -19    0.82    0.37
   8  -3  19    0.46    0.38
  -8   3 -19    0.17    0.40
  -8   3 -19    0.01    0.44
  10  -4 -19    0.04    0.50
 -10   4  19   -0.02    0.34
   9  -4 -19    0.50    0.47
  -9   4  19    0.43    0.32
   8  -4 -19    0.70    0.42
  -8   4  19    0.37    0.32
   7  -4 -19    0.01    0.36
  -7   4  19    0.28    0.27
   7   4 -19    0.05    0.22
   6  -4 -19    0.28    0.33
   6   4 -19    0.29    0.22
  -6   4  19    0.25    0.28
   5  -4 -19    5.41    0.48
  -5   4  19    5.11    0.40
   5   4 -19    5.84    0.40
   5   4 -19    5.32    0.45
   4  -4 -19    5.75    0.45
   4   4 -19    5.55    0.46
   4   4 -19    5.22    0.41
  -3  -4  19    1.31    0.23
   3  -4 -19    1.11    0.26
   3   4 -19    1.34    0.25
   3   4 -19    1.86    0.31
  -2  -4  19    0.85    0.21
   2  -4 -19    1.14    0.25
   2   4 -19    0.61    0.21
   2   4 -19    0.89    0.28
   1  -4 -19   20.88    0.82
  -1  -4  19   20.60    0.81
   1   4 -19   21.50    0.90
   0  -4  19    1.09    0.23
   0  -4 -19    1.43    0.24
   0   4 -19    1.14    0.27
   1  -4  19   28.02    1.02
  -1   4 -19   28.55    1.15
   2  -4  19    0.32    0.23
  -2  -4 -19   -0.05    0.19
  -2   4 -19    0.33    0.28
  -3  -4 -19    0.60    0.24
   3  -4  19    0.21    0.24
  -3   4 -19    0.38    0.30
  -3   4 -19    0.32    0.22
   4  -4  19    0.38    0.27
  -4  -4 -19   -0.11    0.24
  -4   4 -19   -0.25    0.23
  -4   4 -19    0.45    0.33
   5  -4  19    0.57    0.30
  -5  -4 -19    0.32    0.28
  -5   4 -19    0.79    0.30
  -5   4 -19    0.92    0.39
   6  -4  19    0.27    0.29
  -6  -4 -19   -0.14    0.30
  -6   4 -19    0.21    0.36
  -6   4 -19    0.13    0.32
   7  -4  19    0.00    0.31
  -7  -4 -19   -0.20    0.34
  -7   4 -19    0.06    0.36
  -7   4 -19    0.49    0.44
  -8  -4 -19   -0.09    0.39
   8  -4  19    0.30    0.36
  -8   4 -19   -0.01    0.41
  -8   4 -19    0.55    0.47
   9  -5 -19    1.66    0.54
  -9   5  19    2.59    0.44
   8  -5 -19   -0.05    0.44
  -8   5  19    0.88    0.36
   7  -5 -19   -0.15    0.39
  -7   5  19   -0.50    0.29
   6  -5 -19    1.42    0.40
   6   5 -19    0.96    0.26
  -6   5  19    0.59    0.28
  -6   5  19    0.82    0.31
   5  -5 -19    0.79    0.35
   5   5 -19    0.56    0.22
  -5   5  19    0.18    0.25
  -5   5  19    0.79    0.29
  -4  -5  19    7.31    0.47
   4  -5 -19    7.27    0.53
  -4   5  19    7.45    0.49
   4   5 -19    8.68    0.56
   4   5 -19    8.02    0.49
   3  -5 -19    0.91    0.29
  -3  -5  19    0.40    0.22
   3   5 -19    0.66    0.29
   3   5 -19    0.87    0.23
   2  -5 -19   -0.10    0.22
  -2  -5  19   -0.07    0.20
   2   5 -19    0.05    0.26
  -1  -5  19    1.44    0.26
   1  -5 -19    1.97    0.31
   1   5 -19    1.24    0.30
   0  -5 -19   13.86    0.63
   0  -5  19   13.42    0.62
   0   5 -19   13.90    0.71
   1  -5  19    0.95    0.25
  -1   5 -19    0.69    0.28
   2  -5  19    2.50    0.34
  -2   5 -19    2.57    0.38
   3  -5  19    0.58    0.29
  -3  -5 -19    0.25    0.24
  -3   5 -19    0.87    0.25
  -3   5 -19    0.76    0.34
  -4  -5 -19    0.47    0.27
   4  -5  19   -0.28    0.27
  -4   5 -19   -0.07    0.33
  -4   5 -19    0.14    0.25
  -5  -5 -19    5.13    0.47
   5  -5  19    6.69    0.52
  -5   5 -19    5.26    0.58
  -5   5 -19    6.11    0.48
   6  -5  19    0.39    0.31
  -6  -5 -19    0.29    0.33
  -6   5 -19    0.39    0.39
  -6   5 -19   -0.02    0.30
  -7  -5 -19    0.99    0.39
   7  -5  19    0.62    0.38
  -7   5 -19    1.79    0.52
  -7   5 -19    0.97    0.37
   8  -6 -19    1.19    0.50
  -8   6  19    1.19    0.40
   7  -6 -19    0.28    0.42
  -7   6  19    0.21    0.33
  -7   6  19    0.24    0.34
   6  -6 -19    0.11    0.38
  -6   6  19    0.32    0.31
  -6   6  19   -0.33    0.26
  -5  -6  19    4.16    0.42
   5  -6 -19    4.76    0.50
  -5   6  19    3.44    0.39
  -5   6  19    4.16    0.40
   5   6 -19    4.75    0.42
   4  -6 -19    1.63    0.38
  -4  -6  19    1.86    0.32
  -4   6  19    1.11    0.30
   4   6 -19    1.58    0.28
   3  -6 -19   17.92    0.82
  -3  -6  19   18.86    0.80
   3   6 -19   18.79    0.85
  -2  -6  19    0.26    0.26
  -2  -6  19    0.13    0.26
   2  -6 -19    0.04    0.29
   2   6 -19    0.18    0.27
  -1  -6  19   -0.16    0.24
   1  -6 -19    0.05    0.28
   1   6 -19   -0.06    0.27
   0  -6  19    0.14    0.25
   0  -6 -19    0.22    0.27
   0   6 -19    0.19    0.28
   1  -6  19    0.20    0.25
  -1   6 -19    0.14    0.30
   2  -6  19    0.21    0.26
  -2   6 -19    0.23    0.32
   3  -6  19    3.02    0.41
  -3  -6 -19    3.46    0.35
  -3   6 -19    2.34    0.40
  -4  -6 -19    0.55    0.29
   4  -6  19   -0.26    0.30
  -4   6 -19    0.22    0.27
  -4   6 -19    0.59    0.35
   5  -6  19    1.22    0.35
  -5  -6 -19    0.47    0.32
  -5   6 -19   -0.09    0.36
  -5   6 -19    0.65    0.32
  -6  -6 -19   -0.30    0.33
   6  -6  19    0.02    0.35
  -6   6 -19    0.40    0.43
  -6   6 -19   -0.12    0.34
  -7  -6 -19    0.92    0.38
   7  -6  19    0.79    0.38
  -7   6 -19    0.11    0.47
  -7   6 -19    0.61    0.39
   8  -7 -19   -0.35    0.47
  -8   7  19   -0.36    0.36
   7  -7 -19    0.40    0.47
  -7   7  19    0.09    0.38
  -7   7  19    0.60    0.36
   6  -7 -19    0.90    0.45
  -6   7  19    0.77    0.32
  -6   7  19    0.24    0.36
  -5  -7  19    1.34    0.35
   5  -7 -19    1.46    0.44
  -5   7  19    0.60    0.31
  -5   7  19    1.10    0.33
  -4  -7  19    6.23    0.52
   4  -7 -19    6.43    0.57
  -4   7  19    5.44    0.52
   4   7 -19    6.82    0.50
  -3  -7  19    0.16    0.29
   3  -7 -19    0.66    0.35
  -3  -7  19    0.34    0.32
  -2  -7  19    0.23    0.30
   2  -7 -19   -0.11    0.33
  -2  -7  19    0.32    0.29
  -1  -7  19    2.14    0.37
   1  -7 -19    3.53    0.41
   1   7 -19    2.99    0.39
   0  -7  19    9.79    0.61
   0  -7 -19    8.57    0.58
   0   7 -19    9.83    0.63
   1  -7  19    0.36    0.32
  -1  -7 -19    0.08    0.30
  -1   7 -19    0.10    0.32
   2  -7  19    0.78    0.32
  -2   7 -19    0.74    0.36
   3  -7  19   -0.43    0.31
  -3   7 -19   -0.18    0.32
  -4  -7 -19    1.88    0.35
   4  -7  19    2.38    0.40
  -4   7 -19    1.54    0.42
  -5  -7 -19    1.50    0.36
   5  -7  19    2.31    0.44
  -5   7 -19    1.80    0.44
  -5   7 -19    1.78    0.38
   6  -7  19   -0.43    0.37
  -6  -7 -19    0.28    0.35
  -6   7 -19   -0.22    0.35
  -6   7 -19    0.01    0.42
   7  -8 -19   -0.35    0.48
  -7   8  19    0.40    0.42
  -7   8  19    0.04    0.36
   6  -8 -19    1.14    0.49
  -6  -8  19    0.40    0.39
  -6   8  19    1.20    0.42
  -5  -8  19    0.41    0.37
   5  -8 -19    0.78    0.45
  -5   8  19    0.78    0.38
  -4  -8  19    0.36    0.35
   4  -8 -19    0.76    0.39
  -4   8  19    0.66    0.38
  -3  -8  19    1.41    0.38
  -3  -8  19    0.77    0.37
   3  -8 -19    0.95    0.42
  -2  -8  19    0.85    0.36
   2  -8 -19    0.38    0.38
  -2  -8  19    0.13    0.33
   1  -8 -19    1.91    0.42
  -1  -8  19    2.01    0.41
   0  -8 -19    2.44    0.43
   0  -8  19    2.45    0.42
  -1  -8 -19    2.82    0.44
   1  -8  19    3.77    0.46
  -1   8 -19    3.55    0.45
   2  -8  19   -0.03    0.31
  -2   8 -19    0.28    0.33
   3  -8  19    1.08    0.40
  -3   8 -19    1.02    0.41
   4  -8  19    0.75    0.36
  -4  -8 -19    0.94    0.35
  -4   8 -19    0.10    0.40
  -5  -8 -19    0.20    0.35
   5  -8  19    0.23    0.41
  -5   8 -19    0.62    0.45
   5  -9 -19    0.07    0.48
  -5  -9  19   -0.80    0.36
  -5   9  19   -0.53    0.39
   4  -9 -19   -0.15    0.45
  -4  -9  19    0.70    0.41
  -4  -9  19   -0.09    0.41
  -4   9  19    0.66    0.42
   3  -9 -19    3.36    0.53
  -3  -9  19    3.86    0.50
  -3  -9  19    3.37    0.52
  -3   9  19    2.85    0.50
   2  -9 -19    0.54    0.43
  -2  -9  19   -0.03    0.38
   1  -9 -19   -0.21    0.40
  -1  -9  19    0.64    0.40
   0  -9  19   -0.19    0.37
   0  -9 -19   -0.08    0.39
  -1  -9 -19    0.03    0.39
   1  -9  19    0.66    0.40
   2  -9  19    0.60    0.39
  -2   9 -19    0.45    0.38
   3  -9  19    0.03    0.41
  -3   9 -19    0.30    0.40
   4  -9  19    0.26    0.43
  -4   9 -19   -0.34    0.40
   3 -10 -19   -0.11    0.47
  -3 -10  19    0.69    0.42
  -3 -10  19   -0.27    0.42
  -3  10  19   -0.41    0.42
  -2 -10  19   -0.17    0.39
   2 -10 -19   -0.48    0.44
   1 -10 -19   -0.69    0.42
  -1 -10  19    0.21    0.43
   0 -10  19   -0.19    0.37
   0 -10 -19   -0.05    0.44
  -1 -10 -19   -0.39    0.43
   1 -10  19   -0.38    0.41
  10   0 -20    0.13    0.47
   9   0 -20    0.13    0.42
   8   0 -20    5.26    0.56
   7   0 -20   -0.12    0.30
   7   0 -20   -0.13    0.18
   6   0 -20   17.29    0.80
   6   0 -20   18.08    0.80
   5   0 -20    0.13    0.23
   5   0 -20   -0.05    0.17
   4   0 -20    0.77    0.21
   4   0 -20    0.76    0.25
   3   0 -20   -0.06    0.16
   3   0 -20    0.19    0.20
   3   0 -20    0.09    0.20
   2   0 -20   -0.03    0.20
   2   0 -20    0.15    0.16
   2   0 -20   -0.13    0.14
   1   0 -20    0.18    0.16
   1   0 -20    0.35    0.20
   0   0  20    0.53    0.15
   0   0 -20    0.32    0.22
  -1   0 -20    0.41    0.18
  -1   0 -20    0.23    0.21
   1   0  20    0.63    0.17
  -2   0 -20    7.55    0.39
   2   0  20    7.12    0.40
  -2   0 -20    7.06    0.51
  -3   0 -20    0.00    0.20
  -3   0 -20   -0.06    0.23
  -4   0 -20   -0.40    0.23
  -4   0 -20    0.00    0.23
  -5   0 -20   -0.03    0.27
  -5   0 -20   -0.25    0.24
  -6   0 -20   -0.25    0.28
  -7   0 -20   -0.08    0.35
  -8   0 -20   -0.29    0.39
  10  -1 -20    0.47    0.49
  10   1 -20    0.08    0.45
   9  -1 -20    0.69    0.45
   9   1 -20    1.25    0.44
   8  -1 -20    2.36    0.45
   8   1 -20    1.71    0.44
   7  -1 -20    1.63    0.39
   7   1 -20    1.01    0.37
   7   1 -20    2.14    0.29
   6  -1 -20    0.41    0.28
   6   1 -20   -0.31    0.18
   6   1 -20   -0.02    0.30
   5  -1 -20   19.56    0.82
   5  -1 -20   18.88    0.83
   5   1 -20   19.10    0.82
   5   1 -20   18.86    0.82
   4  -1 -20    0.74    0.24
   4  -1 -20   -0.11    0.16
   4   1 -20    0.21    0.22
   4   1 -20    0.29    0.23
   4   1 -20    0.24    0.18
   3  -1 -20    0.24    0.20
   3  -1 -20   -0.07    0.17
   3   1 -20   -0.12    0.22
   3   1 -20   -0.02    0.17
   3   1 -20    0.19    0.20
   2  -1 -20   12.66    0.58
   2  -1 -20   12.59    0.51
   2  -1 -20    8.50    0.53
   2   1 -20   12.28    0.58
   2   1 -20    9.98    0.48
   2   1 -20   12.41    0.60
   1  -1 -20   30.12    1.15
   1  -1 -20   30.17    1.03
   1  -1 -20   29.02    1.17
   1   1 -20   29.84    1.17
   1   1 -20   31.28    1.15
   0  -1 -20   11.37    0.58
   0  -1  20   12.02    0.50
   0   1 -20   11.84    0.59
  -1  -1 -20   22.94    0.89
   1  -1  20   20.33    0.78
  -1   1 -20   21.69    0.77
  -1   1 -20   21.61    0.92
  -2  -1 -20    2.27    0.31
   2  -1  20    2.01    0.24
  -2  -1 -20    1.85    0.24
  -2   1 -20    1.78    0.24
  -2   1 -20    2.04    0.31
   3  -1  20    4.07    0.34
  -3  -1 -20    4.23    0.33
  -3  -1 -20    3.54    0.36
  -3  -1 -20    3.83    0.34
  -3   1 -20    4.33    0.35
  -3   1 -20    3.94    0.41
  -4  -1 -20    2.11    0.32
   4  -1  20    1.90    0.29
  -4  -1 -20    1.64    0.30
  -4  -1 -20    1.44    0.29
  -4   1 -20    2.17    0.31
  -4   1 -20    1.51    0.33
  -5  -1 -20    1.84    0.34
   5  -1  20    1.65    0.30
  -5  -1 -20    2.37    0.35
  -5   1 -20    1.53    0.30
  -5   1 -20    1.22    0.32
  -6  -1 -20    1.73    0.34
   6  -1  20    0.80    0.31
  -6  -1 -20    1.77    0.38
  -6   1 -20    1.67    0.34
  -6   1 -20    2.14    0.40
  -7  -1 -20    0.93    0.38
   7  -1  20   -0.04    0.32
  -7  -1 -20    0.49    0.36
  -7   1 -20    0.19    0.36
  -7   1 -20   -0.21    0.35
   8  -1  20    0.98    0.35
  -8  -1 -20    0.85    0.40
  -8   1 -20    1.44    0.45
  10  -2 -20    1.29    0.50
  10   2 -20    0.54    0.52
   9  -2 -20    0.34    0.40
   9   2 -20   -0.39    0.42
   8  -2 -20    1.33    0.40
   8   2 -20    0.98    0.40
   7  -2 -20    1.20    0.36
   7   2 -20    1.46    0.27
   6  -2 -20    2.69    0.37
   6   2 -20    2.83    0.32
   5  -2 -20    0.32    0.27
   5   2 -20    0.35    0.20
   5   2 -20    0.37    0.27
   4  -2 -20    7.58    0.47
   4   2 -20    6.98    0.44
   4   2 -20    7.37    0.53
   3  -2 -20    6.91    0.42
   3   2 -20    6.31    0.42
   3   2 -20    7.11    0.46
   2  -2 -20   34.17    1.19
   2   2 -20   34.43    1.29
   2   2 -20   34.42    1.31
   1  -2 -20    5.18    0.40
  -1  -2  20    4.65    0.32
   1   2 -20    5.11    0.42
   1   2 -20    5.27    0.38
   0  -2  20   34.50    1.18
   0  -2 -20   35.83    1.30
   0   2 -20   35.67    1.34
   1  -2  20    1.58    0.24
  -1  -2 -20    1.18    0.21
  -1  -2 -20    1.95    0.27
  -1   2 -20    1.15    0.28
  -1   2 -20    1.50    0.21
   2  -2  20    0.21    0.18
  -2  -2 -20    0.12    0.23
  -2  -2 -20    0.16    0.19
  -2   2 -20   -0.36    0.24
  -2   2 -20   -0.05    0.17
  -3  -2 -20    0.39    0.21
   3  -2  20    0.18    0.21
  -3  -2 -20    0.00    0.22
  -3   2 -20    0.15    0.21
  -3   2 -20    0.21    0.25
   4  -2  20    3.73    0.36
  -4  -2 -20    3.97    0.36
  -4  -2 -20    4.39    0.39
  -4   2 -20    3.46    0.35
  -4   2 -20    3.35    0.43
  -5  -2 -20   -0.01    0.25
  -5  -2 -20   -0.06    0.28
   5  -2  20   -0.07    0.25
  -5   2 -20    0.10    0.33
  -5   2 -20    0.02    0.27
  -6  -2 -20    1.08    0.36
   6  -2  20    0.46    0.31
  -6  -2 -20    0.60    0.30
  -6   2 -20    1.34    0.39
  -6   2 -20    0.66    0.33
   7  -2  20    0.23    0.33
  -7  -2 -20   -0.21    0.30
  -7  -2 -20    0.64    0.37
  -7   2 -20    0.66    0.40
  -7   2 -20   -0.05    0.35
  -8  -2 -20    1.00    0.42
   8  -2  20    0.82    0.40
  -8  -2 -20    1.25    0.41
  -8   2 -20    0.68    0.45
  -8   2 -20    0.75    0.43
  10  -3 -20    0.09    0.49
  10   3 -20    0.06    0.51
   9  -3 -20   -0.07    0.43
   8  -3 -20    0.64    0.42
   7  -3 -20    2.07    0.40
   7   3 -20    2.14    0.31
   7   3 -20    1.80    0.38
   6  -3 -20    0.87    0.34
   6   3 -20    1.29    0.34
   6   3 -20    0.90    0.25
   5  -3 -20    3.60    0.40
   5   3 -20    3.30    0.33
   5   3 -20    3.32    0.39
   4  -3 -20    2.49    0.33
   4   3 -20    2.45    0.32
   4   3 -20    2.65    0.31
   3  -3 -20    6.91    0.44
   3   3 -20    7.25    0.51
   3   3 -20    6.82    0.44
   2  -3 -20    0.60    0.23
  -2  -3  20    0.05    0.18
   2   3 -20    0.03    0.17
   2   3 -20   -0.04    0.24
   1  -3 -20   28.70    1.04
   1  -3 -20   28.20    1.10
  -1  -3  20   27.99    1.01
   1   3 -20   30.80    1.15
   0  -3 -20    0.89    0.23
   0  -3  20    0.91    0.21
   0   3 -20    0.96    0.28
  -1  -3 -20    0.94    0.25
   1  -3  20    0.41    0.21
  -1   3 -20    0.38    0.25
   2  -3  20   11.89    0.55
  -2  -3 -20   12.01    0.52
  -2   3 -20   10.32    0.64
  -2   3 -20   11.34    0.50
   3  -3  20   -0.11    0.22
  -3  -3 -20    0.18    0.21
  -3   3 -20    0.16    0.21
  -3   3 -20    0.39    0.28
   4  -3  20    4.96    0.41
  -4  -3 -20    4.37    0.39
  -4   3 -20    3.84    0.37
  -4   3 -20    4.34    0.46
   5  -3  20   -0.24    0.27
  -5  -3 -20   -0.09    0.27
  -5  -3 -20    0.27    0.27
  -5   3 -20    0.14    0.28
  -5   3 -20    0.21    0.32
  -6  -3 -20    0.32    0.33
  -6  -3 -20    0.51    0.30
   6  -3  20    0.40    0.32
  -6   3 -20    0.15    0.38
  -6   3 -20    0.05    0.32
   7  -3  20   -0.16    0.33
  -7  -3 -20    0.05    0.35
  -7  -3 -20    0.26    0.35
  -7   3 -20    0.49    0.34
  -7   3 -20    0.07    0.41
  -8  -3 -20    0.11    0.40
  -8  -3 -20    0.06    0.38
   8  -3  20    0.08    0.37
  -8   3 -20   -0.43    0.39
  -8   3 -20   -0.08    0.45
   9  -4 -20    0.64    0.48
  -9   4  20    0.60    0.37
   8  -4 -20    0.94    0.44
  -8   4  20    0.57    0.35
   7  -4 -20    0.78    0.36
  -7   4  20   -0.19    0.28
   6  -4 -20   20.99    0.94
   6   4 -20   20.53    0.91
   5  -4 -20    0.23    0.28
   5   4 -20    0.43    0.29
   5   4 -20    0.12    0.21
   4  -4 -20   15.10    0.73
   4   4 -20   16.94    0.76
   4   4 -20   14.79    0.72
  -3  -4  20    4.43    0.36
   3  -4 -20    4.28    0.39
   3   4 -20    4.47    0.41
   3   4 -20    3.91    0.36
   2  -4 -20    7.33    0.44
  -2  -4  20    7.03    0.41
   2   4 -20    7.56    0.53
   2   4 -20    4.81    0.39
   1  -4 -20    0.54    0.24
   1  -4 -20    0.77    0.23
  -1  -4  20    0.37    0.20
   1   4 -20    0.37    0.27
   0  -4  20    2.54    0.30
   0   4 -20    2.19    0.33
   1  -4  20    0.25    0.23
  -1   4 -20   -0.28    0.24
  -2  -4 -20    2.79    0.29
   2  -4  20    2.18    0.32
  -2   4 -20    2.87    0.38
   3  -4  20    2.41    0.33
  -3  -4 -20    2.32    0.30
  -3   4 -20    1.61    0.37
  -3   4 -20    1.27    0.27
  -4  -4 -20    1.03    0.29
   4  -4  20    1.72    0.33
  -4   4 -20    0.78    0.28
  -4   4 -20    1.20    0.39
   5  -4  20    0.13    0.29
  -5  -4 -20   -0.03    0.28
  -5   4 -20   -0.18    0.28
  -5   4 -20    0.30    0.38
   6  -4  20    0.02    0.30
  -6  -4 -20    0.75    0.34
  -6   4 -20    0.03    0.38
  -6   4 -20    0.24    0.31
   7  -4  20    0.18    0.33
  -7  -4 -20    0.76    0.39
  -7   4 -20    0.04    0.40
  -7   4 -20   -0.07    0.36
   8  -4  20    0.20    0.36
  -8  -4 -20    0.74    0.43
  -8   4 -20    0.66    0.50
  -8   4 -20    0.42    0.40
   9  -5 -20    0.18    0.45
  -9   5  20    0.46    0.38
   8  -5 -20    0.12    0.44
  -8   5  20   -0.19    0.34
   7  -5 -20    2.00    0.46
  -7   5  20    1.44    0.34
   6  -5 -20   -0.18    0.33
  -6   5  20    0.17    0.31
   6   5 -20    0.27    0.23
   5  -5 -20    7.45    0.57
  -5   5  20    6.62    0.50
   5   5 -20    7.55    0.49
  -4  -5  20    0.34    0.24
   4  -5 -20    0.41    0.29
   4   5 -20    0.35    0.22
   4   5 -20    0.46    0.30
  -3  -5  20    1.63    0.29
   3  -5 -20    1.63    0.32
   3   5 -20    1.50    0.28
   3   5 -20    1.60    0.31
  -2  -5  20    0.82    0.25
   2  -5 -20    1.09    0.29
   2   5 -20    0.38    0.29
   1  -5 -20   14.22    0.66
  -1  -5  20   14.35    0.66
   1   5 -20   14.20    0.73
   0  -5  20    7.52    0.48
   0  -5 -20    6.91    0.45
   0   5 -20    6.57    0.50
   1  -5  20    2.41    0.32
  -1   5 -20    3.12    0.41
   2  -5  20    2.19    0.35
  -2   5 -20    2.51    0.39
   3  -5  20   -0.09    0.25
  -3  -5 -20    0.36    0.25
  -3   5 -20    0.51    0.34
   4  -5  20    0.35    0.29
  -4  -5 -20    1.26    0.31
  -4   5 -20    1.13    0.30
  -4   5 -20    0.65    0.38
  -5  -5 -20    1.43    0.34
   5  -5  20    1.81    0.38
  -5   5 -20    1.47    0.35
  -5   5 -20    1.80    0.45
  -6  -5 -20   -0.02    0.33
   6  -5  20    0.32    0.32
  -6   5 -20   -0.16    0.34
  -6   5 -20    0.25    0.41
   7  -5  20    0.00    0.36
  -7  -5 -20   -0.10    0.37
  -7   5 -20   -0.13    0.46
  -7   5 -20    0.14    0.38
   8  -6 -20   -0.30    0.46
  -8   6  20    0.30    0.37
   7  -6 -20    0.39    0.43
  -7   6  20    0.79    0.36
   6  -6 -20    1.03    0.42
  -6   6  20    0.51    0.33
  -6   6  20    1.07    0.35
   5  -6 -20    1.86    0.41
  -5   6  20    0.81    0.32
   5   6 -20    1.14    0.29
   4  -6 -20    4.19    0.45
  -4  -6  20    4.23    0.42
   4   6 -20    4.23    0.41
  -4   6  20    3.13    0.40
   3  -6 -20    0.96    0.34
  -3  -6  20    0.52    0.28
   2  -6 -20    2.51    0.37
  -2  -6  20    2.32    0.35
   2   6 -20    2.12    0.36
  -1  -6  20    5.74    0.45
   1  -6 -20    4.98    0.45
   1   6 -20    5.48    0.48
   0  -6 -20    3.91    0.40
   0  -6  20    3.71    0.41
   0   6 -20    3.69    0.41
   1  -6  20    0.08    0.25
  -1   6 -20    0.64    0.33
   2  -6  20    0.53    0.28
  -2   6 -20    0.83    0.35
   3  -6  20    3.66    0.44
  -3  -6 -20    3.07    0.35
  -3   6 -20    2.10    0.41
   4  -6  20    0.05    0.32
  -4  -6 -20   -0.37    0.26
  -4   6 -20    0.40    0.35
   5  -6  20   -0.15    0.33
  -5  -6 -20   -0.02    0.30
  -5   6 -20   -0.11    0.36
  -5   6 -20   -0.05    0.31
   6  -6  20    0.62    0.39
  -6  -6 -20    0.54    0.33
  -6   6 -20    1.18    0.49
  -6   6 -20    0.52    0.36
  -7  -6 -20    0.90    0.40
   7  -6  20    0.25    0.40
  -7   6 -20    0.55    0.50
  -7   6 -20    0.08    0.39
   7  -7 -20    1.47    0.52
  -7   7  20    0.71    0.38
  -7   7  20    0.90    0.41
   6  -7 -20    0.76    0.45
  -6   7  20    0.36    0.36
  -6   7  20    0.75    0.36
   5  -7 -20    1.50    0.45
  -5  -7  20    1.04    0.35
  -5   7  20    0.95    0.35
   4  -7 -20    0.35    0.37
  -4  -7  20   -0.27    0.30
  -4   7  20    0.11    0.32
   4   7 -20    0.01    0.25
   3  -7 -20    1.40    0.38
  -3  -7  20    0.64    0.32
  -2  -7  20    0.16    0.30
   2  -7 -20    0.41    0.35
  -1  -7  20    2.18    0.36
   1  -7 -20    3.11    0.40
   1   7 -20    2.49    0.40
   0  -7 -20    0.32    0.32
   0  -7  20    0.21    0.28
   0   7 -20    0.50    0.33
   1  -7  20    5.20    0.49
  -1   7 -20    5.22    0.52
   2  -7  20    2.11    0.40
  -2   7 -20    2.50    0.43
   3  -7  20    0.44    0.35
  -3   7 -20    0.51    0.38
   4  -7  20    3.35    0.45
  -4  -7 -20    2.57    0.38
  -4   7 -20    2.31    0.47
  -5  -7 -20    0.21    0.33
   5  -7  20    0.66    0.40
  -5   7 -20    0.18    0.42
  -6  -7 -20   -0.45    0.34
   6  -7  20    0.02    0.40
  -6   7 -20   -0.15    0.41
  -6   7 -20   -0.06    0.36
   6  -8 -20    2.47    0.54
  -6   8  20    1.96    0.46
   5  -8 -20   -0.06    0.43
  -5  -8  20   -0.04    0.36
  -5   8  20    0.53    0.38
   4  -8 -20    1.56    0.42
  -4  -8  20    1.77    0.41
  -4   8  20    1.65    0.42
  -3  -8  20    1.37    0.40
   3  -8 -20    1.32    0.43
  -3  -8  20    1.43    0.37
   2  -8 -20   -0.29    0.37
  -2  -8  20   -0.13    0.31
   1  -8 -20    0.72    0.39
  -1  -8  20    0.71    0.34
   0  -8 -20    1.91    0.42
   0  -8  20    1.90    0.41
   1  -8  20    0.77    0.38
  -1   8 -20    0.46    0.36
   2  -8  20    0.73    0.36
  -2   8 -20    0.30    0.37
   3  -8  20    0.23    0.38
  -3   8 -20   -0.01    0.38
   4  -8  20    0.08    0.36
  -4   8 -20    0.38    0.39
   5  -8  20    0.55    0.42
  -5  -8 -20    0.82    0.36
  -5   8 -20    0.90    0.47
  -5  -9  20    0.07    0.40
   5  -9 -20    0.01    0.48
  -5   9  20    0.10    0.41
   4  -9 -20   -0.26    0.45
  -4  -9  20   -0.49    0.33
  -4   9  20    0.16    0.41
   3  -9 -20    0.66    0.45
  -3  -9  20    0.04    0.38
  -3  -9  20    0.40    0.42
  -3   9  20    0.14    0.38
   2  -9 -20    2.39    0.50
  -2  -9  20    2.33    0.47
  -1  -9  20    4.39    0.54
   1  -9 -20    3.39    0.51
   0  -9  20    1.24    0.43
   0  -9 -20    1.76    0.46
  -1  -9 -20    0.03    0.42
   1  -9  20    0.52    0.38
   2  -9  20   -0.77    0.37
  -2   9 -20    0.05    0.38
   3  -9  20    0.78    0.43
  -3   9 -20   -0.07    0.40
  -2 -10  20    1.99    0.51
   2 -10 -20    2.86    0.56
  -1 -10  20    0.83    0.44
   1 -10 -20    1.58    0.50
   0 -10 -20    0.01    0.45
   0 -10  20    0.19    0.44
  10   0 -21   -0.21    0.47
   9   0 -21    0.23    0.43
   8   0 -21    0.43    0.40
   7   0 -21    7.05    0.58
   7   0 -21    5.89    0.44
   6   0 -21    0.19    0.31
   6   0 -21    0.00    0.19
   5   0 -21    3.96    0.40
   5   0 -21    4.27    0.38
   4   0 -21   -0.03    0.18
   4   0 -21   -0.04    0.23
   3   0 -21   36.31    1.26
   3   0 -21   36.09    1.37
   3   0 -21   37.12    1.39
   2   0 -21   -0.22    0.11
   2   0 -21    0.04    0.21
   2   0 -21    0.01    0.15
   1   0 -21   24.87    1.02
   1   0 -21   26.37    1.04
   0   0  21    0.14    0.15
   0   0 -21   -0.10    0.20
  -1   0 -21   38.82    1.26
   1   0  21   37.80    1.27
  -1   0 -21   40.47    1.44
   2   0  21   -0.01    0.17
  -2   0 -21    0.04    0.16
  -2   0 -21   -0.26    0.20
  -3   0 -21    2.34    0.29
  -3   0 -21    2.31    0.35
  -4   0 -21    0.27    0.27
  -4   0 -21   -0.04    0.24
  -5   0 -21   11.77    0.61
  -5   0 -21    9.16    0.65
  -6   0 -21   -0.18    0.28
  -7   0 -21   -0.02    0.35
  -8   0 -21    0.02    0.40
  10  -1 -21    0.42    0.51
  10   1 -21    0.13    0.50
   9  -1 -21   -0.60    0.41
   9   1 -21    0.09    0.44
   8  -1 -21    0.46    0.37
   8   1 -21    0.40    0.37
   7  -1 -21    1.72    0.39
   7   1 -21    1.42    0.27
   7   1 -21    1.88    0.41
   6  -1 -21    2.11    0.37
   6   1 -21    2.06    0.29
   6   1 -21    2.04    0.37
   5  -1 -21    8.65    0.54
   5  -1 -21   11.22    0.58
   5   1 -21    9.29    0.54
   5   1 -21   10.35    0.54
   4  -1 -21    1.44    0.25
   4  -1 -21    1.53    0.28
   4   1 -21    1.37    0.28
   4   1 -21    1.27    0.24
   4   1 -21    1.35    0.27
   3  -1 -21    0.94    0.22
   3  -1 -21    1.26    0.25
   3   1 -21    0.63    0.23
   3   1 -21    1.14    0.29
   3   1 -21    1.01    0.23
   2  -1 -21   15.67    0.62
   2  -1 -21   15.06    0.72
   2   1 -21   14.65    0.70
   1  -1 -21    0.49    0.23
   1   1 -21    0.35    0.23
   0  -1 -21    7.58    0.47
   0  -1  21    7.60    0.41
   0   1 -21    6.90    0.48
   1  -1  21    2.51    0.26
  -1  -1 -21    2.95    0.33
  -1   1 -21    1.80    0.22
  -1   1 -21    2.68    0.35
  -2  -1 -21   -0.11    0.23
   2  -1  21    0.34    0.18
  -2  -1 -21    0.14    0.19
  -2   1 -21   -0.14    0.24
  -2   1 -21    0.08    0.18
   3  -1  21    6.21    0.42
  -3  -1 -21    6.27    0.41
  -3  -1 -21    4.81    0.43
  -3   1 -21    6.54    0.50
  -3   1 -21    7.73    0.43
  -4  -1 -21    3.41    0.39
  -4  -1 -21    4.01    0.39
  -4  -1 -21    3.91    0.35
   4  -1  21    3.80    0.36
  -4   1 -21    2.92    0.35
  -4   1 -21    3.27    0.41
  -5  -1 -21    0.07    0.29
  -5  -1 -21    0.14    0.27
   5  -1  21    0.55    0.27
  -5   1 -21    0.15    0.28
  -5   1 -21    0.27    0.29
  -6  -1 -21    1.63    0.36
   6  -1  21    1.55    0.34
  -6  -1 -21    1.46    0.38
  -6   1 -21    1.59    0.36
  -6   1 -21    1.94    0.42
  -7  -1 -21    0.40    0.34
   7  -1  21   -0.26    0.31
  -7   1 -21   -0.04    0.33
  -8  -1 -21    0.30    0.39
   8  -1  21    0.28    0.34
  -8   1 -21    0.10    0.41
  10  -2 -21    0.71    0.51
  10   2 -21    0.34    0.51
   9  -2 -21    1.74    0.47
   9   2 -21    1.52    0.49
   8  -2 -21    1.10    0.40
   8   2 -21    1.30    0.44
   7  -2 -21    7.93    0.57
   7   2 -21    7.16    0.48
   6  -2 -21    0.86    0.34
   6   2 -21    0.74    0.31
   6   2 -21    0.90    0.25
   5  -2 -21    1.67    0.33
   5   2 -21    1.69    0.27
   5   2 -21    1.25    0.33
   4  -2 -21   10.60    0.55
   4   2 -21   10.85    0.57
   4   2 -21    9.94    0.60
   3  -2 -21    0.96    0.24
   3   2 -21    1.03    0.24
   3   2 -21    1.29    0.29
   2  -2 -21    1.66    0.26
   2  -2 -21    2.26    0.26
   2   2 -21    1.59    0.30
   2   2 -21    1.08    0.22
  -1  -2  21    8.23    0.43
   1  -2 -21    8.38    0.44
   1  -2 -21   10.02    0.53
   1   2 -21   10.29    0.55
   0  -2  21    2.53    0.27
   0  -2 -21    2.84    0.32
   0   2 -21    2.35    0.33
  -1  -2 -21   30.67    1.17
   1  -2  21   32.51    1.10
  -1   2 -21   31.21    1.25
  -2  -2 -21    0.06    0.23
  -2  -2 -21    0.47    0.22
   2  -2  21   -0.08    0.19
  -2   2 -21    0.19    0.19
  -2   2 -21    0.09    0.26
   3  -2  21    0.16    0.22
  -3  -2 -21    0.44    0.23
  -3  -2 -21    0.02    0.21
  -3   2 -21   -0.26    0.25
  -3   2 -21    0.18    0.22
  -4  -2 -21    0.44    0.27
   4  -2  21    0.23    0.24
  -4  -2 -21    0.53    0.25
  -4   2 -21    0.10    0.23
  -4   2 -21    0.09    0.31
  -5  -2 -21    1.24    0.30
   5  -2  21    0.60    0.29
  -5  -2 -21    0.79    0.31
  -5   2 -21   -0.01    0.34
  -5   2 -21    1.02    0.31
   6  -2  21   -0.59    0.27
  -6  -2 -21    0.17    0.33
  -6  -2 -21   -0.28    0.28
  -6   2 -21   -0.17    0.28
  -6   2 -21    0.19    0.34
  -7  -2 -21    0.94    0.35
  -7  -2 -21    1.31    0.41
   7  -2  21    0.62    0.33
  -7   2 -21    0.81    0.38
  -7   2 -21    0.20    0.38
   8  -2  21    0.08    0.36
  -8  -2 -21    0.26    0.39
  -8  -2 -21    0.50    0.43
  -8   2 -21    0.04    0.43
  -8   2 -21   -0.21    0.40
  10  -3 -21   -0.30    0.50
  10   3 -21    0.60    0.49
   9  -3 -21    0.42    0.46
   8  -3 -21    4.41    0.55
   7  -3 -21    0.60    0.36
   7   3 -21   -0.21    0.33
   7   3 -21    0.37    0.24
   6  -3 -21    7.38    0.53
   6   3 -21    7.38    0.49
   6   3 -21    7.74    0.60
   5  -3 -21    1.22    0.33
   5   3 -21    1.21    0.32
   5   3 -21    1.46    0.27
   4  -3 -21    2.23    0.33
   4   3 -21    1.95    0.29
   4   3 -21    2.53    0.34
   3  -3 -21    8.77    0.50
   3   3 -21    8.78    0.58
   3   3 -21    8.26    0.51
  -2  -3  21    8.56    0.44
   2  -3 -21    9.55    0.48
   2   3 -21    6.05    0.45
   2   3 -21   10.69    0.56
  -1  -3  21    0.43    0.21
   1  -3 -21    0.56    0.22
   1  -3 -21    0.73    0.23
   1   3 -21    0.53    0.25
   0  -3 -21   33.17    1.23
   0  -3  21   32.42    1.14
   0   3 -21   33.38    1.28
   1  -3  21    9.24    0.50
  -1  -3 -21   11.36    0.57
  -1   3 -21    7.38    0.55
  -2  -3 -21    7.94    0.43
   2  -3  21    7.88    0.45
  -2   3 -21    7.90    0.58
  -3  -3 -21    0.60    0.25
   3  -3  21    0.32    0.25
  -3   3 -21    0.19    0.29
  -3   3 -21    0.22    0.22
  -4  -3 -21    4.38    0.40
   4  -3  21    4.05    0.40
  -4   3 -21    3.71    0.36
  -4   3 -21    4.52    0.50
   5  -3  21    0.19    0.29
  -5  -3 -21   -0.15    0.26
  -5   3 -21    0.09    0.28
  -5   3 -21   -0.06    0.33
  -6  -3 -21    0.31    0.30
   6  -3  21   -0.19    0.30
  -6  -3 -21   -0.41    0.31
  -6   3 -21   -0.26    0.31
  -6   3 -21   -0.09    0.39
  -7  -3 -21    0.44    0.36
   7  -3  21    0.02    0.32
  -7  -3 -21   -0.48    0.34
  -7   3 -21   -0.38    0.42
  -7   3 -21   -0.09    0.35
  -8  -3 -21    0.86    0.41
  -8  -3 -21    0.72    0.43
   8  -3  21    1.17    0.42
  -8   3 -21    1.41    0.45
  -8   3 -21   -0.08    0.46
   9  -4 -21    0.32    0.47
   8  -4 -21   -0.15    0.42
   7  -4 -21    0.83    0.41
   6  -4 -21    1.40    0.39
   6   4 -21    2.25    0.38
   6   4 -21    1.62    0.30
   5  -4 -21    0.46    0.33
   5   4 -21    0.59    0.25
   5   4 -21    0.51    0.30
   4  -4 -21    2.48    0.34
   4   4 -21    2.88    0.38
   4   4 -21    1.96    0.30
   3  -4 -21    2.72    0.34
   3   4 -21    2.41    0.31
   3   4 -21    2.81    0.37
   2  -4 -21    6.92    0.45
  -2  -4  21    6.38    0.41
   2   4 -21    7.43    0.51
   1  -4 -21    1.27    0.28
   1  -4 -21    1.49    0.28
  -1  -4  21    1.43    0.27
   1   4 -21    1.85    0.32
   0  -4  21   -0.17    0.19
   0   4 -21    0.03    0.24
   1  -4  21    2.03    0.31
  -1   4 -21    2.17    0.37
   2  -4  21    0.63    0.25
  -2   4 -21    0.79    0.31
   3  -4  21    7.05    0.49
  -3  -4 -21    7.14    0.46
  -3   4 -21    6.27    0.42
  -3   4 -21    7.40    0.59
   4  -4  21    0.39    0.29
  -4  -4 -21    0.60    0.28
  -4   4 -21    0.64    0.28
  -4   4 -21   -0.13    0.35
  -5  -4 -21    4.05    0.44
   5  -4  21    4.86    0.47
  -5   4 -21    5.47    0.46
  -5   4 -21    4.45    0.56
  -6  -4 -21    0.36    0.33
   6  -4  21    0.34    0.34
  -6   4 -21    0.14    0.39
  -6   4 -21   -0.12    0.33
  -7  -4 -21    0.62    0.39
   7  -4  21    1.23    0.40
  -7   4 -21    0.49    0.40
  -7   4 -21    0.87    0.46
   9  -5 -21    0.75    0.51
  -9   5  21    1.06    0.40
   8  -5 -21    0.16    0.45
  -8   5  21    0.57    0.37
   7  -5 -21    2.26    0.45
   6  -5 -21    1.33    0.41
   6   5 -21    0.96    0.28
   5  -5 -21    0.24    0.31
  -5   5  21   -0.24    0.26
   5   5 -21    0.01    0.23
   4  -5 -21    0.75    0.34
   4   5 -21    0.90    0.32
   4   5 -21    0.36    0.24
   3  -5 -21    0.07    0.25
  -3  -5  21    0.03    0.23
   3   5 -21    0.28    0.24
   3   5 -21    0.32    0.30
   2  -5 -21    5.47    0.45
  -2  -5  21    5.02    0.41
   2   5 -21    5.28    0.47
   1  -5 -21    1.33    0.30
  -1  -5  21    1.03    0.28
   1   5 -21    0.99    0.32
   0  -5  21    5.53    0.44
   0   5 -21    5.35    0.48
   1  -5  21   15.34    0.69
  -1   5 -21   13.09    0.74
   2  -5  21    1.14    0.29
  -2   5 -21    1.11    0.34
  -3  -5 -21   -0.02    0.25
   3  -5  21   -0.22    0.28
  -3   5 -21    0.44    0.35
  -4  -5 -21    0.76    0.30
   4  -5  21    0.97    0.34
  -4   5 -21    1.00    0.32
  -4   5 -21    1.28    0.42
   5  -5  21    0.44    0.34
  -5  -5 -21    0.48    0.32
  -5   5 -21    0.40    0.33
  -5   5 -21   -0.01    0.40
   6  -5  21    0.42    0.36
  -6  -5 -21   -0.04    0.34
  -6   5 -21    0.88    0.44
  -6   5 -21    0.46    0.36
   7  -5  21   -0.08    0.37
  -7  -5 -21    0.22    0.39
  -7   5 -21    0.08    0.39
  -7   5 -21    0.02    0.49
   8  -6 -21    0.01    0.48
  -8   6  21    0.48    0.38
   7  -6 -21    6.33    0.63
  -7   6  21    5.75    0.54
   6  -6 -21    0.07    0.39
  -6   6  21    0.21    0.32
   5  -6 -21    2.45    0.44
  -5   6  21    2.25    0.38
   5   6 -21    1.68    0.34
  -4  -6  21   -0.12    0.26
   4  -6 -21   -0.04    0.33
  -4   6  21    0.35    0.30
   4   6 -21    0.13    0.25
   3  -6 -21   10.17    0.63
  -3  -6  21    8.80    0.57
   3   6 -21   11.13    0.65
   2  -6 -21    3.02    0.40
  -2  -6  21    2.22    0.35
   2   6 -21    2.23    0.38
  -1  -6  21    7.03    0.51
   1  -6 -21    7.87    0.55
   1   6 -21    7.32    0.56
   0  -6 -21    0.77    0.31
   0  -6  21   -0.46    0.26
   0   6 -21   -0.19    0.30
   1  -6  21    0.13    0.26
  -1   6 -21    1.02    0.36
   2  -6  21    0.59    0.30
  -2   6 -21   -0.19    0.33
   3  -6  21   -0.12    0.28
  -3   6 -21   -0.48    0.34
   4  -6  21   -0.18    0.29
  -4  -6 -21    0.23    0.29
  -4   6 -21   -0.13    0.36
   5  -6  21   -0.14    0.32
  -5  -6 -21    0.53    0.33
  -5   6 -21    0.31    0.33
  -5   6 -21   -0.23    0.41
  -6  -6 -21    0.04    0.35
   6  -6  21   -0.02    0.35
  -6   6 -21    0.17    0.47
  -6   6 -21   -0.05    0.36
   7  -7 -21   -0.22    0.46
  -7   7  21    0.97    0.40
   6  -7 -21    0.27    0.44
  -6   7  21   -0.13    0.34
  -5  -7  21    0.23    0.32
   5  -7 -21    0.40    0.42
  -5   7  21    0.03    0.33
  -4  -7  21    0.59    0.33
   4  -7 -21   -0.33    0.33
  -4   7  21   -0.11    0.33
   3  -7 -21    3.91    0.46
  -3  -7  21    4.25    0.46
  -2  -7  21    2.36    0.39
   2  -7 -21    2.63    0.43
  -1  -7  21    6.09    0.52
   1  -7 -21    5.88    0.52
   1   7 -21    7.35    0.57
   0  -7  21    3.00    0.42
   0  -7 -21    2.90    0.42
   0   7 -21    3.01    0.44
   1  -7  21    0.40    0.31
  -1   7 -21   -0.24    0.32
   2  -7  21    0.27    0.34
  -2   7 -21    0.01    0.36
   3  -7  21   -0.34    0.34
  -3   7 -21   -0.29    0.37
  -4  -7 -21    0.45    0.33
   4  -7  21    0.87    0.39
  -4   7 -21    0.85    0.43
   5  -7  21   -0.18    0.34
  -5  -7 -21    0.16    0.33
  -5   7 -21    0.07    0.44
   6  -8 -21    0.45    0.48
  -6   8  21    0.56    0.41
   5  -8 -21    0.33    0.45
  -5  -8  21   -0.09    0.36
  -5   8  21    0.24    0.37
  -4  -8  21    4.50    0.52
   4  -8 -21    3.32    0.49
  -4   8  21    4.02    0.51
   3  -8 -21    0.91    0.43
  -3  -8  21    0.80    0.37
  -2  -8  21    0.33    0.36
   2  -8 -21    0.43    0.39
   1  -8 -21    0.76    0.39
  -1  -8  21    0.47    0.36
   0  -8  21    0.00    0.35
   0  -8 -21    0.70    0.38
   0   8 -21    0.69    0.38
   1  -8  21   -0.37    0.35
  -1   8 -21    0.09    0.36
   2  -8  21    0.83    0.40
  -2   8 -21    0.84    0.41
   3  -8  21    1.07    0.43
  -3   8 -21    1.56    0.46
   4  -8  21    1.01    0.40
  -4   8 -21    0.31    0.40
  -4  -9  21    0.39    0.41
   4  -9 -21    0.59    0.48
  -4   9  21    1.01    0.43
  -3  -9  21    0.05    0.41
   3  -9 -21    0.39    0.44
  -3   9  21    0.30    0.42
  -2  -9  21    0.64    0.39
   2  -9 -21    1.07    0.46
  -1  -9  21    0.83    0.40
   1  -9 -21    1.01    0.43
   0  -9 -21    0.04    0.41
   0  -9  21    0.41    0.42
   1  -9  21    0.02    0.41
   2  -9  21    0.54    0.43
  -2   9 -21    0.81    0.39
   3  -9  21   -0.16    0.41
  -3   9 -21    0.18    0.42
  10   0 -22    0.13    0.44
   9   0 -22    0.10    0.39
   8   0 -22    6.48    0.60
   7   0 -22    0.24    0.35
   7   0 -22    0.05    0.22
   6   0 -22    8.06    0.56
   6   0 -22    8.33    0.52
   5   0 -22   -0.37    0.19
   5   0 -22    0.43    0.28
   4   0 -22    7.71    0.48
   4   0 -22    8.52    0.51
   3   0 -22    0.17    0.19
   3   0 -22   -0.03    0.24
   3   0 -22    0.36    0.21
   2   0 -22   42.78    1.56
   1   0 -22    0.01    0.21
   0   0 -22   39.44    1.46
   1   0  22    0.48    0.18
  -1   0 -22    0.28    0.24
  -1   0 -22    0.80    0.19
   2   0  22    4.51    0.34
  -2   0 -22    4.72    0.32
  -2   0 -22    4.54    0.42
   3   0  22    0.19    0.20
  -3   0 -22   -0.34    0.25
  -3   0 -22   -0.32    0.20
  -4   0 -22    1.74    0.30
  -4   0 -22    1.97    0.36
  -5   0 -22   -0.02    0.31
  -5   0 -22    0.22    0.29
  -6   0 -22    1.01    0.36
  -7   0 -22    0.10    0.37
  -8   0 -22    1.01    0.41
  10  -1 -22    1.36    0.54
  10   1 -22    1.21    0.54
   9  -1 -22    0.62    0.47
   9   1 -22    1.64    0.50
   8  -1 -22    5.63    0.57
   8   1 -22    5.93    0.59
   7  -1 -22    1.83    0.41
   7   1 -22    1.89    0.30
   7   1 -22    2.47    0.43
   6  -1 -22    3.12    0.40
   6   1 -22    3.67    0.42
   6   1 -22    4.09    0.38
   5  -1 -22    0.54    0.23
   5  -1 -22    0.77    0.27
   5   1 -22    0.59    0.22
   5   1 -22    0.58    0.27
   5   1 -22    0.95    0.30
   4  -1 -22    1.86    0.30
   4  -1 -22    1.44    0.26
   4   1 -22    1.91    0.30
   4   1 -22    1.08    0.31
   4   1 -22    1.29    0.25
   3  -1 -22    9.92    0.50
   3  -1 -22    8.96    0.55
   3  -1 -22   10.04    0.58
   3   1 -22    9.32    0.60
   3   1 -22    9.98    0.50
   3   1 -22    9.35    0.53
   2  -1 -22    4.67    0.34
   2  -1 -22    3.37    0.36
   2   1 -22    4.41    0.40
   1  -1 -22    6.23    0.44
   1   1 -22    5.87    0.46
   0  -1 -22    0.29    0.24
   0  -1  22   -0.06    0.16
   0   1 -22    0.36    0.26
  -1  -1 -22    4.41    0.39
   1  -1  22    3.99    0.32
  -1   1 -22    3.61    0.39
  -1   1 -22    3.81    0.29
  -2  -1 -22    1.00    0.29
  -2  -1 -22    0.51    0.21
   2  -1  22    0.32    0.20
  -2   1 -22    0.42    0.26
  -2   1 -22    0.69    0.22
  -3  -1 -22    3.41    0.33
  -3  -1 -22    2.77    0.36
   3  -1  22    3.78    0.34
  -3   1 -22    3.23    0.33
  -3   1 -22    3.85    0.43
  -4  -1 -22    1.25    0.29
  -4  -1 -22    0.81    0.30
   4  -1  22    0.69    0.24
  -4   1 -22    0.88    0.28
  -4   1 -22    1.21    0.33
  -5  -1 -22    0.11    0.28
   5  -1  22   -0.21    0.25
  -5   1 -22    0.00    0.29
  -5   1 -22   -0.56    0.27
  -6  -1 -22    4.44    0.45
   6  -1  22    3.05    0.40
  -6   1 -22    4.08    0.52
  -6   1 -22    3.27    0.43
   7  -1  22    0.13    0.34
  -7  -1 -22   -0.19    0.34
  -7   1 -22   -0.08    0.34
   8  -1  22    0.02    0.33
  -8  -1 -22    0.74    0.39
  -8   1 -22    0.24    0.42
  10  -2 -22    0.37    0.52
  10   2 -22   -0.08    0.50
   9  -2 -22   -0.06    0.44
   9   2 -22    0.60    0.46
   8  -2 -22    0.49    0.38
   8   2 -22    0.32    0.41
   7  -2 -22    1.24    0.39
   7   2 -22    2.05    0.43
   7   2 -22    1.26    0.27
   6  -2 -22    1.01    0.36
   6   2 -22    1.74    0.28
   6   2 -22    0.89    0.31
   5  -2 -22   -0.15    0.27
   5   2 -22    0.15    0.22
   5   2 -22    0.33    0.30
   4  -2 -22    4.97    0.41
   4   2 -22    4.42    0.42
   4   2 -22    5.09    0.40
   3  -2 -22    8.27    0.48
   3   2 -22    9.29    0.55
   3   2 -22    9.19    0.53
   2  -2 -22    4.31    0.39
   2  -2 -22    4.43    0.35
   2   2 -22    4.88    0.43
   1  -2 -22    4.06    0.38
  -1  -2  22    3.30    0.30
   1   2 -22    3.75    0.39
   0  -2 -22    8.85    0.51
   0  -2  22    8.77    0.46
   0   2 -22    9.20    0.59
  -1  -2 -22   39.43    1.41
   1  -2  22   37.11    1.29
  -1   2 -22   38.18    1.45
  -2  -2 -22   10.09    0.51
  -2  -2 -22   10.57    0.60
   2  -2  22   10.44    0.52
  -2   2 -22    9.49    0.48
  -2   2 -22    9.01    0.64
   3  -2  22    0.49    0.22
  -3  -2 -22    0.59    0.25
  -3   2 -22   -0.10    0.27
  -3   2 -22    0.47    0.24
   4  -2  22    4.41    0.41
  -4  -2 -22    4.66    0.39
  -4  -2 -22    4.48    0.41
  -4   2 -22    4.61    0.40
  -4   2 -22    4.48    0.48
  -5  -2 -22    0.81    0.31
   5  -2  22    0.96    0.31
  -5  -2 -22    0.90    0.33
  -5   2 -22    1.53    0.41
  -5   2 -22    0.95    0.32
  -6  -2 -22    1.23    0.38
  -6  -2 -22    0.86    0.33
   6  -2  22    0.51    0.31
  -6   2 -22    0.89    0.39
  -6   2 -22    0.47    0.34
  -7  -2 -22    0.31    0.36
  -7  -2 -22   -0.25    0.32
   7  -2  22    0.22    0.32
  -7   2 -22   -0.15    0.37
  -7   2 -22    0.32    0.38
  -8  -2 -22    0.52    0.41
  -8  -2 -22    0.02    0.43
   8  -2  22    0.13    0.38
  -8   2 -22    0.14    0.42
   9  -3 -22    0.49    0.46
   9   3 -22    0.59    0.48
   8  -3 -22    1.52    0.43
   7  -3 -22    7.98    0.59
   7   3 -22    7.34    0.61
   6  -3 -22    3.20    0.41
   6   3 -22    2.44    0.41
   6   3 -22    2.60    0.34
   5  -3 -22    0.70    0.29
   5   3 -22    0.09    0.29
   5   3 -22   -0.17    0.20
   4  -3 -22    1.21    0.30
   4   3 -22    1.08    0.26
   4   3 -22    0.53    0.29
   3  -3 -22   12.29    0.59
   3   3 -22   11.69    0.67
   3   3 -22   11.01    0.61
   2  -3 -22    0.15    0.23
   2  -3 -22   -0.37    0.19
   2   3 -22    0.12    0.26
   2   3 -22    0.06    0.09
  -1  -3  22   33.53    1.24
   1  -3 -22   37.97    1.39
   1   3 -22   39.86    1.41
   0  -3  22    2.94    0.31
   0  -3 -22    2.36    0.32
   0   3 -22    2.58    0.37
  -1  -3 -22    3.51    0.35
   1  -3  22    2.49    0.30
  -1   3 -22    2.00    0.34
   2  -3  22   -0.31    0.21
  -2  -3 -22    0.19    0.23
  -2   3 -22    0.23    0.28
   3  -3  22   10.09    0.53
  -3  -3 -22    9.27    0.50
  -3   3 -22    8.37    0.64
  -3   3 -22    8.23    0.49
   4  -3  22    0.15    0.27
  -4  -3 -22    0.69    0.29
  -4   3 -22    0.74    0.38
  -4   3 -22    0.88    0.28
  -5  -3 -22    2.04    0.37
   5  -3  22    1.24    0.34
  -5   3 -22    1.52    0.43
  -5   3 -22    1.58    0.34
  -6  -3 -22    1.69    0.39
  -6  -3 -22    1.19    0.38
   6  -3  22    1.07    0.36
  -6   3 -22   -0.26    0.33
  -6   3 -22    1.16    0.46
   7  -3  22    0.03    0.36
  -7  -3 -22   -0.09    0.35
  -7  -3 -22    0.66    0.37
  -7   3 -22    0.09    0.45
  -7   3 -22    0.18    0.38
   9  -4 -22    0.16    0.49
   8  -4 -22    2.89    0.52
   7  -4 -22    0.89    0.42
   6  -4 -22    0.03    0.36
   6   4 -22    0.51    0.25
   6   4 -22    0.06    0.31
   5  -4 -22    0.33    0.33
   5   4 -22   -0.01    0.22
   5   4 -22    0.31    0.28
   4  -4 -22   13.80    0.70
   4   4 -22   14.22    0.71
   4   4 -22   13.70    0.75
   3  -4 -22    2.07    0.33
   3   4 -22    1.68    0.29
   3   4 -22    2.15    0.35
  -2  -4  22   15.48    0.67
   2  -4 -22   15.90    0.70
   2   4 -22   15.95    0.77
  -1  -4  22   -0.16    0.21
   1  -4 -22    0.09    0.25
   1  -4 -22    0.00    0.24
   1   4 -22    0.37    0.30
   0  -4  22    0.65    0.25
   0   4 -22    0.87    0.31
   1  -4  22    9.39    0.52
  -1   4 -22    8.11    0.61
   2  -4  22    3.67    0.38
  -2   4 -22    4.52    0.48
   3  -4  22    0.62    0.28
  -3  -4 -22    0.66    0.26
  -3   4 -22    0.39    0.33
  -4  -4 -22    0.26    0.28
   4  -4  22    0.30    0.29
  -4   4 -22   -0.29    0.26
  -4   4 -22    0.09    0.34
  -5  -4 -22    0.59    0.30
   5  -4  22    0.80    0.33
  -5   4 -22    0.80    0.33
  -5   4 -22    0.88    0.44
   6  -4  22    0.05    0.34
  -6  -4 -22   -0.19    0.33
  -6   4 -22    0.05    0.40
  -6   4 -22    0.11    0.34
  -7  -4 -22    0.13    0.35
   7  -4  22   -0.05    0.37
  -7   4 -22   -0.04    0.44
  -7   4 -22   -0.38    0.37
   8  -5 -22    0.44    0.47
   7  -5 -22    1.52    0.47
   6  -5 -22    0.85    0.38
   5  -5 -22   -0.14    0.34
  -5   5  22   -0.13    0.28
   5   5 -22   -0.05    0.23
   4  -5 -22   12.15    0.67
   4   5 -22   11.94    0.65
   4   5 -22   11.97    0.70
   3  -5 -22    8.74    0.55
  -3  -5  22    7.37    0.49
   3   5 -22    9.22    0.62
  -2  -5  22    2.31    0.33
   2  -5 -22    1.89    0.33
   2   5 -22    1.64    0.35
   1  -5 -22    1.30    0.31
  -1  -5  22    0.91    0.29
   1   5 -22    1.01    0.33
   0  -5  22    0.10    0.26
   0   5 -22    0.48    0.32
   1  -5  22    1.29    0.31
  -1   5 -22    2.01    0.39
   2  -5  22    4.19    0.42
  -2   5 -22    3.61    0.48
   3  -5  22    1.00    0.31
  -3   5 -22    0.52    0.37
  -4  -5 -22    0.87    0.32
   4  -5  22    0.60    0.34
  -4   5 -22    0.75    0.42
  -5  -5 -22   -0.35    0.30
   5  -5  22    0.17    0.35
  -5   5 -22   -0.07    0.42
  -5   5 -22   -0.18    0.30
   6  -5  22    0.02    0.36
  -6  -5 -22    0.02    0.35
  -6   5 -22    0.42    0.45
  -6   5 -22    0.35    0.36
  -7  -5 -22   -0.32    0.38
   7  -5  22    0.22    0.38
  -7   5 -22    0.35    0.40
  -7   5 -22    0.27    0.51
   8  -6 -22    0.17    0.48
   7  -6 -22    0.14    0.45
   6  -6 -22    4.27    0.51
   5  -6 -22    0.31    0.34
   5   6 -22    0.07    0.27
  -5   6  22    0.70    0.34
  -4  -6  22   -0.04    0.29
   4  -6 -22    0.55    0.36
  -4   6  22    0.06    0.27
   4   6 -22    0.15    0.26
  -3  -6  22    1.55    0.34
   3  -6 -22    0.95    0.36
   3   6 -22    1.28    0.36
   2  -6 -22    5.68    0.48
  -2  -6  22    4.67    0.45
   2   6 -22    5.09    0.49
   1  -6 -22    0.34    0.31
  -1  -6  22   -0.15    0.24
   1   6 -22    0.25    0.29
   0  -6  22   -0.12    0.28
   0   6 -22    0.09    0.30
   1  -6  22    1.78    0.34
  -1   6 -22    1.72    0.38
   2  -6  22    8.15    0.57
  -2   6 -22    6.48    0.58
   3  -6  22    0.40    0.34
  -3   6 -22   -0.18    0.34
  -4  -6 -22    6.31    0.49
   4  -6  22    5.49    0.53
  -4   6 -22    5.36    0.59
  -5  -6 -22    0.21    0.34
   5  -6  22    0.47    0.37
  -5   6 -22   -0.19    0.43
  -6  -6 -22    0.21    0.36
   6  -6  22    0.54    0.40
  -6   6 -22   -0.28    0.47
  -6   6 -22   -0.18    0.37
   7  -7 -22    0.23    0.47
   6  -7 -22    1.45    0.49
  -6   7  22    0.86    0.39
   5  -7 -22    0.32    0.42
  -5   7  22    0.35    0.34
   4  -7 -22    0.29    0.38
  -4  -7  22    0.48    0.33
  -4   7  22    0.27    0.35
   3  -7 -22    1.29    0.39
  -3  -7  22    1.37    0.36
   2  -7 -22    0.57    0.36
  -2  -7  22    0.09    0.28
  -1  -7  22    0.54    0.30
   1  -7 -22    0.00    0.34
   1   7 -22    0.45    0.34
   0  -7  22    0.26    0.33
   0   7 -22    0.27    0.35
   1  -7  22    0.57    0.36
  -1   7 -22   -0.58    0.34
   2  -7  22   -0.16    0.33
  -2   7 -22    0.16    0.37
   3  -7  22    1.53    0.41
  -3   7 -22    1.69    0.46
   4  -7  22    0.11    0.37
  -4   7 -22    0.17    0.43
   5  -7  22    0.57    0.42
  -5  -7 -22    0.46    0.36
  -5   7 -22    0.00    0.44
   6  -8 -22   -0.15    0.47
  -6   8  22   -0.21    0.39
  -5  -8  22    0.48    0.39
   5  -8 -22    0.14    0.44
  -5   8  22    0.43    0.39
   4  -8 -22    1.82    0.47
  -4  -8  22    2.21    0.45
  -4   8  22    1.49    0.44
  -3  -8  22    2.54    0.46
   3  -8 -22    3.11    0.50
   2  -8 -22    3.03    0.48
  -2  -8  22    3.36    0.49
  -1  -8  22   -0.40    0.33
   1  -8 -22    0.41    0.38
   0  -8 -22    0.72    0.41
   0  -8  22    0.85    0.37
   0   8 -22    0.96    0.39
   1  -8  22    1.65    0.42
  -1   8 -22    0.91    0.40
   2  -8  22   -0.23    0.38
  -2   8 -22   -0.04    0.39
   3  -8  22    0.99    0.43
  -3   8 -22    0.62    0.44
   4  -8  22   -0.62    0.38
  -4   8 -22   -0.07    0.40
  -4  -9  22    0.87    0.45
   4  -9 -22    0.12    0.48
  -4   9  22    0.63    0.45
   3  -9 -22    0.71    0.46
  -3  -9  22    0.26    0.42
  -3   9  22    0.91    0.46
  -2  -9  22    0.26    0.41
   2  -9 -22    0.16    0.43
  -1  -9  22    2.28    0.48
   1  -9 -22    2.89    0.51
   0  -9 -22    0.50    0.42
   0  -9  22    0.10    0.40
   1  -9  22    0.65    0.43
   2  -9  22   -0.16    0.41
  -2   9 -22    0.63    0.42
  10   0 -23    0.44    0.50
   9   0 -23    0.57    0.46
   8   0 -23    0.43    0.40
   7   0 -23    2.77    0.35
   7   0 -23    3.86    0.45
   6   0 -23   -0.37    0.30
   6   0 -23   -0.07    0.22
   5   0 -23    1.03    0.26
   5   0 -23    1.26    0.31
   4   0 -23    0.13    0.21
   4   0 -23   -0.48    0.24
   3   0 -23    1.80    0.28
   3   0 -23    1.70    0.31
   3   0 -23    1.66    0.26
   2   0 -23   -0.14    0.23
   2   0 -23    0.02    0.12
   1   0 -23    2.28    0.33
   0   0 -23    0.57    0.25
  -1   0 -23    1.53    0.23
   1   0  23    1.67    0.23
  -1   0 -23    2.30    0.34
  -2   0 -23    0.27    0.20
  -2   0 -23   -0.21    0.26
   2   0  23   -0.22    0.15
  -3   0 -23    4.24    0.45
  -3   0 -23    3.85    0.35
   3   0  23    3.90    0.35
   4   0  23   -0.37    0.22
  -4   0 -23   -0.72    0.27
  -4   0 -23   -0.17    0.22
  -5   0 -23    3.72    0.48
  -5   0 -23    6.04    0.48
  -6   0 -23    0.43    0.34
  -7   0 -23    1.09    0.41
  -8   0 -23   -0.04    0.41
   8   0  23    0.29    0.37
  10  -1 -23    1.05    0.53
  10   1 -23    0.52    0.50
   9  -1 -23    0.55    0.44
   9   1 -23    1.09    0.49
   8  -1 -23    2.35    0.48
   8   1 -23    2.68    0.49
   7  -1 -23    0.70    0.37
   7   1 -23   -0.08    0.22
   7   1 -23    0.25    0.36
   6  -1 -23    1.07    0.34
   6   1 -23    0.66    0.26
   6   1 -23    1.12    0.35
   5  -1 -23   -0.05    0.21
   5  -1 -23    0.01    0.25
   5   1 -23    0.15    0.20
   5   1 -23   -0.12    0.28
   5   1 -23    0.41    0.27
   4  -1 -23   11.39    0.58
   4  -1 -23   10.88    0.62
   4   1 -23   10.79    0.59
   4   1 -23   11.31    0.58
   4   1 -23   12.85    0.71
   3  -1 -23    1.80    0.30
   3  -1 -23    1.61    0.28
   3  -1 -23    1.97    0.29
   3   1 -23    1.35    0.26
   3   1 -23    1.87    0.28
   3   1 -23    1.75    0.33
   2  -1 -23    3.89    0.32
   2  -1 -23    5.08    0.42
   2  -1 -23    3.79    0.37
   2   1 -23    6.34    0.45
   1  -1 -23    0.18    0.23
   1   1 -23    0.31    0.24
   0  -1 -23    2.06    0.33
   0  -1  23    2.42    0.26
   0   1 -23    3.01    0.36
   1  -1  23    2.55    0.28
  -1  -1 -23    2.25    0.34
  -1   1 -23    2.13    0.35
  -2  -1 -23    7.81    0.44
  -2  -1 -23    8.77    0.59
   2  -1  23    8.28    0.46
  -2   1 -23    9.04    0.62
  -2   1 -23    8.70    0.45
   3  -1  23    5.28    0.40
  -3  -1 -23    5.41    0.40
  -3  -1 -23    5.39    0.47
  -3   1 -23    6.06    0.41
  -3   1 -23    4.72    0.49
   4  -1  23   -0.15    0.21
  -4  -1 -23    0.32    0.24
  -4   1 -23   -0.37    0.30
  -4   1 -23    0.42    0.28
   5  -1  23    3.45    0.38
  -5  -1 -23    2.78    0.38
  -5   1 -23    3.90    0.43
  -5   1 -23    3.36    0.47
   6  -1  23    0.35    0.29
  -6  -1 -23    0.55    0.32
  -6   1 -23    0.25    0.32
  -6   1 -23    0.22    0.39
   7  -1  23    0.21    0.35
  -7  -1 -23   -0.54    0.35
  -7   1 -23   -0.07    0.38
   8  -1  23   -0.04    0.34
  -8  -1 -23    0.48    0.40
  -8   1 -23   -0.24    0.43
   9  -2 -23    1.04    0.48
   9   2 -23    1.60    0.50
   8  -2 -23    1.27    0.45
   7  -2 -23    1.59    0.42
   7   2 -23    1.31    0.40
   7   2 -23    1.51    0.39
   6  -2 -23   -0.01    0.29
   6   2 -23    0.26    0.23
   6   2 -23    0.09    0.29
   5  -2 -23   14.74    0.71
   5   2 -23   15.06    0.80
   5   2 -23   13.20    0.69
   4  -2 -23    1.10    0.28
   4   2 -23    1.12    0.25
   4   2 -23    0.85    0.31
   3  -2 -23   22.77    0.87
   3   2 -23   21.32    0.95
   3   2 -23   22.03    0.97
   2  -2 -23    0.11    0.22
   2  -2 -23    0.07    0.26
   2   2 -23    0.13    0.26
   2   2 -23   -0.05    0.09
   1  -2 -23    2.51    0.34
   1   2 -23    2.01    0.32
   0  -2  23    4.30    0.34
   0  -2 -23    3.97    0.40
   0   2 -23    3.37    0.40
   1  -2  23    1.12    0.24
  -1  -2 -23    0.87    0.28
  -1   2 -23    0.73    0.29
  -2  -2 -23    7.89    0.47
  -2  -2 -23    9.16    0.58
   2  -2  23    7.42    0.46
  -2   2 -23    8.25    0.60
   3  -2  23    2.80    0.32
  -3  -2 -23    3.25    0.35
  -3   2 -23    2.86    0.44
  -3   2 -23    2.59    0.33
  -4  -2 -23    0.31    0.29
   4  -2  23    0.17    0.25
  -4  -2 -23    0.27    0.25
  -4   2 -23   -0.46    0.33
  -4   2 -23    0.13    0.27
   5  -2  23    0.23    0.29
  -5  -2 -23    0.22    0.30
  -5  -2 -23    0.08    0.28
  -5   2 -23    0.39    0.34
  -5   2 -23    0.61    0.32
  -6  -2 -23    0.55    0.37
   6  -2  23    0.74    0.34
  -6  -2 -23    0.91    0.34
  -6   2 -23    0.58    0.36
  -6   2 -23    0.28    0.41
   7  -2  23   -0.42    0.32
  -7  -2 -23    0.18    0.38
  -7  -2 -23    0.27    0.40
  -7   2 -23    0.46    0.40
  -7   2 -23   -0.40    0.42
   9  -3 -23   -0.17    0.41
   9   3 -23   -0.10    0.45
   8  -3 -23   -0.09    0.38
   7  -3 -23    1.39    0.39
   7   3 -23    1.14    0.39
   6  -3 -23    0.09    0.34
   6   3 -23    0.16    0.24
   6   3 -23    0.50    0.32
   5  -3 -23    3.52    0.39
   5   3 -23    2.96    0.42
   5   3 -23    3.55    0.37
   4  -3 -23    1.87    0.33
   4   3 -23    1.62    0.35
   4   3 -23    1.12    0.27
   3  -3 -23    0.27    0.25
   3   3 -23   -0.09    0.21
   3   3 -23    0.23    0.29
   2  -3 -23    7.31    0.48
   2  -3 -23    7.69    0.45
   2   3 -23    6.90    0.52
   1  -3 -23    2.88    0.36
  -1  -3  23    2.90    0.32
   1   3 -23    2.64    0.36
   0  -3 -23    2.12    0.32
   0  -3  23    1.55    0.28
   0   3 -23    1.75    0.33
   1  -3  23    0.32    0.23
  -1   3 -23    0.06    0.28
   2  -3  23   16.85    0.70
  -2   3 -23   14.06    0.80
  -3  -3 -23    2.84    0.34
   3  -3  23    2.71    0.35
  -3   3 -23    3.06    0.33
  -3   3 -23    2.01    0.41
  -4  -3 -23    0.72    0.30
   4  -3  23    0.72    0.28
  -4   3 -23   -0.04    0.34
  -4   3 -23    0.93    0.29
  -5  -3 -23    1.45    0.36
   5  -3  23    1.25    0.34
  -5   3 -23    1.07    0.34
  -5   3 -23    1.28    0.45
  -6  -3 -23    0.10    0.33
   6  -3  23   -0.11    0.33
  -6   3 -23    0.27    0.35
  -6   3 -23   -0.03    0.42
  -7  -3 -23   -0.03    0.36
   7  -3  23    0.23    0.35
  -7  -3 -23    0.34    0.36
  -7   3 -23    0.30    0.40
  -7   3 -23    0.00    0.47
   9  -4 -23    3.23    0.58
   8  -4 -23    0.24    0.45
   7  -4 -23    1.42    0.44
   6  -4 -23    0.90    0.38
   6   4 -23    0.69    0.27
   6   4 -23    0.54    0.35
   5  -4 -23    0.31    0.34
   5   4 -23    0.28    0.30
   5   4 -23    0.62    0.27
   4  -4 -23    2.65    0.38
   4   4 -23    2.05    0.32
   4   4 -23    1.64    0.37
   3  -4 -23    4.30    0.41
   3   4 -23    4.49    0.42
   3   4 -23    4.82    0.45
   2  -4 -23    0.85    0.29
  -2  -4  23    0.44    0.24
   2   4 -23    0.13    0.28
   1  -4 -23    5.76    0.47
  -1  -4  23    5.75    0.44
   1   4 -23    5.95    0.49
   0  -4  23    3.78    0.38
   0   4 -23    4.62    0.46
   1  -4  23   10.99    0.58
  -1   4 -23   10.47    0.69
   2  -4  23    3.96    0.40
  -2   4 -23    2.92    0.46
   3  -4  23    4.70    0.44
  -3  -4 -23    4.75    0.40
  -3   4 -23    4.00    0.52
  -4  -4 -23    0.28    0.29
   4  -4  23    0.21    0.27
  -4   4 -23    0.08    0.30
  -4   4 -23   -0.12    0.36
   5  -4  23    0.94    0.33
  -5  -4 -23    1.17    0.36
  -5   4 -23    0.81    0.33
  -5   4 -23    0.31    0.44
   6  -4  23    0.83    0.38
  -6  -4 -23    1.32    0.40
  -6   4 -23    0.31    0.36
  -6   4 -23    0.55    0.45
   7  -4  23    0.29    0.39
  -7  -4 -23    0.79    0.40
  -7   4 -23    0.21    0.50
  -7   4 -23    0.69    0.40
   8  -5 -23    1.21    0.50
   7  -5 -23    3.34    0.53
   6  -5 -23    1.74    0.44
   5  -5 -23    1.43    0.40
   5   5 -23    1.19    0.32
   4  -5 -23    3.13    0.41
   4   5 -23    2.56    0.41
   4   5 -23    2.83    0.37
   3  -5 -23    4.28    0.43
   3   5 -23    4.41    0.47
   2  -5 -23    4.17    0.41
  -2  -5  23    2.68    0.35
   2   5 -23    3.41    0.43
  -1  -5  23   -0.06    0.25
   1  -5 -23    0.19    0.29
   1   5 -23   -0.03    0.28
   0  -5  23    0.78    0.29
   0   5 -23    0.76    0.34
   1  -5  23    0.77    0.30
  -1   5 -23    0.49    0.33
   2  -5  23    1.88    0.34
  -2   5 -23    1.82    0.40
   3  -5  23    2.75    0.40
  -3   5 -23    2.24    0.44
  -4  -5 -23    0.27    0.30
   4  -5  23   -0.21    0.31
  -4   5 -23   -0.04    0.37
   5  -5  23    0.32    0.36
  -5  -5 -23    0.72    0.34
  -5   5 -23    0.17    0.32
  -5   5 -23    0.13    0.45
  -6  -5 -23   -0.20    0.34
   6  -5  23    0.17    0.37
  -6   5 -23    0.10    0.45
  -6   5 -23    0.06    0.36
   8  -6 -23    0.54    0.50
   7  -6 -23    0.27    0.45
   6  -6 -23    2.50    0.50
   5  -6 -23    3.36    0.49
  -5   6  23    3.52    0.44
   4  -6 -23    0.55    0.36
   3  -6 -23    5.17    0.50
  -3  -6  23    4.60    0.46
   3   6 -23    5.01    0.49
  -2  -6  23   -0.23    0.28
   2  -6 -23    0.21    0.32
   2   6 -23    0.14    0.32
  -1  -6  23    2.18    0.38
   1  -6 -23    3.12    0.40
   1   6 -23    2.45    0.39
   0  -6  23   -0.08    0.29
   0   6 -23    0.59    0.36
   1  -6  23    0.26    0.29
  -1   6 -23   -0.08    0.34
   2  -6  23   -0.11    0.31
  -2   6 -23   -0.40    0.35
   3  -6  23    0.08    0.33
  -3   6 -23   -0.19    0.35
   4  -6  23    0.28    0.36
  -4   6 -23    0.01    0.38
  -5  -6 -23    0.86    0.37
   5  -6  23    1.07    0.39
  -5   6 -23    1.40    0.48
   6  -6  23    0.26    0.40
  -6  -6 -23    0.25    0.37
  -6   6 -23   -0.43    0.47
   7  -7 -23    1.12    0.52
   6  -7 -23    0.72    0.43
  -6   7  23    0.38    0.38
   5  -7 -23    0.06    0.42
  -5   7  23    0.50    0.36
   4  -7 -23    2.69    0.47
  -4  -7  23    1.75    0.41
  -4   7  23    1.84    0.40
  -3  -7  23   -0.16    0.32
   3  -7 -23    0.70    0.38
   2  -7 -23    1.62    0.41
  -2  -7  23    1.65    0.38
   1  -7 -23    0.68    0.36
  -1  -7  23   -0.39    0.30
   1   7 -23   -0.19    0.34
   0  -7  23    1.54    0.39
   0   7 -23    2.40    0.42
   1  -7  23    1.27    0.39
  -1   7 -23    1.75    0.42
   2  -7  23    2.78    0.43
  -2   7 -23    1.46    0.44
   3  -7  23   -0.09    0.37
  -3   7 -23    0.25    0.42
   4  -7  23    0.03    0.35
  -4   7 -23    0.11    0.43
  -5  -7 -23   -0.29    0.36
   5  -7  23   -0.35    0.35
  -5   7 -23    0.18    0.43
   5  -8 -23    0.42    0.45
  -5   8  23    0.36    0.40
   4  -8 -23    2.35    0.49
  -4  -8  23    1.27    0.43
  -4   8  23    1.03    0.42
   3  -8 -23    0.27    0.42
  -3  -8  23   -0.52    0.32
  -2  -8  23    0.65    0.38
   2  -8 -23    0.65    0.41
   1  -8 -23    1.46    0.44
  -1  -8  23    0.52    0.39
   0  -8  23   -0.13    0.36
   0   8 -23    0.45    0.38
   1  -8  23    1.88    0.44
  -1   8 -23    1.39    0.44
   2  -8  23    0.50    0.41
  -2   8 -23    0.10    0.41
   3  -8  23    0.07    0.42
  -3   8 -23    0.45    0.44
  -3  -9  23   -0.10    0.42
   3  -9 -23    1.52    0.49
  -3   9  23    0.03    0.41
  -2  -9  23   -0.25    0.38
   2  -9 -23    0.54    0.44
   1  -9 -23    1.51    0.46
  -1  -9  23    3.04    0.52
   0  -9  23   -0.04    0.42
   1  -9  23    0.21    0.42
   9   0 -24   -0.44    0.42
   8   0 -24    1.67    0.42
   7   0 -24    0.08    0.32
   6   0 -24   17.72    0.84
   6   0 -24   17.65    0.83
   5   0 -24    0.32    0.23
   5   0 -24    0.14    0.26
   4   0 -24   21.38    0.97
   4   0 -24   23.80    0.99
   4   0 -24   21.62    0.88
   3   0 -24    0.13    0.28
   3   0 -24   -0.05    0.23
   3   0 -24    0.04    0.20
   2   0 -24   -0.09    0.23
   1   0 -24    0.19    0.24
   0   0 -24   12.66    0.65
  -1   0 -24    0.01    0.28
   1   0  24    0.17    0.18
  -2   0 -24   -0.03    0.20
  -2   0 -24    0.10    0.29
   2   0  24    0.20    0.20
  -3   0 -24   -0.14    0.30
  -3   0 -24    0.40    0.23
   3   0  24   -0.05    0.21
  -4   0 -24   -0.17    0.32
   4   0  24   -0.04    0.23
  -4   0 -24    0.26    0.25
  -5   0 -24   -0.17    0.33
  -5   0 -24   -0.44    0.28
   5   0  24    0.23    0.28
   6   0  24    2.03    0.36
  -6   0 -24    2.10    0.39
  -7   0 -24   -0.77    0.32
   7   0  24   -0.39    0.30
   9  -1 -24    2.04    0.51
   9   1 -24    0.11    0.42
   8  -1 -24    0.46    0.39
   8   1 -24    0.44    0.43
   7  -1 -24   -0.26    0.35
   7   1 -24    0.29    0.36
   6  -1 -24    0.46    0.33
   6   1 -24   -0.31    0.28
   6   1 -24   -0.02    0.22
   6   1 -24   -0.23    0.32
   5  -1 -24    4.63    0.44
   5   1 -24    4.67    0.48
   5   1 -24    4.52    0.44
   5   1 -24    5.02    0.42
   4  -1 -24    0.23    0.22
   4  -1 -24    0.68    0.27
   4   1 -24    0.60    0.24
   4   1 -24   -0.19    0.28
   4   1 -24    0.59    0.27
   3  -1 -24   16.12    0.78
   3  -1 -24   16.00    0.69
   3  -1 -24   15.62    0.77
   3   1 -24   15.82    0.78
   3   1 -24   17.11    0.70
   3   1 -24   16.53    0.77
   2  -1 -24    1.74    0.33
   2   1 -24    2.44    0.34
   1  -1 -24    3.68    0.39
   1   1 -24    4.09    0.40
   0  -1 -24   13.33    0.70
   0   1 -24   13.82    0.73
  -1  -1 -24   17.12    0.78
   1  -1  24   15.81    0.67
  -1   1 -24   17.38    0.82
   2  -1  24    1.41    0.25
  -2  -1 -24    1.66    0.32
  -2   1 -24    1.32    0.25
  -2   1 -24    1.18    0.35
  -3  -1 -24    0.83    0.33
   3  -1  24    1.05    0.26
  -3  -1 -24    0.85    0.26
  -3   1 -24    0.72    0.27
  -3   1 -24    0.87    0.35
  -4  -1 -24   -0.02    0.26
   4  -1  24    0.10    0.25
  -4   1 -24   -0.65    0.31
  -4   1 -24    0.26    0.27
   5  -1  24    2.08    0.34
  -5  -1 -24    1.61    0.34
  -5   1 -24    1.78    0.37
  -5   1 -24    1.54    0.43
   6  -1  24   -0.31    0.30
  -6  -1 -24    0.27    0.34
  -6   1 -24    0.47    0.33
  -6   1 -24   -0.77    0.36
   7  -1  24    0.30    0.37
  -7  -1 -24   -0.20    0.33
  -7   1 -24    0.31    0.40
   9  -2 -24    0.94    0.45
   9   2 -24   -0.02    0.45
   8  -2 -24    2.84    0.51
   8   2 -24    2.80    0.51
   8   2 -24    2.07    0.46
   7  -2 -24   -0.32    0.36
   7   2 -24    0.09    0.35
   7   2 -24    0.57    0.35
   6  -2 -24    0.57    0.35
   6   2 -24    0.35    0.25
   6   2 -24    0.25    0.31
   6   2 -24   -0.07    0.34
   5  -2 -24    0.31    0.30
   5   2 -24    0.66    0.26
   5   2 -24    0.35    0.33
   5   2 -24    0.82    0.31
   4  -2 -24    3.28    0.36
   4   2 -24    3.55    0.38
   4   2 -24    2.70    0.38
   3  -2 -24    0.20    0.27
   3  -2 -24    0.38    0.24
   3   2 -24    0.23    0.22
   3   2 -24    0.10    0.28
   2  -2 -24   -0.05    0.22
   2  -2 -24   -0.17    0.24
   2   2 -24    0.05    0.28
   1  -2 -24    0.63    0.28
   1   2 -24    0.54    0.29
   0  -2  24   11.20    0.55
   0  -2 -24   13.04    0.67
   0   2 -24   12.25    0.71
  -1  -2 -24    0.03    0.26
   1  -2  24    0.06    0.20
  -1   2 -24   -0.13    0.27
  -2  -2 -24    5.90    0.48
   2  -2  24    4.07    0.37
  -2   2 -24    4.70    0.49
  -3  -2 -24    0.43    0.28
   3  -2  24    0.29    0.26
  -3   2 -24    0.81    0.37
  -3   2 -24    0.91    0.27
  -4  -2 -24    0.92    0.30
   4  -2  24    1.01    0.29
  -4  -2 -24    0.96    0.31
  -4   2 -24    1.20    0.31
  -4   2 -24    0.76    0.37
  -5  -2 -24    1.18    0.34
  -5  -2 -24    1.17    0.36
   5  -2  24    0.48    0.31
  -5   2 -24    0.74    0.41
  -5   2 -24    0.65    0.33
   6  -2  24    3.56    0.45
  -6  -2 -24    5.04    0.52
  -6  -2 -24    3.40    0.45
  -6   2 -24    4.45    0.50
  -6   2 -24    3.72    0.57
   7  -2  24   -0.24    0.35
  -7  -2 -24    0.34    0.38
  -7   2 -24   -0.05    0.45
  -7   2 -24    0.36    0.41
   9  -3 -24    0.41    0.47
   9   3 -24   -0.27    0.46
   8  -3 -24   -0.08    0.38
   7  -3 -24   -0.16    0.35
   7   3 -24   -0.05    0.37
   6  -3 -24    0.69    0.36
   6   3 -24    0.41    0.36
   6   3 -24    0.51    0.27
   5  -3 -24    6.16    0.51
   5   3 -24    5.69    0.47
   5   3 -24    5.66    0.50
   4  -3 -24    4.23    0.40
   4   3 -24    4.06    0.43
   4   3 -24    3.57    0.38
   3  -3 -24    0.39    0.26
   3   3 -24    0.64    0.24
   3   3 -24    0.57    0.29
   2  -3 -24    0.63    0.29
   2  -3 -24    0.59    0.26
   2   3 -24    0.80    0.32
   1  -3 -24   -0.26    0.25
  -1  -3  24    0.38    0.22
   1   3 -24    0.41    0.28
   0  -3 -24    0.99    0.30
   0  -3  24    1.02    0.26
   0   3 -24    0.91    0.32
   1  -3  24    9.85    0.52
  -1   3 -24    8.87    0.66
   2  -3  24    1.00    0.27
  -2   3 -24    0.95    0.35
  -3  -3 -24    0.06    0.26
   3  -3  24    0.27    0.26
  -3   3 -24    0.32    0.35
  -4  -3 -24    2.73    0.38
   4  -3  24    2.38    0.36
  -4   3 -24    2.81    0.50
  -4   3 -24    2.36    0.36
  -5  -3 -24    0.09    0.32
   5  -3  24    0.48    0.32
  -5   3 -24    0.36    0.32
  -5   3 -24    0.57    0.41
  -6  -3 -24   -0.01    0.36
   6  -3  24    0.07    0.34
  -6   3 -24    0.63    0.43
  -6   3 -24    0.04    0.35
   7  -3  24    0.09    0.37
  -7  -3 -24    0.65    0.41
  -7   3 -24   -0.70    0.42
  -7   3 -24    0.44    0.41
   9  -4 -24   -0.29    0.48
   8  -4 -24   -0.17    0.44
   7  -4 -24    1.89    0.43
   6  -4 -24    4.32    0.48
   6   4 -24    3.03    0.46
   5  -4 -24    1.20    0.37
   5   4 -24    0.69    0.27
   5   4 -24    0.95    0.36
   4  -4 -24   15.36    0.74
   4   4 -24   14.84    0.78
   4   4 -24   15.46    0.82
   3  -4 -24    0.13    0.28
   3   4 -24    0.76    0.32
   2  -4 -24    2.35    0.33
   2  -4 -24    1.55    0.33
   2   4 -24    1.68    0.35
  -1  -4  24    0.22    0.24
   1  -4 -24    0.56    0.29
   1   4 -24    0.33    0.29
   0  -4  24    8.17    0.48
   0   4 -24    8.08    0.58
   1  -4  24    0.83    0.29
  -1   4 -24    0.63    0.35
   2  -4  24    0.66    0.30
  -2   4 -24    0.46    0.36
   3  -4  24    0.48    0.31
  -3   4 -24    0.88    0.39
  -4  -4 -24    1.51    0.35
   4  -4  24    1.21    0.32
  -4   4 -24    0.80    0.44
  -5  -4 -24    2.03    0.39
   5  -4  24    2.46    0.41
  -5   4 -24    0.87    0.44
  -5   4 -24    2.30    0.39
   6  -4  24   -0.18    0.32
  -6  -4 -24   -0.01    0.36
  -6   4 -24    0.01    0.48
  -6   4 -24   -0.12    0.35
   8  -5 -24    0.41    0.48
   7  -5 -24    0.05    0.39
   6  -5 -24    0.00    0.39
   5  -5 -24    5.81    0.54
   5   5 -24    4.76    0.46
   4  -5 -24    1.02    0.35
   4   5 -24    0.66    0.35
   4   5 -24    0.66    0.28
   3  -5 -24    6.14    0.49
   3   5 -24    5.66    0.52
  -2  -5  24    0.49    0.27
   2  -5 -24    0.84    0.32
   2   5 -24    0.16    0.33
  -1  -5  24    2.61    0.37
   1   5 -24    2.65    0.41
   0  -5  24    0.14    0.26
   0   5 -24    0.70    0.35
   1  -5  24    6.57    0.50
  -1   5 -24    5.87    0.55
   2  -5  24    8.26    0.55
  -2   5 -24    5.41    0.56
   3  -5  24    0.09    0.31
  -3   5 -24   -0.14    0.39
  -4  -5 -24    0.19    0.30
   4  -5  24    0.64    0.35
  -4   5 -24    0.51    0.43
  -5  -5 -24    0.06    0.33
   5  -5  24    0.25    0.36
  -5   5 -24   -0.24    0.42
   6  -5  24    0.06    0.37
  -6  -5 -24    0.32    0.38
  -6   5 -24   -0.25    0.36
  -6   5 -24   -0.25    0.48
   7  -6 -24   -0.28    0.46
   6  -6 -24    0.08    0.41
   5  -6 -24    1.12    0.41
  -5   6  24    0.11    0.34
   4  -6 -24    1.74    0.41
  -3  -6  24    1.14    0.34
   3  -6 -24    1.46    0.35
   3   6 -24    1.78    0.40
  -2  -6  24    2.63    0.41
   2  -6 -24    3.45    0.42
   2   6 -24    2.53    0.40
  -1  -6  24    1.41    0.35
   1   6 -24    1.93    0.38
   0  -6  24    3.75    0.44
   0   6 -24    2.38    0.44
   1  -6  24    0.54    0.33
  -1   6 -24    0.31    0.35
   2  -6  24   -0.41    0.28
  -2   6 -24   -0.37    0.36
   3  -6  24    0.71    0.36
  -3   6 -24    0.47    0.42
   4  -6  24    0.37    0.34
  -4   6 -24   -0.31    0.43
   5  -6  24    0.42    0.36
  -5  -6 -24    1.07    0.38
  -5   6 -24   -0.11    0.46
   6  -7 -24    1.38    0.50
   5  -7 -24    1.61    0.48
  -5   7  24    1.79    0.43
   4  -7 -24    2.04    0.45
  -4   7  24    1.84    0.43
   3  -7 -24    0.34    0.37
  -3  -7  24    0.21    0.34
  -2  -7  24    0.17    0.33
   2  -7 -24   -0.42    0.34
   1  -7 -24    0.59    0.37
  -1  -7  24   -0.22    0.32
   1   7 -24    0.16    0.36
   0  -7  24    0.55    0.36
   0   7 -24   -0.07    0.36
   1  -7  24    2.48    0.43
  -1   7 -24    3.09    0.48
   2  -7  24    2.52    0.46
  -2   7 -24    2.20    0.46
   3  -7  24    0.58    0.40
  -3   7 -24    0.28    0.40
   4  -7  24    0.78    0.42
  -4   7 -24    0.34    0.43
   5  -8 -24    0.28    0.47
  -5   8  24    0.08    0.39
  -4  -8  24    2.36    0.50
   4  -8 -24    2.20    0.49
  -4   8  24    1.64    0.46
  -3  -8  24    0.26    0.39
   3  -8 -24    0.48    0.43
   2  -8 -24    0.07    0.39
   1  -8 -24   -0.15    0.39
  -1  -8  24   -0.71    0.34
   0  -8  24   -0.01    0.38
   0   8 -24   -0.01    0.38
   1  -8  24   -0.07    0.38
  -1   8 -24    0.54    0.41
   2  -8  24    1.37    0.43
  -2   8 -24    0.84    0.45
   3  -8  24    0.60    0.43
  -3   8 -24   -0.09    0.41
  -2  -9  24   -0.20    0.41
   2  -9 -24    0.67    0.45
  -1  -9  24   -0.15    0.40
   1  -9 -24   -0.03    0.42
   0  -9  24    1.91    0.48
   9   0 -25    1.37    0.49
   8   0 -25    0.55    0.42
   7   0 -25    0.77    0.38
   6   0 -25    0.30    0.25
   6   0 -25    0.28    0.30
   5   0 -25   13.88    0.73
   5   0 -25   12.53    0.66
   5   0 -25   13.06    0.76
   4   0 -25    0.02    0.28
   4   0 -25    0.10    0.22
   4   0 -25    0.11    0.25
   3   0 -25    0.16    0.30
   3   0 -25    0.27    0.25
   3   0 -25    0.46    0.23
   2   0 -25   -0.08    0.27
   1   0 -25   16.05    0.77
   0   0 -25    0.42    0.26
  -1   0 -25    6.30    0.52
  -2   0 -25   -0.13    0.29
  -2   0 -25    0.07    0.22
   2   0  25    0.18    0.21
   3   0  25   10.96    0.55
  -3   0 -25   10.22    0.53
  -3   0 -25    8.65    0.67
   4   0  25    0.23    0.26
  -4   0 -25   -0.52    0.33
  -4   0 -25    0.25    0.27
  -5   0 -25    4.36    0.43
   5   0  25    4.41    0.44
  -6   0 -25   -0.05    0.34
   6   0  25    0.21    0.33
   7   0  25    0.51    0.37
  -7   0 -25    0.75    0.41
   9  -1 -25    0.72    0.49
   9   1 -25    0.65    0.47
   8  -1 -25    0.27    0.42
   8   1 -25    0.26    0.43
   7  -1 -25    0.37    0.39
   7   1 -25    0.92    0.40
   6  -1 -25    2.27    0.41
   6   1 -25    1.60    0.40
   6   1 -25    2.32    0.39
   6   1 -25    2.37    0.34
   5  -1 -25    6.15    0.49
   5   1 -25    5.92    0.55
   5   1 -25    5.88    0.49
   5   1 -25    6.39    0.48
   4  -1 -25   -0.16    0.29
   4  -1 -25    0.23    0.26
   4  -1 -25    0.13    0.23
   4   1 -25    0.34    0.27
   4   1 -25   -0.21    0.21
   4   1 -25    0.41    0.32
   3  -1 -25   16.93    0.70
   3  -1 -25   17.29    0.81
   3   1 -25   15.24    0.77
   3   1 -25   15.93    0.79
   3   1 -25   16.74    0.73
   2  -1 -25    0.01    0.27
   2   1 -25    0.03    0.28
   1  -1 -25    1.51    0.32
   1   1 -25    2.17    0.36
   0  -1 -25    8.11    0.54
   0   1 -25    8.40    0.57
   1  -1  25   -0.03    0.20
  -1  -1 -25    0.13    0.28
  -1   1 -25    0.13    0.28
   2  -1  25    0.64    0.24
  -2  -1 -25    0.50    0.29
  -2   1 -25    0.83    0.23
   2   1  25    0.62    0.23
  -2   1 -25    0.50    0.33
   3  -1  25   -0.19    0.22
  -3  -1 -25    0.41    0.25
  -3  -1 -25   -0.02    0.31
  -3   1 -25   -0.29    0.32
  -3   1 -25   -0.02    0.23
  -4  -1 -25   -0.06    0.25
   4  -1  25    0.08    0.25
  -4   1 -25   -0.46    0.34
  -4   1 -25   -0.10    0.25
   5  -1  25    0.99    0.32
  -5  -1 -25   -0.03    0.30
  -5   1 -25    1.02    0.43
  -5   1 -25    0.37    0.32
   6  -1  25    0.55    0.34
  -6  -1 -25    0.89    0.36
  -6   1 -25    0.09    0.33
  -6   1 -25    0.15    0.43
  -7  -1 -25    0.32    0.38
   7  -1  25    0.11    0.36
  -7   1 -25    0.18    0.40
   9  -2 -25    0.56    0.48
   9   2 -25   -0.34    0.45
   9   2 -25   -0.43    0.40
   8  -2 -25    0.32    0.43
   8   2 -25    0.78    0.43
   8   2 -25    0.29    0.43
   7  -2 -25    2.73    0.46
   7   2 -25    2.92    0.48
   7   2 -25    2.44    0.46
   6  -2 -25    2.38    0.41
   6   2 -25    2.29    0.41
   6   2 -25    2.83    0.36
   6   2 -25    1.97    0.44
   5  -2 -25    3.19    0.40
   5   2 -25    2.82    0.36
   5   2 -25    1.98    0.39
   5   2 -25    3.31    0.40
   4  -2 -25    0.66    0.29
   4   2 -25    0.65    0.29
   4   2 -25    0.48    0.29
   4   2 -25    0.44    0.25
   3  -2 -25    0.36    0.25
   3  -2 -25    0.56    0.28
   3   2 -25    0.22    0.28
   3   2 -25    0.57    0.25
   2  -2 -25    2.95    0.39
   2   2 -25    3.97    0.43
   1  -2 -25    9.11    0.59
   1   2 -25   10.11    0.61
   0  -2  25    0.14    0.22
   0  -2 -25    0.17    0.27
   0   2 -25    0.40    0.32
   1  -2  25    1.41    0.26
  -1  -2 -25    1.44    0.33
  -1   2 -25    0.96    0.35
   2  -2  25    0.97    0.27
  -2  -2 -25    0.85    0.32
  -2   2 -25    0.88    0.34
   3  -2  25    4.19    0.39
  -3   2 -25    3.87    0.50
  -3   2 -25    3.23    0.36
   4  -2  25    0.59    0.27
  -4   2 -25    0.88    0.32
  -4   2 -25    0.01    0.34
   5  -2  25    0.54    0.29
  -5  -2 -25    0.55    0.33
  -5   2 -25    0.34    0.33
  -5   2 -25    0.53    0.39
   6  -2  25    1.07    0.36
  -6  -2 -25    0.85    0.37
  -6   2 -25    0.59    0.37
  -6   2 -25    0.28    0.42
   7  -2  25    0.20    0.38
  -7  -2 -25    0.52    0.40
  -7   2 -25   -0.18    0.40
  -7   2 -25   -0.43    0.47
   9  -3 -25    0.50    0.48
   9   3 -25    0.08    0.48
   8  -3 -25    0.09    0.40
   8   3 -25    0.24    0.42
   7  -3 -25    0.57    0.40
   7   3 -25   -0.27    0.33
   6  -3 -25    6.27    0.54
   6   3 -25    5.61    0.48
   6   3 -25    5.58    0.53
   5  -3 -25    2.61    0.39
   5   3 -25    2.19    0.34
   5   3 -25    2.89    0.43
   4  -3 -25    5.77    0.47
   4   3 -25    6.44    0.52
   4   3 -25    5.61    0.47
   3  -3 -25    2.08    0.33
   3  -3 -25    1.87    0.33
   3   3 -25    2.60    0.38
   2  -3 -25    8.18    0.59
   2   3 -25    8.35    0.57
   1  -3 -25    7.36    0.53
   1   3 -25    7.15    0.55
   0  -3  25    7.42    0.47
   0  -3 -25    8.19    0.56
   0   3 -25    7.47    0.57
   1  -3  25    0.07    0.24
  -1   3 -25   -0.19    0.30
   2  -3  25    0.81    0.28
  -2   3 -25    0.41    0.37
  -3  -3 -25    1.41    0.32
   3  -3  25    1.81    0.33
  -3   3 -25    1.07    0.39
  -4  -3 -25    5.80    0.48
   4  -3  25    5.11    0.46
  -4   3 -25    5.00    0.45
  -4   3 -25    3.96    0.56
  -5  -3 -25    0.44    0.34
   5  -3  25    0.16    0.30
  -5   3 -25    0.14    0.44
  -5   3 -25    0.28    0.33
  -6  -3 -25    0.05    0.38
   6  -3  25   -0.05    0.31
  -6   3 -25   -0.15    0.47
  -6   3 -25    0.72    0.39
  -7  -3 -25   -0.08    0.42
   7  -3  25    0.09    0.38
  -7   3 -25   -0.38    0.36
  -7   3 -25   -1.28    0.46
   8  -4 -25   -0.39    0.44
   7  -4 -25    1.92    0.43
   6  -4 -25   -0.33    0.35
   6   4 -25    0.42    0.36
   5  -4 -25   -0.37    0.33
   5   4 -25    0.34    0.35
   5   4 -25    0.08    0.26
   4  -4 -25    0.72    0.30
   4   4 -25    0.37    0.26
   4   4 -25    0.63    0.35
   3  -4 -25    0.01    0.29
   3   4 -25   -0.19    0.30
   2  -4 -25    0.11    0.27
   2  -4 -25    0.35    0.30
   2   4 -25    0.85    0.34
  -1  -4  25    1.17    0.30
   1  -4 -25    0.71    0.31
   0  -4  25    0.34    0.27
   0   4 -25    0.29    0.34
   1  -4  25    0.32    0.27
  -1   4 -25    0.57    0.34
   2  -4  25    0.57    0.29
  -2   4 -25    0.26    0.34
   3  -4  25   -0.05    0.29
  -3   4 -25   -0.66    0.34
   4  -4  25    0.37    0.32
  -4  -4 -25    0.86    0.33
  -4   4 -25    0.00    0.42
  -5  -4 -25    1.76    0.40
   5  -4  25    1.39    0.38
  -5   4 -25    1.52    0.51
  -5   4 -25    2.30    0.40
   6  -4  25    0.73    0.39
  -6  -4 -25    0.52    0.39
  -6   4 -25    0.82    0.38
  -6   4 -25    0.17    0.50
   8  -5 -25    0.57    0.50
   7  -5 -25    3.07    0.54
   6  -5 -25    2.16    0.46
   5  -5 -25    2.19    0.41
   5   5 -25    3.65    0.46
   4  -5 -25    0.63    0.34
   4   5 -25    0.24    0.35
   3  -5 -25    2.03    0.36
   3   5 -25    1.21    0.37
   2  -5 -25    0.59    0.32
  -2  -5  25    0.14    0.28
   2   5 -25    0.19    0.31
  -1  -5  25   -0.01    0.28
   1   5 -25   -0.31    0.31
   0  -5  25    1.98    0.35
   0   5 -25    1.34    0.39
   1  -5  25    4.07    0.42
  -1   5 -25    3.75    0.48
   2  -5  25    1.48    0.36
  -2   5 -25    1.11    0.43
   3  -5  25    1.43    0.37
  -3   5 -25    1.57    0.43
   4  -5  25    0.58    0.36
  -4   5 -25    0.14    0.40
   5  -5  25    0.69    0.39
  -5  -5 -25    0.57    0.37
  -5   5 -25   -0.01    0.48
   6  -5  25   -0.22    0.35
  -6  -5 -25   -0.11    0.37
  -6   5 -25   -0.23    0.51
  -6   5 -25    0.13    0.38
   7  -6 -25    2.82    0.51
   6  -6 -25    0.59    0.44
   5  -6 -25    4.67    0.53
   4  -6 -25   -0.05    0.37
   3  -6 -25   -0.04    0.34
   3   6 -25    0.19    0.35
   2  -6 -25    1.19    0.38
  -2  -6  25    0.11    0.31
   2   6 -25    0.19    0.35
  -1  -6  25    8.03    0.58
   1   6 -25    7.04    0.59
   0  -6  25    1.47    0.37
   0   6 -25    0.69    0.39
   1  -6  25    3.55    0.45
  -1   6 -25    3.16    0.49
   2  -6  25   -0.18    0.33
  -2   6 -25   -0.21    0.38
   3  -6  25    0.08    0.32
  -3   6 -25    0.16    0.39
   4  -6  25    0.08    0.37
  -4   6 -25   -0.21    0.41
   5  -6  25   -0.36    0.33
  -5   6 -25   -0.03    0.48
   6  -7 -25    0.15    0.42
   5  -7 -25   -0.36    0.41
  -5   7  25    0.42    0.39
   4  -7 -25    0.47    0.41
  -4   7  25   -0.03    0.36
  -3  -7  25   -0.68    0.31
   3  -7 -25    0.62    0.39
   2  -7 -25    0.16    0.37
  -2  -7  25   -0.49    0.32
   2   7 -25    0.19    0.37
  -1  -7  25    0.97    0.37
   1   7 -25    0.72    0.37
   0  -7  25    0.47    0.36
   0   7 -25    0.05    0.38
   1  -7  25    2.38    0.45
  -1   7 -25    3.77    0.50
   2  -7  25    0.18    0.38
  -2   7 -25   -0.19    0.41
   3  -7  25    1.07    0.42
  -3   7 -25    0.59    0.46
   4  -7  25    0.08    0.39
  -4   7 -25   -0.13    0.46
   4  -8 -25    0.39    0.44
  -4   8  25   -0.35    0.39
   3  -8 -25    0.53    0.42
  -3  -8  25   -0.18    0.38
  -2  -8  25    3.57    0.51
   2  -8 -25    4.36    0.54
  -1  -8  25    0.22    0.39
   0  -8  25    0.05    0.39
   0   8 -25   -0.36    0.38
   1  -8  25    0.23    0.40
  -1   8 -25    0.36    0.43
   2  -8  25    0.66    0.43
  -2   8 -25    0.44    0.45
   9   0 -26   -0.09    0.42
   8   0 -26    0.88    0.44
   7   0 -26    0.17    0.37
   6   0 -26    2.98    0.38
   6   0 -26    2.58    0.41
   5   0 -26   -0.04    0.25
   5   0 -26    0.39    0.34
   5   0 -26    0.24    0.29
   4   0 -26    0.20    0.30
   4   0 -26   -0.12    0.24
   4   0 -26    0.41    0.27
   3   0 -26   -0.38    0.29
   2   0 -26   36.18    1.39
   1   0 -26    0.39    0.30
   0   0 -26   13.44    0.70
  -1   0 -26   -0.12    0.28
   2   0  26    1.63    0.28
  -2   0 -26    2.26    0.37
  -2   0 -26    2.06    0.28
  -3   0 -26   -0.15    0.33
  -3   0 -26    0.11    0.25
   3   0  26    0.11    0.23
  -4   0 -26   -0.20    0.26
  -4   0 -26   -0.13    0.36
   4   0  26    0.43    0.27
   5   0  26    0.11    0.30
  -5   0 -26    0.26    0.30
   6   0  26    1.19    0.35
  -6   0 -26    0.82    0.37
  -7   0 -26    0.45    0.40
   7   0  26    0.39    0.37
   9  -1 -26    0.76    0.45
   9   1 -26   -0.40    0.44
   8  -1 -26    2.04    0.46
   8   1 -26    1.82    0.48
   7  -1 -26    1.72    0.43
   7   1 -26    0.95    0.41
   7   1 -26    1.83    0.43
   6  -1 -26    3.96    0.47
   6   1 -26    3.59    0.47
   6   1 -26    5.04    0.45
   6   1 -26    3.61    0.50
   5  -1 -26    1.02    0.30
   5   1 -26    0.65    0.37
   5   1 -26    0.79    0.32
   5   1 -26    0.54    0.27
   4  -1 -26    1.26    0.34
   4  -1 -26    1.52    0.31
   4  -1 -26    1.73    0.32
   4   1 -26    1.59    0.29
   4   1 -26    1.74    0.36
   4   1 -26    1.98    0.33
   3  -1 -26    7.20    0.44
   3  -1 -26    6.38    0.54
   3   1 -26    6.48    0.53
   2  -1 -26    2.70    0.39
   2   1 -26    3.83    0.42
   1  -1 -26    6.78    0.51
   1   1 -26    7.76    0.56
   0  -1 -26    1.47    0.32
   0   1 -26    2.32    0.38
   1  -1  26   -0.08    0.21
  -1  -1 -26   -0.30    0.25
  -1   1 -26    0.01    0.29
  -2  -1 -26    0.03    0.28
   2  -1  26    0.05    0.22
  -2   1 -26    0.10    0.31
  -3  -1 -26    2.68    0.34
   3  -1  26    2.52    0.32
  -3  -1 -26    2.86    0.43
  -3   1 -26    1.82    0.40
  -3   1 -26    1.96    0.32
   3   1  26    2.22    0.31
   4  -1  26    0.32    0.26
  -4  -1 -26    0.26    0.28
  -4   1 -26   -0.05    0.28
  -4   1 -26   -0.49    0.35
  -5  -1 -26    0.51    0.32
   5  -1  26    0.01    0.29
  -5   1 -26   -0.66    0.37
  -5   1 -26    0.20    0.32
  -6  -1 -26    0.25    0.35
   6  -1  26    0.32    0.34
  -6   1 -26    0.88    0.36
  -6   1 -26   -0.06    0.43
  -7  -1 -26   -0.41    0.37
   7  -1  26    0.15    0.36
  -7   1 -26   -0.34    0.38
   9  -2 -26    0.58    0.48
   9   2 -26    0.57    0.50
   9   2 -26   -0.43    0.42
   8  -2 -26    2.11    0.46
   8   2 -26    1.59    0.47
   8   2 -26    1.43    0.46
   7  -2 -26    0.35    0.39
   7   2 -26    0.48    0.41
   7   2 -26    0.28    0.39
   6  -2 -26    4.64    0.48
   6   2 -26    3.10    0.38
   6   2 -26    3.67    0.47
   6   2 -26    4.10    0.51
   5  -2 -26    1.54    0.35
   5   2 -26    1.44    0.31
   5   2 -26    1.01    0.34
   5   2 -26    1.43    0.39
   4  -2 -26    1.04    0.31
   4   2 -26    1.58    0.38
   4   2 -26    1.11    0.28
   4   2 -26    1.84    0.35
   3  -2 -26    0.59    0.27
   3  -2 -26    1.06    0.35
   3   2 -26    0.99    0.33
   2  -2 -26    1.10    0.33
   2   2 -26    1.57    0.37
   1  -2 -26    2.46    0.37
   1   2 -26    2.85    0.40
   0  -2 -26    0.46    0.28
   0   2 -26    0.15    0.30
   1  -2  26    1.17    0.27
  -1  -2 -26    1.39    0.32
  -1   2 -26    1.57    0.39
   2  -2  26    5.58    0.43
  -2   2 -26    6.25    0.57
   3  -2  26    4.89    0.42
  -3   2 -26    3.89    0.53
   4  -2  26    4.94    0.44
  -4   2 -26    3.37    0.54
  -4   2 -26    5.38    0.46
   5  -2  26   -0.11    0.28
  -5  -2 -26    0.29    0.33
  -5   2 -26   -0.83    0.39
  -5   2 -26   -0.48    0.32
   6  -2  26    0.10    0.33
  -6  -2 -26    0.05    0.35
  -6   2 -26   -0.50    0.45
  -6   2 -26   -0.45    0.34
  -7  -2 -26    0.52    0.40
   7  -2  26    0.50    0.39
  -7   2 -26    0.81    0.43
   8  -3 -26    0.91    0.46
   8   3 -26    1.73    0.48
   7  -3 -26    0.44    0.41
   7   3 -26    0.74    0.42
   7   3 -26    0.32    0.39
   6  -3 -26    0.51    0.36
   6   3 -26    0.49    0.37
   5  -3 -26    9.04    0.59
   5   3 -26    9.40    0.68
   5   3 -26    9.01    0.58
   4  -3 -26    0.56    0.30
   4   3 -26    0.15    0.33
   4   3 -26    0.30    0.26
   3  -3 -26    0.12    0.30
   3  -3 -26    0.82    0.30
   3   3 -26    0.06    0.30
   2  -3 -26    0.67    0.30
   2   3 -26    0.71    0.34
   1  -3 -26    5.89    0.47
   1   3 -26    5.68    0.51
   0  -3 -26    0.27    0.29
   0  -3  26    0.07    0.24
   0   3 -26    0.45    0.34
   1  -3  26   12.35    0.61
  -1   3 -26   11.70    0.76
   2  -3  26   -0.21    0.25
  -2   3 -26   -0.44    0.36
   3  -3  26    4.35    0.42
  -3   3 -26    3.47    0.51
  -4  -3 -26    0.07    0.33
   4  -3  26    0.56    0.30
  -4   3 -26    0.20    0.40
   5  -3  26    1.20    0.36
  -5  -3 -26    1.22    0.38
  -5   3 -26    0.68    0.45
  -5   3 -26    0.93    0.37
   6  -3  26    0.63    0.37
  -6  -3 -26    0.42    0.40
  -6   3 -26    0.22    0.38
  -6   3 -26    0.58    0.46
   8  -4 -26    1.77    0.51
   7  -4 -26   -0.12    0.40
   6  -4 -26    0.50    0.39
   6   4 -26    0.63    0.39
   5  -4 -26    0.78    0.37
   5   4 -26    0.81    0.30
   5   4 -26    1.66    0.40
   4  -4 -26    2.87    0.40
   4   4 -26    3.01    0.39
   4   4 -26    3.43    0.44
   3  -4 -26    0.34    0.30
   3  -4 -26    0.25    0.29
   3   4 -26    0.15    0.34
   2  -4 -26   18.13    0.91
   2   4 -26   20.49    0.97
   1  -4 -26   -0.47    0.27
  -1  -4  26   -0.02    0.25
   1   4 -26   -0.29    0.32
   0  -4  26    4.29    0.41
   0   4 -26    4.53    0.48
   1  -4  26    0.19    0.28
  -1   4 -26    0.37    0.35
   2  -4  26    1.03    0.32
  -2   4 -26    0.52    0.40
   3  -4  26   -0.11    0.29
  -3   4 -26   -0.23    0.41
   4  -4  26    1.42    0.37
  -4   4 -26    1.10    0.46
  -5  -4 -26   -0.26    0.34
   5  -4  26   -0.07    0.32
  -5   4 -26   -0.40    0.46
   6  -4  26    0.04    0.34
  -6  -4 -26   -0.26    0.37
  -6   4 -26   -0.04    0.51
  -6   4 -26   -0.05    0.38
   7  -5 -26    0.49    0.46
   6  -5 -26    0.38    0.41
   5  -5 -26    0.61    0.36
   5   5 -26    0.13    0.37
   4  -5 -26    0.89    0.36
   4   5 -26    0.88    0.39
   3  -5 -26    1.61    0.36
   3   5 -26    1.12    0.38
   2  -5 -26    7.41    0.53
   2   5 -26    6.68    0.56
  -1  -5  26    8.24    0.56
   1   5 -26    9.44    0.65
   0  -5  26    0.54    0.31
   0   5 -26   -0.07    0.32
   1  -5  26    0.57    0.32
  -1   5 -26    0.38    0.35
   2  -5  26    2.72    0.41
  -2   5 -26    1.72    0.47
   3  -5  26    0.77    0.35
  -3   5 -26    0.84    0.43
   4  -5  26    2.18    0.42
  -4   5 -26    1.04    0.50
   5  -5  26    0.50    0.37
  -5  -5 -26   -0.16    0.34
  -5   5 -26   -0.79    0.42
   7  -6 -26    0.09    0.47
   6  -6 -26    3.05    0.52
   5  -6 -26    0.21    0.39
   4  -6 -26    2.64    0.45
   3  -6 -26    0.11    0.35
   3   6 -26    0.05    0.36
   2  -6 -26    1.82    0.39
  -2  -6  26    1.76    0.38
   2   6 -26    2.04    0.42
  -1  -6  26   -0.23    0.30
   1   6 -26   -0.11    0.36
   0  -6  26   -0.23    0.32
   0   6 -26   -0.31    0.37
   1  -6  26    0.16    0.33
  -1   6 -26    0.04    0.39
   2  -6  26    1.17    0.39
  -2   6 -26    0.45    0.41
   3  -6  26   -0.01    0.35
  -3   6 -26   -0.69    0.36
   4  -6  26    0.80    0.40
  -4   6 -26    0.58    0.50
   5  -7 -26    0.53    0.44
   4  -7 -26    0.48    0.41
  -4   7  26    0.38    0.39
   3  -7 -26    1.97    0.44
  -3  -7  26    1.75    0.42
  -2  -7  26    0.05    0.35
   2  -7 -26    0.29    0.37
   2   7 -26    0.22    0.38
  -1  -7  26   -0.02    0.35
   1   7 -26   -0.28    0.34
   0  -7  26   -0.06    0.36
   0   7 -26    0.24    0.39
   1  -7  26    0.27    0.38
  -1   7 -26    0.91    0.43
   2  -7  26   -0.20    0.36
  -2   7 -26   -0.04    0.42
   3  -7  26    0.08    0.39
  -3   7 -26    0.03    0.41
   4  -8 -26   -0.13    0.43
  -4   8  26    0.49    0.43
   3  -8 -26    0.43    0.43
  -3  -8  26    0.43    0.40
  -2  -8  26    0.76    0.42
   2  -8 -26    1.87    0.48
  -1  -8  26    0.84    0.42
   0  -8  26    0.37    0.40
   0   8 -26    0.80    0.43
   1  -8  26    0.23    0.42
  -1   8 -26   -0.59    0.37
   9   0 -27    1.02    0.50
   8   0 -27    0.11    0.42
   7   0 -27    1.88    0.43
   6   0 -27    0.04    0.27
   6   0 -27    0.36    0.34
   6   0 -27    0.25    0.34
   5   0 -27    2.06    0.36
   5   0 -27    2.04    0.35
   5   0 -27    1.14    0.37
   4   0 -27    0.09    0.29
   4   0 -27   -0.17    0.23
   4   0 -27    0.11    0.34
   3   0 -27    0.11    0.30
   2   0 -27    0.50    0.28
   1   0 -27    0.89    0.33
   0   0 -27   -0.15    0.30
  -1   0 -27    3.00    0.44
  -2   0 -27   -0.12    0.23
   2   0  27   -0.02    0.21
  -2   0 -27   -0.16    0.30
  -3   0 -27    3.16    0.48
  -3   0 -27    3.45    0.36
   3   0  27    2.47    0.33
  -4   0 -27    0.38    0.29
  -4   0 -27   -0.46    0.36
   4   0  27    0.17    0.27
  -5   0 -27    0.65    0.33
   5   0  27    0.23    0.28
  -6   0 -27    0.31    0.35
   6   0  27   -0.07    0.33
   9  -1 -27    0.51    0.48
   9   1 -27   -0.19    0.46
   8  -1 -27    2.18    0.49
   8   1 -27    1.05    0.46
   8   1 -27    1.00    0.45
   7  -1 -27    0.25    0.35
   7   1 -27   -0.18    0.39
   7   1 -27   -0.40    0.37
   6  -1 -27    1.64    0.39
   6   1 -27    0.17    0.40
   6   1 -27    0.88    0.29
   6   1 -27    1.16    0.38
   5  -1 -27    0.60    0.32
   5  -1 -27    1.38    0.36
   5   1 -27    0.85    0.30
   5   1 -27    1.53    0.36
   5   1 -27    0.82    0.39
   4  -1 -27    4.06    0.43
   4  -1 -27    3.79    0.39
   4  -1 -27    3.49    0.46
   4   1 -27    3.06    0.43
   4   1 -27    3.65    0.40
   4   1 -27    3.47    0.39
   3  -1 -27    2.73    0.42
   3   1 -27    1.90    0.37
   2  -1 -27    8.04    0.59
   2   1 -27    8.91    0.59
   1  -1 -27   -0.09    0.29
   1   1 -27    0.39    0.31
   0  -1 -27    0.33    0.28
   0   1 -27   -0.11    0.28
  -1  -1 -27    0.30    0.32
  -1   1 -27    0.22    0.31
   2  -1  27    3.46    0.36
  -2  -1 -27    3.70    0.45
  -2   1 -27    3.95    0.49
  -3  -1 -27    3.52    0.47
   3  -1  27    3.65    0.38
  -3   1 -27    3.40    0.36
   3   1  27    2.75    0.34
  -3   1 -27    3.37    0.50
  -4  -1 -27    1.03    0.31
   4  -1  27    0.36    0.28
  -4   1 -27    0.54    0.41
  -4   1 -27    1.35    0.33
   4   1  27    0.89    0.30
  -5  -1 -27    1.91    0.37
   5  -1  27    1.59    0.34
  -5   1 -27    1.39    0.45
  -5   1 -27    1.74    0.36
  -6  -1 -27    0.85    0.36
   6  -1  27   -0.06    0.33
  -6   1 -27    0.50    0.37
   8  -2 -27    0.34    0.43
   8   2 -27    0.19    0.41
   8   2 -27    0.07    0.39
   7  -2 -27    0.43    0.39
   7   2 -27    0.60    0.42
   7   2 -27    0.59    0.39
   6  -2 -27    0.50    0.36
   6   2 -27    1.20    0.38
   6   2 -27    0.79    0.40
   5  -2 -27    4.80    0.46
   5   2 -27    4.82    0.52
   5   2 -27    5.47    0.48
   5   2 -27    4.76    0.45
   4  -2 -27    0.09    0.30
   4  -2 -27    0.40    0.29
   4   2 -27    0.37    0.26
   4   2 -27    0.42    0.32
   4   2 -27    0.46    0.30
   3  -2 -27   21.94    1.02
   3   2 -27   24.24    1.06
   2  -2 -27    2.04    0.38
   2   2 -27    3.69    0.45
   1  -2 -27    3.44    0.42
   1   2 -27    4.37    0.45
   0  -2 -27    0.28    0.31
   0   2 -27   -0.06    0.31
  -1  -2 -27    0.06    0.31
   1  -2  27   -0.03    0.23
  -1   2 -27   -0.05    0.34
   2  -2  27    0.04    0.24
  -2   2 -27    0.13    0.34
   3  -2  27    0.28    0.27
  -3   2 -27    0.15    0.37
   4  -2  27    0.43    0.27
  -4   2 -27    0.22    0.30
  -4   2 -27   -0.40    0.40
   5  -2  27    1.42    0.36
  -5   2 -27    0.59    0.47
  -5   2 -27    1.81    0.39
  -6  -2 -27    0.04    0.36
   6  -2  27    0.29    0.36
  -6   2 -27   -0.21    0.48
  -6   2 -27    0.12    0.37
   8  -3 -27   -0.34    0.43
   8   3 -27   -0.60    0.40
   8   3 -27    0.93    0.47
   7  -3 -27   -0.21    0.39
   7   3 -27    0.02    0.38
   7   3 -27   -0.06    0.39
   6  -3 -27    0.11    0.37
   6   3 -27   -0.09    0.35
   6   3 -27    0.11    0.34
   5  -3 -27   -0.07    0.32
   5   3 -27   -0.21    0.31
   5   3 -27    0.07    0.28
   4  -3 -27    0.53    0.31
   4   3 -27    0.47    0.36
   4   3 -27    0.55    0.27
   3  -3 -27    0.17    0.33
   3  -3 -27    0.50    0.30
   3   3 -27    0.62    0.33
   2  -3 -27    1.22    0.36
   2   3 -27    1.91    0.39
   1  -3 -27    2.50    0.38
   1   3 -27    3.10    0.44
   0  -3  27    0.15    0.26
   0  -3 -27    0.70    0.32
   0   3 -27    0.29    0.34
   1  -3  27    3.78    0.38
  -1   3 -27    3.79    0.48
   2  -3  27    1.72    0.33
  -2   3 -27    1.53    0.42
   3  -3  27    0.66    0.30
  -3   3 -27   -0.39    0.37
  -4  -3 -27    2.53    0.41
   4  -3  27    2.29    0.39
  -4   3 -27    2.14    0.50
   5  -3  27    0.63    0.34
  -5  -3 -27    0.64    0.38
  -5   3 -27    0.10    0.35
  -5   3 -27    0.25    0.45
   6  -3  27    0.23    0.37
  -6  -3 -27    0.11    0.41
  -6   3 -27   -0.11    0.50
  -6   3 -27   -0.36    0.38
   8  -4 -27    0.22    0.47
   7  -4 -27    6.62    0.63
   6  -4 -27   -0.11    0.38
   6   4 -27    0.06    0.38
   5  -4 -27    0.42    0.36
   5   4 -27    0.39    0.38
   4  -4 -27    0.94    0.36
   4   4 -27    1.15    0.39
   3  -4 -27    0.60    0.31
   3  -4 -27    0.29    0.30
   3   4 -27    0.22    0.36
   2  -4 -27    0.31    0.30
   2   4 -27    0.75    0.35
   1   4 -27    0.71    0.37
   0  -4  27    0.41    0.29
   0   4 -27    0.54    0.34
   1  -4  27    3.86    0.43
  -1   4 -27    3.86    0.51
   2  -4  27    0.13    0.27
  -2   4 -27   -0.83    0.36
   3  -4  27    1.23    0.35
  -3   4 -27    1.16    0.48
   4  -4  27    0.29    0.34
  -4   4 -27   -0.16    0.41
  -5  -4 -27    0.23    0.36
   5  -4  27   -0.04    0.35
  -5   4 -27    0.20    0.46
   7  -5 -27    0.35    0.46
   6  -5 -27    0.22    0.42
   5  -5 -27    0.41    0.38
   5   5 -27    0.88    0.39
   4  -5 -27    5.94    0.52
   4   5 -27    5.53    0.56
   3  -5 -27    2.61    0.40
   3  -5 -27    1.02    0.36
   3   5 -27    2.69    0.45
   2   5 -27    0.34    0.33
  -1  -5  27    2.19    0.38
   1   5 -27    1.87    0.40
   0  -5  27   -0.01    0.30
   0   5 -27    0.36    0.38
   1  -5  27    1.21    0.35
  -1   5 -27    1.26    0.44
   2  -5  27    1.44    0.36
  -2   5 -27    0.83    0.44
   3  -5  27    0.72    0.36
  -3   5 -27    0.23    0.42
   4  -5  27    0.62    0.37
  -4   5 -27   -0.18    0.46
   5  -5  27    0.85    0.38
  -5   5 -27   -0.53    0.50
   6  -6 -27   -0.19    0.42
   5  -6 -27    1.39    0.44
   4  -6 -27    1.08    0.41
   3  -6 -27    3.50    0.47
   3   6 -27    3.75    0.50
  -2  -6  27    0.28    0.34
   2   6 -27    0.22    0.38
  -1  -6  27    1.87    0.39
   1   6 -27    1.17    0.41
   0  -6  27    0.03    0.34
   0   6 -27    0.27    0.40
   1  -6  27    0.42    0.33
  -1   6 -27   -0.85    0.36
   2  -6  27    0.72    0.37
  -2   6 -27   -0.33    0.37
   3  -6  27    0.34    0.37
  -3   6 -27   -0.20    0.44
   4  -6  27   -0.06    0.39
  -4   6 -27   -0.17    0.47
   5  -7 -27    1.05    0.47
   4  -7 -27    1.27    0.43
  -4   7  27    0.53    0.42
   3  -7 -27    0.13    0.38
  -2  -7  27    2.01    0.44
   2   7 -27    2.29    0.47
  -1  -7  27   -0.36    0.34
   1   7 -27    0.10    0.39
   0  -7  27   -0.01    0.36
   0   7 -27    0.51    0.41
   1  -7  27    2.29    0.46
  -1   7 -27    2.50    0.51
   2  -7  27    1.79    0.45
  -2   7 -27    0.96    0.44
   3  -7  27   -0.02    0.40
  -3   7 -27   -0.04    0.45
  -3  -8  27    0.71    0.45
   3  -8 -27    0.36    0.43
  -2  -8  27    0.60    0.42
  -1  -8  27   -0.92    0.36
   0  -8  27    0.45    0.41
   0   8 -27    0.35    0.43
   8   0 -28    1.44    0.46
   7   0 -28   -0.64    0.39
   7   0 -28    0.48    0.38
   6   0 -28    2.36    0.46
   6   0 -28    3.77    0.45
   5   0 -28   -0.10    0.30
   5   0 -28   -0.13    0.35
   5   0 -28   -0.53    0.25
   4   0 -28   12.15    0.79
   4   0 -28   13.10    0.65
   4   0 -28   14.15    0.76
   3   0 -28    0.48    0.31
   2   0 -28    0.76    0.34
   1   0 -28    0.39    0.30
   0   0 -28    8.13    0.61
  -1   0 -28   -0.09    0.30
  -2   0 -28    1.19    0.36
   3   0  28   -0.24    0.25
  -3   0 -28   -0.20    0.37
  -3   0 -28    0.34    0.27
  -4   0 -28    0.63    0.42
  -4   0 -28    0.67    0.31
   4   0  28    0.69    0.31
   5   0  28   -0.08    0.29
  -5   0 -28   -0.36    0.31
   6   0  28    0.54    0.33
  -6   0 -28    0.19    0.36
   8  -1 -28    0.21    0.43
   8   1 -28    0.21    0.42
   8   1 -28   -0.35    0.44
   7  -1 -28    1.13    0.41
   7   1 -28    1.16    0.43
   7   1 -28    0.72    0.40
   6  -1 -28    1.13    0.38
   6   1 -28    1.55    0.46
   6   1 -28    0.61    0.37
   5  -1 -28    0.10    0.31
   5  -1 -28    0.42    0.37
   5   1 -28    0.41    0.32
   5   1 -28   -0.29    0.36
   5   1 -28    0.27    0.27
   4  -1 -28    0.41    0.34
   4  -1 -28    0.25    0.29
   4   1 -28    0.32    0.29
   4   1 -28    0.43    0.26
   4   1 -28    0.46    0.33
   3  -1 -28    2.53    0.41
   3   1 -28    2.80    0.43
   2  -1 -28    0.58    0.31
   2   1 -28    1.19    0.36
   1  -1 -28    2.85    0.40
   1   1 -28    3.00    0.42
   0  -1 -28    1.56    0.35
   0   1 -28    2.01    0.40
  -1  -1 -28    2.74    0.42
  -1   1 -28    2.20    0.42
  -2  -1 -28   10.60    0.71
   2  -1  28    9.46    0.53
  -2   1 -28   11.47    0.74
   3  -1  28    2.53    0.35
  -3  -1 -28    2.46    0.46
  -3   1 -28    2.23    0.45
   3   1  28    3.10    0.36
  -4  -1 -28    0.16    0.30
   4  -1  28   -0.16    0.27
  -4   1 -28   -0.05    0.29
   4   1  28    0.36    0.28
  -4   1 -28   -0.18    0.41
  -5  -1 -28    0.24    0.32
   5  -1  28   -0.22    0.30
  -5   1 -28    0.14    0.33
  -5   1 -28    0.01    0.44
   5   1  28   -0.04    0.31
   6  -1  28    0.44    0.35
  -6  -1 -28    0.18    0.35
   6   1  28    0.86    0.36
  -6   1 -28    0.15    0.37
   8  -2 -28    2.50    0.47
   8   2 -28    1.55    0.51
   8   2 -28    1.53    0.49
   7  -2 -28    0.88    0.38
   7   2 -28    1.13    0.45
   7   2 -28    1.11    0.43
   6  -2 -28    0.06    0.35
   6   2 -28    0.33    0.36
   6   2 -28   -0.35    0.35
   5  -2 -28    0.18    0.31
   5   2 -28    0.27    0.32
   5   2 -28    0.47    0.28
   5   2 -28   -0.03    0.33
   4  -2 -28   -0.02    0.34
   4  -2 -28    0.68    0.31
   4   2 -28    0.16    0.32
   3  -2 -28    0.51    0.35
   3   2 -28    0.55    0.36
   2  -2 -28    4.27    0.44
   2   2 -28    3.92    0.46
   1  -2 -28   -0.11    0.28
   1   2 -28    0.25    0.31
   0  -2 -28    0.25    0.31
   0   2 -28    0.37    0.35
   1  -2  28    0.27    0.27
  -1  -2 -28    0.29    0.33
  -1   2 -28    0.54    0.37
   2  -2  28    4.03    0.39
  -2   2 -28    3.58    0.51
   3  -2  28    1.05    0.30
  -3   2 -28    1.00    0.44
   4  -2  28    0.34    0.29
  -4   2 -28   -0.25    0.38
   5  -2  28    0.33    0.34
  -5   2 -28    0.86    0.36
  -5   2 -28   -0.77    0.45
   6  -2  28    0.52    0.38
  -6   2 -28    0.29    0.51
  -6   2 -28    0.63    0.40
   8  -3 -28    0.34    0.45
   8   3 -28   -0.38    0.41
   8   3 -28   -0.17    0.44
   7  -3 -28   -0.46    0.39
   7   3 -28    0.22    0.41
   7   3 -28    0.43    0.43
   6  -3 -28    1.08    0.39
   6   3 -28    0.68    0.40
   6   3 -28    0.34    0.37
   5  -3 -28    2.96    0.43
   5   3 -28    2.97    0.41
   5   3 -28    3.63    0.49
   5   3 -28    2.57    0.43
   4  -3 -28    1.26    0.36
   4  -3 -28    1.55    0.36
   4   3 -28    1.34    0.41
   3  -3 -28    7.15    0.59
   3   3 -28    8.74    0.67
   2  -3 -28    3.67    0.46
   2   3 -28    5.48    0.51
   1  -3 -28    1.18    0.35
   1   3 -28    1.21    0.37
   0  -3 -28    0.49    0.33
   0   3 -28    1.02    0.39
   1  -3  28    1.24    0.31
  -1   3 -28    1.03    0.38
   2  -3  28    1.02    0.32
  -2   3 -28    1.04    0.44
   3  -3  28    0.93    0.32
  -3   3 -28    0.52    0.45
   4  -3  28    0.67    0.33
  -4   3 -28   -0.71    0.39
   5  -3  28    0.75    0.36
  -5   3 -28   -0.29    0.48
   7  -4 -28    0.38    0.44
   6  -4 -28    1.04    0.42
   6   4 -28    1.05    0.43
   5  -4 -28    0.85    0.38
   5   4 -28    1.02    0.42
   4  -4 -28    4.11    0.46
   4   4 -28    4.99    0.53
   3  -4 -28    1.25    0.39
   3  -4 -28    1.04    0.34
   3   4 -28    1.32    0.41
   2  -4 -28    3.31    0.45
   2   4 -28    3.02    0.43
   1   4 -28    0.27    0.36
   0  -4  28    0.44    0.30
   0   4 -28    0.74    0.38
   1  -4  28    0.65    0.32
  -1   4 -28   -0.08    0.35
   2  -4  28    3.21    0.40
  -2   4 -28    3.37    0.52
   3  -4  28    0.35    0.32
  -3   4 -28   -0.03    0.40
   4  -4  28    0.18    0.33
  -4   4 -28    0.04    0.44
   5  -4  28    0.41    0.36
  -5  -4 -28    0.72    0.39
  -5   4 -28   -0.58    0.45
   7  -5 -28    1.15    0.48
   6  -5 -28    0.58    0.43
   5  -5 -28    0.39    0.39
   5   5 -28    0.54    0.40
   4  -5 -28    1.30    0.40
   4   5 -28    0.80    0.40
   3  -5 -28    4.60    0.47
   3  -5 -28    3.52    0.48
   3   5 -28    4.61    0.52
   2   5 -28    2.23    0.44
  -1  -5  28    0.20    0.31
   1   5 -28    0.14    0.37
   0  -5  28    2.25    0.39
   0   5 -28    2.88    0.46
   1  -5  28    1.70    0.37
  -1   5 -28    1.54    0.45
   2  -5  28    0.41    0.34
  -2   5 -28   -0.64    0.39
   3  -5  28    1.39    0.39
  -3   5 -28    0.48    0.45
   4  -5  28    1.24    0.39
  -4   5 -28    0.44    0.47
   6  -6 -28    0.26    0.43
   5  -6 -28    0.23    0.41
   4  -6 -28    0.91    0.40
   3  -6 -28   -0.23    0.35
   3   6 -28    0.58    0.39
   2   6 -28    0.82    0.39
  -1  -6  28   -0.53    0.31
   1   6 -28   -0.51    0.37
   0  -6  28    1.35    0.40
   0   6 -28    1.02    0.41
   1  -6  28    0.93    0.38
  -1   6 -28    0.21    0.40
   2  -6  28    0.04    0.33
  -2   6 -28   -0.53    0.37
   3  -6  28    0.17    0.38
  -3   6 -28    0.56    0.49
   4  -7 -28    2.86    0.49
  -4   7  28    3.14    0.52
   3  -7 -28    0.29    0.40
  -2  -7  28    0.26    0.37
   2   7 -28    0.53    0.41
  -1  -7  28   -0.19    0.35
   1   7 -28   -0.34    0.40
   0  -7  28    0.03    0.38
   0   7 -28   -0.24    0.41
   1  -7  28   -0.42    0.37
  -1   7 -28   -0.11    0.43
   2  -7  28    0.19    0.40
  -2   7 -28   -0.12    0.42
   8   0 -29   -0.40    0.44
   8   0 -29    0.54    0.44
   7   0 -29    0.29    0.35
   7   0 -29   -0.37    0.41
   6   0 -29   -0.30    0.35
   6   0 -29    0.36    0.35
   5   0 -29    4.87    0.55
   5   0 -29    5.55    0.51
   5   0 -29    6.54    0.51
   4   0 -29    0.09    0.35
   3   0 -29   11.43    0.69
   2   0 -29    0.25    0.31
   1   0 -29    0.24    0.31
   0   0 -29    0.62    0.35
  -1   0 -29    6.34    0.57
  -2   0 -29    0.07    0.33
  -3   0 -29    2.34    0.34
   3   0  29    2.33    0.34
  -3   0 -29    2.32    0.47
  -4   0 -29    0.03    0.40
  -4   0 -29   -0.08    0.30
   4   0  29   -0.11    0.27
   5   0  29    2.41    0.40
  -5   0 -29    2.29    0.41
   6   0  29   -0.07    0.35
  -6   0 -29    0.37    0.37
   8  -1 -29   -0.21    0.41
   8   1 -29    0.77    0.49
   8   1 -29    0.29    0.43
   7  -1 -29    1.09    0.42
   7   1 -29    0.55    0.40
   7   1 -29    0.64    0.46
   6  -1 -29    1.12    0.39
   6  -1 -29    1.04    0.40
   6   1 -29    1.39    0.47
   6   1 -29    1.19    0.40
   5  -1 -29   -0.37    0.32
   5  -1 -29    0.85    0.34
   5   1 -29    0.28    0.33
   5   1 -29    0.77    0.31
   5   1 -29    0.76    0.40
   4  -1 -29    2.17    0.42
   4  -1 -29    1.53    0.33
   4   1 -29    1.77    0.42
   3  -1 -29    2.26    0.38
   3   1 -29    3.04    0.43
   2  -1 -29    0.88    0.33
   2   1 -29    0.76    0.36
   1  -1 -29    4.06    0.47
   1   1 -29    4.48    0.49
   0  -1 -29    0.42    0.33
   0   1 -29    0.66    0.34
  -1  -1 -29    0.22    0.33
  -1   1 -29    0.06    0.37
   2  -1  29    0.47    0.27
  -2  -1 -29    0.96    0.39
  -2   1 -29    0.73    0.40
   3  -1  29    0.34    0.28
  -3   1 -29   -0.45    0.40
   4  -1  29   -0.18    0.28
  -4   1 -29   -0.20    0.29
  -4   1 -29   -0.40    0.42
   4   1  29    0.09    0.28
   5  -1  29    0.36    0.33
  -5  -1 -29    0.68    0.34
  -5   1 -29    0.88    0.35
   5   1  29   -0.01    0.32
  -5   1 -29   -0.15    0.46
  -6  -1 -29    0.03    0.35
   6  -1  29   -0.64    0.33
   6   1  29    0.50    0.36
  -6   1 -29    0.00    0.36
   8  -2 -29    0.23    0.45
   8   2 -29    0.15    0.46
   8   2 -29    0.37    0.46
   7  -2 -29    0.65    0.41
   7   2 -29    0.95    0.43
   7   2 -29    1.31    0.45
   6  -2 -29    0.25    0.35
   6   2 -29    0.36    0.40
   6   2 -29    0.79    0.39
   5  -2 -29    3.06    0.43
   5  -2 -29    2.03    0.44
   5   2 -29    2.45    0.41
   5   2 -29    2.61    0.38
   5   2 -29    3.93    0.50
   4  -2 -29    0.60    0.38
   4  -2 -29    0.76    0.31
   4   2 -29    0.69    0.38
   3  -2 -29    0.55    0.36
   3   2 -29    0.70    0.35
   2  -2 -29    1.27    0.35
   2   2 -29    2.35    0.38
   1  -2 -29    5.60    0.52
   1   2 -29    5.52    0.54
   0  -2 -29    2.71    0.41
   0   2 -29    3.01    0.46
  -1  -2 -29    3.84    0.47
  -1   2 -29    2.81    0.47
   2  -2  29    1.98    0.33
  -2   2 -29    2.28    0.48
   3  -2  29    2.02    0.36
  -3   2 -29    1.66    0.49
   4  -2  29    0.23    0.31
  -4   2 -29   -1.15    0.40
   5  -2  29    1.62    0.37
  -5   2 -29    1.63    0.39
  -5   2 -29    0.24    0.50
   8   3 -29    0.94    0.47
   7  -3 -29    0.60    0.42
   7   3 -29    0.78    0.44
   7   3 -29    0.93    0.43
   6  -3 -29    0.14    0.37
   6   3 -29   -0.04    0.38
   6   3 -29    0.12    0.40
   5  -3 -29    0.08    0.34
   5   3 -29    0.04    0.38
   5   3 -29   -0.51    0.33
   4  -3 -29    5.86    0.57
   4  -3 -29    6.76    0.52
   4   3 -29    6.34    0.60
   3  -3 -29    1.51    0.41
   3   3 -29    2.66    0.44
   2  -3 -29    0.48    0.32
   2   3 -29    1.05    0.40
   1  -3 -29    1.24    0.36
   1   3 -29    0.95    0.39
   0   3 -29    5.36    0.53
   1  -3  29    1.09    0.30
  -1   3 -29    1.02    0.42
   2  -3  29    3.88    0.42
  -2   3 -29    2.79    0.50
   3  -3  29    0.42    0.29
  -3   3 -29   -0.39    0.43
   4  -3  29   -0.04    0.31
  -4   3 -29    0.60    0.49
   5  -3  29    0.41    0.34
  -5   3 -29    0.62    0.49
   7  -4 -29    0.03    0.43
   7   4 -29   -0.11    0.42
   6  -4 -29    0.79    0.42
   6   4 -29    0.48    0.42
   5  -4 -29    2.15    0.42
   5   4 -29    2.73    0.49
   4  -4 -29   -0.02    0.34
   4  -4 -29    0.12    0.37
   4   4 -29    0.36    0.38
   3  -4 -29    0.05    0.36
   3   4 -29    0.36    0.36
   2  -4 -29    1.08    0.35
   2   4 -29    0.81    0.39
   1   4 -29   -0.05    0.36
   0   4 -29    0.18    0.38
   1  -4  29   -0.57    0.27
  -1   4 -29    0.02    0.40
   2  -4  29    0.43    0.32
  -2   4 -29    0.44    0.44
   3  -4  29    0.93    0.35
  -3   4 -29    0.88    0.47
   4  -4  29    0.08    0.34
  -4   4 -29   -0.15    0.45
   6  -5 -29    1.51    0.46
   5  -5 -29    5.09    0.54
   5   5 -29    5.17    0.57
   4  -5 -29    0.70    0.39
   4  -5 -29    1.09    0.38
   4   5 -29    2.36    0.47
   3   5 -29    1.64    0.43
   2   5 -29    0.26    0.35
   1   5 -29    1.36    0.42
   0  -5  29    0.35    0.35
   0   5 -29    0.29    0.40
   1  -5  29    0.20    0.34
  -1   5 -29   -0.50    0.39
   2  -5  29    0.06    0.33
  -2   5 -29   -0.42    0.39
   3  -5  29    0.70    0.35
  -3   5 -29    0.44    0.46
   4  -5  29    0.25    0.36
  -4   5 -29   -0.77    0.43
   5  -6 -29    2.53    0.49
   4  -6 -29    0.21    0.39
   4   6 -29    0.94    0.41
   3   6 -29    1.59    0.44
   2   6 -29    0.71    0.40
  -1  -6  29    2.98    0.44
   1   6 -29    2.68    0.47
   0  -6  29   -0.06    0.36
   0   6 -29   -0.60    0.38
   1  -6  29    2.98    0.46
  -1   6 -29    2.34    0.48
   2  -6  29   -0.20    0.35
  -2   6 -29   -0.20    0.44
   3  -6  29    0.28    0.38
  -3   6 -29   -0.20    0.47
   4  -7 -29    0.23    0.43
   2   7 -29    0.09    0.42
  -1  -7  29    0.79    0.40
   1   7 -29    1.80    0.48
   0  -7  29    0.37    0.39
   0   7 -29    0.23    0.44
   1  -7  29    0.22    0.40
  -1   7 -29   -0.54    0.43
   8   0 -30    2.13    0.50
   8   0 -30    1.91    0.54
   7   0 -30   -0.01    0.38
   7   0 -30   -0.22    0.43
   6   0 -30    0.99    0.39
   6   0 -30    1.18    0.46
   5   0 -30   -0.33    0.36
   5   0 -30    0.77    0.36
   5   0 -30   -0.07    0.26
   4   0 -30    0.96    0.39
   3   0 -30    0.72    0.37
   2   0 -30    2.59    0.44
   1   0 -30    0.58    0.34
   0   0 -30   10.34    0.65
  -1   0 -30   -0.13    0.33
  -2   0 -30    7.09    0.62
  -3   0 -30   -0.56    0.35
   3   0  30   -0.43    0.25
   4   0  30   -0.32    0.28
  -4   0 -30   -0.29    0.43
  -4   0 -30   -0.35    0.28
  -5   0 -30    0.14    0.33
   5   0  30   -0.08    0.28
   8  -1 -30   -0.24    0.38
   8   1 -30   -0.21    0.47
   8   1 -30   -0.35    0.42
   7  -1 -30    0.40    0.40
   7  -1 -30    0.33    0.40
   7   1 -30   -0.12    0.38
   7   1 -30    0.50    0.47
   6  -1 -30    0.63    0.42
   6  -1 -30    1.31    0.40
   6   1 -30    0.78    0.45
   6   1 -30    1.69    0.40
   5  -1 -30    1.79    0.44
   5  -1 -30    2.47    0.41
   5   1 -30    2.34    0.44
   5   1 -30    1.96    0.35
   5   1 -30    1.65    0.38
   4  -1 -30    2.40    0.43
   4   1 -30    1.88    0.41
   3  -1 -30   -0.69    0.31
   3   1 -30    0.22    0.36
   2  -1 -30   -0.15    0.33
   2   1 -30    0.18    0.33
   1  -1 -30    4.27    0.47
   1   1 -30    5.43    0.53
   0  -1 -30    4.62    0.50
   0   1 -30    4.45    0.52
  -1  -1 -30    1.68    0.42
  -1   1 -30    1.40    0.39
  -2  -1 -30   -0.14    0.36
  -2   1 -30    0.17    0.39
   3  -1  30    0.17    0.28
  -3   1 -30    0.16    0.43
   4  -1  30    0.70    0.33
  -4   1 -30    0.17    0.45
   4   1  30    0.25    0.29
   5  -1  30    1.11    0.36
  -5   1 -30    1.00    0.52
  -5   1 -30    0.84    0.36
   5   1  30    1.10    0.36
   7  -2 -30    0.97    0.42
   7   2 -30    1.04    0.45
   7   2 -30    0.37    0.45
   6  -2 -30    2.34    0.42
   6  -2 -30    2.01    0.47
   6   2 -30    2.12    0.47
   6   2 -30    1.62    0.44
   5  -2 -30    0.39    0.34
   5  -2 -30    0.25    0.37
   5   2 -30    0.51    0.38
   4  -2 -30    2.03    0.42
   4   2 -30    2.04    0.43
   3  -2 -30    0.19    0.35
   3   2 -30    0.33    0.35
   2  -2 -30    0.13    0.31
   2   2 -30    0.57    0.33
   1  -2 -30    0.54    0.35
   1   2 -30    0.25    0.33
   0  -2 -30    1.00    0.36
   0   2 -30    0.78    0.37
  -1  -2 -30    1.86    0.42
  -1   2 -30    1.33    0.43
   2  -2  30    1.58    0.32
  -2   2 -30    1.39    0.46
   3  -2  30   -0.19    0.28
  -3   2 -30    0.18    0.45
   4  -2  30    1.62    0.36
  -4   2 -30    1.69    0.53
   5  -2  30    1.10    0.37
  -5   2 -30    0.27    0.52
   7  -3 -30    0.30    0.42
   7   3 -30    0.00    0.41
   7   3 -30    0.28    0.43
   6  -3 -30    1.38    0.43
   6   3 -30    1.45    0.45
   6   3 -30    1.46    0.45
   5  -3 -30   -0.42    0.33
   5  -3 -30    0.26    0.36
   5   3 -30    0.41    0.37
   4  -3 -30    0.17    0.36
   4   3 -30    0.14    0.38
   3  -3 -30    1.06    0.40
   3   3 -30    1.70    0.42
   2  -3 -30    0.02    0.32
   2   3 -30    0.16    0.34
   1  -3 -30    1.47    0.36
   1   3 -30    1.74    0.43
   0   3 -30    0.60    0.38
  -1   3 -30    0.18    0.40
   2  -3  30    0.27    0.30
  -2   3 -30    0.34    0.44
   3  -3  30    1.13    0.35
  -3   3 -30    1.19    0.48
   4  -3  30    0.19    0.31
  -4   3 -30   -0.41    0.48
   5  -3  30    0.15    0.35
  -5   3 -30   -0.02    0.47
   7  -4 -30    0.57    0.45
   7   4 -30    0.07    0.43
   6  -4 -30    1.48    0.44
   6   4 -30    2.02    0.47
   6   4 -30    1.38    0.43
   5  -4 -30    0.07    0.37
   5   4 -30    0.52    0.42
   4  -4 -30    0.79    0.37
   4  -4 -30   -0.27    0.34
   4   4 -30    0.89    0.39
   3  -4 -30    1.28    0.42
   3   4 -30    1.40    0.43
   2  -4 -30    5.15    0.53
   2   4 -30    5.26    0.55
   1   4 -30    0.06    0.34
   0   4 -30    5.18    0.57
   1  -4  30   -0.07    0.30
  -1   4 -30    0.03    0.41
   2  -4  30    0.18    0.32
  -2   4 -30   -0.22    0.39
   3  -4  30    0.23    0.33
  -3   4 -30   -0.44    0.47
   4  -4  30   -0.05    0.34
  -4   4 -30   -0.50    0.45
   6  -5 -30   -0.19    0.40
   5  -5 -30    0.93    0.40
   5   5 -30    1.17    0.45
   4  -5 -30    0.36    0.36
   4  -5 -30    0.25    0.36
   4   5 -30    0.41    0.37
   3   5 -30    0.41    0.39
   2   5 -30    0.69    0.37
   1   5 -30    0.71    0.41
   0  -5  30    1.04    0.39
   0   5 -30    0.72    0.43
   1  -5  30    2.79    0.43
  -1   5 -30    1.32    0.47
   2  -5  30   -0.31    0.32
  -2   5 -30   -0.66    0.43
   3  -5  30    0.85    0.38
  -3   5 -30    0.33    0.49
   5  -6 -30   -0.01    0.41
   4  -6 -30    1.94    0.46
   4   6 -30    2.16    0.47
   3   6 -30    0.42    0.41
   2   6 -30    0.51    0.42
   1   6 -30    0.17    0.42
   0  -6  30    0.22    0.37
   0   6 -30    0.28    0.43
   1  -6  30    0.15    0.36
  -1   6 -30   -0.06    0.44
   2  -6  30    0.66    0.39
  -2   6 -30   -0.05    0.45
   2   7 -30    0.06    0.42
  -1  -7  30    0.79    0.40
   1   7 -30    0.70    0.45
   0  -7  30   -0.27    0.38
   0   7 -30   -0.01    0.44
   7   0 -31    3.19    0.55
   7   0 -31    3.21    0.51
   6   0 -31    0.20    0.44
   6   0 -31    0.19    0.37
   5   0 -31    0.03    0.37
   4   0 -31   -0.08    0.33
   3   0 -31    0.50    0.37
   2   0 -31    0.23    0.33
   1   0 -31    0.53    0.36
   0   0 -31    0.02    0.33
  -1   0 -31    0.43    0.40
  -2   0 -31    0.09    0.40
  -3   0 -31   -0.70    0.40
  -4   0 -31   -0.08    0.31
   4   0  31   -0.35    0.28
  -5   0 -31    0.07    0.32
   5   0  31   -0.03    0.33
   7  -1 -31   -0.17    0.40
   7  -1 -31    0.22    0.40
   7   1 -31   -0.22    0.45
   7   1 -31   -0.33    0.39
   6  -1 -31    0.61    0.45
   6  -1 -31    0.66    0.38
   6   1 -31    0.47    0.41
   6   1 -31    1.07    0.40
   5  -1 -31    1.25    0.45
   5  -1 -31    1.13    0.37
   5   1 -31    1.51    0.42
   4  -1 -31    0.04    0.37
   4   1 -31   -0.02    0.35
   3  -1 -31    0.65    0.38
   3   1 -31    1.19    0.39
   2  -1 -31    4.37    0.50
   2   1 -31    3.69    0.46
   1  -1 -31    2.57    0.44
   1   1 -31    2.38    0.44
   0  -1 -31    2.10    0.43
   0   1 -31    2.03    0.45
  -1  -1 -31    0.92    0.41
  -1   1 -31    0.81    0.39
  -2  -1 -31   -0.23    0.37
  -2   1 -31    0.11    0.41
   3  -1  31    0.04    0.29
  -3   1 -31    0.47    0.43
   4  -1  31    0.60    0.32
  -4   1 -31   -0.73    0.46
   5  -1  31    0.89    0.37
   5   1  31    1.13    0.37
  -5   1 -31    0.82    0.37
  -5   1 -31   -0.45    0.49
   7  -2 -31    0.95    0.42
   7   2 -31    0.81    0.44
   7   2 -31    0.51    0.46
   6  -2 -31   -0.41    0.40
   6  -2 -31    0.42    0.37
   6   2 -31    0.42    0.39
   6   2 -31    0.14    0.39
   5  -2 -31    0.08    0.34
   5  -2 -31   -0.21    0.40
   5   2 -31    0.81    0.42
   4  -2 -31    2.12    0.47
   4   2 -31    1.87    0.46
   3  -2 -31    7.12    0.59
   3   2 -31    7.42    0.63
   2  -2 -31    0.26    0.36
   2   2 -31    0.13    0.34
   1  -2 -31    4.27    0.49
   1   2 -31    4.98    0.52
   0  -2 -31    0.35    0.36
   0   2 -31    0.55    0.40
  -1  -2 -31    0.22    0.39
  -1   2 -31    0.09    0.40
  -2   2 -31   -0.08    0.39
   3  -2  31    1.18    0.33
  -3   2 -31    1.18    0.46
   4  -2  31   -0.23    0.31
  -4   2 -31    0.20    0.46
   7  -3 -31   -0.07    0.40
   7   3 -31    0.68    0.43
   7   3 -31    0.06    0.42
   6  -3 -31    0.30    0.38
   6   3 -31    0.39    0.42
   6   3 -31    0.25    0.43
   5  -3 -31   -0.24    0.40
   5  -3 -31   -0.18    0.35
   5   3 -31   -0.15    0.37
   4  -3 -31    0.04    0.40
   4   3 -31    0.00    0.39
   3  -3 -31    0.21    0.34
   3   3 -31   -0.09    0.37
   2  -3 -31    0.19    0.36
   2   3 -31    0.80    0.38
   1  -3 -31    0.46    0.37
   1   3 -31   -0.14    0.34
   0   3 -31   -0.52    0.34
  -1   3 -31    1.31    0.45
   2  -3  31    0.20    0.30
  -2   3 -31   -0.08    0.45
   3  -3  31    0.90    0.35
  -3   3 -31    0.70    0.51
   4  -3  31   -0.21    0.31
  -4   3 -31   -0.41    0.45
   6  -4 -31    0.04    0.40
   6   4 -31    0.02    0.39
   6   4 -31    0.17    0.41
   5  -4 -31    4.31    0.52
   5  -4 -31    5.50    0.59
   5   4 -31    4.96    0.58
   4  -4 -31    0.97    0.44
   4   4 -31    1.44    0.45
   3  -4 -31    0.88    0.42
   3   4 -31    0.77    0.39
   2  -4 -31    0.71    0.39
   2   4 -31    0.37    0.36
   1   4 -31    0.70    0.38
   0   4 -31    0.30    0.40
   1  -4  31   -0.04    0.31
  -1   4 -31   -0.12    0.39
   2  -4  31    0.98    0.36
  -2   4 -31    0.91    0.48
   3  -4  31    0.38    0.34
  -3   4 -31    0.74    0.53
   5  -5 -31    0.06    0.38
   5  -5 -31   -0.18    0.40
   5   5 -31    0.65    0.45
   4  -5 -31   -0.42    0.39
   4   5 -31   -0.50    0.37
   3   5 -31    0.00    0.39
   2   5 -31    4.14    0.51
   1   5 -31    2.99    0.50
   0   5 -31   -0.23    0.37
   1  -5  31    0.55    0.36
  -1   5 -31    0.29    0.44
   2  -5  31    0.26    0.34
  -2   5 -31   -0.19    0.42
   3  -5  31    0.23    0.37
  -3   5 -31   -0.48    0.49
   4   6 -31    0.08    0.40
   3   6 -31    2.19    0.48
   2   6 -31    0.24    0.42
   1   6 -31    0.25    0.43
   0  -6  31    0.16    0.38
   0   6 -31   -0.12    0.43
   1  -6  31    0.55    0.39
  -1   6 -31   -0.56    0.40
   7   0 -32   -0.07    0.43
   7   0 -32    0.10    0.40
   6   0 -32    1.16    0.49
   6   0 -32    1.33    0.41
   5   0 -32   -0.09    0.37
   4   0 -32   10.85    0.72
   3   0 -32    0.67    0.37
   2   0 -32    4.18    0.51
   1   0 -32    0.17    0.36
   0   0 -32    0.27    0.36
  -1   0 -32    0.02    0.37
  -2   0 -32    8.96    0.71
  -3   0 -32   -0.30    0.43
   4   0  32    0.24    0.32
   7  -1 -32    0.53    0.48
   7  -1 -32   -0.33    0.38
   7   1 -32    0.47    0.40
   7   1 -32   -0.24    0.45
   6  -1 -32   -0.25    0.42
   6  -1 -32    0.32    0.37
   6   1 -32    0.26    0.40
   6   1 -32    0.57    0.42
   5  -1 -32    0.05    0.42
   5   1 -32    0.50    0.42
   4  -1 -32    0.75    0.41
   4   1 -32    1.46    0.45
   3  -1 -32    1.11    0.42
   3   1 -32    1.58    0.43
   2  -1 -32    0.91    0.38
   2   1 -32    0.96    0.39
   1  -1 -32    1.09    0.38
   1   1 -32    0.79    0.40
   0  -1 -32    0.42    0.37
   0   1 -32    0.35    0.38
  -1  -1 -32    0.75    0.41
  -1   1 -32    0.17    0.41
  -2  -1 -32    0.13    0.40
  -2   1 -32   -0.19    0.42
  -3   1 -32    0.58    0.48
   4  -1  32    1.08    0.35
  -4   1 -32    0.74    0.52
   7  -2 -32    0.44    0.41
   7  -2 -32   -0.28    0.44
   7   2 -32    0.03    0.42
   7   2 -32    0.33    0.42
   6  -2 -32    0.99    0.39
   6  -2 -32    0.70    0.43
   6   2 -32    0.85    0.40
   6   2 -32    0.97    0.47
   5  -2 -32    3.21    0.54
   5   2 -32    3.08    0.50
   4  -2 -32    0.14    0.39
   4   2 -32    0.48    0.40
   3  -2 -32    0.25    0.35
   3   2 -32    0.90    0.42
   2  -2 -32    1.11    0.41
   2   2 -32    1.13    0.39
   1  -2 -32   -0.51    0.36
   1   2 -32   -0.47    0.37
   0  -2 -32    0.49    0.38
   0   2 -32    1.01    0.40
  -1   2 -32    0.15    0.41
  -2   2 -32   -0.38    0.39
   3  -2  32    0.29    0.30
  -3   2 -32    0.83    0.50
   4  -2  32   -0.14    0.32
  -4   2 -32   -0.58    0.48
   6  -3 -32    0.13    0.38
   6  -3 -32    0.23    0.40
   6   3 -32   -0.05    0.40
   5  -3 -32    0.13    0.43
   5  -3 -32    0.35    0.39
   5   3 -32    0.65    0.44
   4  -3 -32    2.06    0.45
   4   3 -32    2.28    0.45
   3  -3 -32    1.84    0.45
   3   3 -32    1.95    0.46
   2  -3 -32    0.97    0.40
   2   3 -32    1.15    0.43
   1  -3 -32    2.17    0.44
   1   3 -32    2.56    0.47
   0   3 -32    1.31    0.44
  -1   3 -32    0.87    0.45
   2  -3  32   -0.14    0.31
  -2   3 -32   -0.41    0.45
   3  -3  32   -0.10    0.33
  -3   3 -32   -0.34    0.48
   6  -4 -32   -0.09    0.42
   6   4 -32    0.58    0.46
   5  -4 -32    0.10    0.41
   5  -4 -32    0.24    0.40
   5   4 -32   -0.03    0.42
   4  -4 -32   -0.09    0.37
   4   4 -32    0.47    0.44
   3  -4 -32    0.57    0.41
   3   4 -32    0.59    0.42
   2   4 -32    0.38    0.40
   1   4 -32    0.25    0.39
   0   4 -32   -0.67    0.39
  -1   4 -32    0.63    0.44
   2  -4  32    0.97    0.37
  -2   4 -32    0.46    0.46
   3  -4  32    0.18    0.34
  -3   4 -32    0.28    0.51
   4  -5 -32    0.48    0.42
   4   5 -32   -0.13    0.39
   3   5 -32    0.58    0.41
   2   5 -32    1.82    0.46
   1   5 -32    1.01    0.45
   0   5 -32    1.44    0.45
   1  -5  32   -0.21    0.35
  -1   5 -32    0.32    0.42
   2  -5  32    0.74    0.38
  -2   5 -32   -0.01    0.48
   2   6 -32    1.42    0.46
   1   6 -32    0.31    0.42
   0   6 -32   -0.37    0.40
   6   0 -33   -0.25    0.44
   6   0 -33    0.61    0.41
   5   0 -33    0.55    0.41
   4   0 -33   -0.02    0.40
   3   0 -33    8.29    0.68
   2   0 -33   -0.15    0.37
   1   0 -33    2.57    0.44
   0   0 -33   -0.12    0.36
  -1   0 -33    0.00    0.41
  -2   0 -33   -0.40    0.37
  -3   0 -33    1.04    0.49
   6  -1 -33    0.63    0.39
   6  -1 -33    0.85    0.45
   6   1 -33    0.20    0.45
   5  -1 -33   -0.07    0.41
   5   1 -33   -0.28    0.40
   4  -1 -33    0.93    0.42
   4   1 -33    1.02    0.42
   3  -1 -33    2.94    0.49
   3   1 -33    2.65    0.46
   2  -1 -33    0.64    0.40
   2   1 -33    0.19    0.38
   1  -1 -33    0.90    0.39
   1   1 -33    0.88    0.41
   0  -1 -33    1.70    0.44
   0   1 -33    1.16    0.42
  -1  -1 -33    0.50    0.41
  -1   1 -33    0.13    0.39
  -2  -1 -33   -0.21    0.40
  -2   1 -33    0.22    0.45
  -3   1 -33   -0.60    0.45
   6  -2 -33    0.58    0.40
   6  -2 -33    0.89    0.48
   6   2 -33   -0.12    0.41
   5  -2 -33    1.41    0.46
   5   2 -33    2.31    0.51
   4  -2 -33    1.27    0.45
   4   2 -33    1.80    0.45
   3  -2 -33    0.18    0.37
   3   2 -33   -0.08    0.38
   2  -2 -33    0.33    0.39
   2   2 -33    0.12    0.37
   1  -2 -33    2.38    0.45
   1   2 -33    1.78    0.47
   0  -2 -33    1.32    0.42
   0   2 -33    2.11    0.49
  -1   2 -33    2.14    0.47
  -2   2 -33    1.88    0.49
   3  -2  33    0.45    0.33
  -3   2 -33   -0.11    0.49
   6  -3 -33   -0.16    0.43
   6  -3 -33    0.07    0.42
   6   3 -33    0.70    0.47
   5  -3 -33    0.90    0.47
   5   3 -33    0.10    0.44
   4  -3 -33    0.37    0.43
   4   3 -33    0.77    0.41
   3  -3 -33    0.12    0.39
   3   3 -33   -0.03    0.41
   2  -3 -33    1.58    0.43
   2   3 -33    1.82    0.45
   1  -3 -33    0.59    0.41
   1   3 -33    0.29    0.38
   0   3 -33   -0.49    0.39
  -1   3 -33    0.00    0.43
  -2   3 -33   -0.10    0.48
   3  -3  33   -0.11    0.32
  -3   3 -33    0.12    0.47
   5  -4 -33    1.61    0.51
   5   4 -33    2.41    0.51
   4  -4 -33    0.30    0.43
   4   4 -33    0.07    0.43
   3  -4 -33    2.67    0.48
   3   4 -33    3.18    0.50
   2   4 -33   -0.16    0.35
   1   4 -33    0.77    0.43
   0   4 -33   -0.24    0.42
  -1   4 -33    0.19    0.43
   2  -4  33   -0.65    0.34
  -2   4 -33   -0.36    0.46
   4  -5 -33    1.03    0.48
   4   5 -33    1.38    0.48
   3   5 -33    2.07    0.47
   2   5 -33    0.29    0.41
   1   5 -33    0.08    0.42
   0   5 -33    0.92    0.44
  -1   5 -33    0.32    0.47
   6   0 -34    0.56    0.47
   5   0 -34    0.46    0.40
   4   0 -34   -0.27    0.40
   3   0 -34    0.36    0.41
   2   0 -34    0.60    0.39
   1   0 -34    0.48    0.38
   0   0 -34    2.23    0.50
  -1   0 -34   -0.79    0.40
  -2   0 -34    1.60    0.49
  -3   0 -34   -0.69    0.44
   6  -1 -34   -1.09    0.39
   6   1 -34   -0.46    0.44
   5  -1 -34    0.06    0.43
   5   1 -34    0.24    0.42
   4  -1 -34    0.76    0.44
   4   1 -34    0.83    0.44
   3  -1 -34    0.26    0.41
   3   1 -34    0.72    0.40
   2  -1 -34    0.24    0.41
   2   1 -34    0.07    0.39
   1  -1 -34    0.10    0.39
   1   1 -34    0.50    0.40
   0  -1 -34    0.58    0.42
   0   1 -34    0.42    0.44
  -1  -1 -34    0.46    0.43
  -1   1 -34    1.36    0.46
  -2   1 -34    1.68    0.50
  -3   1 -34   -0.43    0.47
   5  -2 -34   -0.72    0.37
   5   2 -34    0.81    0.44
   4  -2 -34    3.17    0.50
   4   2 -34    4.00    0.56
   3  -2 -34    0.14    0.37
   3   2 -34    0.70    0.38
   2  -2 -34    0.65    0.42
   2   2 -34   -0.02    0.37
   1  -2 -34   -0.23    0.35
   1   2 -34    0.34    0.40
   0  -2 -34    0.61    0.41
   0   2 -34    0.51    0.41
  -1   2 -34    0.31    0.44
  -2   2 -34    0.48    0.49
  -3   2 -34   -0.04    0.50
   5  -3 -34    1.00    0.48
   5   3 -34    0.00    0.45
   4  -3 -34    0.73    0.44
   4   3 -34    0.37    0.41
   3  -3 -34    1.11    0.43
   3   3 -34    0.44    0.41
   2  -3 -34    0.58    0.42
   2   3 -34    0.67    0.41
   1   3 -34   -0.12    0.40
   0   3 -34   -0.04    0.39
  -1   3 -34    0.77    0.45
  -2   3 -34    0.37    0.46
   4  -4 -34    0.76    0.43
   4   4 -34    0.74    0.47
   3  -4 -34    0.26    0.41
   3   4 -34    0.62    0.40
   2   4 -34    1.49    0.45
   1   4 -34    0.32    0.40
   0   4 -34    3.13    0.54
  -1   4 -34   -0.06    0.44
   2   5 -34   -0.03    0.38
   1   5 -34   -0.25    0.41
   5   0 -35    4.67    0.60
   4   0 -35    0.48    0.44
   3   0 -35    0.00    0.38
   2   0 -35   -0.15    0.39
   1   0 -35    0.05    0.40
   0   0 -35    0.69    0.45
  -1   0 -35   -0.15    0.40
  -2   0 -35    0.46    0.48
   5  -1 -35    0.22    0.45
   5   1 -35    0.84    0.47
   4  -1 -35    0.31    0.43
   4   1 -35    0.09    0.40
   3  -1 -35    0.07    0.39
   3   1 -35    0.67    0.43
   2  -1 -35    0.37    0.39
   2   1 -35    0.66    0.40
   1  -1 -35    2.61    0.46
   1   1 -35    2.92    0.52
   0  -1 -35    1.47    0.44
   0   1 -35    1.34    0.49
  -1  -1 -35    1.43    0.48
  -1   1 -35    0.36    0.43
  -2   1 -35   -0.77    0.44
   5  -2 -35    0.60    0.45
   5   2 -35    0.22    0.47
   4  -2 -35    1.29    0.45
   4   2 -35    1.47    0.48
   3  -2 -35    0.74    0.42
   3   2 -35    0.78    0.42
   2  -2 -35    0.36    0.42
   2   2 -35    0.46    0.40
   1  -2 -35    3.78    0.52
   1   2 -35    3.38    0.53
   0  -2 -35    0.51    0.38
   0   2 -35   -0.26    0.43
  -1   2 -35    0.26    0.46
  -2   2 -35    0.23    0.50
   4  -3 -35   -0.33    0.42
   4   3 -35    0.33    0.41
   3  -3 -35    0.49    0.43
   3   3 -35    0.86    0.43
   2  -3 -35    0.68    0.44
   2   3 -35    0.36    0.40
   1   3 -35    0.30    0.43
   0   3 -35    0.67    0.47
  -1   3 -35    1.18    0.48
   2   4 -35    1.05    0.44
   1   4 -35    1.01    0.45
   4   0 -36    2.81    0.52
   3   0 -36   -0.23    0.43
   2   0 -36    4.95    0.57
   1   0 -36    0.18    0.42
   0   0 -36    0.60    0.46
  -1   0 -36   -0.62    0.43
   4  -1 -36    2.03    0.47
   4   1 -36    1.33    0.49
   3  -1 -36    1.91    0.51
   3   1 -36    0.32    0.39
   2  -1 -36    1.16    0.45
   2   1 -36    0.76    0.45
   1  -1 -36   -0.02    0.41
   1   1 -36    0.92    0.47
   0  -1 -36    1.00    0.47
   0   1 -36   -0.33    0.40
  -1  -1 -36    0.64    0.47
  -1   1 -36    0.16    0.46
   4  -2 -36    0.30    0.41
   4   2 -36    0.56    0.42
   3  -2 -36    2.04    0.48
   3   2 -36    2.72    0.51
   2  -2 -36    0.17    0.40
   2   2 -36    0.25    0.40
   1  -2 -36    0.48    0.43
   1   2 -36    0.62    0.42
   0   2 -36    0.40    0.46
  -1   2 -36    0.47    0.48
   2  -3 -36    1.04    0.46
   2   3 -36    1.55    0.47
   1   3 -36    0.31    0.42
   3   0 -37    1.85    0.47
   2   0 -37    0.15    0.44
   1   0 -37    3.50    0.57
   0   0 -37    0.41    0.46
   3  -1 -37    1.73    0.50
   3   1 -37    2.25    0.50
   2  -1 -37    0.04    0.41
   2   1 -37   -0.04    0.43
   1  -1 -37    0.44    0.44
   1   1 -37    1.39    0.50
   0   0   0    0.00    0.00
;
_shelx_hkl_checksum              49140
_shelx_res_file
;
    shelx.res created by SHELXL-2014/7
TITL Che4m_Mahesh_J20B_0m in P2(1)/n
CELL  0.71073   7.8958   8.0536  25.2735   90.000   97.909   90.000
ZERR     4.00   0.0002   0.0002   0.0008    0.000    0.002    0.000
LATT   1
SYMM  1/2 - X, 1/2 + Y, 1/2 - Z
SFAC  C    H    N    O    S    BR
UNIT  60   64   4    8    8    4
MERG   2
OMIT     0.00  50.00
FMAP   2
PLAN   20
ACTA
BOND   $H
L.S.  10
TEMP    23.00
WGHT    0.034100    0.939500
EXTI    0.007783
FVAR       0.11507
BR1   6    0.591275    1.007612    1.100541    11.00000    0.07328    0.04765 =
         0.05279   -0.01305    0.01885    0.00713
S2    5    0.971752    0.750967    0.865597    11.00000    0.03691    0.04266 =
         0.02765    0.00197    0.00528   -0.00642
S3    5    0.607238    0.657282    0.824314    11.00000    0.03428    0.04479 =
         0.03913    0.00491    0.00726   -0.00333
O4    4    0.744744    0.344446    1.010683    11.00000    0.05113    0.02965 =
         0.03592    0.00351    0.01019   -0.00344
O5    4    0.851515    0.180678    0.954112    11.00000    0.07719    0.02805 =
         0.04927   -0.00270    0.01266    0.00129
N6    3    0.865630    0.658417    0.767647    11.00000    0.04077    0.03180 =
         0.02624    0.00113    0.00703   -0.00291
C7    1    0.639453    0.800958    1.069540    11.00000    0.03940    0.03872 =
         0.03178   -0.00512    0.00537    0.00324
C8    1    0.710918    0.796814    1.023058    11.00000    0.03776    0.03207 =
         0.03094    0.00214    0.00450   -0.00052
AFIX  43
H8    2    0.734730    0.895064    1.006205    11.00000   -1.20000
AFIX   0
C9    1    0.747743    0.643164    1.001182    11.00000    0.03010    0.03289 =
         0.02784    0.00198    0.00064   -0.00123
C10   1    0.710466    0.500467    1.028177    11.00000    0.03490    0.03138 =
         0.03038    0.00133    0.00236   -0.00174
C11   1    0.635708    0.506317    1.074529    11.00000    0.04721    0.04096 =
         0.03670    0.00866    0.01372   -0.00594
AFIX  43
H11   2    0.610321    0.408732    1.091475    11.00000   -1.20000
AFIX   0
C12   1    0.599504    0.657252    1.095183    11.00000    0.04805    0.05191 =
         0.03153    0.00297    0.01474    0.00096
AFIX  43
H12   2    0.548506    0.663198    1.126179    11.00000   -1.20000
AFIX   0
C13   1    0.825329    0.622969    0.952501    11.00000    0.03139    0.03129 =
         0.02387    0.00032    0.00073   -0.00204
C14   1    0.859689    0.468349    0.937070    11.00000    0.04117    0.03236 =
         0.02517    0.00073    0.00186   -0.00108
AFIX  43
H14   2    0.910963    0.455527    0.906326    11.00000   -1.20000
AFIX   0
C15   1    0.821257    0.321429    0.965658    11.00000    0.04290    0.03265 =
         0.03174   -0.00075   -0.00005   -0.00178
C16   1    0.861488    0.777398    0.922382    11.00000    0.04648    0.02929 =
         0.02686    0.00116    0.00753   -0.00195
AFIX  23
H16A  2    0.928285    0.852067    0.947155    11.00000   -1.20000
H16B  2    0.753353    0.831840    0.910497    11.00000   -1.20000
AFIX   0
C17   1    0.809511    0.683978    0.814387    11.00000    0.04021    0.02139 =
         0.02375    0.00599    0.00420    0.00049
C18   1    1.041315    0.695731    0.757522    11.00000    0.04873    0.05595 =
         0.03844   -0.00172    0.01902   -0.00919
AFIX  23
H18A  2    1.088603    0.782203    0.781907    11.00000   -1.20000
H18B  2    1.037323    0.738036    0.721437    11.00000   -1.20000
AFIX   0
C19   1    1.157772    0.546869    0.764172    11.00000    0.04540    0.08402 =
         0.07612   -0.01619    0.01258    0.00580
AFIX  33
H19A  2    1.269801    0.578307    0.757126    11.00000   -1.50000
H19B  2    1.164520    0.505800    0.800059    11.00000   -1.50000
H19C  2    1.113221    0.461618    0.739568    11.00000   -1.50000
AFIX   0
C20   1    0.753310    0.589911    0.721565    11.00000    0.05919    0.03173 =
         0.03047   -0.00470    0.00434   -0.00430
AFIX  23
H20A  2    0.669957    0.517176    0.734430    11.00000   -1.20000
H20B  2    0.821403    0.523433    0.700403    11.00000   -1.20000
AFIX   0
C21   1    0.660990    0.720379    0.686616    11.00000    0.08965    0.04699 =
         0.03916    0.00487   -0.01342   -0.00198
AFIX  33
H21A  2    0.590046    0.668362    0.657372    11.00000   -1.50000
H21B  2    0.591081    0.785115    0.707048    11.00000   -1.50000
H21C  2    0.742606    0.791376    0.673002    11.00000   -1.50000
AFIX   0
HKLF 4
REM  Che4m_Mahesh_J20B_0m in P2(1)/n
REM R1 =  0.0303 for    2419 Fo > 4sig(Fo)  and  0.0380 for all    2806 data
REM    191 parameters refined using      0 restraints
END
WGHT      0.0341      0.9386
REM Highest difference peak  0.617,  deepest hole -0.443,  1-sigma level  0.054
Q1    1   0.6992  0.9799  1.1100  11.00000  0.05    0.62
Q2    1   0.6206  1.0413  1.0698  11.00000  0.05    0.39
Q3    1   0.5258  0.9495  1.0906  11.00000  0.05    0.27
Q4    1   0.5720  1.0418  1.1079  11.00000  0.05    0.25
Q5    1   0.7984  0.6345  0.9803  11.00000  0.05    0.23
Q6    1   0.7265  0.6356  0.8189  11.00000  0.05    0.23
Q7    1   0.6170  0.8045  1.0378  11.00000  0.05    0.21
Q8    1   0.9276  0.7538  0.8988  11.00000  0.05    0.20
Q9    1   1.0964  0.7541  0.8644  11.00000  0.05    0.19
Q10   1   0.8298  0.6895  0.7906  11.00000  0.05    0.19
Q11   1   0.7327  0.8200  1.0580  11.00000  0.05    0.19
Q12   1   1.0359  0.8559  0.9558  11.00000  0.05    0.19
Q13   1   0.5877  0.9760  1.1479  11.00000  0.05    0.19
Q14   1   0.6203  0.9028  1.0735  11.00000  0.05    0.19
Q15   1   0.4203  1.0454  1.0982  11.00000  0.05    0.18
Q16   1   0.7927  0.3354  0.9921  11.00000  0.05    0.18
Q17   1   0.6822  0.7000  0.6473  11.00000  0.05    0.18
Q18   1   0.7210  0.7335  0.8174  11.00000  0.05    0.17
Q19   1   0.6808  0.5022  1.0542  11.00000  0.05    0.17
Q20   1   0.5344  0.9394  1.1428  11.00000  0.05    0.16
;
_shelx_res_checksum              33723
loop_
_space_group_symop_operation_xyz
'x, y, z'
'-x+1/2, y+1/2, -z+1/2'
'-x, -y, -z'
'x-1/2, -y-1/2, z-1/2'
loop_
_atom_site_type_symbol
_atom_site_label
_atom_site_fract_x
_atom_site_fract_y
_atom_site_fract_z
_atom_site_U_iso_or_equiv
_atom_site_adp_type
_atom_site_calc_flag
_atom_site_occupancy
Br Br1 0.59128(4) 1.00761(4) 1.10054(2) 0.05696(14) Uani d 1
S S2 0.97175(8) 0.75097(8) 0.86560(2) 0.03566(17) Uani d 1
S S3 0.60724(8) 0.65728(8) 0.82431(3) 0.03919(18) Uani d 1
O O4 0.7447(2) 0.3444(2) 1.01068(7) 0.0385(4) Uani d 1
O O5 0.8515(3) 0.1807(2) 0.95411(8) 0.0511(5) Uani d 1
N N6 0.8656(2) 0.6584(2) 0.76765(8) 0.0327(4) Uani d 1
C C7 0.6395(3) 0.8010(3) 1.06954(10) 0.0366(6) Uani d 1
C C8 0.7109(3) 0.7968(3) 1.02306(10) 0.0336(5) Uani d 1
H H8 0.7347 0.8951 1.0062 0.040 Uiso calc 1
C C9 0.7477(3) 0.6432(3) 1.00118(9) 0.0306(5) Uani d 1
C C10 0.7105(3) 0.5005(3) 1.02818(10) 0.0324(5) Uani d 1
C C11 0.6357(3) 0.5063(3) 1.07453(11) 0.0409(6) Uani d 1
H H11 0.6103 0.4087 1.0915 0.049 Uiso calc 1
C C12 0.5995(3) 0.6573(3) 1.09518(11) 0.0430(6) Uani d 1
H H12 0.5485 0.6632 1.1262 0.052 Uiso calc 1
C C13 0.8253(3) 0.6230(3) 0.95250(9) 0.0291(5) Uani d 1
C C14 0.8597(3) 0.4683(3) 0.93707(10) 0.0332(5) Uani d 1
H H14 0.9110 0.4555 0.9063 0.040 Uiso calc 1
C C15 0.8213(3) 0.3214(3) 0.96566(10) 0.0362(6) Uani d 1
C C16 0.8615(3) 0.7774(3) 0.92238(10) 0.0340(5) Uani d 1
H H16A 0.9283 0.8521 0.9472 0.041 Uiso calc 1
H H16B 0.7534 0.8318 0.9105 0.041 Uiso calc 1
C C17 0.8095(3) 0.6840(3) 0.81439(9) 0.0285(5) Uani d 1
C C18 1.0413(3) 0.6957(4) 0.75752(11) 0.0465(7) Uani d 1
H H18A 1.0886 0.7822 0.7819 0.056 Uiso calc 1
H H18B 1.0373 0.7380 0.7214 0.056 Uiso calc 1
C C19 1.1578(4) 0.5469(5) 0.76417(16) 0.0681(9) Uani d 1
H H19A 1.2698 0.5783 0.7571 0.102 Uiso calc 1
H H19B 1.1645 0.5058 0.8001 0.102 Uiso calc 1
H H19C 1.1132 0.4616 0.7396 0.102 Uiso calc 1
C C20 0.7533(3) 0.5899(3) 0.72156(10) 0.0406(6) Uani d 1
H H20A 0.6700 0.5172 0.7344 0.049 Uiso calc 1
H H20B 0.8214 0.5234 0.7004 0.049 Uiso calc 1
C C21 0.6610(5) 0.7204(4) 0.68662(12) 0.0607(8) Uani d 1
H H21A 0.5900 0.6684 0.6574 0.091 Uiso calc 1
H H21B 0.5911 0.7851 0.7070 0.091 Uiso calc 1
H H21C 0.7426 0.7914 0.6730 0.091 Uiso calc 1
loop_
_atom_site_aniso_label
_atom_site_aniso_U_11
_atom_site_aniso_U_22
_atom_site_aniso_U_33
_atom_site_aniso_U_12
_atom_site_aniso_U_13
_atom_site_aniso_U_23
Br1 0.0733(2) 0.04765(19) 0.0528(2) 0.00713(14) 0.01885(16) -0.01305(14)
S2 0.0369(3) 0.0427(4) 0.0276(3) -0.0064(3) 0.0053(2) 0.0020(3)
S3 0.0343(3) 0.0448(4) 0.0391(4) -0.0033(3) 0.0073(3) 0.0049(3)
O4 0.0511(10) 0.0296(9) 0.0359(10) -0.0034(7) 0.0102(8) 0.0035(7)
O5 0.0772(13) 0.0281(10) 0.0493(12) 0.0013(9) 0.0127(10) -0.0027(8)
N6 0.0408(11) 0.0318(10) 0.0262(11) -0.0029(8) 0.0070(8) 0.0011(8)
C7 0.0394(13) 0.0387(13) 0.0318(14) 0.0032(10) 0.0054(10) -0.0051(11)
C8 0.0378(13) 0.0321(13) 0.0309(14) -0.0005(10) 0.0045(10) 0.0021(10)
C9 0.0301(11) 0.0329(12) 0.0278(13) -0.0012(9) 0.0006(9) 0.0020(10)
C10 0.0349(12) 0.0314(12) 0.0304(13) -0.0017(9) 0.0024(10) 0.0013(10)
C11 0.0472(15) 0.0410(15) 0.0367(15) -0.0059(11) 0.0137(12) 0.0087(12)
C12 0.0481(15) 0.0519(16) 0.0315(14) 0.0010(12) 0.0147(12) 0.0030(12)
C13 0.0314(11) 0.0313(12) 0.0239(12) -0.0020(9) 0.0007(9) 0.0003(10)
C14 0.0412(13) 0.0324(13) 0.0252(12) -0.0011(10) 0.0019(10) 0.0007(10)
C15 0.0429(14) 0.0326(14) 0.0317(14) -0.0018(10) -0.0001(11) -0.0008(11)
C16 0.0465(14) 0.0293(12) 0.0269(13) -0.0020(10) 0.0075(10) 0.0012(10)
C17 0.0402(13) 0.0214(10) 0.0237(12) 0.0005(9) 0.0042(10) 0.0060(9)
C18 0.0487(15) 0.0560(17) 0.0384(16) -0.0092(13) 0.0190(12) -0.0017(13)
C19 0.0454(17) 0.084(2) 0.076(2) 0.0058(16) 0.0126(16) -0.016(2)
C20 0.0592(16) 0.0317(13) 0.0305(14) -0.0043(11) 0.0043(11) -0.0047(11)
C21 0.090(2) 0.0470(17) 0.0392(17) -0.0020(15) -0.0134(15) 0.0049(14)
loop_
_atom_type_symbol
_atom_type_description
_atom_type_scat_dispersion_real
_atom_type_scat_dispersion_imag
_atom_type_scat_source
C C 0.0033 0.0016 'International Tables Vol C Tables 4.2.6.8 and 6.1.1.4'
H H 0.0000 0.0000 'International Tables Vol C Tables 4.2.6.8 and 6.1.1.4'
N N 0.0061 0.0033 'International Tables Vol C Tables 4.2.6.8 and 6.1.1.4'
O O 0.0106 0.0060 'International Tables Vol C Tables 4.2.6.8 and 6.1.1.4'
S S 0.1246 0.1234 'International Tables Vol C Tables 4.2.6.8 and 6.1.1.4'
Br Br -0.2901 2.4595 'International Tables Vol C Tables 4.2.6.8 and 6.1.1.4'
loop_
_geom_angle_atom_site_label_1
_geom_angle_atom_site_label_2
_geom_angle_atom_site_label_3
_geom_angle
C17 S2 C16 103.82(11)
C10 O4 C15 121.33(18)
C17 N6 C20 121.4(2)
C17 N6 C18 123.9(2)
C20 N6 C18 114.7(2)
C8 C7 C12 121.9(2)
C8 C7 Br1 120.24(19)
C12 C7 Br1 117.90(19)
C7 C8 C9 119.4(2)
C7 C8 H8 120.3
C9 C8 H8 120.3
C10 C9 C8 117.9(2)
C10 C9 C13 117.7(2)
C8 C9 C13 124.4(2)
O4 C10 C11 115.5(2)
O4 C10 C9 122.4(2)
C11 C10 C9 122.1(2)
C12 C11 C10 119.3(2)
C12 C11 H11 120.4
C10 C11 H11 120.4
C11 C12 C7 119.4(2)
C11 C12 H12 120.3
C7 C12 H12 120.3
C14 C13 C9 118.3(2)
C14 C13 C16 124.0(2)
C9 C13 C16 117.8(2)
C13 C14 C15 123.4(2)
C13 C14 H14 118.3
C15 C14 H14 118.3
O5 C15 O4 117.0(2)
O5 C15 C14 126.2(2)
O4 C15 C14 116.9(2)
C13 C16 S2 116.99(17)
C13 C16 H16A 108.0
S2 C16 H16A 108.0
C13 C16 H16B 108.0
S2 C16 H16B 108.0
H16A C16 H16B 107.3
N6 C17 S3 123.80(18)
N6 C17 S2 113.48(17)
S3 C17 S2 122.72(14)
N6 C18 C19 113.1(2)
N6 C18 H18A 109.0
C19 C18 H18A 109.0
N6 C18 H18B 109.0
C19 C18 H18B 109.0
H18A C18 H18B 107.8
C18 C19 H19A 109.5
C18 C19 H19B 109.5
H19A C19 H19B 109.5
C18 C19 H19C 109.5
H19A C19 H19C 109.5
H19B C19 H19C 109.5
N6 C20 C21 113.3(2)
N6 C20 H20A 108.9
C21 C20 H20A 108.9
N6 C20 H20B 108.9
C21 C20 H20B 108.9
H20A C20 H20B 107.7
C20 C21 H21A 109.5
C20 C21 H21B 109.5
H21A C21 H21B 109.5
C20 C21 H21C 109.5
H21A C21 H21C 109.5
H21B C21 H21C 109.5
loop_
_geom_bond_atom_site_label_1
_geom_bond_atom_site_label_2
_geom_bond_distance
Br1 C7 1.900(2)
S2 C17 1.775(2)
S2 C16 1.791(2)
S3 C17 1.664(2)
O4 C10 1.371(3)
O4 C15 1.372(3)
O5 C15 1.203(3)
N6 C17 1.333(3)
N6 C20 1.471(3)
N6 C18 1.476(3)
C7 C8 1.372(3)
C7 C12 1.384(4)
C8 C9 1.402(3)
C8 H8 0.9300
C9 C10 1.389(3)
C9 C13 1.457(3)
C10 C11 1.383(4)
C11 C12 1.369(4)
C11 H11 0.9300
C12 H12 0.9300
C13 C14 1.344(3)
C13 C16 1.506(3)
C14 C15 1.440(3)
C14 H14 0.9300
C16 H16A 0.9700
C16 H16B 0.9700
C18 C19 1.506(4)
C18 H18A 0.9700
C18 H18B 0.9700
C19 H19A 0.9600
C19 H19B 0.9600
C19 H19C 0.9600
C20 C21 1.496(4)
C20 H20A 0.9700
C20 H20B 0.9700
C21 H21A 0.9600
C21 H21B 0.9600
C21 H21C 0.9600
