#------------------------------------------------------------------------------
#$Date: 2016-03-13 15:25:55 +0200 (Sun, 13 Mar 2016) $
#$Revision: 178180 $
#$URL: svn://www.crystallography.net/cod/cif/1/54/28/1542809.cif $
#------------------------------------------------------------------------------
#
# This file is available in the Crystallography Open Database (COD),
# http://www.crystallography.net/
#
# All data on this site have been placed in the public domain by the
# contributors.
#
data_1542809
loop_
_publ_author_name
'Dubey, Ritesh'
'Desiraju, Gautam R.'
_publ_section_title
;
 Combinatorial selection of molecular conformations and supramolecular
 synthons in quercetin cocrystal landscapes: a route to ternary solids
;
_journal_issue                   4
_journal_name_full               IUCrJ
_journal_page_first              402
_journal_page_last               408
_journal_paper_doi               10.1107/S2052252515009884
_journal_volume                  2
_journal_year                    2015
_chemical_formula_sum            'C30 H20 N2 O7 S'
_chemical_formula_weight         552.54
_chemical_name_systematic
;
 ?
;
_space_group_crystal_system      triclinic
_space_group_IT_number           2
_space_group_name_Hall           '-P 1'
_space_group_name_H-M_alt        'P -1'
_symmetry_space_group_name_Hall  '-P 1'
_symmetry_space_group_name_H-M   'P -1'
_atom_sites_solution_hydrogens   mixed
_audit_creation_method           SHELXL-2013
_cell_angle_alpha                78.51
_cell_angle_beta                 85.22
_cell_angle_gamma                66.39
_cell_formula_units_Z            2
_cell_length_a                   9.974
_cell_length_b                   11.421
_cell_length_c                   13.009
_cell_measurement_temperature    150(2)
_cell_volume                     1330.627
_computing_structure_refinement  'SHELXL-2013 (Sheldrick, 2013)'
_diffrn_ambient_temperature      150(2)
_diffrn_measured_fraction_theta_full 0.998
_diffrn_measured_fraction_theta_max 0.998
_diffrn_radiation_type           MoK\a
_diffrn_radiation_wavelength     0.71073
_diffrn_reflns_av_R_equivalents  0.0596
_diffrn_reflns_av_unetI/netI     0.0748
_diffrn_reflns_laue_measured_fraction_full 0.998
_diffrn_reflns_laue_measured_fraction_max 0.998
_diffrn_reflns_limit_h_max       12
_diffrn_reflns_limit_h_min       -12
_diffrn_reflns_limit_k_max       14
_diffrn_reflns_limit_k_min       -14
_diffrn_reflns_limit_l_max       16
_diffrn_reflns_limit_l_min       -16
_diffrn_reflns_number            14146
_diffrn_reflns_point_group_measured_fraction_full 0.998
_diffrn_reflns_point_group_measured_fraction_max 0.998
_diffrn_reflns_theta_full        25.242
_diffrn_reflns_theta_max         27.483
_diffrn_reflns_theta_min         3.024
_exptl_absorpt_coefficient_mu    0.174
_exptl_absorpt_correction_T_max  1.000
_exptl_absorpt_correction_T_min  0.732
_exptl_absorpt_correction_type   multi-scan
_exptl_absorpt_process_details   'Jacobson, R. (1998) Private communication'
_exptl_crystal_colour            Yellow
_exptl_crystal_density_diffrn    1.379
_exptl_crystal_description       Plate
_exptl_crystal_F_000             572
_exptl_crystal_size_max          0.750
_exptl_crystal_size_mid          0.200
_exptl_crystal_size_min          0.100
_refine_diff_density_max         0.636
_refine_diff_density_min         -0.255
_refine_diff_density_rms         0.067
_refine_ls_extinction_method     none
_refine_ls_goodness_of_fit_ref   1.042
_refine_ls_hydrogen_treatment    mixed
_refine_ls_matrix_type           full
_refine_ls_number_parameters     439
_refine_ls_number_reflns         6078
_refine_ls_number_restraints     1
_refine_ls_restrained_S_all      1.042
_refine_ls_R_factor_all          0.1182
_refine_ls_R_factor_gt           0.0679
_refine_ls_shift/su_max          0.003
_refine_ls_shift/su_mean         0.000
_refine_ls_structure_factor_coef Fsqd
_refine_ls_weighting_details
;
 w=1/[\s^2^(Fo^2^)+(0.0950P)^2^+0.4836P]
 where P=(Fo^2^+2Fc^2^)/3
;
_refine_ls_weighting_scheme      calc
_refine_ls_wR_factor_gt          0.1742
_refine_ls_wR_factor_ref         0.2020
_reflns_Friedel_coverage         0.000
_reflns_number_gt                3677
_reflns_number_total             6078
_reflns_threshold_expression     'I > 2\s(I)'
_cod_data_source_file            lc5063.cif
_cod_data_source_block           QDP_22TP
_cod_depositor_comments
;
The following automatic conversions were performed:

'_exptl_absorpt_correction_type' value 'Multi-scan' changed to
'multi-scan' according to
/usr/data/users/saulius/automatic-downloads/current/IUCr/lib/dictionaries/cif_core.dic
dictionary named 'cif_core.dic' version 2.4.2 from 2011-04-26.

Automatic conversion script
Id: cif_fix_values 4287 2015-11-16 14:04:37Z antanas 
;
_cod_original_cell_volume        1330.6
_cod_database_code               1542809
_publcif_datablock.id            {814417a1-05a1-4b6a-97fa-a432cfc0cf41}
_shelx_space_group_comment
;
The symmetry employed for this shelxl refinement is uniquely defined
by the following loop, which should always be used as a source of
symmetry information in preference to the above space-group names.
They are only intended as comments.
;
_shelx_estimated_absorpt_t_min   0.881
_shelx_estimated_absorpt_t_max   0.983
_shelxl_version_number           2013-2
_shelx_res_file
;
TITL datam in P-1 #2
CELL  0.71073   9.9740  11.4210  13.0090   78.506   85.225   66.389
ZERR     2.00   0.0000   0.0000   0.0000    0.000    0.000    0.000
LATT   1
SFAC  C    H    N    O    S
UNIT  60   40   4    14   2
MERG   2
SUMP 1.0 0.001 1.0 2 1.0 3 1.0 4 1.0 5
HTAB C11 O4
HTAB C16 S1B
EQIV $1 -x+1, -y+1, -z
HTAB C20 O2_$1
EQIV $2 x+1, y, z-1
HTAB C26 O6_$2
FMAP   2
PLAN   20
SIZE     0.100   0.200   0.750
ACTA
BOND   $H
L.S.  10
TEMP  -123.00
WGHT    0.095000    0.483600
FVAR       0.33333   0.26368   0.28657   0.25677   0.19472
H1O   2    0.712190    0.312559    0.086165    11.00000    0.05029
H4O   2    0.109223    0.472553    0.571149    11.00000    0.04418
H5O   2    0.557131    0.328452    0.945129    11.00000    0.07024
H6O   2    0.881164    0.193670    0.878868    11.00000    0.12690
H2O   2    0.085126    0.496101    0.260375    11.00000    0.06112
MOLE    1
C1    1    0.477399    0.376121    0.334731    11.00000    0.01973    0.02573 =
         0.01369   -0.00322   -0.00311   -0.00810
C2    1    0.578544    0.346949    0.254918    11.00000    0.01358    0.02849 =
         0.02222   -0.00644   -0.00066   -0.00357
AFIX  43
H2    2    0.680570    0.312292    0.268431    11.00000   -1.20000
AFIX   0
C3    1    0.525965    0.370057    0.153668    11.00000    0.01934    0.02664 =
         0.01712   -0.00612    0.00287   -0.00777
C4    1    0.376227    0.419556    0.133737    11.00000    0.02128    0.03057 =
         0.01776   -0.00508   -0.00348   -0.00787
AFIX  43
H4    2    0.342663    0.433961    0.064283    11.00000   -1.20000
AFIX   0
C5    1    0.277760    0.447347    0.214106    11.00000    0.01532    0.02772 =
         0.01935   -0.00186   -0.00368   -0.00433
C6    1    0.326689    0.425790    0.318472    11.00000    0.01701    0.02805 =
         0.01763   -0.00264    0.00084   -0.00675
C7    1    0.229111    0.453041    0.404900    11.00000    0.01625    0.03070 =
         0.02034   -0.00222   -0.00244   -0.00564
C8    1    0.293426    0.421980    0.506964    11.00000    0.01810    0.03388 =
         0.01604   -0.00423    0.00142   -0.00803
C9    1    0.442490    0.371220    0.519192    11.00000    0.01969    0.02726 =
         0.01441   -0.00415    0.00143   -0.00882
C10   1    0.528437    0.332232    0.615379    11.00000    0.01777    0.02569 =
         0.01605   -0.00246   -0.00311   -0.00823
C11   1    0.465177    0.352552    0.713663    11.00000    0.01492    0.02716 =
         0.01857   -0.00468   -0.00137   -0.00724
AFIX  43
H11   2    0.361810    0.393029    0.719922    11.00000   -1.20000
AFIX   0
C12   1    0.551414    0.314377    0.801864    11.00000    0.01925    0.02760 =
         0.01568   -0.00439    0.00390   -0.00981
C13   1    0.703874    0.256060    0.794056    11.00000    0.01993    0.02706 =
         0.01719   -0.00252   -0.00285   -0.00707
C14   1    0.766342    0.235925    0.696650    11.00000    0.01377    0.03395 =
         0.02353   -0.00691    0.00174   -0.00339
AFIX  43
H14   2    0.869779    0.196085    0.690518    11.00000   -1.20000
AFIX   0
C15   1    0.681474    0.272509    0.608672    11.00000    0.01741    0.03409 =
         0.01629   -0.00590   -0.00008   -0.00632
AFIX  43
H15   2    0.726780    0.257243    0.542727    11.00000   -1.20000
AFIX   0
C16   1    0.979030    0.159177    0.178828    11.00000    0.02244    0.04718 =
         0.03353   -0.00477    0.00146   -0.01236
AFIX  43
H16   2    0.927843    0.118250    0.227735    11.00000   -1.20000
AFIX   0
C17   1    1.129076    0.108703    0.183948    11.00000    0.02174    0.03627 =
         0.03508    0.00050   -0.00392   -0.00700
AFIX  43
H17   2    1.179124    0.034486    0.235134    11.00000   -1.20000
AFIX   0
C18   1    1.208004    0.167006    0.113477    11.00000    0.01948    0.02886 =
         0.03372   -0.00962   -0.00202   -0.00618
C19   1    1.125867    0.275659    0.041316    11.00000    0.02272    0.03478 =
         0.03213   -0.00169   -0.00169   -0.00861
AFIX  43
H19   2    1.173673    0.319803   -0.007742    11.00000   -1.20000
AFIX   0
C20   1    0.975228    0.319358    0.040890    11.00000    0.02363    0.03909 =
         0.03016   -0.00464   -0.00428   -0.00377
AFIX  43
H20   2    0.922041    0.392836   -0.009865    11.00000   -1.20000
AFIX   0
C21   1    1.368558    0.118312    0.108799    11.00000    0.01886    0.03176 =
         0.04090   -0.00989   -0.00120   -0.00844
C22   1    1.458612    0.012984    0.171348    11.00000    0.01876    0.03311 =
         0.04366   -0.00821   -0.00406   -0.00645
C23   1    1.618748   -0.033856    0.163772    11.00000    0.01891    0.02702 =
         0.04294   -0.00683   -0.00333   -0.00726
C24   1    1.705993   -0.139289    0.236221    11.00000    0.02110    0.03177 =
         0.04739    0.00343   -0.00291   -0.00871
AFIX  43
H24   2    1.662095   -0.180352    0.291242    11.00000   -1.20000
AFIX   0
C25   1    1.856667   -0.183990    0.227807    11.00000    0.02164    0.03092 =
         0.05159   -0.00232   -0.00915   -0.00422
AFIX  43
H25   2    1.913936   -0.256397    0.277819    11.00000   -1.20000
AFIX   0
C26   1    1.841694   -0.027847    0.084139    11.00000    0.02115    0.04469 =
         0.03059   -0.00628   -0.00053   -0.01193
AFIX  43
H26   2    1.888306    0.012940    0.031010    11.00000   -1.20000
AFIX   0
C27   1    1.691239    0.021567    0.086517    11.00000    0.02132    0.03522 =
         0.03342   -0.00451   -0.00468   -0.00600
AFIX  43
H27   2    1.636869    0.093757    0.035184    11.00000   -1.20000
AFIX   0
C30   1    0.706902   -0.048581    0.502121    10.54007    0.05184    0.05261 =
         0.03175   -0.02358    0.01700   -0.02842
C33   1    0.453929    0.006604    0.504846    10.45993    0.07379    0.06003 =
         0.06044   -0.05102    0.01096   -0.03475
C34   1    0.943821   -0.056457    0.473987    10.46343    0.11975    0.12934 =
         0.09436   -0.07650    0.07712   -0.08578
AFIX  43
H34   2    1.029422   -0.039612    0.455572    11.00000   -1.20000
AFIX   0
C37   1    0.712488   -0.009737    0.448682    10.53657    0.19725    0.13622 =
         0.09956   -0.07368    0.04659   -0.10195
C35   1    0.945671   -0.168922    0.549883    10.58455    0.12437    0.09632 =
         0.12426   -0.06253   -0.04982    0.04598
AFIX  43
H35   2    1.032979   -0.233890    0.581958    11.00000   -1.20000
AFIX   0
C36   1    0.697114   -0.110253    0.569108    10.41545    0.06697    0.09580 =
         0.11572   -0.08014   -0.00167   -0.02703
N1    3    0.900797    0.263273    0.108399    11.00000    0.01745    0.04908 =
         0.02674   -0.01117    0.00125   -0.00626
N2    3    1.926068   -0.130465    0.152769    11.00000    0.01940    0.03845 =
         0.03546   -0.00731   -0.00330   -0.00629
O1    4    0.616664    0.344030    0.071238    11.00000    0.01501    0.04551 =
         0.01650   -0.00910    0.00050   -0.00489
O2    4    0.132824    0.495047    0.194678    11.00000    0.01318    0.05309 =
         0.01919   -0.00495   -0.00127   -0.00553
O3    4    0.091585    0.500114    0.395590    11.00000    0.01314    0.05732 =
         0.02051   -0.00299   -0.00016   -0.00685
O4    4    0.201904    0.442370    0.590917    11.00000    0.01411    0.06104 =
         0.01713   -0.00523    0.00054   -0.00622
O5    4    0.485344    0.334335    0.896514    11.00000    0.02048    0.04920 =
         0.01596   -0.00789    0.00047   -0.01079
O6    4    0.781929    0.223396    0.882960    11.00000    0.01858    0.04114 =
         0.01705   -0.00347   -0.00507   -0.00471
O7    4    0.531257    0.352321    0.432610    11.00000    0.01609    0.03236 =
         0.01407   -0.00369    0.00000   -0.00610
S1A   5    0.802261   -0.173856    0.572792    21.00000    0.07706    0.09675 =
         0.10052   -0.01313   -0.01588   -0.03794
S1B   5    0.797109    0.031571    0.426504    31.00000    0.05360    0.04462 =
         0.05855   -0.01494    0.00555   -0.00937
S1C   5    0.549003    0.059802    0.420487    41.00000    0.07855    0.06268 =
         0.04879   -0.00752    0.00861   -0.04225
S1D   5    0.440378    0.093157    0.408563    51.00000    0.09235    0.05053 =
         0.05063   -0.00818   -0.00879   -0.03487
HKLF    4

REM  datam in P-1 #2
REM R1 =  0.0679 for    3677 Fo > 4sig(Fo)  and  0.1182 for all    6078 data
REM    439 parameters refined using      1 restraints

END

WGHT      0.0947      0.4880

REM Highest difference peak  0.636,  deepest hole -0.255,  1-sigma level  0.067
Q1    1   1.4142  0.1613  0.0474  11.00000  0.05    0.64
Q2    1   1.4174 -0.0353  0.2339  11.00000  0.05    0.62
Q3    1   0.9799 -0.1927  0.5383  11.00000  0.05    0.34
Q4    1   0.4323 -0.0226  0.5153  11.00000  0.05    0.32
Q5    1   0.4769  0.0368  0.4639  11.00000  0.05    0.31
Q6    1   0.7530 -0.1150  0.5163  11.00000  0.05    0.30
Q7    1   0.4616  0.0173  0.5451  11.00000  0.05    0.30
Q8    1   0.6610 -0.1172  0.6024  11.00000  0.05    0.30
Q9    1   0.9916 -0.1083  0.5353  11.00000  0.05    0.29
Q10   1   0.7431 -0.0844  0.5530  11.00000  0.05    0.28
Q11   1   0.2593  0.4335  0.4513  11.00000  0.05    0.28
Q12   1   0.4970  0.1165  0.3473  11.00000  0.05    0.28
Q13   1   0.9792 -0.0732  0.4585  11.00000  0.05    0.27
Q14   1   0.5179  0.3394  0.7510  11.00000  0.05    0.27
Q15   1   0.7196  0.0007  0.4895  11.00000  0.05    0.25
Q16   1   0.4794  0.3700  0.5642  11.00000  0.05    0.25
Q17   1   0.2986  0.4544  0.2718  11.00000  0.05    0.25
Q18   1   0.7259  0.2551  0.7487  11.00000  0.05    0.24
Q19   1   0.8460 -0.1627  0.5969  11.00000  0.05    0.24
Q20   1   0.6240  0.0218  0.4063  11.00000  0.05    0.24
;
_shelx_res_checksum              62719
_shelx_hkl_file
;
   0   0   2   25.71    0.54
   0   0   2   21.65    0.49
   0   0  -2   24.25    0.51
   0   0   3 1149.68   13.45
   0   0   3 1117.59   12.58
   0   0  -3 1116.92   13.14
   0   0   4  346.91    6.04
   0   0   4  358.57    5.43
   0   0  -4  342.42    5.63
   0   0   5   17.97    1.01
   0   0   5   21.33    0.87
   0   0  -5   22.68    1.01
   0   0   6  170.29    4.29
   0   0   6  180.23    4.02
   0   0  -6  196.05    4.43
   0   0   7    3.01    0.70
   0   0   7    2.39    0.67
   0   0  -7    4.02    0.74
   0   0   8   20.98    1.40
   0   0   8   21.65    1.41
   0   0  -8   23.13    1.50
   0   0   9    3.02    0.72
   0   0   9    1.50    0.74
   0   0  -9    3.33    0.86
   0   0  10  143.47    4.60
   0   0 -10  151.87    5.48
   0   0  11   29.36    1.98
   0   0 -11   28.07    2.37
   0   0 -11   37.50    2.74
   0   0  12    6.31    1.26
   0   0 -12    8.77    1.77
   0   0 -12    6.96    1.51
   0   0  13   16.49    2.07
   0   0 -13   17.68    2.53
   0   0 -13   15.77    2.28
   0   0  14    7.69    1.81
   0   0 -14   10.99    2.22
   0   0 -14    8.47    2.06
   0   0  15   -0.82    1.23
   0   0 -15    0.02    1.22
   0   0  16    0.39    1.46
   0   0 -16    0.52    1.68
   0   1 -16    0.89    1.39
   0  -1  16    0.47    1.65
   0   1 -15   31.43    3.36
   0  -1  15   32.27    3.26
   0   1 -14    2.48    1.35
   0   1 -14    1.00    1.53
   0  -1  14    3.87    1.22
   0   1 -13    3.26    1.51
   0   1 -13    4.94    1.43
   0  -1  13    2.56    1.25
   0   1 -12   33.69    2.94
   0   1 -12   43.18    2.92
   0  -1  12   30.96    2.79
   0   1 -11   18.00    1.92
   0   1 -11   14.92    1.57
   0  -1  11   14.59    1.54
   0   1 -10    6.19    1.02
   0   1 -10    2.72    1.11
   0  -1  10    5.87    1.10
   0   1  -9    4.43    1.05
   0   1  -9    4.15    0.80
   0  -1   9    4.23    0.95
   0   1  -8    3.66    0.87
   0   1  -8    3.21    0.66
   0  -1   8    1.99    0.91
   0   1  -7   62.57    2.39
   0   1  -7   63.77    2.36
   0  -1   7   59.17    2.09
   0   1  -6    5.57    0.71
   0   1  -6    4.26    0.74
   0  -1   6    5.25    0.72
   0   1  -5   -0.09    0.33
   0   1  -5    0.74    0.47
   0  -1   5    0.91    0.51
   0   1  -4   16.78    0.91
   0   1  -4   15.16    0.76
   0  -1   4   18.18    0.81
   0   1  -3    2.60    0.47
   0   1  -3    2.27    0.32
   0  -1   3    2.70    0.64
   0   1  -2  137.54    2.06
   0   1  -2  120.59    1.89
   0  -1   2  125.60    1.94
   0   1   2    0.54    0.15
   0   1   2    0.49    0.12
   0  -1  -2    0.26    0.23
   0   1   3 1406.41   17.52
   0  -1  -3 1403.54   16.98
   0   1   4    6.11    0.46
   0   1   4    6.01    0.59
   0  -1  -4    6.21    0.75
   0   1   5  144.17    2.80
   0   1   5  142.76    3.41
   0  -1  -5  144.75    3.16
   0   1   6    2.70    0.55
   0   1   6    3.78    0.52
   0  -1  -6    3.53    0.76
   0   1   7   12.17    1.07
   0   1   7   14.73    0.97
   0  -1  -7   15.12    1.18
   0   1   8   17.12    1.24
   0   1   8   16.53    1.12
   0  -1  -8   18.67    1.43
   0   1   9    7.55    1.09
   0   1   9    6.77    1.00
   0  -1  -9    7.15    0.97
   0   1  10   58.44    2.81
   0   1  10   58.94    2.41
   0  -1 -10   59.80    2.89
   0   1  11  241.95    8.26
   0   1  11  231.82    6.84
   0  -1 -11  244.18    7.94
   0   1  12    0.96    0.99
   0   1  12    0.00    1.04
   0  -1 -12    3.63    1.14
   0   1  13   -0.68    0.88
   0   1  13   -0.99    0.90
   0  -1 -13    1.32    0.85
   0   1  14    1.89    1.28
   0  -1 -14    1.34    1.46
   0  -1 -14    0.65    1.60
   0   1  15   16.23    2.05
   0  -1 -15   16.85    2.72
   0  -1 -15   21.14    3.00
   0   1  16    0.80    1.08
   0  -1 -16   -0.03    1.30
   0   2 -15    5.10    1.95
   0  -2  15    4.03    1.93
   0   2 -14    0.80    1.27
   0   2 -14   -0.37    1.03
   0  -2  14    0.11    0.97
   0   2 -13   10.79    1.95
   0   2 -13   16.20    2.39
   0  -2  13   15.16    2.26
   0   2 -12  132.18    6.03
   0   2 -12  110.85    5.38
   0  -2  12  127.23    5.35
   0   2 -11   51.24    3.07
   0   2 -11   68.83    3.48
   0  -2  11   59.05    3.59
   0   2 -10    8.31    1.42
   0   2 -10   10.33    1.26
   0  -2  10   10.34    1.70
   0   2  -9   99.84    3.99
   0   2  -9  114.55    4.27
   0  -2   9  110.06    4.07
   0   2  -8   12.45    1.26
   0   2  -8   11.38    1.14
   0  -2   8   16.16    1.33
   0   2  -7   15.24    1.06
   0   2  -7   12.72    1.05
   0  -2   7   14.54    1.37
   0   2  -6    2.43    0.58
   0   2  -6    3.81    0.63
   0  -2   6    1.85    0.75
   0   2  -5   98.96    2.56
   0   2  -5   90.14    2.69
   0  -2   5   93.07    2.62
   0   2  -4   93.42    2.30
   0  -2   4  101.38    2.43
   0   2  -3    0.42    0.31
   0   2  -3    0.63    0.36
   0  -2   3    0.63    0.38
   0   2  -2    3.16    0.39
   0   2  -2    2.78    0.43
   0  -2   2    5.21    0.56
   0   2  -1  630.58    8.24
   0  -2   1  637.48    7.27
   0   2   0   22.81    0.72
   0  -2   0   21.80    0.63
   0  -2   0   21.01    0.51
   0   2   1  213.11    3.12
   0  -2  -1  206.80    2.93
   0  -2  -1  195.17    2.24
   0   2   2  284.53    4.32
   0  -2  -2  274.74    2.88
   0  -2  -2  279.36    4.07
   0   2   3  557.64    8.59
   0  -2  -3  550.84    8.58
   0   2   4   93.83    1.73
   0   2   4  106.51    2.50
   0  -2  -4  101.61    2.66
   0   2   5  119.48    2.98
   0   2   5  115.07    2.31
   0  -2  -5  117.25    2.97
   0   2   6   17.76    0.84
   0   2   6   22.56    1.27
   0  -2  -6   17.18    1.15
   0   2   7   23.76    1.08
   0   2   7   25.46    1.36
   0  -2  -7   26.04    1.40
   0   2   8   10.90    1.20
   0   2   8   13.25    0.82
   0  -2  -8   17.01    1.34
   0   2   9   -0.21    0.47
   0   2   9    1.51    0.67
   0  -2  -9    0.67    0.86
   0   2  10   55.07    2.96
   0   2  10   51.59    2.08
   0  -2 -10   55.77    2.99
   0   2  11  146.93    6.00
   0   2  11  147.32    4.74
   0  -2 -11  159.17    6.06
   0   2  12   10.42    1.18
   0   2  12    9.88    1.69
   0  -2 -12    8.55    1.49
   0   2  13    4.55    1.30
   0   2  13    4.98    1.52
   0  -2 -13    5.66    1.63
   0   2  14   27.24    2.09
   0   2  14   27.28    2.81
   0  -2 -14   25.97    3.04
   0   2  15    8.06    1.74
   0   2  15    2.46    1.68
   0  -2 -15    6.26    1.64
   0   2  16    1.56    1.36
   0  -2 -16    0.66    1.89
   0  -3  15   11.76    2.15
   0   3 -14    1.93    1.25
   0  -3  14    2.96    1.69
   0   3 -13    0.04    1.27
   0   3 -13    1.58    1.33
   0  -3  13    2.91    1.23
   0   3 -12    5.58    1.53
   0   3 -12    3.46    1.42
   0  -3  12    4.78    1.45
   0   3 -11   18.54    1.98
   0   3 -11   24.05    2.19
   0  -3  11   20.16    2.49
   0   3 -10    1.59    1.06
   0   3 -10    3.63    0.96
   0  -3  10    4.84    1.50
   0   3  -9   78.08    3.58
   0   3  -9   71.34    3.30
   0  -3   9   84.60    4.03
   0   3  -8   17.89    1.53
   0   3  -8   15.46    1.41
   0  -3   8   16.76    1.49
   0   3  -7    6.82    0.91
   0   3  -7    6.89    1.01
   0  -3   7    5.29    1.32
   0   3  -6    4.97    0.77
   0   3  -6    3.79    0.70
   0  -3   6    3.77    1.03
   0   3  -5  219.62    5.47
   0   3  -5  247.55    5.87
   0  -3   5  248.02    5.69
   0   3  -4    6.11    0.64
   0   3  -4    4.13    0.55
   0  -3   4    2.58    0.77
   0   3  -3   28.20    1.16
   0   3  -3   28.77    1.15
   0  -3   3   27.82    1.12
   0   3  -2  147.30    3.25
   0   3  -2  153.44    3.34
   0  -3   2  150.70    3.07
   0   3  -1  624.13   10.55
   0   3  -1  637.35    8.74
   0  -3   1  626.40    8.82
   0   3   0  220.81    4.10
   0  -3   0  214.33    3.53
   0  -3   0  215.78    3.24
   0   3   1  272.65    4.88
   0  -3  -1  272.21    3.60
   0  -3  -1  272.68    4.48
   0   3   2  338.02    6.02
   0  -3  -2  337.02    4.21
   0  -3  -2  328.47    5.40
   0   3   3   15.43    0.76
   0  -3  -3   13.99    0.86
   0   3   4   89.60    1.69
   0   3   4   84.74    2.42
   0  -3  -4   93.04    2.64
   0   3   5   56.99    1.94
   0   3   5   58.19    1.39
   0  -3  -5   56.77    2.02
   0   3   6    9.65    0.97
   0   3   6    8.73    0.59
   0  -3  -6    8.44    1.05
   0   3   7    7.46    0.99
   0   3   7    5.85    0.56
   0  -3  -7    6.40    0.98
   0   3   8    5.16    1.02
   0   3   8    4.55    0.58
   0  -3  -8    5.72    0.99
   0   3   9    7.65    1.21
   0   3   9    7.17    0.81
   0  -3  -9    8.81    1.21
   0   3  10   88.67    2.89
   0   3  10   96.78    4.32
   0  -3 -10   90.33    4.16
   0   3  11    9.75    1.04
   0   3  11    9.69    1.42
   0  -3 -11    8.73    1.81
   0   3  12   10.79    1.18
   0   3  12   11.07    1.81
   0  -3 -12   11.44    1.95
   0   3  13    6.86    1.24
   0   3  13    3.03    1.54
   0  -3 -13    4.41    1.38
   0   3  14    8.46    2.10
   0   3  14    8.87    1.57
   0  -3 -14   10.23    1.76
   0   3  15   -0.91    0.77
   0   3  15   -0.41    1.21
   0  -3 -15    2.12    1.34
   0   3  16   14.49    2.09
   0  -3 -16   13.48    2.89
   0  -4  14    0.94    1.31
   0   4 -13    0.46    1.20
   0  -4  13    2.10    1.54
   0   4 -12    7.97    1.77
   0   4 -12    9.06    1.71
   0  -4  12   11.97    2.16
   0   4 -11   13.27    2.00
   0   4 -11   16.26    1.80
   0  -4  11   20.96    2.38
   0   4 -10   50.29    3.00
   0   4 -10   47.31    3.06
   0  -4  10   63.26    3.27
   0   4  -9    0.98    0.73
   0   4  -9   -0.51    0.67
   0  -4   9    0.22    0.89
   0   4  -8    3.43    0.93
   0   4  -8    4.23    0.90
   0  -4   8    2.43    1.37
   0   4  -7   10.70    1.10
   0   4  -7    9.73    1.14
   0  -4   7    9.71    1.64
   0   4  -6    9.95    1.00
   0   4  -6    7.11    1.00
   0  -4   6    8.25    1.10
   0   4  -5  245.93    6.57
   0  -4   5  234.57    6.02
   0   4  -4   -0.03    0.56
   0   4  -4    1.41    0.48
   0  -4   4    0.82    0.60
   0   4  -3   17.15    1.10
   0   4  -3   18.69    1.20
   0  -4   3   21.17    1.17
   0   4  -2    2.06    0.55
   0   4  -2    0.82    0.46
   0  -4   2    4.82    0.68
   0   4  -1    2.67    0.52
   0  -4   1    1.89    0.51
   0  -4   1    2.90    0.50
   0   4   0   10.58    0.87
   0  -4   0    7.72    0.63
   0  -4   0    9.86    0.61
   0   4   1   16.68    1.01
   0  -4  -1   14.40    0.62
   0  -4  -1   13.74    0.85
   0  -4  -2   19.63    0.71
   0  -4  -2   20.57    1.03
   0   4   3    3.08    0.70
   0  -4  -3    4.81    0.35
   0  -4  -3    3.93    0.61
   0   4   4   32.76    1.01
   0   4   4   34.41    1.47
   0  -4  -4   38.17    1.61
   0   4   5   17.50    0.78
   0   4   5   18.62    1.35
   0  -4  -5   18.48    1.57
   0   4   6    9.88    0.59
   0   4   6    9.59    0.97
   0  -4  -6    9.19    1.14
   0   4   7    6.71    1.14
   0  -4  -7   10.59    1.37
   0   4   8   30.01    1.25
   0   4   8   26.69    1.70
   0  -4  -8   29.85    2.31
   0   4   9    3.30    1.04
   0   4   9    1.73    0.58
   0  -4  -9    4.86    1.02
   0   4  10   29.49    1.46
   0   4  10   29.24    2.31
   0  -4 -10   24.50    2.25
   0   4  11   30.88    1.80
   0   4  11   36.84    2.68
   0  -4 -11   36.34    2.70
   0   4  12   11.39    1.31
   0   4  12   14.51    1.73
   0  -4 -12   14.79    2.10
   0   4  13    1.53    1.29
   0   4  13   -0.89    0.87
   0  -4 -13    6.18    1.38
   0   4  14    1.34    1.01
   0   4  14    3.33    1.19
   0  -4 -14    0.75    1.59
   0   4  15   -0.45    0.68
   0   4  15    1.38    1.16
   0  -4 -15    0.17    1.06
   0  -4 -16    6.75    1.92
   0  -5  14   11.88    2.93
   0   5 -13    1.28    1.33
   0  -5  13   -0.37    1.62
   0   5 -12    2.26    1.57
   0  -5  12    6.86    2.00
   0   5 -11   -0.39    1.16
   0   5 -11    2.64    1.19
   0  -5  11    7.65    1.58
   0   5 -10    5.57    1.13
   0   5 -10    2.84    1.19
   0  -5  10    2.57    1.36
   0   5  -9    9.58    1.43
   0   5  -9   13.98    1.85
   0  -5   9   15.78    2.07
   0   5  -8   -0.50    0.75
   0  -5   8   -0.77    0.99
   0   5  -7   -0.88    0.71
   0   5  -7   -0.05    0.58
   0  -5   7    1.26    0.76
   0   5  -6   28.13    1.63
   0   5  -6   23.65    1.60
   0  -5   6   28.32    1.88
   0   5  -5   99.27    3.78
   0   5  -5  120.17    4.09
   0  -5   5  121.80    4.19
   0   5  -4    4.36    0.75
   0   5  -4    3.56    0.90
   0  -5   4    4.84    0.86
   0   5  -3   47.42    1.83
   0   5  -3   50.37    2.10
   0  -5   3   48.71    2.05
   0   5  -2   -0.47    0.57
   0   5  -2   -0.65    0.36
   0  -5   2    1.00    0.39
   0   5  -1   21.16    1.22
   0  -5   1   19.25    1.04
   0  -5   1   18.55    1.12
   0   5   0    2.19    0.65
   0  -5   0    1.60    0.43
   0  -5   0    0.65    0.38
   0   5   1    4.05    0.67
   0  -5  -1    3.53    0.50
   0  -5  -1    2.79    0.44
   0   5   2    0.23    0.70
   0  -5  -2    3.51    0.64
   0   5   3    1.65    0.76
   0  -5  -3    3.49    0.62
   0  -5  -3    1.65    0.43
   0   5   4    0.64    0.62
   0  -5  -4   -0.75    0.69
   0  -5  -4    0.30    0.29
   0   5   5  152.34    4.67
   0   5   5  153.46    3.14
   0  -5  -5  151.72    4.86
   0   5   6   13.04    0.75
   0   5   6   16.59    1.34
   0  -5  -6   18.12    1.52
   0   5   7   37.75    1.27
   0   5   7   42.35    2.22
   0  -5  -7   36.91    2.31
   0   5   8    6.76    1.18
   0   5   8    4.26    0.55
   0  -5  -8    5.46    1.24
   0   5   9    3.66    0.98
   0   5   9    3.72    0.56
   0  -5  -9    2.14    1.57
   0   5  10   20.06    1.19
   0   5  10   19.61    2.10
   0  -5 -10   22.10    2.21
   0   5  11   41.03    1.97
   0   5  11   44.72    3.20
   0  -5 -11   41.24    2.80
   0   5  12   17.71    2.35
   0   5  12   19.44    1.51
   0  -5 -12   22.83    2.21
   0   5  13    3.28    1.46
   0   5  13    2.39    0.93
   0  -5 -13    3.21    1.33
   0   5  14    6.91    1.98
   0   5  14    4.42    1.19
   0  -5 -14    8.42    1.72
   0   5  15    5.22    2.17
   0  -5 -15    8.15    1.96
   0  -5 -16    1.46    1.57
   0  -6  13    1.60    1.68
   0   6 -12   -0.63    1.05
   0  -6  12   -0.98    1.37
   0   6 -11   -0.18    0.92
   0  -6  11    0.36    1.22
   0   6 -10   -0.03    0.95
   0  -6  10   -0.83    1.09
   0   6  -9    2.79    1.15
   0   6  -9    5.57    1.34
   0  -6   9    5.39    1.41
   0   6  -8    0.44    0.77
   0   6  -8   -0.43    0.70
   0  -6   8   -1.03    0.92
   0   6  -7    3.43    0.96
   0   6  -7    3.50    1.00
   0  -6   7    7.07    1.24
   0   6  -6    7.20    1.15
   0   6  -6   12.34    1.23
   0  -6   6   14.94    1.80
   0   6  -5    7.75    1.01
   0   6  -5    6.51    0.92
   0  -6   5    5.81    1.22
   0   6  -4   19.16    1.30
   0   6  -4   21.25    1.87
   0  -6   4   24.13    1.83
   0   6  -3    1.88    0.58
   0   6  -3    0.87    0.77
   0  -6   3    1.30    0.69
   0   6  -2   46.46    2.38
   0  -6   2   46.98    1.85
   0  -6   2   44.87    1.95
   0   6  -1    9.12    0.94
   0  -6   1    8.46    0.79
   0  -6   1    5.42    0.82
   0   6   0  141.07    4.37
   0  -6   0  133.20    3.49
   0  -6   0  128.62    3.53
   0   6   1   31.90    1.62
   0  -6  -1   30.44    1.51
   0  -6  -1   27.11    1.14
   0   6   2   31.15    1.69
   0  -6  -2   33.66    1.33
   0  -6  -2   37.86    1.68
   0   6   3   26.51    1.51
   0  -6  -3   22.39    0.98
   0  -6  -3   25.76    1.39
   0   6   4   25.69    1.52
   0  -6  -4   26.11    1.05
   0  -6  -4   30.32    1.65
   0   6   5   16.83    1.43
   0  -6  -5   22.80    1.96
   0   6   6   74.84    3.31
   0  -6  -6   76.49    3.40
   0   6   7    2.55    1.10
   0   6   7    1.54    0.41
   0  -6  -7    4.43    1.13
   0   6   8   36.68    2.53
   0   6   8   34.05    1.38
   0  -6  -8   38.85    3.12
   0   6   9    5.24    1.24
   0   6   9    2.10    0.50
   0  -6  -9    3.10    1.38
   0   6  10    8.02    1.22
   0   6  10    4.02    0.73
   0  -6 -10    8.20    1.80
   0   6  11  160.20    4.87
   0   6  11  185.53    7.95
   0  -6 -11  186.54    7.73
   0   6  12    4.78    1.53
   0  -6 -12   10.95    2.04
   0   6  13    1.93    1.41
   0  -6 -13    0.10    1.49
   0   6  14    0.96    1.63
   0  -6 -14    3.57    1.72
   0   6  15   -1.36    1.72
   0  -6 -15    4.90    1.94
   0  -6 -16    9.62    2.27
   0   7 -12   -0.98    1.23
   0  -7  12    1.15    1.26
   0   7 -11    2.08    1.34
   0  -7  11    3.19    2.01
   0   7 -10    0.89    0.89
   0  -7  10   -2.19    1.27
   0   7  -9   -0.78    1.03
   0  -7   9    0.46    0.94
   0   7  -8    1.75    1.02
   0  -7   8    0.82    1.11
   0   7  -7    0.23    0.67
   0   7  -7    0.91    0.96
   0  -7   7   -2.27    1.05
   0   7  -6    6.26    1.49
   0   7  -6    5.20    1.06
   0  -7   6    6.62    1.54
   0   7  -5   27.65    1.94
   0   7  -5   29.91    2.51
   0  -7   5   32.56    2.36
   0   7  -4    1.77    0.86
   0  -7   4    2.61    1.05
   0   7  -3    5.08    1.08
   0  -7   3    6.63    0.92
   0  -7   3    6.62    1.03
   0   7  -2    3.21    0.97
   0  -7   2    4.80    0.98
   0  -7   2    6.50    0.75
   0   7  -1    5.65    1.36
   0  -7   1    9.20    1.15
   0  -7   1   10.79    0.92
   0   7   0   -0.92    0.78
   0  -7   0    0.63    0.54
   0  -7   0    1.63    0.60
   0   7   1   16.10    1.39
   0  -7  -1   17.96    1.19
   0  -7  -1   16.46    1.07
   0   7   2    4.18    0.96
   0  -7  -2    5.75    0.69
   0  -7  -2    7.71    0.90
   0   7   3    8.70    1.41
   0  -7  -3    9.93    0.81
   0  -7  -3   13.34    1.18
   0   7   4    1.44    0.69
   0  -7  -4    0.60    0.95
   0  -7  -4    0.59    0.42
   0   7   5   14.49    1.33
   0  -7  -5   12.84    0.83
   0  -7  -5   17.70    1.96
   0   7   6    6.48    1.22
   0  -7  -6   11.03    1.87
   0   7   7   13.92    1.78
   0  -7  -7   16.46    2.35
   0   7   8   -0.17    1.06
   0  -7  -8    0.64    1.07
   0   7   9    0.91    1.40
   0  -7  -9    3.16    1.38
   0   7  10   -0.56    1.26
   0  -7 -10    2.38    1.44
   0   7  11    6.49    1.84
   0  -7 -11    9.09    2.10
   0   7  12    3.85    1.79
   0  -7 -12    3.88    1.90
   0   7  13    4.88    1.60
   0  -7 -13    2.66    1.88
   0   7  14   -1.33    1.26
   0  -7 -14    1.40    1.29
   0   7  15    3.37    2.04
   0  -7 -15    4.73    1.89
   0   8 -11   25.15    3.78
   0  -8  11   31.69    3.21
   0   8 -10    1.94    1.31
   0  -8  10   -1.99    1.44
   0   8  -9    3.73    1.33
   0  -8   9    0.06    1.65
   0   8  -8    1.63    1.01
   0  -8   8   -0.94    1.06
   0   8  -7   -1.36    0.99
   0  -8   7    0.39    0.96
   0   8  -6    1.46    0.88
   0   8  -6    4.92    1.08
   0  -8   6    0.99    1.06
   0   8  -5   19.66    1.86
   0  -8   5   20.41    2.15
   0  -8   5   19.35    1.65
   0   8  -4    6.82    1.18
   0  -8   4    3.66    1.02
   0  -8   4    5.85    1.28
   0   8  -3    0.31    0.85
   0  -8   3   -1.34    0.74
   0  -8   3    0.81    0.54
   0   8  -2    1.32    0.82
   0  -8   2    0.63    0.62
   0  -8   2    0.79    0.74
   0   8  -1    4.34    1.10
   0  -8   1    4.94    0.91
   0  -8   1    5.24    0.94
   0   8   0   13.42    1.50
   0  -8   0   13.51    1.28
   0  -8   0   14.54    1.30
   0   8   1    4.09    1.19
   0  -8  -1    3.33    0.78
   0  -8  -1    2.28    0.70
   0   8   2   18.20    1.92
   0  -8  -2   18.12    1.23
   0  -8  -2   21.08    1.68
   0   8   3   30.88    2.15
   0  -8  -3   29.57    1.55
   0  -8  -3   39.10    2.33
   0   8   4   38.09    2.27
   0  -8  -4   30.72    2.43
   0  -8  -4   35.78    1.51
   0   8   5    4.12    1.05
   0  -8  -5    2.70    0.57
   0  -8  -5    5.16    1.52
   0   8   6   73.35    4.31
   0  -8  -6   90.39    4.23
   0   8   7    1.44    1.54
   0  -8  -7    6.63    1.83
   0   8   8    0.71    0.98
   0  -8  -8   -0.28    1.03
   0   8   9    0.87    1.30
   0  -8  -9    2.44    1.30
   0   8  10    8.23    2.31
   0  -8 -10   12.60    1.97
   0   8  11    1.27    1.56
   0  -8 -11    5.90    1.70
   0   8  12    2.11    1.88
   0  -8 -12    2.91    1.59
   0   8  13    1.90    1.81
   0  -8 -13    1.45    1.49
   0   8  14   -2.65    2.00
   0  -8 -14   -1.86    1.62
   0   8  15   -0.03    2.01
   0  -8 -15    3.38    2.22
   0   9 -10    5.08    1.62
   0  -9  10   -2.03    1.40
   0   9  -9    2.30    1.48
   0  -9   9   -0.12    1.30
   0   9  -8    1.64    1.26
   0  -9   8    0.90    1.26
   0   9  -7    1.11    1.04
   0  -9   7    0.71    1.13
   0   9  -6   -0.15    0.96
   0  -9   6    0.88    0.97
   0   9  -5    1.01    1.01
   0  -9   5   -0.18    0.80
   0  -9   5   -0.04    0.68
   0   9  -4    7.22    1.78
   0  -9   4    8.58    1.30
   0  -9   4    7.79    1.15
   0   9  -3    2.38    1.40
   0  -9   3    3.63    1.26
   0  -9   3    3.34    0.86
   0   9  -2    0.05    0.71
   0  -9   2    0.21    0.72
   0  -9   2   -0.24    0.57
   0   9  -1    3.31    1.11
   0  -9   1    3.27    0.90
   0  -9   1    0.84    0.85
   0   9   0   15.74    1.80
   0  -9   0   17.35    1.55
   0  -9   0   11.45    1.28
   0   9   1    2.69    1.05
   0  -9  -1    2.13    0.93
   0  -9  -1    5.62    1.00
   0   9   2    1.00    1.01
   0  -9  -2   -0.19    0.68
   0  -9  -2   -0.37    0.51
   0   9   3    6.66    1.44
   0  -9  -3    3.97    0.80
   0   9   4   -0.38    0.77
   0  -9  -4    0.36    0.54
   0  -9  -4    0.01    0.78
   0   9   5   11.59    2.01
   0  -9  -5   14.51    2.06
   0   9   6   23.39    2.58
   0  -9  -6   22.39    2.35
   0   9   7    4.90    1.54
   0  -9  -7    7.65    1.62
   0   9   8    0.50    1.55
   0  -9  -8    1.93    1.32
   0   9   9    1.61    1.79
   0  -9  -9    2.93    1.90
   0   9  10    4.06    1.59
   0  -9 -10    1.59    1.58
   0   9  11    4.70    2.48
   0  -9 -11   10.80    2.23
   0   9  12    6.77    1.98
   0  -9 -12    3.59    1.96
   0   9  13    0.11    1.99
   0  -9 -13    2.00    1.57
   0   9  14    5.19    2.53
   0  -9 -14    1.99    2.35
   0  10  -8   -0.20    1.21
   0 -10   8    2.02    1.54
   0  10  -7    0.23    1.09
   0 -10   7   -0.75    1.35
   0  10  -6    9.81    1.91
   0 -10   6   12.98    2.15
   0  10  -5    5.54    1.62
   0 -10   5    7.91    1.61
   0  10  -4   -0.91    0.96
   0 -10   4    0.74    1.12
   0  10  -3    1.10    1.61
   0 -10   3    4.54    1.05
   0 -10   3    1.84    0.92
   0  10  -2    0.90    1.06
   0 -10   2    1.46    0.91
   0 -10   2   -0.25    0.83
   0  10  -1    0.10    0.99
   0 -10   1    0.70    0.74
   0 -10   1    1.40    0.87
   0  10   0   29.92    2.57
   0 -10   0   21.02    2.04
   0 -10   0   32.82    2.08
   0  10   1    8.33    1.61
   0 -10  -1   11.04    1.59
   0 -10  -1   11.20    1.34
   0  10   2    6.23    1.46
   0 -10  -2    5.81    1.18
   0 -10  -2    4.05    1.16
   0  10   3    2.03    1.24
   0 -10  -3    6.62    1.11
   0 -10  -3    2.20    0.81
   0  10   4   -1.21    1.17
   0 -10  -4   -0.99    1.20
   0  10   5    2.50    1.72
   0 -10  -5    6.68    1.78
   0  10   6    9.98    1.80
   0 -10  -6   13.53    2.44
   0  10   7    1.31    1.48
   0 -10  -7    6.27    1.87
   0  10   8    5.00    1.52
   0 -10  -8    1.15    1.62
   0  10   9   -2.36    1.77
   0 -10  -9    3.45    1.49
   0  10  10   -1.34    1.82
   0 -10 -10    1.80    1.40
   0  10  11    1.46    1.66
   0 -10 -11   -1.16    1.81
   0  10  12   -1.20    1.91
   0 -10 -12   -0.67    1.95
   0  10  13   -0.57    1.68
   0 -10 -13   -1.53    1.69
   0  11  -7    4.30    1.97
   0 -11   7    2.35    1.71
   0  11  -6   -0.37    1.42
   0 -11   6   -0.40    1.20
   0  11  -5    1.44    1.66
   0 -11   5    0.95    1.57
   0  11  -4    1.53    1.23
   0 -11   4    0.94    1.39
   0  11  -3    0.99    1.46
   0 -11   3    0.36    1.12
   0  11  -2   -0.78    1.35
   0 -11   2    0.21    0.86
   0 -11   2    1.53    1.05
   0  11  -1    2.56    1.56
   0 -11   1    2.00    1.09
   0 -11   1    0.46    0.98
   0  11   0    0.57    1.21
   0 -11   0    2.62    1.10
   0 -11   0    0.66    1.03
   0  11   1    4.63    1.51
   0 -11  -1    2.77    1.09
   0 -11  -1    3.01    1.29
   0  11   2    3.26    1.87
   0 -11  -2    5.93    1.49
   0  11   3    1.90    1.38
   0 -11  -3   -1.01    0.87
   0  11   4   -0.06    1.63
   0 -11  -4    4.14    1.56
   0  11   5    5.60    1.69
   0 -11  -5    4.86    2.00
   0  11   6    9.12    2.33
   0 -11  -6   10.51    1.98
   0  11   7    0.62    1.29
   0 -11  -7    0.12    1.34
   0  11   8    2.90    1.63
   0 -11  -8    0.16    1.94
   0  11   9    0.47    2.14
   0 -11  -9    2.49    1.70
   0  11  10   -2.65    1.90
   0 -11 -10    0.90    1.66
   0  11  11    6.87    2.39
   0 -11 -11    5.01    2.61
   0  11  12    1.31    1.83
   0 -11 -12    0.72    1.74
   0  12  -5    0.93    1.39
   0 -12   5    1.00    1.25
   0  12  -4   -0.01    1.27
   0 -12   4    0.38    1.08
   0  12  -3    2.86    1.80
   0 -12   3    0.78    1.54
   0  12  -2    0.09    1.22
   0 -12   2    0.44    1.21
   0  12  -1    7.45    2.11
   0 -12   1    9.85    1.57
   0  12   0    0.41    1.59
   0 -12   0   -0.63    0.98
   0  12   1    3.46    2.22
   0 -12  -1    5.13    1.51
   0  12   2    3.86    1.72
   0 -12  -2    3.48    1.52
   0  12   3    0.21    1.18
   0  12   4    1.91    1.89
   0 -12  -4    1.49    1.59
   0  12   5   -3.37    2.02
   0 -12  -5   -2.24    1.49
   0  12   6   -0.25    1.37
   0 -12  -6   -1.48    1.62
   0  12   7    1.87    1.74
   0 -12  -7    1.55    1.51
   0  12   8    0.20    1.94
   0 -12  -8    2.47    1.99
   0  12   9    4.29    2.19
   0 -12  -9    3.67    1.96
   0  12  10    3.32    2.37
   0 -12 -10   -0.37    1.72
   0  13  -1    0.88    1.91
   0  13   0    7.68    2.52
   0  13   1   -0.25    1.87
   0  13   2   -1.25    1.53
   0 -13  -2    1.11    1.19
   0  13   3    1.55    1.88
   0 -13  -3    0.46    1.52
   0  13   4   -0.27    1.40
   0 -13  -4   -0.19    1.41
   0  13   5    4.13    2.56
   0 -13  -5    3.19    2.13
   0  13   6    6.50    3.11
   0 -13  -6   14.75    2.91
   0  13   7   -0.80    2.04
   0 -13  -7    2.10    1.60
  -1  13   4    2.77    1.85
  -1  13   3    0.29    1.85
  -1  13   2   -1.46    1.82
   1 -12  -9   -2.59    1.73
  -1  12   9    0.03    1.83
   1 -12  -8    4.29    2.29
  -1  12   8    2.08    2.52
   1 -12  -7    1.12    1.47
  -1  12   7   -1.39    1.48
   1 -12  -6   11.59    2.32
  -1  12   6    0.49    2.70
   1 -12  -5   -0.22    1.55
  -1  12   5    2.39    1.81
   1 -12  -4    1.57    1.51
  -1  12   4    0.52    1.83
   1 -12  -3    0.67    1.34
  -1  12   3    0.54    1.79
   1 -12  -2   -0.53    1.23
  -1  12   2   -0.92    1.48
  -1  12   1    9.34    2.82
  -1  12   0    1.50    1.63
   1 -12   1    2.75    1.97
  -1  12  -1    7.56    1.96
   1 -12   2    3.42    1.45
  -1  12  -2    0.68    1.66
   1 -12   3   -0.20    1.10
  -1  12  -3    0.48    1.50
   1 -11 -11    7.98    2.23
  -1  11  11    3.17    2.31
   1 -11 -10   -0.23    1.93
  -1  11  10    2.20    1.84
   1 -11  -9   -1.35    1.80
  -1  11   9    2.25    1.58
   1 -11  -8    1.36    1.33
  -1  11   8   -0.68    1.40
   1 -11  -7    7.92    2.42
  -1  11   7   10.40    2.64
   1 -11  -6    1.07    1.65
  -1  11   6    1.41    1.40
   1 -11  -5   -2.28    1.23
  -1  11   5    0.08    1.32
   1 -11  -4   -0.39    1.21
  -1  11   4    0.08    1.07
   1 -11  -3    0.43    1.04
  -1  11   3   -0.78    1.10
   1 -11  -2   -0.57    1.04
   1 -11  -2   -1.25    0.93
  -1  11   2    1.84    1.20
   1 -11  -1    9.63    1.53
   1 -11  -1   10.61    1.63
  -1  11   1   13.80    2.21
   1 -11   0    1.63    1.24
   1 -11   0    3.22    1.06
  -1  11   0   -0.38    1.78
   1 -11   1    1.82    1.41
  -1  11  -1    2.11    1.82
   1 -11   2    5.11    1.63
  -1  11  -2    3.16    1.69
   1 -11   3    3.72    1.53
  -1  11  -3    0.46    1.98
   1 -11   4   -0.94    1.30
  -1  11  -4    0.55    1.17
   1 -11   5    3.41    1.68
  -1  11  -5    4.84    2.18
   1 -11   6    1.79    1.79
  -1  11  -6    2.29    1.97
   1 -10 -12    2.06    2.16
  -1  10  12    3.17    1.90
   1 -10 -11    1.27    1.55
  -1  10  11    0.81    1.71
   1 -10 -10    1.67    2.12
  -1  10  10    6.50    2.35
   1 -10  -9    5.66    1.84
  -1  10   9    4.64    2.44
   1 -10  -8    1.84    1.79
  -1  10   8    2.03    1.46
   1 -10  -7    1.36    1.04
  -1  10   7   -1.57    1.04
   1 -10  -6   16.88    2.30
  -1  10   6    6.72    1.99
   1 -10  -5    4.52    1.48
  -1  10   5    3.81    1.74
   1 -10  -4    1.48    1.43
  -1  10   4    1.99    1.19
   1 -10  -3    2.17    0.98
   1 -10  -3    4.32    1.13
  -1  10   3    3.17    1.42
   1 -10  -2    1.17    1.00
   1 -10  -2    1.77    1.16
  -1  10   2    2.71    1.23
   1 -10  -1   -0.07    0.79
   1 -10  -1    1.58    0.87
  -1  10   1   -0.57    1.00
   1 -10   0   10.77    1.42
   1 -10   0   11.15    1.73
  -1  10   0    9.00    1.92
   1 -10   1    5.86    1.37
   1 -10   1    2.67    1.00
  -1  10  -1    3.65    1.78
   1 -10   2    9.80    1.72
  -1  10  -2   10.22    2.01
   1 -10   3    6.96    1.63
  -1  10  -3    3.80    1.63
   1 -10   4    1.17    1.04
  -1  10  -4    2.26    1.59
   1 -10   5   -0.34    0.95
  -1  10  -5    0.85    1.06
   1 -10   6    4.50    2.04
  -1  10  -6    7.02    1.78
   1 -10   7   -0.62    1.26
  -1  10  -7    0.99    1.21
   1 -10   8    1.05    1.49
  -1  10  -8    1.34    1.49
   1  -9 -13    0.43    1.88
  -1   9  13   -2.83    1.88
   1  -9 -12    1.48    1.59
  -1   9  12    1.71    1.58
   1  -9 -11    8.64    2.33
  -1   9  11    4.79    2.51
   1  -9 -10    6.52    1.80
  -1   9  10    4.17    1.88
   1  -9  -9    2.45    1.87
  -1   9   9    3.21    1.91
   1  -9  -8   -0.08    1.03
  -1   9   8    0.39    1.04
   1  -9  -7    4.56    1.48
  -1   9   7    4.36    1.75
   1  -9  -6   14.24    2.27
  -1   9   6   11.62    1.84
   1  -9  -5    2.28    1.34
  -1   9   5    0.75    0.99
   1  -9  -4   -0.45    0.98
   1  -9  -4    0.50    0.55
  -1   9   4   -0.73    0.79
   1  -9  -3   -0.19    0.68
   1  -9  -3   -1.30    0.94
  -1   9   3    0.60    0.91
   1  -9  -2    3.42    1.03
   1  -9  -2    4.13    1.22
  -1   9   2    4.32    1.27
   1  -9  -1    3.88    0.96
   1  -9  -1    0.26    0.94
  -1   9   1    1.47    1.11
   1  -9   0   52.05    2.44
   1  -9   0   57.38    3.14
  -1   9   0   52.11    3.46
   1  -9   1    4.51    1.31
   1  -9   1    3.13    0.92
  -1   9  -1    7.67    1.39
   1  -9   2    3.91    0.79
   1  -9   2    6.33    1.32
  -1   9  -2    2.87    1.26
   1  -9   3   -1.67    1.02
  -1   9  -3    0.06    1.01
   1  -9   4    2.23    1.07
  -1   9  -4    3.64    1.24
   1  -9   5    4.24    1.77
  -1   9  -5    6.21    1.56
   1  -9   6   11.11    1.76
  -1   9  -6    5.22    1.66
   1  -9   7    1.94    1.26
  -1   9  -7    0.53    1.25
   1  -9   8    3.24    1.36
  -1   9  -8    0.80    1.42
   1  -9   9   -0.51    1.53
  -1   9  -9    0.93    1.41
   1  -8 -14    0.66    1.67
  -1   8  14    0.89    1.70
   1  -8 -13    1.41    1.44
  -1   8  13    0.60    1.64
   1  -8 -12    1.78    1.43
  -1   8  12    2.18    1.74
   1  -8 -11   16.84    2.80
  -1   8  11   11.75    2.63
   1  -8 -10   -0.23    1.06
  -1   8  10    0.41    1.08
   1  -8  -9    5.61    1.44
  -1   8   9   -0.04    1.38
   1  -8  -8    5.83    1.82
  -1   8   8    4.05    1.43
   1  -8  -7   -1.67    1.20
  -1   8   7    0.24    0.62
  -1   8   7    0.99    0.95
   1  -8  -6    8.10    1.97
  -1   8   6    7.82    1.71
   1  -8  -5   44.66    3.09
   1  -8  -5   34.18    1.78
  -1   8   5   33.29    2.75
   1  -8  -4    2.84    1.09
   1  -8  -4    0.85    0.65
  -1   8   4   -0.57    0.84
   1  -8  -3   10.33    1.44
   1  -8  -3   10.75    1.12
  -1   8   3   10.99    1.40
   1  -8  -2    4.88    1.10
   1  -8  -2    3.14    0.92
  -1   8   2    5.35    1.33
   1  -8  -1   21.17    1.39
   1  -8  -1   19.30    1.56
  -1   8   1   16.26    1.81
   1  -8   0    4.19    1.12
   1  -8   0    7.27    1.00
  -1   8   0    4.93    1.21
   1  -8   1   16.86    1.21
   1  -8   1   16.32    1.43
  -1   8  -1   15.32    1.83
   1  -8   2    0.96    0.70
   1  -8   2    0.45    0.67
  -1   8  -2    2.03    0.94
   1  -8   3   -0.09    0.49
   1  -8   3    0.76    0.81
  -1   8  -3    0.38    0.99
   1  -8   4    6.57    1.38
   1  -8   4    1.18    0.64
  -1   8  -4    4.78    1.16
   1  -8   5    0.13    0.91
  -1   8  -5   -0.10    0.76
   1  -8   6   -1.27    0.88
  -1   8  -6    0.96    1.29
   1  -8   7    0.01    0.92
  -1   8  -7   -0.84    1.34
   1  -8   8    3.16    1.27
  -1   8  -8    0.73    1.66
   1  -8   9    1.71    1.55
  -1   8  -9    1.49    1.33
   1  -8  10    6.85    1.77
  -1   8 -10    4.96    2.27
   1  -8  11   12.50    2.43
  -1   8 -11   12.76    3.02
   1  -7 -15    2.26    2.16
   1  -7 -14    1.90    1.60
  -1   7  14    0.89    1.34
   1  -7 -13    0.91    1.33
  -1   7  13    0.03    1.17
   1  -7 -12    3.90    1.71
  -1   7  12    0.70    1.33
   1  -7 -11    3.43    1.69
  -1   7  11    5.21    1.45
   1  -7 -10    0.41    1.26
  -1   7  10    2.46    1.30
  -1   7   9    1.68    1.42
   1  -7  -8    8.12    1.82
  -1   7   8    4.44    1.39
  -1   7   8    5.79    0.81
   1  -7  -7    5.81    1.92
  -1   7   7    6.49    0.90
  -1   7   7   10.97    1.33
   1  -7  -6    5.48    1.46
  -1   7   6    2.41    1.20
  -1   7   6    3.07    0.76
   1  -7  -5   19.00    1.29
   1  -7  -5   22.59    1.97
  -1   7   5   19.52    1.54
   1  -7  -4    5.25    1.21
   1  -7  -4    1.21    0.66
  -1   7   4    2.33    0.88
   1  -7  -3   10.64    1.00
   1  -7  -3   11.33    1.26
  -1   7   3    8.31    1.19
   1  -7  -2    1.33    0.63
   1  -7  -2    1.61    0.64
  -1   7   2   -0.19    0.78
   1  -7  -1   13.25    1.24
   1  -7  -1   13.87    1.22
  -1   7   1   13.83    1.50
   1  -7   0   95.28    3.47
   1  -7   0   90.88    3.02
  -1   7   0   94.13    4.02
   1  -7   1    4.15    1.00
   1  -7   1    5.45    0.72
  -1   7  -1    5.80    1.11
   1  -7   2    1.50    0.51
   1  -7   2    1.43    0.72
  -1   7  -2    0.32    1.05
   1  -7   3    2.55    0.55
   1  -7   3    0.84    1.06
  -1   7  -3    2.32    1.15
   1  -7   4    4.19    0.62
   1  -7   4    5.43    1.20
  -1   7  -4    2.30    1.18
   1  -7   5   13.91    1.09
   1  -7   5   16.20    1.80
  -1   7  -5   15.24    1.83
   1  -7   6   14.66    1.62
  -1   7  -6   10.49    1.65
   1  -7   7    3.40    1.43
  -1   7  -7    3.31    1.19
   1  -7   8    2.75    1.09
  -1   7  -8   -1.00    1.01
   1  -7   9   -0.49    1.36
  -1   7  -9    1.00    1.20
   1  -7  10    0.73    1.29
  -1   7 -10    2.29    1.20
   1  -7  11    0.20    1.33
  -1   7 -11   -0.28    1.06
   1  -7  12    2.48    2.00
  -1   7 -12    3.09    1.56
   1  -6 -15    0.22    1.30
   1  -6 -14    4.53    1.77
  -1   6  14    3.25    1.82
   1  -6 -13   10.00    1.83
  -1   6  13    3.30    2.04
   1  -6 -12    6.25    1.80
  -1   6  12    3.63    1.57
  -1   6  12    3.11    0.85
   1  -6 -11    4.76    1.27
  -1   6  11    1.60    0.73
  -1   6  11    4.04    1.20
   1  -6 -10    0.33    1.03
  -1   6  10    0.73    0.56
  -1   6  10    1.90    1.07
   1  -6  -9    7.99    1.54
  -1   6   9    4.51    1.18
   1  -6  -8    1.93    1.05
  -1   6   8    0.69    0.54
  -1   6   8    1.30    0.89
   1  -6  -7    5.91    1.35
  -1   6   7    3.60    0.74
  -1   6   7    5.29    1.04
   1  -6  -6  146.11    4.83
  -1   6   6  118.64    3.92
  -1   6   6  143.73    5.10
   1  -6  -5    3.83    0.68
   1  -6  -5    7.48    1.37
  -1   6   5    4.08    0.91
   1  -6  -4    1.00    0.91
   1  -6  -4    0.27    0.49
  -1   6   4    1.04    0.65
   1  -6  -3   16.41    1.43
   1  -6  -3   12.89    1.01
  -1   6   3   13.40    1.43
   1  -6  -2    4.34    0.70
   1  -6  -2    1.13    0.61
  -1   6   2    1.24    0.68
   1  -6  -1   25.96    1.34
   1  -6  -1   28.45    1.48
  -1   6   1   30.25    1.92
   1  -6   0  135.55    4.00
   1  -6   0  145.34    3.58
  -1   6   0  141.22    4.69
   1  -6   1    2.16    0.52
   1  -6   1    1.48    0.69
  -1   6  -1    0.91    0.73
   1  -6   2    1.59    0.50
   1  -6   2    0.83    0.83
  -1   6  -2    0.60    0.99
   1  -6   3    3.50    0.92
   1  -6   3    2.48    0.48
  -1   6  -3    2.53    0.91
   1  -6   4   31.27    2.13
   1  -6   4   30.61    1.31
  -1   6  -4   36.56    2.39
   1  -6   5    8.14    1.25
  -1   6  -5    6.46    0.78
  -1   6  -5   10.38    1.26
   1  -6   6    6.20    1.38
  -1   6  -6    5.29    1.06
  -1   6  -6    3.57    0.66
   1  -6   7    7.82    1.54
  -1   6  -7    5.53    1.23
   1  -6   8    3.18    1.18
  -1   6  -8    1.83    1.22
   1  -6   9    1.46    1.51
  -1   6  -9    2.17    1.00
   1  -6  10    0.90    1.39
  -1   6 -10    0.60    1.21
   1  -6  11    0.49    1.41
  -1   6 -11    0.08    1.18
   1  -6  12   14.61    2.39
  -1   6 -12   10.95    2.17
   1  -6  13   -0.05    1.78
  -1   6 -13   -2.18    1.68
   1  -5 -16    3.09    1.86
   1  -5 -15    0.13    1.43
   1  -5 -14    2.72    1.51
  -1   5  14    3.95    1.49
  -1   5  14    1.19    1.03
   1  -5 -13   -0.40    1.45
  -1   5  13    0.26    0.78
  -1   5  13    1.62    1.16
   1  -5 -12    9.11    1.63
  -1   5  12    7.16    1.66
  -1   5  12    4.94    1.09
   1  -5 -11   25.36    2.24
  -1   5  11   21.83    2.23
  -1   5  11   20.10    1.55
   1  -5 -10    9.54    1.73
  -1   5  10    6.79    0.92
  -1   5  10    5.94    1.38
   1  -5  -9    0.82    1.14
  -1   5   9   -0.37    0.84
  -1   5   9   -0.44    0.51
   1  -5  -8    5.11    1.44
  -1   5   8    4.92    0.77
  -1   5   8    8.37    1.22
   1  -5  -7   17.03    1.99
  -1   5   7   12.65    1.00
  -1   5   7   16.06    1.32
   1  -5  -6  210.19    6.04
  -1   5   6  214.98    6.10
  -1   5   6  172.25    5.19
   1  -5  -5    0.82    0.84
  -1   5   5    0.14    0.35
  -1   5   5    0.34    0.49
   1  -5  -4   88.37    2.44
   1  -5  -4   91.63    3.45
  -1   5   4   90.49    3.05
   1  -5  -3    5.83    0.77
   1  -5  -3    3.86    0.59
  -1   5   3    4.26    0.83
   1  -5  -2   16.28    1.10
   1  -5  -2   14.88    1.01
  -1   5   2   11.40    1.08
   1  -5  -1   38.74    1.45
   1  -5  -1   37.50    1.44
  -1   5   1   35.88    1.90
   1  -5   0   45.65    1.48
   1  -5   0   45.98    1.80
  -1   5   0   51.54    2.26
   1  -5   1    1.13    0.38
   1  -5   1    2.27    0.62
  -1   5  -1    2.86    0.86
   1  -5   2   13.34    0.71
   1  -5   2   18.72    1.31
  -1   5  -2   11.64    1.14
   1  -5   3   28.70    1.07
   1  -5   3   30.30    1.70
  -1   5  -3   30.25    1.77
   1  -5   4   16.80    1.25
  -1   5  -4   15.81    0.91
  -1   5  -4   16.10    1.36
   1  -5   5   32.79    1.86
  -1   5  -5   27.57    1.37
  -1   5  -5   29.56    2.01
   1  -5   6    0.59    0.82
  -1   5  -6   -0.33    0.39
  -1   5  -6    0.72    0.74
   1  -5   7    1.93    1.25
  -1   5  -7    0.23    0.72
  -1   5  -7    3.90    0.94
   1  -5   8    1.30    0.97
  -1   5  -8    1.44    0.92
   1  -5   9    3.90    1.72
  -1   5  -9    6.93    1.57
   1  -5  10    2.84    1.46
  -1   5 -10    0.73    1.06
   1  -5  11   22.49    2.35
  -1   5 -11   16.04    2.58
   1  -5  12    2.80    1.48
  -1   5 -12    1.55    1.63
   1  -5  13    2.46    1.52
  -1   5 -13    0.97    1.73
   1  -4 -16   -0.79    1.49
   1  -4 -15    0.56    1.95
  -1   4  15    3.10    1.24
   1  -4 -14    7.94    1.63
  -1   4  14    4.55    1.31
  -1   4  14    3.11    1.66
   1  -4 -13    3.23    1.73
  -1   4  13    3.55    1.40
  -1   4  13    3.21    1.13
   1  -4 -12   23.73    2.20
  -1   4  12   20.36    1.62
  -1   4  12   17.47    2.20
   1  -4 -11    0.19    1.04
  -1   4  11    3.52    0.86
  -1   4  11    0.47    0.72
   1  -4 -10   12.35    2.09
  -1   4  10   12.28    1.56
  -1   4  10   12.65    1.19
   1  -4  -9    0.72    0.94
  -1   4   9    0.74    0.59
  -1   4   9    1.47    0.68
   1  -4  -8   15.17    1.39
  -1   4   8   12.77    1.01
  -1   4   8    9.08    1.34
   1  -4  -7    9.81    1.23
  -1   4   7    9.10    0.83
  -1   4   7    7.77    1.14
   1  -4  -6    3.93    1.08
  -1   4   6    2.88    0.61
  -1   4   6    4.27    0.68
   1  -4  -5   24.91    1.50
  -1   4   5   29.66    1.40
  -1   4   5   21.86    1.22
   1  -4  -4   79.31    2.73
   1  -4  -4   77.48    2.12
  -1   4   4   65.76    2.37
   1  -4  -3   -0.08    0.35
   1  -4  -3    0.77    0.50
  -1   4   3   -0.95    0.49
   1  -4  -2    7.22    0.81
   1  -4  -2    7.95    0.70
  -1   4   2    6.03    0.71
   1  -4  -1   28.18    1.10
   1  -4  -1   31.82    1.31
  -1   4   1   30.01    1.49
   1  -4   0    2.38    0.45
   1  -4   0    1.69    0.39
  -1   4   0    1.29    0.60
   1  -4   1    0.12    0.58
   1  -4   1    0.55    0.34
  -1   4  -1    1.25    0.50
   1  -4   2   94.56    2.63
   1  -4   2   91.95    2.00
  -1   4  -2   92.58    3.20
   1  -4   3  127.71    3.61
  -1   4  -3  122.64    3.74
  -1   4  -3  126.59    2.60
   1  -4   4   19.09    1.20
  -1   4  -4   18.01    1.34
  -1   4  -4   17.13    0.85
   1  -4   5  226.14    5.94
  -1   4  -5  211.64    5.20
  -1   4  -5  241.28    6.46
   1  -4   6    5.91    1.13
  -1   4  -6    5.76    0.84
   1  -4   7    0.13    0.77
  -1   4  -7   -0.06    0.43
  -1   4  -7   -0.16    0.64
   1  -4   8   -1.14    0.83
  -1   4  -8    1.93    0.81
  -1   4  -8   -0.18    0.52
   1  -4   9    6.29    1.43
  -1   4  -9    1.25    0.91
   1  -4  10    5.11    1.14
  -1   4 -10    0.14    0.87
  -1   4 -10    1.37    1.00
   1  -4  11   19.92    2.26
  -1   4 -11   19.56    2.01
   1  -4  12   -1.67    1.29
  -1   4 -12   -0.83    1.34
   1  -4  13    1.93    3.33
  -1   4 -13   85.80    3.82
   1  -4  14    0.47    1.52
  -1   4 -14    0.13    1.28
   1  -3 -16    2.13    1.63
  -1   3  16    2.29    1.44
   1  -3 -15   -0.42    1.15
  -1   3  15    0.63    1.02
   1  -3 -14   -0.17    1.19
  -1   3  14   -0.50    0.93
  -1   3  14    0.37    0.78
   1  -3 -13    2.61    1.26
  -1   3  13    2.00    0.95
  -1   3  13    2.96    1.18
   1  -3 -12   39.70    3.11
  -1   3  12   32.45    2.76
  -1   3  12   37.37    2.28
   1  -3 -11  103.35    4.41
  -1   3  11   89.84    4.47
  -1   3  11   95.91    3.55
   1  -3 -10   96.93    4.48
  -1   3  10   92.82    4.11
  -1   3  10   94.73    3.33
   1  -3  -9   74.51    3.18
  -1   3   9   67.94    3.22
  -1   3   9   76.12    2.70
   1  -3  -8   80.17    3.03
  -1   3   8   77.23    3.00
  -1   3   8   78.72    2.57
   1  -3  -7    0.38    0.69
  -1   3   7    1.76    0.58
  -1   3   7    0.75    0.49
   1  -3  -6   46.21    1.99
  -1   3   6   50.10    1.98
  -1   3   6   42.88    1.67
   1  -3  -5  153.63    4.25
  -1   3   5  152.78    3.44
   1  -3  -4    0.07    0.51
  -1   3   4    0.04    0.32
  -1   3   4   -0.10    0.36
   1  -3  -3    7.77    0.71
   1  -3  -3    8.43    0.58
  -1   3   3    5.43    0.58
   1  -3  -2    0.52    0.51
   1  -3  -2    0.66    0.35
  -1   3   2   -0.07    0.43
   1  -3  -1    1.13    0.39
   1  -3  -1    0.81    0.32
  -1   3   1    0.82    0.38
   1  -3   0   64.35    1.67
   1  -3   0   68.61    1.38
  -1   3   0   77.16    2.08
   1  -3   1   11.52    0.44
   1  -3   1   12.18    0.71
  -1   3  -1    9.97    0.80
   1  -3   2   64.40    1.87
   1  -3   2   62.65    1.26
  -1   3  -2   63.01    2.06
   1  -3   3   52.81    1.95
  -1   3  -3   47.57    1.17
  -1   3  -3   45.19    1.66
   1  -3   4    4.59    0.80
  -1   3  -4    3.23    0.68
   1  -3   5   11.97    1.26
  -1   3  -5   11.47    0.81
  -1   3  -5   10.95    1.02
   1  -3   6    9.13    0.99
  -1   3  -6    6.68    0.95
  -1   3  -6    5.95    0.69
   1  -3   7    6.99    1.03
  -1   3  -7    3.37    0.68
  -1   3  -7    5.17    0.91
   1  -3   8    1.10    0.95
  -1   3  -8    0.97    0.61
  -1   3  -8    1.91    0.79
   1  -3   9    0.44    1.18
  -1   3  -9    5.89    1.00
  -1   3  -9   -1.20    0.62
   1  -3  10   -0.42    0.92
  -1   3 -10    0.28    0.78
  -1   3 -10    0.35    0.64
   1  -3  11   15.89    2.24
  -1   3 -11   10.29    1.49
  -1   3 -11   16.99    2.14
   1  -3  12    0.78    1.14
  -1   3 -12    1.07    0.98
  -1   3 -12    0.06    1.26
   1  -3  13    0.90    1.19
  -1   3 -13    0.41    1.43
   1  -3  14    1.55    1.26
  -1   3 -14   -0.14    1.41
   1  -3  15    2.09    1.87
   1  -2 -16   -0.03    1.74
  -1   2  16    2.57    1.46
   1  -2 -15    7.65    2.52
  -1   2  15    6.42    1.42
   1  -2 -14    6.24    1.71
  -1   2  14    1.14    1.04
   1  -2 -13    9.47    1.61
  -1   2  13    6.79    1.59
  -1   2  13    6.24    1.60
   1  -2 -12    0.43    1.26
  -1   2  12    2.53    1.01
  -1   2  12    1.38    0.81
   1  -2 -11  213.72    7.73
  -1   2  11  201.71    7.39
  -1   2  11  215.27    6.48
   1  -2 -10    3.83    1.01
  -1   2  10    3.64    1.02
  -1   2  10    2.09    0.87
   1  -2  -9    3.91    1.19
  -1   2   9    2.59    0.91
  -1   2   9    5.59    0.79
   1  -2  -8    5.24    0.97
  -1   2   8    5.77    0.92
  -1   2   8    4.62    0.76
   1  -2  -7   94.92    3.42
  -1   2   7   95.14    2.71
  -1   2   7   93.53    3.00
   1  -2  -6   37.05    1.96
  -1   2   6   39.48    1.53
  -1   2   6   37.60    1.52
   1  -2  -5   66.23    2.04
  -1   2   5   61.20    1.93
  -1   2   5   63.39    1.80
   1  -2  -4    2.73    0.56
  -1   2   4    2.13    0.45
  -1   2   4    2.21    0.43
   1  -2  -3  131.27    2.99
  -1   2   3  135.43    2.66
  -1   2   3  129.81    2.51
   1  -2  -2    8.73    0.60
   1  -2  -2    7.84    0.81
  -1   2   2    9.48    0.61
   1  -2  -1   15.44    0.85
   1  -2  -1   18.71    0.78
  -1   2   1   15.89    0.69
   1  -2   0   36.52    1.05
   1  -2   0   34.59    0.75
  -1   2   0   37.09    1.14
   1  -2   1   19.64    0.42
   1  -2   1   18.93    1.02
  -1   2  -1   21.84    0.94
   1  -2   2   75.34    1.83
  -1   2  -2   82.47    2.09
   1  -2   3   51.55    1.61
  -1   2  -3   55.57    1.94
   1  -2   4   12.41    1.17
  -1   2  -4   14.57    0.64
  -1   2  -4   13.32    0.94
   1  -2   5   78.49    2.40
  -1   2  -5   65.00    2.31
  -1   2  -5   66.96    1.83
   1  -2   6  250.09    6.06
  -1   2  -6  250.79    5.38
  -1   2  -6  255.32    6.89
   1  -2   7    1.61    0.70
  -1   2  -7    0.27    0.51
  -1   2  -7    1.51    0.79
   1  -2   8   -0.62    0.97
  -1   2  -8    1.66    0.89
  -1   2  -8    1.38    0.62
   1  -2   9    7.81    1.30
  -1   2  -9    5.39    1.36
  -1   2  -9    8.10    1.07
   1  -2  10   12.84    1.45
  -1   2 -10   10.70    1.65
  -1   2 -10   11.83    1.44
   1  -2  11    2.08    1.05
  -1   2 -11    1.05    1.08
  -1   2 -11    3.94    1.03
   1  -2  12    2.30    1.09
  -1   2 -12   -0.66    1.20
  -1   2 -12    1.06    1.00
   1  -2  13    4.42    1.32
  -1   2 -13    0.95    1.34
  -1   2 -13    1.73    1.48
   1  -2  14   -0.44    1.11
  -1   2 -14    1.45    1.33
   1  -2  15    2.85    1.68
  -1   2 -15    0.87    1.87
   1  -1 -16    0.65    2.00
  -1   1  16    8.85    1.90
   1  -1 -15    3.28    1.49
  -1   1  15    1.08    1.20
   1  -1 -14    7.22    2.23
  -1   1  14    6.58    1.67
   1  -1 -13    3.47    1.56
  -1   1  13    0.67    1.03
  -1   1  13    1.35    1.10
   1  -1 -12    0.20    1.19
  -1   1  12    1.36    0.99
  -1   1  12    0.60    0.93
   1  -1 -11  114.23    5.18
  -1   1  11  109.85    4.06
  -1   1  11  109.21    4.52
   1  -1 -10   11.36    1.56
  -1   1  10   10.30    1.12
  -1   1  10    8.53    1.25
   1  -1  -9   36.96    2.10
  -1   1   9   40.28    1.97
  -1   1   9   38.52    1.87
   1  -1  -8   20.56    1.45
  -1   1   8   16.69    1.06
  -1   1   8   16.87    1.18
   1  -1  -7    3.05    0.69
  -1   1   7    0.75    0.52
  -1   1   7    2.76    0.54
   1  -1  -6   44.67    1.78
  -1   1   6   41.44    1.51
  -1   1   6   41.89    1.55
   1  -1  -5  107.04    2.89
  -1   1   5  103.72    2.45
  -1   1   5   94.77    2.26
   1  -1  -4  126.13    3.02
  -1   1   4  121.50    2.58
  -1   1   4  117.55    2.29
   1  -1  -3   77.85    1.87
  -1   1   3   74.82    1.45
  -1   1   3   79.48    1.75
   1  -1  -2   56.15    1.37
   1  -1  -2   52.53    1.22
  -1   1   2   53.54    1.01
   1  -1  -1  359.28    4.13
   1  -1  -1  350.68    4.60
  -1   1   1  358.78    4.19
   1  -1   0  256.71    2.33
  -1   1   0  256.25    3.64
   1  -1   1  158.30    2.47
  -1   1  -1  158.85    2.85
   1  -1   2   30.60    0.96
  -1   1  -2   29.62    0.44
  -1   1  -2   31.27    1.11
   1  -1   3   42.23    1.28
  -1   1  -3   40.28    1.62
   1  -1   4   10.30    0.72
  -1   1  -4    9.89    0.94
   1  -1   5   65.45    2.12
  -1   1  -5   60.02    1.60
  -1   1  -5   68.64    2.29
   1  -1   6  248.84    5.40
  -1   1  -6  234.02    5.11
  -1   1  -6  249.91    6.86
   1  -1   7    3.71    0.86
  -1   1  -7    4.75    0.99
  -1   1  -7    5.53    0.67
   1  -1   8    5.07    1.07
  -1   1  -8    4.77    1.09
  -1   1  -8    3.85    0.79
   1  -1   9    2.72    0.83
  -1   1  -9    1.08    0.67
  -1   1  -9    0.48    1.01
   1  -1  10   49.72    2.98
  -1   1 -10   60.53    3.46
  -1   1 -10   55.39    2.73
   1  -1  11   57.72    3.46
  -1   1 -11   55.57    3.02
  -1   1 -11   55.86    3.75
   1  -1  12    8.92    1.77
  -1   1 -12    8.55    1.94
  -1   1 -12    6.98    1.50
   1  -1  13    2.51    1.31
  -1   1 -13   -0.57    1.33
  -1   1 -13    1.38    1.18
   1  -1  14    7.59    1.57
  -1   1 -14    2.99    1.93
  -1   1 -14    6.40    1.78
   1  -1  15    6.60    2.04
  -1   1 -15    7.49    2.26
  -1   1 -15    4.24    2.08
   1  -1  16    1.20    1.39
   1   0 -16    2.37    2.33
  -1   0  16    3.12    1.44
   1   0 -15   31.86    3.74
  -1   0  15   29.17    2.70
   1   0 -14   34.87    3.85
  -1   0  14   36.73    3.01
   1   0 -13    9.54    1.65
   1   0 -13    8.96    1.79
  -1   0  13    7.50    1.47
   1   0 -12   11.80    1.63
   1   0 -12    7.12    1.36
  -1   0  12    5.89    1.52
   1   0 -11  110.99    4.96
   1   0 -11   96.18    4.11
  -1   0  11   88.07    3.55
   1   0 -10   31.64    2.43
  -1   0  10   21.85    1.64
  -1   0  10   24.64    1.86
   1   0  -9   11.25    1.26
  -1   0   9    9.55    1.04
  -1   0   9   10.19    1.19
   1   0  -8   -1.41    0.73
  -1   0   8   -0.48    0.62
  -1   0   8   -0.47    0.50
   1   0  -7    3.52    0.71
  -1   0   7    3.43    0.57
  -1   0   7    3.06    0.62
   1   0  -6   40.38    1.60
  -1   0   6   37.48    1.54
  -1   0   6   38.54    1.34
   1   0  -5   10.13    0.73
  -1   0   5   10.28    0.64
  -1   0   5   10.97    0.61
   1   0  -4    2.57    0.43
  -1   0   4    2.20    0.29
  -1   0   4    2.23    0.43
   1   0  -3    1.49    0.42
  -1   0   3    0.77    0.33
  -1   0   3    1.28    0.23
   1   0  -2    2.65    0.28
  -1   0   2    2.74    0.31
   1   0   2   26.80    0.78
   1   0   2   29.76    0.69
  -1   0  -2   27.09    0.50
   1   0   3   10.85    0.78
   1   0   3   11.60    0.74
  -1   0  -3   11.27    0.55
   1   0   4   62.14    1.49
   1   0   4   65.48    1.90
  -1   0  -4   58.73    1.35
   1   0   5  598.85    9.58
   1   0   5  587.55   11.20
  -1   0  -5  597.90    9.32
   1   0   6    3.90    0.62
   1   0   6    5.82    0.78
  -1   0  -6    2.36    0.59
   1   0   7    5.57    0.85
   1   0   7    4.95    0.90
  -1   0  -7    5.82    0.73
   1   0   8    3.65    0.82
   1   0   8    1.90    0.59
  -1   0  -8    0.49    0.51
   1   0   9    5.01    0.92
  -1   0  -9    3.14    0.85
   1   0  10   31.67    1.99
  -1   0 -10   30.26    1.79
  -1   0 -10   28.88    2.33
   1   0  11  114.87    4.28
  -1   0 -11  118.52    5.23
  -1   0 -11  117.80    4.76
   1   0  12   11.68    1.85
  -1   0 -12   18.58    1.96
  -1   0 -12   12.57    2.18
   1   0  13    5.96    1.57
  -1   0 -13    4.15    1.42
  -1   0 -13    6.26    1.51
   1   0  14   -1.42    0.91
  -1   0 -14   -0.18    1.36
  -1   0 -14    1.76    1.21
   1   0  15   18.96    2.69
  -1   0 -15   25.52    3.28
  -1   0 -15   19.10    2.81
   1   0  16   16.20    2.67
  -1   0 -16   11.40    2.76
   1   1 -16    8.05    2.31
  -1  -1  16    3.02    1.80
   1   1 -15    1.69    1.42
  -1  -1  15    0.54    1.30
   1   1 -14    3.76    1.89
  -1  -1  14    1.86    1.18
   1   1 -13   11.97    2.22
   1   1 -13    6.85    1.58
  -1  -1  13   12.07    1.88
   1   1 -12    3.56    1.30
   1   1 -12    2.86    1.14
  -1  -1  12    2.19    1.30
   1   1 -11  173.64    6.12
   1   1 -11  161.89    6.67
  -1  -1  11  161.65    5.57
   1   1 -10   39.86    2.23
   1   1 -10   33.57    2.67
  -1  -1  10   35.10    1.98
   1   1  -9   23.32    1.54
   1   1  -9   24.10    1.88
  -1  -1   9   21.42    1.58
   1   1  -8    2.33    0.70
   1   1  -8    3.45    0.87
  -1  -1   8    2.73    0.88
   1   1  -7    2.20    0.56
   1   1  -7    2.71    0.68
  -1  -1   7    3.06    0.60
   1   1  -6   -0.08    0.38
   1   1  -6   -0.54    0.44
  -1  -1   6   -0.56    0.43
   1   1  -5  127.42    3.00
   1   1  -5  151.05    3.70
  -1  -1   5  150.97    3.27
   1   1  -4    0.36    0.24
   1   1  -4    0.04    0.35
  -1  -1   4    0.25    0.37
   1   1  -3   10.99    0.44
   1   1  -3   14.31    0.70
  -1  -1   3   13.39    0.72
   1   1  -2   20.85    0.84
  -1  -1   2   22.56    0.71
   1   1  -1    4.66    0.30
  -1  -1   1    6.10    0.30
   1   1   2  101.06    1.88
   1   1   2   96.93    1.15
  -1  -1  -2   95.72    1.40
   1   1   3    1.20    0.37
   1   1   3    1.24    0.32
  -1  -1  -3    1.47    0.36
   1   1   4   63.32    1.86
   1   1   4   66.30    1.44
  -1  -1  -4   66.25    1.63
   1   1   5  307.78    6.53
   1   1   5  305.31    4.95
  -1  -1  -5  299.09    5.32
   1   1   6   -0.42    0.39
   1   1   6    0.27    0.35
  -1  -1  -6    0.22    0.43
   1   1   7    0.07    0.36
   1   1   7   -0.57    0.44
  -1  -1  -7    0.71    0.45
   1   1   8    2.16    0.70
   1   1   8    2.64    0.83
  -1  -1  -8    0.73    0.73
   1   1   9    1.61    1.00
   1   1   9    3.08    0.94
  -1  -1  -9    2.90    0.73
   1   1  10   15.61    1.56
   1   1  10   12.91    1.55
  -1  -1 -10   12.82    1.26
   1   1  11   35.39    1.93
   1   1  11   32.30    2.19
  -1  -1 -11   29.59    2.01
   1   1  12   49.42    3.21
   1   1  12   47.92    2.98
  -1  -1 -12   53.38    3.07
   1   1  13    0.88    0.88
  -1  -1 -13    1.99    1.15
  -1  -1 -13    0.39    1.07
   1   1  14   16.28    2.16
  -1  -1 -14   20.60    2.32
  -1  -1 -14   16.35    2.66
   1   1  15   10.47    2.15
  -1  -1 -15   17.02    2.44
  -1  -1 -15   13.75    2.61
   1   1  16   52.67    3.73
  -1  -1 -16   58.14    4.85
   1   2 -15    4.83    2.37
  -1  -2  15    4.61    1.75
   1   2 -14    1.26    1.69
  -1  -2  14    0.45    1.34
   1   2 -13    0.12    0.87
   1   2 -13    1.20    1.24
  -1  -2  13    0.82    1.23
   1   2 -12    2.42    0.98
   1   2 -12    1.77    1.50
  -1  -2  12    1.79    1.36
   1   2 -11  123.53    5.88
   1   2 -11   94.35    4.03
  -1  -2  11  108.48    4.68
   1   2 -10   58.14    2.61
   1   2 -10   62.36    3.23
  -1  -2  10   63.73    3.23
   1   2  -9    2.47    0.61
   1   2  -9   -0.02    0.89
  -1  -2   9   -0.48    0.78
   1   2  -8    1.22    0.63
   1   2  -8    2.71    0.83
  -1  -2   8    2.37    0.81
   1   2  -7   11.88    0.86
   1   2  -7   16.06    1.26
  -1  -2   7   14.18    1.10
   1   2  -6    6.19    0.61
   1   2  -6    8.19    0.95
  -1  -2   6    5.38    0.81
   1   2  -5    3.50    0.75
   1   2  -5    2.14    0.49
  -1  -2   5    4.03    0.63
   1   2  -4   47.52    1.63
   1   2  -4   50.84    1.27
  -1  -2   4   50.78    1.68
   1   2  -3   80.39    2.10
   1   2  -3   84.12    1.57
  -1  -2   3   89.19    2.03
   1   2  -2    0.62    0.24
   1   2  -2   -0.46    0.33
  -1  -2   2    2.29    0.41
   1   2  -1  361.82    4.15
  -1  -2   1  357.52    4.34
   1   2   0  140.49    2.45
   1   2   0  138.74    1.98
  -1  -2   0  137.32    1.57
   1   2   1  275.94    3.80
  -1  -2  -1  264.69    3.91
   1   2   2    1.54    0.32
  -1  -2  -2    1.24    0.29
   1   2   3 1242.47    9.50
   1   2   3 1246.92   17.75
  -1  -2  -3 1247.15   15.67
   1   2   4   37.70    1.39
   1   2   4   39.09    0.82
  -1  -2  -4   37.38    1.44
   1   2   5  101.18    2.92
   1   2   5  107.08    1.97
  -1  -2  -5  100.52    2.60
   1   2   6   64.35    1.68
   1   2   6   64.52    2.25
  -1  -2  -6   62.68    2.24
   1   2   7   49.14    1.62
   1   2   7   47.59    2.22
  -1  -2  -7   52.11    2.11
   1   2   8    1.40    0.57
   1   2   8   -0.22    0.45
  -1  -2  -8   -0.98    0.50
   1   2   9    5.15    0.75
   1   2   9    3.21    1.10
  -1  -2  -9    5.41    1.11
   1   2  10   41.63    2.13
   1   2  10   43.17    2.29
  -1  -2 -10   40.44    2.40
   1   2  11   78.99    3.06
   1   2  11   91.27    4.43
  -1  -2 -11   86.59    3.94
   1   2  12   -1.11    1.17
   1   2  12    1.41    0.92
  -1  -2 -12    1.57    1.05
   1   2  13    0.21    1.18
   1   2  13    0.52    0.95
  -1  -2 -13    0.44    1.08
   1   2  14    0.18    0.89
   1   2  14   -0.05    1.08
  -1  -2 -14    2.97    1.22
   1   2  15   30.28    2.42
  -1  -2 -15   32.93    3.32
   1   2  16   15.88    2.05
  -1  -2 -16   23.72    3.39
  -1  -2 -16   18.00    3.23
   1   3 -15    6.64    2.04
  -1  -3  15    6.32    2.10
   1   3 -14    9.54    2.28
  -1  -3  14    5.61    1.77
   1   3 -13    2.27    1.47
  -1  -3  13    0.96    1.26
   1   3 -12    8.12    1.97
   1   3 -12    7.82    1.47
  -1  -3  12   11.52    2.04
   1   3 -11    5.15    1.54
   1   3 -11    3.81    1.04
  -1  -3  11    4.64    1.30
   1   3 -10  162.85    5.64
   1   3 -10  180.12    6.57
  -1  -3  10  175.76    6.16
   1   3  -9   65.29    3.22
   1   3  -9   66.38    2.77
  -1  -3   9   71.10    3.23
   1   3  -8    0.30    0.56
  -1  -3   8    2.17    0.75
   1   3  -7    3.98    0.90
   1   3  -7    3.00    0.65
  -1  -3   7    4.74    0.91
   1   3  -6   19.15    1.06
   1   3  -6   16.76    1.17
  -1  -3   6   21.25    1.26
   1   3  -5   17.15    1.11
   1   3  -5   15.32    0.75
  -1  -3   5   18.59    1.13
   1   3  -4  157.57    3.54
   1   3  -4  175.23    4.40
  -1  -3   4  168.95    3.83
   1   3  -3   22.10    1.16
  -1  -3   3   19.46    1.07
   1   3  -2   24.70    0.83
   1   3  -2   21.12    1.02
  -1  -3   2   25.57    0.88
   1   3  -1  142.35    2.65
   1   3  -1  144.11    3.10
  -1  -3   1  143.48    2.50
   1   3   0 6952.92   73.99
   1   3   0 6955.38   79.04
   1   3   1 1557.21   19.94
  -1  -3  -1 1570.27   21.14
   1   3   2  491.40    7.99
  -1  -3  -2  497.51    7.75
   1   3   3 4188.56   59.31
  -1  -3  -3 4206.93   52.78
   1   3   4  284.65    6.10
  -1  -3  -4  279.73    5.32
   1   3   5   -0.36    0.41
   1   3   5   -0.10    0.20
  -1  -3  -5   -0.28    0.60
   1   3   6   60.38    2.29
   1   3   6   64.01    1.43
  -1  -3  -6   63.49    2.32
   1   3   7   34.87    2.04
   1   3   7   36.54    1.24
  -1  -3  -7   33.50    1.73
   1   3   8    0.27    0.67
   1   3   8    0.15    0.40
  -1  -3  -8    0.15    0.66
   1   3   9   17.11    1.43
   1   3   9   16.09    1.08
  -1  -3  -9   13.66    1.47
   1   3  10   71.92    3.44
   1   3  10   72.20    2.62
  -1  -3 -10   72.36    3.11
   1   3  11    1.20    0.93
   1   3  11    1.95    0.84
  -1  -3 -11    2.04    1.22
   1   3  12   -0.57    0.78
  -1  -3 -12    0.45    0.95
   1   3  13    3.37    0.84
   1   3  13    1.51    1.56
  -1  -3 -13    3.04    1.16
   1   3  14    1.37    1.13
   1   3  14   -0.75    0.76
  -1  -3 -14   -1.32    0.97
   1   3  15    5.49    2.07
   1   3  15    8.69    1.38
  -1  -3 -15    5.60    1.71
   1   3  16    1.99    1.08
   1   3  16    1.04    1.39
  -1  -3 -16    1.95    1.45
  -1  -4  15    1.35    1.44
   1   4 -14   -0.38    1.45
  -1  -4  14   -0.31    1.47
   1   4 -13    7.13    2.28
  -1  -4  13   14.40    2.04
   1   4 -12    1.40    1.12
   1   4 -12    7.25    1.61
  -1  -4  12    5.76    1.78
   1   4 -11    5.14    1.28
   1   4 -11    3.12    1.02
  -1  -4  11    4.29    1.39
   1   4 -10   21.88    1.79
   1   4 -10   25.54    2.54
  -1  -4  10   30.35    2.24
   1   4  -9   27.21    2.14
   1   4  -9   17.51    1.51
  -1  -4   9   27.62    2.36
   1   4  -8    3.26    0.91
   1   4  -8    5.36    0.84
  -1  -4   8    4.28    1.41
   1   4  -7    0.51    0.53
   1   4  -7    0.16    0.56
  -1  -4   7   -0.56    0.87
   1   4  -6   49.44    2.45
   1   4  -6   48.74    2.02
  -1  -4   6   46.98    2.11
   1   4  -5    2.89    0.78
   1   4  -5    1.69    0.59
  -1  -4   5    3.39    0.84
   1   4  -4   13.75    1.20
   1   4  -4   14.71    0.85
  -1  -4   4   18.17    1.27
   1   4  -3    7.74    0.93
   1   4  -3    7.79    0.75
  -1  -4   3    8.05    0.75
   1   4  -2   49.04    1.85
   1   4  -2   49.32    1.50
  -1  -4   2   50.95    1.63
   1   4  -1   18.82    1.11
   1   4  -1   18.08    0.87
  -1  -4   1   19.38    0.85
   1   4   0 1674.82   24.35
   1   4   0 1648.19   27.49
  -1  -4   0 1663.21   18.37
   1   4   1  768.88   12.52
  -1  -4  -1  759.75    7.99
  -1  -4  -1  761.07   13.04
   1   4   2    1.10    0.53
  -1  -4  -2    0.86    0.44
   1   4   3  332.89    6.68
  -1  -4  -3  306.57    6.40
   1   4   4   87.58    2.77
  -1  -4  -4   83.29    2.59
   1   4   5   11.45    1.04
   1   4   5   11.17    0.38
  -1  -4  -5   12.33    1.01
   1   4   6  916.60   10.88
   1   4   6  926.02   19.87
  -1  -4  -6  923.52   18.15
   1   4   7    3.03    0.78
   1   4   7    0.67    0.36
  -1  -4  -7   -0.55    0.90
   1   4   8    4.23    1.12
   1   4   8    4.03    0.53
  -1  -4  -8    5.22    1.09
   1   4   9    5.32    1.15
   1   4   9    3.05    0.62
  -1  -4  -9    1.96    1.33
   1   4  10   15.99    1.72
   1   4  10   16.56    1.16
  -1  -4 -10   14.75    1.70
   1   4  11  231.40    9.13
   1   4  11  229.45    5.99
  -1  -4 -11  220.88    7.35
   1   4  12   36.09    3.03
   1   4  12   31.18    1.85
  -1  -4 -12   31.73    2.67
   1   4  13   -2.42    1.32
   1   4  13   -0.34    0.89
  -1  -4 -13   -1.41    1.29
   1   4  14    3.41    1.73
   1   4  14    4.11    1.24
  -1  -4 -14    5.48    1.45
   1   4  15   25.69    3.23
   1   4  15   21.83    2.20
  -1  -4 -15   28.90    2.69
   1   4  16    3.79    1.46
  -1  -4 -16    1.09    1.59
  -1  -5  14    1.91    1.47
  -1  -5  13    4.87    1.79
   1   5 -12   10.36    2.03
   1   5 -12    7.92    1.58
  -1  -5  12   10.74    2.24
   1   5 -11    7.00    1.33
   1   5 -11    7.99    1.86
  -1  -5  11   10.11    2.00
   1   5 -10   62.25    3.12
   1   5 -10   50.99    3.62
  -1  -5  10   63.90    3.55
   1   5  -9  120.27    4.72
   1   5  -9  103.84    5.60
  -1  -5   9  139.30    5.70
   1   5  -8    6.20    1.43
   1   5  -8    8.32    1.18
  -1  -5   8   13.02    1.72
   1   5  -7    3.30    0.85
   1   5  -7    4.07    0.98
  -1  -5   7    2.06    1.05
   1   5  -6  173.03    5.99
   1   5  -6  181.44    5.22
  -1  -5   6  178.44    5.53
   1   5  -5   30.34    1.71
   1   5  -5   27.99    1.84
  -1  -5   5   30.70    1.75
   1   5  -4   10.05    1.13
   1   5  -4   10.20    0.91
  -1  -5   4    8.00    1.11
   1   5  -3   -0.37    0.45
   1   5  -3   -0.02    0.51
  -1  -5   3    0.27    0.57
   1   5  -2    0.45    0.45
   1   5  -2    0.09    0.49
  -1  -5   2   -0.78    0.50
   1   5  -1    2.70    0.68
   1   5  -1    3.61    0.71
  -1  -5   1    4.51    0.62
   1   5   0   50.99    1.84
  -1  -5   0   54.62    1.54
  -1  -5   0   53.55    2.05
   1   5   1   44.14    1.78
  -1  -5  -1   40.20    1.09
  -1  -5  -1   38.80    1.46
   1   5   2   77.18    2.58
  -1  -5  -2   81.07    2.34
  -1  -5  -2   74.26    1.38
   1   5   3   26.18    1.38
  -1  -5  -3   28.88    1.38
   1   5   4  148.18    4.28
  -1  -5  -4  145.00    4.15
   1   5   5    4.80    1.00
  -1  -5  -5    4.57    0.97
   1   5   6   25.37    1.91
  -1  -5  -6   25.79    1.77
   1   5   7    6.90    1.11
   1   5   7    7.72    0.47
  -1  -5  -7   10.42    1.32
   1   5   8    7.96    0.59
   1   5   8    7.41    1.35
  -1  -5  -8    7.52    1.68
   1   5   9   25.87    1.11
   1   5   9   26.02    2.32
  -1  -5  -9   28.60    2.20
   1   5  10    5.39    1.36
   1   5  10    4.71    0.68
  -1  -5 -10    5.27    1.33
   1   5  11  151.92    6.59
   1   5  11  143.68    4.09
  -1  -5 -11  147.78    6.39
   1   5  12   17.71    2.40
   1   5  12   17.81    1.44
  -1  -5 -12   18.91    2.01
   1   5  13    4.48    1.02
   1   5  13    7.09    1.82
  -1  -5 -13    4.80    1.41
   1   5  14    7.94    1.31
   1   5  14    7.05    2.15
  -1  -5 -14   10.95    2.11
   1   5  15    0.90    1.69
  -1  -5 -15    1.63    1.65
   1   5  16    0.06    1.39
  -1  -5 -16   -0.45    1.47
  -1  -6  13    0.55    1.36
  -1  -6  12    1.73    1.49
   1   6 -11    4.54    1.62
   1   6 -11    1.39    1.39
  -1  -6  11   10.37    1.57
   1   6 -10    1.19    0.83
   1   6 -10    1.84    1.12
  -1  -6  10    1.35    1.17
   1   6  -9    9.84    1.57
   1   6  -9   11.06    1.72
  -1  -6   9   13.81    1.87
   1   6  -8    0.81    0.98
   1   6  -8    1.05    0.93
  -1  -6   8    2.06    1.31
   1   6  -7   -0.02    0.56
   1   6  -7    0.93    0.75
  -1  -6   7   -0.76    1.00
   1   6  -6   19.87    1.49
   1   6  -6   16.29    1.80
  -1  -6   6   19.86    1.90
   1   6  -5    5.59    1.15
   1   6  -5    6.35    1.17
  -1  -6   5    8.03    1.08
   1   6  -4   29.08    1.87
   1   6  -4   30.09    1.75
  -1  -6   4   31.66    1.94
   1   6  -3    0.19    0.65
   1   6  -3    1.43    0.53
  -1  -6   3    0.21    0.57
   1   6  -2   19.16    1.34
   1   6  -2   19.42    1.32
  -1  -6   2   19.31    1.25
   1   6  -1  190.30    5.02
  -1  -6   1  182.59    4.92
  -1  -6   1  179.37    4.16
   1   6   0   36.62    1.54
  -1  -6   0   34.08    1.30
  -1  -6   0   36.78    1.74
   1   6   1  118.53    3.69
  -1  -6  -1  127.85    3.76
  -1  -6  -1  125.93    2.74
   1   6   2   15.58    1.33
  -1  -6  -2   15.31    0.66
  -1  -6  -2   16.86    1.24
   1   6   3    2.65    0.74
  -1  -6  -3    4.57    0.71
  -1  -6  -3    2.91    0.31
   1   6   4    0.61    0.53
  -1  -6  -4    0.08    0.54
  -1  -6  -4    0.02    0.15
   1   6   5  175.32    5.62
  -1  -6  -5  175.91    5.15
   1   6   6    2.21    0.80
  -1  -6  -6    0.27    0.85
   1   6   7   58.01    3.35
  -1  -6  -7   61.26    3.21
   1   6   8   22.65    0.84
   1   6   8   25.25    2.03
  -1  -6  -8   25.24    2.19
   1   6   9   -0.87    0.73
   1   6   9    0.32    0.32
  -1  -6  -9   -2.25    0.99
   1   6  10   10.18    0.78
   1   6  10    9.89    1.97
  -1  -6 -10   10.09    1.87
   1   6  11  113.06    5.96
  -1  -6 -11  110.27    5.61
   1   6  12    0.82    1.42
  -1  -6 -12    1.83    1.27
   1   6  13    6.52    1.66
  -1  -6 -13    8.98    2.07
   1   6  14   -2.04    1.19
  -1  -6 -14    2.08    1.20
   1   6  15    0.14    1.79
  -1  -6 -15    3.31    1.49
   1   6  16    5.36    2.46
  -1  -6 -16    6.97    1.99
  -1  -7  12    6.60    2.10
   1   7 -11    4.26    1.77
  -1  -7  11    6.59    1.82
   1   7 -10    6.52    1.72
   1   7 -10    4.62    1.73
  -1  -7  10   11.77    2.19
   1   7  -9    0.82    1.05
   1   7  -9    0.63    0.99
  -1  -7   9   -0.45    1.08
   1   7  -8   -0.92    0.88
   1   7  -8   -1.44    1.00
  -1  -7   8    1.74    1.22
   1   7  -7   18.35    1.71
   1   7  -7   15.57    1.86
  -1  -7   7   21.83    2.24
   1   7  -6    1.51    0.92
   1   7  -6   -0.02    0.89
  -1  -7   6    1.68    0.94
   1   7  -5   35.14    2.63
   1   7  -5   41.39    2.53
  -1  -7   5   42.24    2.91
   1   7  -4    2.98    1.02
   1   7  -4    4.69    1.03
  -1  -7   4    4.67    1.21
   1   7  -3   13.87    1.44
   1   7  -3   13.76    1.36
  -1  -7   3   16.42    1.52
   1   7  -2   24.92    1.53
  -1  -7   2   25.13    1.41
   1   7  -1    9.96    1.04
  -1  -7   1    9.58    0.83
  -1  -7   1   10.64    1.09
   1   7   0    4.03    0.87
  -1  -7   0    3.25    0.62
  -1  -7   0    5.48    0.87
   1   7   1    6.17    0.97
  -1  -7  -1   10.18    1.06
  -1  -7  -1    7.97    0.67
   1   7   2   18.88    1.58
  -1  -7  -2   19.93    1.31
  -1  -7  -2   16.24    0.80
   1   7   3   -0.71    0.77
  -1  -7  -3    0.94    0.31
  -1  -7  -3    1.02    0.83
   1   7   4    3.62    1.01
  -1  -7  -4    1.80    0.88
   1   7   5    0.23    0.77
  -1  -7  -5    1.33    0.95
   1   7   6   13.77    1.42
  -1  -7  -6   11.63    1.58
   1   7   7    2.34    0.99
  -1  -7  -7    0.53    1.50
   1   7   8   34.95    3.05
  -1  -7  -8   38.80    3.38
   1   7   9    7.99    1.83
  -1  -7  -9   14.26    2.33
   1   7  10   69.20    4.13
  -1  -7 -10   73.35    4.14
   1   7  11    8.02    2.02
  -1  -7 -11    7.51    2.28
   1   7  12   10.68    2.17
  -1  -7 -12   17.51    2.26
   1   7  13    1.02    1.28
  -1  -7 -13   -0.87    1.07
   1   7  14    2.01    1.79
  -1  -7 -14    1.40    1.80
   1   7  15    3.70    2.10
  -1  -7 -15    2.19    2.03
   1   7  16    4.08    2.30
  -1  -7 -16    4.99    2.32
  -1  -8  11    0.22    1.57
   1   8 -10   17.58    2.50
  -1  -8  10   24.46    2.60
   1   8  -9    1.18    1.24
  -1  -8   9    1.86    1.51
   1   8  -8   -0.40    0.94
   1   8  -8    0.61    0.83
  -1  -8   8    1.70    1.29
   1   8  -7    1.48    0.90
   1   8  -7   -0.41    0.82
  -1  -8   7   -0.99    1.09
   1   8  -6    0.22    0.82
   1   8  -6   -0.56    0.85
  -1  -8   6   -0.39    0.89
   1   8  -5   78.95    4.08
  -1  -8   5   85.31    3.85
   1   8  -4   35.09    2.55
   1   8  -4   42.31    2.50
  -1  -8   4   46.23    2.36
   1   8  -3    2.50    1.03
  -1  -8   3    1.71    0.79
  -1  -8   3    0.30    1.03
   1   8  -2    6.93    1.28
  -1  -8   2    5.56    1.06
  -1  -8   2    6.14    0.87
   1   8  -1    0.37    0.69
  -1  -8   1    0.49    0.51
  -1  -8   1    0.95    0.68
   1   8   0   23.50    1.98
  -1  -8   0   22.35    1.43
  -1  -8   0   19.86    1.31
   1   8   1   12.31    1.35
  -1  -8  -1   11.44    1.11
  -1  -8  -1   11.28    0.86
   1   8   2   -0.60    0.80
  -1  -8  -2   -0.20    0.33
  -1  -8  -2    1.38    0.57
   1   8   3    1.32    0.79
  -1  -8  -3    0.24    0.95
  -1  -8  -3    1.34    0.40
   1   8   4   -0.10    0.78
  -1  -8  -4    1.55    0.75
   1   8   5   28.46    2.24
  -1  -8  -5   34.56    2.44
   1   8   6   36.36    2.99
  -1  -8  -6   41.96    2.65
   1   8   7    0.91    1.13
  -1  -8  -7    4.11    1.35
   1   8   8   16.15    2.47
  -1  -8  -8   18.38    2.51
   1   8   9    1.54    1.27
  -1  -8  -9    3.30    1.53
   1   8  10   25.60    3.11
  -1  -8 -10   31.28    3.29
   1   8  11   11.49    2.14
  -1  -8 -11   19.64    2.49
   1   8  12    7.83    2.04
  -1  -8 -12   10.28    1.92
   1   8  13    0.47    1.65
  -1  -8 -13    0.37    1.45
   1   8  14    0.81    1.78
  -1  -8 -14    0.69    1.78
   1   8  15    6.81    2.75
  -1  -8 -15   12.70    2.91
   1   9 -10    0.53    1.16
  -1  -9  10   -1.11    1.44
   1   9  -9   -1.14    1.31
  -1  -9   9   -0.41    1.40
   1   9  -8    2.26    1.43
  -1  -9   8    2.73    1.47
   1   9  -7    0.29    0.95
   1   9  -7    1.14    0.95
  -1  -9   7    0.20    1.29
   1   9  -6   -0.30    0.76
   1   9  -6    0.07    0.95
  -1  -9   6    0.37    0.82
   1   9  -5    7.40    1.40
  -1  -9   5    8.68    1.49
   1   9  -4    0.41    0.78
  -1  -9   4   -0.27    0.91
  -1  -9   4   -0.84    0.82
   1   9  -3    5.40    1.18
  -1  -9   3    5.44    1.19
  -1  -9   3    4.21    1.13
   1   9  -2    0.07    0.81
  -1  -9   2    0.44    0.77
  -1  -9   2    1.01    0.76
   1   9  -1    5.01    1.09
  -1  -9   1    3.47    1.03
  -1  -9   1    3.64    1.01
   1   9   0    4.94    1.22
  -1  -9   0    4.75    0.91
  -1  -9   0    8.96    1.18
   1   9   1    8.71    1.43
  -1  -9  -1   12.71    1.22
  -1  -9  -1    8.49    0.92
   1   9   2    1.85    0.86
  -1  -9  -2    0.84    0.78
  -1  -9  -2    0.39    0.61
   1   9   3   29.81    2.32
  -1  -9  -3   36.45    2.20
  -1  -9  -3   27.55    1.47
   1   9   4    2.52    1.33
  -1  -9  -4    3.95    1.10
   1   9   5    1.84    0.99
  -1  -9  -5    0.63    1.11
   1   9   6   34.50    3.00
  -1  -9  -6   41.39    2.91
   1   9   7    7.04    1.72
  -1  -9  -7    9.09    2.12
  -1  -9  -8    1.33    1.48
   1   9   9    0.63    1.75
  -1  -9  -9    4.12    1.88
   1   9  10    8.82    2.56
  -1  -9 -10   16.15    2.36
   1   9  11   59.63    4.83
  -1  -9 -11   71.58    4.72
   1   9  12   -1.75    1.43
  -1  -9 -12    0.66    1.53
   1   9  13   -0.02    1.45
  -1  -9 -13    1.29    1.55
   1   9  14    1.99    2.67
  -1  -9 -14    5.95    2.04
   1  10  -9    0.33    1.49
  -1 -10   9    2.71    1.49
   1  10  -8   -0.30    0.96
  -1 -10   8    0.59    1.03
   1  10  -7    1.45    1.37
  -1 -10   7    1.63    1.50
   1  10  -6    7.19    1.50
  -1 -10   6    4.04    1.51
   1  10  -5    1.73    1.21
  -1 -10   5   -0.03    1.10
  -1 -10   5   -1.58    0.89
   1  10  -4    0.31    0.95
  -1 -10   4    0.39    0.83
  -1 -10   4    0.61    0.95
   1  10  -3    6.43    1.39
  -1 -10   3    5.19    1.13
  -1 -10   3    7.20    1.30
   1  10  -2    0.02    0.88
  -1 -10   2    0.30    0.70
  -1 -10   2    0.25    0.63
   1  10  -1    1.00    0.91
  -1 -10   1   -0.25    0.83
  -1 -10   1    1.16    0.88
   1  10   0    7.83    1.79
  -1 -10   0    8.58    1.04
  -1 -10   0    9.59    1.45
   1  10   1    3.22    1.42
  -1 -10  -1    2.56    0.81
  -1 -10  -1    4.86    1.24
   1  10   2    1.97    1.53
  -1 -10  -2    3.79    0.77
  -1 -10  -2    6.61    1.37
   1  10   3    1.13    1.10
  -1 -10  -3    4.18    1.14
   1  10   4   11.79    2.12
  -1 -10  -4   13.52    2.02
   1  10   5    1.03    0.96
  -1 -10  -5   -1.15    0.91
   1  10   6   48.72    3.72
  -1 -10  -6   55.46    3.92
   1  10   7   -1.22    1.14
  -1 -10  -7    0.25    1.27
   1  10   8    8.74    2.24
  -1 -10  -8   12.15    2.30
   1  10   9    1.80    2.08
  -1 -10  -9    3.21    1.77
   1  10  10    0.77    1.84
  -1 -10 -10    1.33    1.83
   1  10  11   10.53    3.27
  -1 -10 -11   22.05    3.32
   1  10  12   10.90    2.98
  -1 -10 -12    8.16    3.02
   1  10  13    4.34    2.57
  -1 -10 -13    2.58    2.45
   1  11  -7   -2.12    1.78
  -1 -11   7   -2.56    1.72
   1  11  -6   -1.86    1.23
  -1 -11   6    0.60    1.12
   1  11  -5    5.35    1.90
  -1 -11   5    3.86    1.71
   1  11  -4    5.94    1.68
  -1 -11   4    7.45    1.54
  -1 -11   4    6.23    1.51
   1  11  -3    1.79    1.24
  -1 -11   3   -0.33    1.02
  -1 -11   3   -0.97    0.89
   1  11  -2    0.64    1.42
  -1 -11   2    0.99    1.00
  -1 -11   2    1.96    1.07
   1  11  -1    0.71    1.02
  -1 -11   1    0.35    0.76
  -1 -11   1   -0.18    0.89
   1  11   0    3.99    1.58
  -1 -11   0    5.90    1.37
  -1 -11   0    4.40    1.07
   1  11   1    2.50    1.29
  -1 -11  -1    2.73    1.23
  -1 -11  -1    0.58    0.75
   1  11   2    7.97    1.76
  -1 -11  -2    9.21    1.55
   1  11   3    1.66    1.16
  -1 -11  -3    0.52    0.98
   1  11   4    3.22    1.60
  -1 -11  -4    5.81    1.41
   1  11   5   15.45    2.50
  -1 -11  -5   19.58    2.67
   1  11   6   14.73    2.19
  -1 -11  -6   13.40    2.71
   1  11   7    4.25    1.56
  -1 -11  -7    2.15    2.07
   1  11   8    1.81    1.62
  -1 -11  -8    1.04    1.97
   1  11   9    3.58    2.64
  -1 -11  -9    7.53    2.55
   1  11  10    5.07    2.07
  -1 -11 -10    2.83    2.42
   1  11  11    1.10    1.87
  -1 -11 -11    1.44    1.75
   1  11  12    1.00    2.33
  -1 -11 -12    2.65    1.95
   1  12  -5   -0.97    1.88
  -1 -12   5    6.01    1.85
   1  12  -4   -0.89    1.50
  -1 -12   4    0.20    1.23
   1  12  -3   -1.26    1.19
  -1 -12   3    0.25    1.15
   1  12  -2   -0.67    1.15
  -1 -12   2   -0.73    0.94
  -1 -12   2    0.43    0.97
   1  12  -1   -0.46    1.15
  -1 -12   1    0.48    1.01
  -1 -12   1    0.14    0.74
   1  12   0   -0.73    1.54
  -1 -12   0    4.51    1.12
   1  12   1   -1.06    1.59
  -1 -12  -1   -0.98    1.25
   1  12   2    1.49    1.71
  -1 -12  -2   13.58    1.89
   1  12   3   -0.89    1.12
  -1 -12  -3    1.36    1.14
   1  12   4    2.16    1.43
  -1 -12  -4   -0.74    1.01
   1  12   5    6.58    2.43
  -1 -12  -5    6.52    1.74
   1  12   6    3.36    1.87
  -1 -12  -6    4.90    2.21
   1  12   7    1.27    1.53
  -1 -12  -7    2.24    2.10
   1  12   8    3.05    1.84
  -1 -12  -8   -1.66    1.49
   1  12   9    0.34    1.74
  -1 -12  -9    1.24    1.79
   1  12  10   -0.06    1.86
  -1 -12 -10    1.93    1.77
   1  12  11    0.49    2.10
  -1 -12 -11    4.26    2.50
   1  13  -3    0.30    1.69
   1  13  -2   -0.19    1.55
   1  13  -1   -0.09    1.23
   1  13   0    3.29    1.71
  -1 -13   0    2.61    1.61
   1  13   1    8.90    2.10
  -1 -13  -1    6.25    1.59
   1  13   2    1.08    1.80
  -1 -13  -2    0.78    1.44
   1  13   3    1.22    1.48
  -1 -13  -3    1.03    1.54
   1  13   4    5.67    2.50
  -1 -13  -4    6.72    1.71
   1  13   5    0.07    1.95
  -1 -13  -5    3.69    1.87
   1  13   6   -0.23    1.43
  -1 -13  -6   -0.43    1.37
   1  13   7   -1.38    1.49
  -1 -13  -7    0.80    1.42
   1  13   8    1.27    1.75
  -1 -13  -8   -0.43    2.14
   1  13   9    2.03    2.41
  -1 -13  -9    0.21    1.84
   1  14   3    3.09    2.02
   2 -12  -7    6.50    2.04
  -2  12   7    2.73    2.21
   2 -12  -6   29.59    3.27
  -2  12   6   21.25    4.29
   2 -12  -5   12.37    2.26
  -2  12   5   10.84    3.16
  -2  12   4   13.09    3.07
  -2  12   3   -1.33    1.77
  -2  12   2    3.91    1.86
  -2  12   1    2.95    2.22
  -2  12   0    2.88    2.36
  -2  12  -1   -2.57    2.18
   2 -11 -10   -0.63    1.95
  -2  11  10    3.19    1.84
   2 -11  -9    1.73    1.75
  -2  11   9    0.29    1.62
   2 -11  -8    1.48    1.81
  -2  11   8    2.32    1.67
   2 -11  -7   10.83    2.43
  -2  11   7    5.54    2.23
   2 -11  -6    4.26    1.83
  -2  11   6    2.88    2.18
   2 -11  -5    3.80    1.37
  -2  11   5    0.78    1.60
   2 -11  -4   -1.56    1.43
  -2  11   4   -2.86    1.67
   2 -11  -3    0.52    1.14
   2 -11  -2    0.88    1.17
   2 -11  -2    1.05    1.08
  -2  11   2    1.29    1.38
   2 -11  -1    1.16    1.33
  -2  11   1    2.17    1.44
   2 -11   0   -0.13    1.08
  -2  11   0    1.73    1.38
   2 -11   1    0.52    1.27
  -2  11  -1   -1.74    1.63
   2 -11   2    1.63    1.89
  -2  11  -2    3.89    2.06
   2 -11   3   -1.30    1.83
  -2  11  -3   -1.50    1.47
   2 -11   4    2.04    2.03
  -2  11  -4    2.21    1.94
   2 -11   5   28.33    3.90
  -2  11  -5   23.52    3.35
   2 -10 -11    0.85    1.52
  -2  10  11    3.96    2.24
   2 -10 -10    7.69    2.38
  -2  10  10    3.34    2.61
   2 -10  -9   10.03    2.47
  -2  10   9    7.86    2.24
   2 -10  -8    4.05    1.84
  -2  10   8    3.63    1.67
   2 -10  -7    8.45    2.18
  -2  10   7    8.84    2.42
   2 -10  -6    6.35    1.88
  -2  10   6    6.43    1.81
   2 -10  -5    2.46    1.26
  -2  10   5    2.04    1.37
   2 -10  -4    3.89    1.25
   2 -10  -4    3.22    1.46
  -2  10   4    6.14    1.90
   2 -10  -3    1.26    1.06
   2 -10  -3    1.03    1.16
  -2  10   3    1.31    1.26
   2 -10  -2    1.18    1.32
   2 -10  -2    2.82    1.24
  -2  10   2    5.39    1.48
   2 -10  -1    0.23    0.90
   2 -10  -1    0.67    1.09
  -2  10   1    0.98    1.16
   2 -10   0    3.09    1.39
  -2  10   0    3.03    1.51
   2 -10   1    5.69    1.78
  -2  10  -1    3.07    2.01
   2 -10   2    1.35    1.53
  -2  10  -2    1.55    1.66
   2 -10   3   -0.14    1.38
  -2  10  -3   -1.35    1.60
   2 -10   4    3.99    1.58
  -2  10  -4    4.65    1.77
   2 -10   5   20.00    3.02
  -2  10  -5   16.78    3.27
   2 -10   6    9.10    2.11
  -2  10  -6    7.61    2.12
   2 -10   7    9.28    2.27
  -2  10  -7    4.99    2.67
   2  -9 -13   -0.57    2.09
  -2   9  13   -2.00    1.94
   2  -9 -12    2.33    1.85
  -2   9  12   -0.25    1.91
   2  -9 -11    2.90    1.49
  -2   9  11   -0.01    1.64
   2  -9 -10    9.26    1.98
  -2   9  10    8.59    2.57
   2  -9  -9    0.10    1.40
  -2   9   9   -0.42    1.39
   2  -9  -8    0.27    1.38
  -2   9   8    1.13    1.24
   2  -9  -7    8.99    2.16
  -2   9   7    7.84    2.04
   2  -9  -6    6.97    1.38
   2  -9  -6   10.11    1.65
  -2   9   6    8.10    1.71
   2  -9  -5    2.02    0.91
   2  -9  -5    1.50    1.34
  -2   9   5    0.41    1.15
   2  -9  -4    1.04    0.90
   2  -9  -4   -0.56    1.04
  -2   9   4    0.71    1.00
   2  -9  -3    2.55    1.11
   2  -9  -3    0.11    0.98
  -2   9   3    2.38    1.18
   2  -9  -2    2.46    1.07
   2  -9  -2    0.80    1.00
  -2   9   2   -0.21    1.17
   2  -9  -1   -0.33    0.71
   2  -9  -1    0.85    0.74
  -2   9   1   -0.56    1.13
   2  -9   0    0.94    0.68
   2  -9   0   -1.85    0.92
  -2   9   0    1.71    1.18
   2  -9   1   20.33    1.57
   2  -9   1   30.61    2.33
  -2   9  -1   20.59    2.86
   2  -9   2    4.47    1.24
  -2   9  -2    3.49    1.41
   2  -9   3    2.03    0.98
  -2   9  -3   -0.13    1.15
   2  -9   4    9.17    1.71
  -2   9  -4    7.97    1.87
   2  -9   5    8.02    1.68
  -2   9  -5    7.37    2.24
   2  -9   6    0.04    1.01
  -2   9  -6   -0.63    1.29
   2  -9   7    3.93    1.50
  -2   9  -7    3.40    2.02
   2  -9   8    0.17    1.48
  -2   9  -8   -1.06    1.75
   2  -9   9    3.64    1.95
   2  -8 -14    0.57    1.59
   2  -8 -13    2.44    1.84
  -2   8  13    0.39    1.37
   2  -8 -12    7.39    2.11
  -2   8  12    0.62    1.48
   2  -8 -11   12.23    2.00
  -2   8  11    8.57    2.11
   2  -8 -10   17.56    2.16
  -2   8  10   11.45    2.34
   2  -8  -9   -0.83    1.36
  -2   8   9   -0.80    1.10
   2  -8  -8   12.18    1.69
  -2   8   8    8.17    1.63
  -2   8   8    5.27    1.28
   2  -8  -7    5.40    1.39
  -2   8   7    4.31    1.17
  -2   8   7    5.67    1.38
   2  -8  -6    0.46    0.74
   2  -8  -6   -0.41    1.17
  -2   8   6    0.83    0.87
   2  -8  -5   -0.82    0.67
  -2   8   5    1.06    1.03
   2  -8  -4    4.94    0.98
   2  -8  -4    8.00    1.45
  -2   8   4    5.07    1.34
   2  -8  -3    0.56    0.77
   2  -8  -3   -1.60    0.77
  -2   8   3    0.09    1.08
   2  -8  -2   -0.56    1.00
   2  -8  -2    1.91    0.94
  -2   8   2    3.12    1.23
   2  -8  -1    0.59    0.80
   2  -8  -1   -0.16    0.95
  -2   8   1    2.83    1.01
   2  -8   0    0.70    0.77
   2  -8   0    0.38    0.69
  -2   8   0    0.75    1.13
   2  -8   1   17.22    1.17
   2  -8   1   17.73    1.64
  -2   8  -1   14.10    2.49
   2  -8   2    7.05    1.68
  -2   8  -2    9.43    1.51
   2  -8   3   -0.24    1.06
  -2   8  -3   -0.84    1.26
   2  -8   4    0.53    1.02
  -2   8  -4    0.73    1.06
   2  -8   5   13.19    1.71
  -2   8  -5   12.54    2.45
   2  -8   6    2.26    1.45
  -2   8  -6    3.23    1.47
   2  -8   7   -0.48    1.08
  -2   8  -7    1.37    1.17
   2  -8   8    0.02    1.23
  -2   8  -8    1.38    1.25
   2  -8   9    0.67    1.35
  -2   8  -9   -0.31    1.61
   2  -8  10    3.15    1.78
  -2   8 -10    2.88    2.13
   2  -7 -14    1.18    1.64
   2  -7 -13    1.41    1.38
  -2   7  13    0.07    1.45
   2  -7 -12    0.54    1.63
  -2   7  12    0.94    1.12
   2  -7 -11   26.18    2.83
  -2   7  11   13.03    2.37
   2  -7 -10   11.12    1.88
  -2   7  10   10.01    2.09
   2  -7  -9    7.78    1.86
  -2   7   9    6.63    1.17
  -2   7   9    4.82    1.75
   2  -7  -8    5.63    1.38
  -2   7   8    4.64    1.49
  -2   7   8    3.88    1.02
   2  -7  -7   16.11    1.69
  -2   7   7   13.77    2.02
  -2   7   7   12.26    1.49
   2  -7  -6   -1.65    1.20
   2  -7  -6   -0.11    0.82
  -2   7   6   -0.84    1.02
   2  -7  -5   28.28    2.38
   2  -7  -5   26.01    1.66
  -2   7   5   26.03    1.99
   2  -7  -4   -0.54    0.77
   2  -7  -4    0.31    0.66
  -2   7   4    0.95    0.72
   2  -7  -3    6.42    1.09
   2  -7  -3    9.48    1.37
  -2   7   3    4.94    1.16
   2  -7  -2    3.36    1.05
   2  -7  -2    2.39    1.07
  -2   7   2    5.49    1.27
   2  -7  -1   13.65    1.21
   2  -7  -1   14.07    1.40
  -2   7   1   15.87    1.84
   2  -7   0   18.96    1.32
   2  -7   0   20.94    1.82
  -2   7   0   22.27    2.12
   2  -7   1   47.02    1.77
   2  -7   1   46.03    2.55
  -2   7  -1   50.38    2.93
   2  -7   2    4.81    1.28
   2  -7   2    5.41    0.67
  -2   7  -2    3.66    1.22
   2  -7   3   -0.37    0.57
  -2   7  -3    0.65    0.82
   2  -7   4    6.16    1.18
  -2   7  -4    6.61    1.43
   2  -7   5   13.45    2.01
  -2   7  -5   14.78    1.89
   2  -7   6    5.71    1.61
  -2   7  -6    2.63    1.62
   2  -7   7   -1.16    1.08
  -2   7  -7    0.81    1.18
   2  -7   8   16.35    2.26
  -2   7  -8   12.39    2.47
   2  -7   9    9.17    2.12
  -2   7  -9    6.27    1.88
   2  -7  10    1.62    1.38
  -2   7 -10    0.61    1.58
   2  -7  11   -0.38    1.16
  -2   7 -11    1.53    1.50
   2  -6 -15    3.25    2.31
   2  -6 -14    2.24    1.68
   2  -6 -13    6.40    1.76
  -2   6  13    2.57    1.71
   2  -6 -12    3.56    1.59
  -2   6  12    1.13    1.39
  -2   6  12    1.30    0.93
   2  -6 -11    7.39    1.59
  -2   6  11    5.74    1.55
  -2   6  11    6.14    1.15
   2  -6 -10    0.40    1.04
  -2   6  10    0.83    0.76
  -2   6  10    1.04    1.12
   2  -6  -9    1.44    1.28
  -2   6   9   -0.96    0.71
  -2   6   9   -1.62    1.03
   2  -6  -8    0.11    0.99
  -2   6   8    2.08    1.02
  -2   6   8    1.17    0.80
   2  -6  -7   57.05    3.35
  -2   6   7   46.16    2.61
  -2   6   7   54.72    3.09
   2  -6  -6   34.07    2.18
  -2   6   6   31.61    2.31
  -2   6   6   26.29    1.90
   2  -6  -5    4.22    1.10
   2  -6  -5    4.76    0.92
  -2   6   5    5.48    1.11
   2  -6  -4    2.62    0.83
   2  -6  -4    2.61    1.14
  -2   6   4    3.45    0.98
   2  -6  -3   15.51    1.40
   2  -6  -3   18.98    1.61
  -2   6   3   16.62    1.39
   2  -6  -2   11.86    1.33
   2  -6  -2   12.18    1.28
  -2   6   2   11.65    1.39
   2  -6  -1    7.33    0.96
   2  -6  -1    4.92    0.95
  -2   6   1    8.05    1.11
   2  -6   0  109.47    3.04
   2  -6   0  110.27    4.18
  -2   6   0  105.64    4.04
   2  -6   1    4.54    1.06
   2  -6   1    3.96    0.67
  -2   6  -1    4.97    1.06
   2  -6   2    1.17    0.37
   2  -6   2    0.59    0.86
  -2   6  -2    0.05    0.88
   2  -6   3    8.87    0.64
   2  -6   3   10.45    1.44
  -2   6  -3   10.06    1.29
   2  -6   4    4.58    1.16
  -2   6  -4    0.36    1.28
   2  -6   5   26.23    2.11
  -2   6  -5   28.74    2.19
   2  -6   6    4.70    1.13
  -2   6  -6    4.00    1.56
   2  -6   7    6.68    1.52
  -2   6  -7    5.38    1.67
  -2   6  -8    0.34    1.16
   2  -6   9    1.63    1.23
  -2   6  -9    3.08    1.36
   2  -6  10   17.52    2.56
  -2   6 -10   11.23    2.66
   2  -6  11    6.28    2.28
  -2   6 -11    7.39    2.28
   2  -6  12    0.42    1.59
  -2   6 -12   -0.72    1.32
   2  -5 -15    8.74    2.80
   2  -5 -14    0.92    1.39
  -2   5  14    0.64    0.93
   2  -5 -13    0.15    1.14
  -2   5  13    1.37    1.12
  -2   5  13   -0.03    0.79
   2  -5 -12    1.77    1.48
  -2   5  12    0.74    0.81
  -2   5  12    0.76    1.11
   2  -5 -11   16.79    2.00
  -2   5  11   15.29    1.96
  -2   5  11   12.71    1.55
   2  -5 -10    0.77    0.82
  -2   5  10   -0.15    0.62
  -2   5  10   -0.01    0.82
   2  -5  -9    1.96    1.40
  -2   5   9    3.07    0.87
  -2   5   9    1.85    1.02
   2  -5  -8    4.52    1.16
  -2   5   8    3.45    0.91
  -2   5   8    1.51    0.92
   2  -5  -7    1.83    0.91
  -2   5   7    1.05    0.86
  -2   5   7    1.97    0.82
   2  -5  -6    2.74    0.92
  -2   5   6    1.63    0.81
  -2   5   6    3.51    0.87
   2  -5  -5   69.73    3.03
   2  -5  -5   60.13    2.42
  -2   5   5   61.50    2.79
   2  -5  -4   10.48    0.88
   2  -5  -4    7.51    1.29
  -2   5   4    9.10    1.12
   2  -5  -3   12.64    1.19
   2  -5  -3    9.46    1.01
  -2   5   3   10.40    0.99
   2  -5  -2    6.89    1.00
   2  -5  -2    9.02    0.97
  -2   5   2    8.28    0.93
   2  -5  -1   78.65    2.38
   2  -5  -1   85.29    3.00
  -2   5   1   83.36    3.07
   2  -5   0  156.49    4.47
   2  -5   0  142.56    3.24
  -2   5   0  151.47    4.74
   2  -5   1    0.45    0.34
   2  -5   1    0.54    0.66
  -2   5  -1    0.19    0.65
   2  -5   2    0.70    0.52
   2  -5   2    0.34    0.28
  -2   5  -2    0.37    0.68
   2  -5   3   22.04    0.76
   2  -5   3   23.93    1.71
  -2   5  -3   21.41    1.62
   2  -5   4   36.46    2.13
  -2   5  -4   34.29    2.17
   2  -5   5    4.01    1.18
  -2   5  -5    3.33    1.12
   2  -5   6   11.30    1.69
  -2   5  -6   11.52    1.48
   2  -5   7   11.46    1.51
  -2   5  -7   10.23    1.56
   2  -5   8   -0.48    0.90
  -2   5  -8   -0.27    0.87
   2  -5   9   15.17    1.84
  -2   5  -9   13.80    2.09
   2  -5  10    6.68    1.60
  -2   5 -10    7.28    1.55
   2  -5  11   40.72    2.99
  -2   5 -11   35.19    3.56
   2  -5  12    0.38    1.10
  -2   5 -12   -0.80    1.26
   2  -5  13   -0.50    1.69
  -2   5 -13    1.44    1.66
   2  -4 -16   16.04    3.38
   2  -4 -15    0.59    1.36
  -2   4  15    0.33    0.88
   2  -4 -14    3.98    1.46
  -2   4  14    1.50    1.16
   2  -4 -13    6.10    1.75
  -2   4  13    3.26    1.33
  -2   4  13    3.57    1.14
   2  -4 -12    1.24    1.10
  -2   4  12   -0.45    0.76
  -2   4  12   -0.45    0.82
   2  -4 -11   20.64    1.99
  -2   4  11   16.47    1.75
   2  -4 -10    4.62    1.20
  -2   4  10    4.01    1.06
  -2   4  10    4.28    0.85
   2  -4  -9    2.41    1.42
  -2   4   9    4.05    0.94
  -2   4   9    3.93    0.98
   2  -4  -8    7.39    1.21
  -2   4   8    5.79    1.04
  -2   4   8    5.80    1.10
   2  -4  -7   44.84    2.23
  -2   4   7   44.79    2.16
  -2   4   7   40.83    2.11
   2  -4  -6    0.05    0.84
  -2   4   6    0.68    0.61
  -2   4   6    0.76    0.58
   2  -4  -5  105.59    3.35
  -2   4   5  108.64    3.38
  -2   4   5   98.16    3.26
   2  -4  -4   13.88    1.12
   2  -4  -4   12.78    1.00
  -2   4   4   13.27    1.10
   2  -4  -3   20.69    1.29
   2  -4  -3   22.61    1.23
  -2   4   3   24.50    1.36
   2  -4  -2    8.64    0.85
   2  -4  -2    3.44    0.83
  -2   4   2    7.07    0.73
   2  -4  -1   75.85    2.03
   2  -4  -1   78.68    2.72
  -2   4   1   75.41    2.59
   2  -4   0  128.20    3.78
   2  -4   0  128.23    2.62
  -2   4   0  126.33    4.12
   2  -4   1   11.98    0.89
  -2   4  -1    7.46    0.93
   2  -4   2    6.26    0.88
   2  -4   2    6.18    0.36
  -2   4  -2    5.43    0.86
   2  -4   3    5.94    0.90
  -2   4  -3    7.14    1.02
   2  -4   4   23.73    1.38
  -2   4  -4   23.13    1.51
   2  -4   5   31.73    1.74
  -2   4  -5   31.05    2.06
   2  -4   6    4.49    0.95
  -2   4  -6    3.07    0.85
   2  -4   7   15.72    1.87
  -2   4  -7   15.10    1.81
   2  -4   8    1.94    1.02
  -2   4  -8   -0.48    0.87
   2  -4   9    0.78    1.13
  -2   4  -9    3.17    1.34
   2  -4  10    1.75    1.23
  -2   4 -10   -0.20    1.33
   2  -4  11    9.79    2.04
  -2   4 -11   10.61    2.09
   2  -4  12   -0.52    1.12
  -2   4 -12   -1.39    1.20
   2  -4  13    2.01    1.54
  -2   4 -13   -0.94    1.45
   2  -4  14    0.26    1.30
  -2   4 -14    1.26    1.57
   2  -3 -16    6.00    2.78
  -2   3  16    5.59    1.84
   2  -3 -15    0.46    1.22
  -2   3  15   -0.88    1.11
   2  -3 -14    1.21    1.35
  -2   3  14    0.65    0.93
   2  -3 -13   19.95    2.42
  -2   3  13   22.23    2.11
   2  -3 -12    4.24    1.71
  -2   3  12    7.01    1.21
  -2   3  12    3.42    1.24
   2  -3 -11    2.76    1.45
  -2   3  11    2.63    1.02
  -2   3  11    3.05    0.80
   2  -3 -10    5.02    1.39
  -2   3  10    4.08    1.00
  -2   3  10    3.69    0.97
   2  -3  -9   32.91    2.22
  -2   3   9   32.89    1.81
   2  -3  -8    7.45    1.13
  -2   3   8    4.66    0.80
  -2   3   8    4.71    0.86
   2  -3  -7   12.21    1.33
  -2   3   7   15.24    1.13
  -2   3   7   13.44    1.21
   2  -3  -6  224.75    6.10
  -2   3   6  225.26    5.76
  -2   3   6  220.47    5.46
   2  -3  -5   10.82    0.91
  -2   3   5    8.29    0.85
  -2   3   5    9.73    0.84
   2  -3  -4    2.51    0.67
   2  -3  -4    3.89    0.63
  -2   3   4    3.21    0.60
   2  -3  -3   10.34    0.78
   2  -3  -3   10.61    0.97
  -2   3   3    8.03    0.82
   2  -3  -2   59.29    1.92
   2  -3  -2   56.19    1.75
  -2   3   2   56.19    1.77
   2  -3  -1   81.16    2.36
   2  -3  -1   75.27    1.85
  -2   3   1   82.41    2.42
   2  -3   0  307.05    6.53
   2  -3   0  291.09    4.38
  -2   3   0  300.64    6.69
   2  -3   1    7.31    0.70
   2  -3   1    5.72    0.40
  -2   3  -1    5.29    0.77
   2  -3   2   96.69    2.65
  -2   3  -2   83.26    2.76
   2  -3   3    6.04    0.91
  -2   3  -3    6.77    0.82
   2  -3   4  165.09    4.28
  -2   3  -4  142.08    4.66
   2  -3   5   20.18    1.24
  -2   3  -5   18.46    1.56
  -2   3  -5   16.00    0.64
   2  -3   6    0.65    0.82
  -2   3  -6    0.79    0.85
  -2   3  -6    0.09    0.33
   2  -3   7   13.50    1.40
  -2   3  -7   15.23    1.82
   2  -3   8    0.98    0.95
  -2   3  -8    3.66    1.01
  -2   3  -8    1.10    0.59
   2  -3   9    0.32    1.12
  -2   3  -9    0.38    1.02
   2  -3  10   -0.28    0.98
  -2   3 -10    1.39    1.00
   2  -3  11   -0.47    1.22
  -2   3 -11    0.82    1.24
   2  -3  12    4.98    1.97
  -2   3 -12    7.23    1.82
   2  -3  13    0.28    1.10
  -2   3 -13   -0.82    1.20
   2  -3  14   12.94    1.94
  -2   3 -14    6.01    2.09
   2  -2 -16    7.52    2.56
  -2   2  16    3.72    1.80
   2  -2 -15    0.07    1.76
  -2   2  15   -0.37    1.12
   2  -2 -14    4.95    2.09
  -2   2  14    2.70    1.18
   2  -2 -13    2.80    2.00
  -2   2  13    6.93    1.44
   2  -2 -12   10.01    2.01
  -2   2  12    8.05    1.29
  -2   2  12    7.61    1.24
   2  -2 -11   16.73    2.07
  -2   2  11   14.16    1.48
  -2   2  11   14.52    1.27
   2  -2 -10    1.89    0.99
  -2   2  10    0.58    0.67
  -2   2  10   -0.36    0.59
   2  -2  -9    8.46    1.47
  -2   2   9    4.93    0.93
  -2   2   9    7.00    1.08
   2  -2  -8   57.24    2.85
  -2   2   8   52.32    2.31
  -2   2   8   51.46    2.27
   2  -2  -7   20.82    1.44
  -2   2   7   17.17    1.17
  -2   2   7   17.28    1.04
   2  -2  -6  378.38    8.77
  -2   2   6  365.53    8.80
  -2   2   6  371.92    7.54
   2  -2  -5  141.51    3.78
  -2   2   5  136.36    3.17
   2  -2  -4  134.66    3.48
  -2   2   4  141.33    3.66
  -2   2   4  132.79    2.84
   2  -2  -3    0.91    0.48
   2  -2  -3   -0.36    0.49
  -2   2   3    1.55    0.35
   2  -2  -2   93.26    2.20
  -2   2   2   92.80    2.17
   2  -2  -1    2.00    0.44
   2  -2  -1    1.73    0.38
  -2   2   1    2.14    0.50
   2  -2   0   35.31    1.41
   2  -2   0   36.10    0.83
  -2   2   0   43.00    1.42
   2  -2   1    0.43    0.16
   2  -2   1    0.72    0.37
  -2   2  -1    0.33    0.39
   2  -2   2   36.44    1.38
  -2   2  -2   34.82    1.49
   2  -2   3   59.16    2.09
  -2   2  -3   59.28    2.25
   2  -2   4  121.76    3.21
  -2   2  -4  115.54    3.54
   2  -2   5    0.85    0.62
  -2   2  -5    1.17    0.29
  -2   2  -5    1.15    0.70
   2  -2   6   47.76    2.16
  -2   2  -6   45.09    1.35
  -2   2  -6   56.42    2.35
   2  -2   7    1.29    0.83
  -2   2  -7    2.56    0.43
  -2   2  -7    4.25    1.11
   2  -2   8    1.27    0.73
  -2   2  -8   -0.18    0.50
  -2   2  -8    0.04    0.71
   2  -2   9    6.33    1.15
  -2   2  -9    4.31    1.22
  -2   2  -9    0.29    0.67
   2  -2  10    0.61    0.94
  -2   2 -10    1.22    1.17
   2  -2  11    4.11    1.21
  -2   2 -11    2.10    1.39
  -2   2 -11    1.92    0.91
   2  -2  12   19.83    2.42
  -2   2 -12   13.99    2.33
   2  -2  13    1.05    1.13
  -2   2 -13    0.27    1.36
   2  -2  14    0.15    1.11
  -2   2 -14   -0.59    1.15
   2  -2  15    2.59    1.34
  -2   2 -15    1.56    1.98
   2  -1 -16   -0.82    1.80
  -2   1  16    0.74    1.14
   2  -1 -15    8.82    2.89
  -2   1  15   12.20    1.84
   2  -1 -14    5.87    2.17
  -2   1  14    4.29    1.30
   2  -1 -13    3.03    1.51
  -2   1  13    0.30    0.96
   2  -1 -12    5.44    1.62
  -2   1  12    3.86    1.08
  -2   1  12    6.15    1.15
   2  -1 -11    0.74    0.85
  -2   1  11    0.01    0.74
  -2   1  11   -1.27    0.78
   2  -1 -10    0.59    0.85
  -2   1  10   -0.09    0.53
  -2   1  10   -0.31    0.71
   2  -1  -9   53.38    2.93
  -2   1   9   56.25    2.61
  -2   1   9   57.04    2.38
   2  -1  -8   60.89    2.79
  -2   1   8   69.82    2.58
  -2   1   8   66.10    2.30
   2  -1  -7   18.68    1.54
  -2   1   7   18.22    1.12
  -2   1   7   16.65    1.00
   2  -1  -6   13.36    1.02
  -2   1   6   10.43    0.70
  -2   1   6    8.37    1.06
   2  -1  -5  200.80    4.92
  -2   1   5  198.34    4.90
  -2   1   5  189.24    3.53
   2  -1  -4  107.74    2.85
  -2   1   4  111.22    3.15
   2  -1  -3   58.08    1.59
  -2   1   3   57.81    1.84
  -2   1   3   54.42    1.16
   2  -1  -2    8.37    0.55
   2  -1  -2    6.90    0.59
  -2   1   2    7.16    0.44
   2  -1  -1  295.94    5.30
   2  -1  -1  285.22    4.14
  -2   1   1  290.03    4.47
   2  -1   0    2.68    0.25
   2  -1   0    2.94    0.53
  -2   1   0    4.05    0.41
   2  -1   1   55.79    0.72
   2  -1   1   51.60    1.66
  -2   1  -1   60.79    1.68
   2  -1   2    8.13    0.64
  -2   1  -2    6.99    0.84
   2  -1   3    1.62    0.55
  -2   1  -3    0.81    0.50
  -2   1  -3    0.69    0.09
   2  -1   4    0.23    0.40
  -2   1  -4   -0.18    0.15
  -2   1  -4    0.19    0.52
   2  -1   5  843.11   14.57
  -2   1  -5  802.06   10.67
  -2   1  -5  795.93   18.33
   2  -1   6   13.72    1.26
  -2   1  -6   17.26    1.52
  -2   1  -6   13.28    0.75
   2  -1   7    3.95    0.96
  -2   1  -7    3.77    1.05
  -2   1  -7    3.09    0.56
   2  -1   8   20.39    1.79
  -2   1  -8   21.16    1.12
  -2   1  -8   22.83    1.99
   2  -1   9   62.34    2.77
  -2   1  -9   59.29    3.28
  -2   1  -9   58.51    2.31
   2  -1  10   -0.63    0.83
  -2   1 -10    0.17    0.83
  -2   1 -10    0.58    0.57
   2  -1  11   20.45    1.81
  -2   1 -11   11.79    1.42
  -2   1 -11   16.01    2.43
   2  -1  12    2.86    1.16
  -2   1 -12    3.00    1.63
  -2   1 -12    2.60    1.01
   2  -1  13    4.46    1.85
  -2   1 -13    8.58    1.69
  -2   1 -13    4.87    1.37
   2  -1  14   -0.41    1.22
  -2   1 -14    1.26    1.46
   2  -1  15    7.91    2.27
  -2   1 -15   10.01    2.73
   2   0 -16    4.33    2.47
  -2   0  16    1.80    1.56
   2   0 -15    1.35    1.78
  -2   0  15    3.07    1.61
   2   0 -14    8.02    1.86
  -2   0  14    3.71    1.80
   2   0 -13   -0.07    1.52
  -2   0  13   -0.97    0.92
   2   0 -12    5.06    1.54
  -2   0  12    5.07    1.21
   2   0 -11   17.27    1.88
   2   0 -11   10.17    1.07
  -2   0  11   12.62    1.36
   2   0 -10  176.49    6.61
  -2   0  10  145.16    5.28
   2   0  -9   32.74    2.55
  -2   0   9   30.53    1.55
  -2   0   9   28.22    1.72
   2   0  -8    0.18    0.78
  -2   0   8   -0.07    0.35
  -2   0   8    0.13    0.47
   2   0  -7   46.20    2.37
  -2   0   7   42.71    1.55
  -2   0   7   53.23    2.11
   2   0  -6   77.54    2.69
  -2   0   6   84.98    1.94
  -2   0   6   83.67    2.54
   2   0  -5  115.34    3.27
  -2   0   5  120.52    3.12
  -2   0   5  114.55    2.13
   2   0  -4    3.07    0.61
  -2   0   4    3.74    0.28
  -2   0   4    4.51    0.65
   2   0  -3   17.93    0.88
  -2   0   3   16.15    0.91
   2   0  -2    0.60    0.29
  -2   0   2   -0.25    0.13
  -2   0   2    0.67    0.32
   2   0  -1   30.02    0.80
   2   0  -1   31.30    0.98
  -2   0   1   30.24    0.66
   2   0   0   16.56    0.72
   2   0   0   18.13    0.58
  -2   0   0   17.69    0.68
   2   0   1    7.25    0.51
   2   0   1    7.71    0.30
  -2   0  -1    6.21    0.54
   2   0   2    2.07    0.47
  -2   0  -2    0.70    0.44
   2   0   3    2.28    0.40
  -2   0  -3    1.99    0.50
   2   0   4    9.70    0.81
   2   0   4    8.18    0.61
  -2   0  -4    8.01    0.44
   2   0   5   40.88    1.71
   2   0   5   43.11    1.74
  -2   0  -5   42.46    1.13
   2   0   6   52.41    2.06
   2   0   6   50.45    2.09
  -2   0  -6   49.76    1.49
   2   0   7    0.43    0.61
  -2   0  -7   -0.28    0.43
  -2   0  -7   -0.84    0.45
   2   0   8   27.52    1.77
  -2   0  -8   26.52    1.35
  -2   0  -8   26.98    1.82
   2   0   9   22.74    1.48
  -2   0  -9   16.34    1.90
  -2   0  -9   19.84    1.32
   2   0  10    0.74    0.88
  -2   0 -10    1.40    0.77
  -2   0 -10    2.20    0.99
   2   0  11   46.59    2.88
  -2   0 -11   39.79    3.34
  -2   0 -11   42.75    2.39
   2   0  12    0.55    0.85
  -2   0 -12   -0.59    0.86
  -2   0 -12    1.28    1.23
   2   0  13    3.13    1.06
  -2   0 -13    1.46    1.59
  -2   0 -13   -0.10    0.96
   2   0  14    1.98    1.13
  -2   0 -14   -0.72    1.74
  -2   0 -14    1.67    1.26
   2   0  15    1.44    1.31
  -2   0 -15    2.71    2.03
   2   0  16   -0.62    1.58
  -2   0 -16   -0.95    1.80
   2   1 -16    1.71    2.68
  -2  -1  16    2.54    1.58
   2   1 -15    5.41    2.82
  -2  -1  15    3.98    1.92
   2   1 -14    0.44    1.26
  -2  -1  14    0.16    1.00
   2   1 -13    5.13    2.09
  -2  -1  13    5.68    1.68
   2   1 -12    1.93    1.30
  -2  -1  12    1.97    1.04
   2   1 -11   47.11    2.32
   2   1 -11   47.72    3.15
  -2  -1  11   51.90    2.72
   2   1 -10  146.00    5.69
   2   1 -10  128.99    4.07
  -2  -1  10  138.84    5.01
   2   1  -9    2.18    0.64
   2   1  -9    1.11    0.87
  -2  -1   9    1.61    0.90
   2   1  -8   30.23    1.99
   2   1  -8   31.73    1.30
  -2  -1   8   30.73    1.55
   2   1  -7   64.03    2.58
   2   1  -7   64.18    1.83
  -2  -1   7   60.28    2.31
   2   1  -6   81.88    2.96
  -2  -1   6   83.39    2.68
   2   1  -5   57.47    2.05
   2   1  -5   62.74    1.24
  -2  -1   5   64.58    1.98
   2   1  -4    7.19    0.65
  -2  -1   4    6.66    0.59
  -2  -1   3   55.79    1.60
   2   1  -2   32.17    1.17
  -2  -1   2   34.05    1.19
   2   1  -1    1.99    0.17
   2   1  -1    1.53    0.36
  -2  -1   1    1.46    0.16
  -2  -1   1    1.46    0.36
   2   1   0  287.74    3.68
   2   1   0  290.84    4.20
   2   1   0  294.97    4.62
   2   1   1  112.97    1.92
   2   1   1  116.77    2.12
   2   1   1  113.43    2.04
   2   1   2    0.49    0.40
   2   1   2    0.46    0.29
  -2  -1  -2    0.50    0.22
   2   1   3    2.93    0.43
   2   1   3    3.50    0.60
  -2  -1  -3    2.41    0.33
   2   1   4    0.33    0.40
   2   1   4    0.46    0.33
  -2  -1  -4    0.32    0.34
   2   1   5    2.42    0.73
   2   1   5    1.17    0.51
  -2  -1  -5    1.92    0.49
   2   1   6  185.69    3.97
   2   1   6  185.30    5.21
  -2  -1  -6  184.74    3.95
   2   1   7    5.10    0.84
   2   1   7    3.95    0.63
  -2  -1  -7    4.48    0.73
   2   1   8    1.12    0.58
   2   1   8    0.96    0.69
  -2  -1  -8    0.65    0.47
   2   1   9    1.48    1.06
   2   1   9    2.58    0.93
  -2  -1  -9    3.07    0.82
   2   1  10   11.32    1.70
   2   1  10   13.88    1.67
  -2  -1 -10   15.00    1.39
   2   1  11   -0.08    0.64
   2   1  11    1.73    0.87
  -2  -1 -11   -0.90    0.70
   2   1  12   -0.64    0.93
  -2  -1 -12    1.33    0.83
  -2  -1 -12   -0.10    0.66
   2   1  13    0.04    1.11
  -2  -1 -13    0.78    1.02
  -2  -1 -13    1.38    1.37
   2   1  14    1.70    1.32
  -2  -1 -14    0.86    1.61
  -2  -1 -14    1.38    1.24
   2   1  15    5.49    1.52
  -2  -1 -15    1.19    2.14
  -2  -1 -15    1.45    1.62
   2   1  16   -0.76    1.06
  -2  -1 -16   -0.47    1.95
   2   2 -15    0.41    2.12
  -2  -2  15   -2.30    1.38
   2   2 -14    2.39    2.30
  -2  -2  14    3.23    1.46
   2   2 -13    7.33    2.05
  -2  -2  13    8.25    1.96
   2   2 -12    1.07    1.47
  -2  -2  12    3.29    1.08
   2   2 -11   92.07    3.80
   2   2 -11  125.90    5.89
  -2  -2  11  106.60    4.25
   2   2 -10   47.39    3.34
   2   2 -10   34.65    1.73
  -2  -2  10   40.00    2.28
   2   2  -9   25.93    1.31
   2   2  -9   34.63    2.37
  -2  -2   9   34.83    1.94
   2   2  -8    8.32    1.29
   2   2  -8    8.54    0.67
  -2  -2   8    9.52    1.06
   2   2  -7    5.36    0.58
   2   2  -7    4.52    1.15
  -2  -2   7    6.11    0.75
   2   2  -6   25.68    0.91
   2   2  -6   28.92    1.82
  -2  -2   6   25.74    1.29
   2   2  -5    0.78    0.56
   2   2  -5    0.43    0.24
  -2  -2   5   -0.16    0.56
   2   2  -4  141.11    2.02
   2   2  -4  150.58    3.98
  -2  -2   4  154.92    3.49
   2   2  -3   59.23    0.85
   2   2  -3   65.83    2.15
  -2  -2   3   60.82    1.66
   2   2  -2    6.85    0.25
   2   2  -2    6.65    0.72
  -2  -2   2    6.57    0.54
   2   2  -1  199.50    2.40
   2   2  -1  194.06    4.11
  -2  -2   1  197.65    3.27
   2   2   0   69.43    1.70
   2   2   0   68.49    1.29
  -2  -2   0   69.74    1.46
   2   2   1   77.34    1.86
   2   2   1   81.67    1.67
   2   2   2   60.92    1.66
  -2  -2  -2   59.71    1.50
   2   2   3  347.05    6.70
   2   2   3  356.10    4.20
  -2  -2  -3  343.71    5.39
   2   2   4   51.88    1.73
   2   2   4   46.09    1.01
  -2  -2  -4   48.36    1.34
   2   2   5   62.44    2.35
   2   2   5   68.25    1.57
  -2  -2  -5   65.59    1.99
   2   2   6  274.86    4.89
   2   2   6  283.32    7.07
  -2  -2  -6  282.99    5.90
   2   2   7   54.55    2.41
   2   2   7   58.31    1.76
  -2  -2  -7   56.14    1.97
   2   2   8   35.52    2.01
   2   2   8   43.60    1.67
  -2  -2  -8   41.11    2.01
   2   2   9   16.05    1.10
   2   2   9   13.50    1.33
  -2  -2  -9   13.57    1.20
   2   2  10   32.51    1.71
   2   2  10   31.21    2.24
  -2  -2 -10   28.58    2.04
   2   2  11  109.75    5.34
   2   2  11  110.74    4.08
  -2  -2 -11  108.25    4.26
   2   2  12    1.93    1.11
   2   2  12    3.04    1.46
  -2  -2 -12    3.76    1.14
   2   2  13    0.49    0.96
   2   2  13   -1.57    1.13
  -2  -2 -13   -0.10    0.94
   2   2  14    1.31    1.18
   2   2  14    0.59    1.23
  -2  -2 -14    1.87    1.29
   2   2  15    8.41    1.49
  -2  -2 -15    6.89    2.01
  -2  -2 -15    9.45    1.99
   2   2  16    2.75    1.64
  -2  -2 -16    4.45    2.25
  -2  -2 -16    3.78    1.90
   2   3 -15    6.80    2.81
  -2  -3  15    8.44    2.46
   2   3 -14   -0.92    1.31
  -2  -3  14    0.70    1.32
   2   3 -13    1.46    1.31
  -2  -3  13    0.16    1.37
   2   3 -12    6.58    2.25
  -2  -3  12   12.26    1.99
   2   3 -11  236.02    9.71
  -2  -3  11  221.67    7.79
   2   3 -10   -0.98    1.00
   2   3 -10   -0.46    0.51
  -2  -3  10    1.04    0.80
   2   3  -9   30.61    2.38
  -2  -3   9   29.54    2.07
   2   3  -8   18.77    1.00
   2   3  -8   20.56    1.62
  -2  -3   8   19.93    1.46
   2   3  -7   -0.34    0.58
   2   3  -7   -0.40    0.31
  -2  -3   7    0.57    0.59
   2   3  -6    7.89    1.04
   2   3  -6    4.87    0.51
  -2  -3   6    4.80    0.91
   2   3  -5   20.01    0.75
   2   3  -5   21.38    1.30
  -2  -3   5   21.04    1.23
   2   3  -4   34.04    0.99
   2   3  -4   37.95    1.69
  -2  -3   4   30.41    1.30
   2   3  -3    1.14    0.44
   2   3  -3    0.28    0.22
  -2  -3   3   -0.72    0.44
   2   3  -2    3.47    0.78
   2   3  -2    4.95    0.37
  -2  -3   2    4.10    0.45
   2   3  -1  137.91    2.23
   2   3  -1  136.08    3.29
  -2  -3   1  133.51    2.47
   2   3   0 1350.57   21.33
   2   3   0 1344.57   16.23
  -2  -3   0 1350.56   14.83
   2   3   1    5.77    0.61
   2   3   1    5.64    0.56
  -2  -3  -1    5.32    0.32
   2   3   2   35.81    1.24
  -2  -3  -2   38.39    1.22
   2   3   3    0.82    0.15
   2   3   3    1.38    0.55
  -2  -3  -3    1.08    0.44
   2   3   4    0.96    0.46
  -2  -3  -4    0.36    0.38
   2   3   5   48.64    1.98
   2   3   5   47.11    1.05
  -2  -3  -5   46.32    1.52
   2   3   6   21.19    1.35
   2   3   6   18.55    0.87
  -2  -3  -6   21.07    1.22
   2   3   7    0.61    0.52
   2   3   7    0.20    0.33
  -2  -3  -7   -0.96    0.54
   2   3   8    0.20    0.40
   2   3   8   -0.25    0.72
  -2  -3  -8    0.01    0.57
   2   3   9    1.73    1.13
   2   3   9    2.97    0.58
  -2  -3  -9    2.87    0.87
   2   3  10   13.85    1.51
   2   3  10   13.01    1.15
  -2  -3 -10   11.47    1.42
   2   3  11   41.89    2.60
   2   3  11   39.42    2.04
  -2  -3 -11   40.30    2.66
   2   3  12    8.40    1.75
   2   3  12    9.79    1.29
  -2  -3 -12    5.55    1.24
   2   3  13   24.14    2.78
   2   3  13   19.68    1.84
  -2  -3 -13   21.44    2.32
   2   3  14    6.10    1.23
   2   3  14    1.12    1.84
  -2  -3 -14    2.56    1.24
   2   3  15   18.31    2.14
   2   3  15   17.96    3.02
  -2  -3 -15   17.23    2.53
   2   3  16    1.48    1.98
   2   3  16    6.34    1.59
  -2  -3 -16    2.09    1.78
   2   4 -15    5.96    2.51
  -2  -4  15    4.42    1.84
   2   4 -14    0.76    1.93
  -2  -4  14    3.94    1.83
   2   4 -13    0.40    1.69
  -2  -4  13    1.75    1.52
   2   4 -12    0.99    1.07
  -2  -4  12    0.15    1.42
   2   4 -11    1.84    1.00
   2   4 -11    1.89    1.41
  -2  -4  11    4.40    1.20
   2   4 -10    9.82    1.24
   2   4 -10   16.06    2.17
  -2  -4  10   19.67    1.71
   2   4  -9    0.85    0.93
   2   4  -9   -0.02    0.63
  -2  -4   9    3.06    0.90
   2   4  -8   80.45    3.65
   2   4  -8   68.06    2.43
  -2  -4   8   72.78    3.60
   2   4  -7    7.33    1.36
   2   4  -7    8.46    0.72
  -2  -4   7    8.33    1.18
   2   4  -6   19.66    1.50
   2   4  -6   18.78    1.09
  -2  -4   6   22.98    1.41
   2   4  -5    1.44    0.64
   2   4  -5    0.82    0.41
  -2  -4   5    0.40    0.63
   2   4  -4    2.67    0.76
   2   4  -4    4.11    0.48
  -2  -4   4    5.24    0.68
   2   4  -3    2.89    0.44
   2   4  -3    2.01    0.79
  -2  -4   3    1.32    0.69
   2   4  -2    3.90    0.48
   2   4  -2    4.71    0.73
  -2  -4   2    4.93    0.61
   2   4  -1   36.02    1.57
   2   4  -1   37.67    1.22
  -2  -4   1   37.89    1.13
   2   4   0 1044.36   19.87
   2   4   0 1067.24   15.79
  -2  -4   0 1068.90   12.57
   2   4   1    5.78    0.62
   2   4   1    4.73    0.61
  -2  -4  -1    5.56    0.31
   2   4   2   25.79    1.13
  -2  -4  -2   20.01    1.11
   2   4   3   22.14    1.15
  -2  -4  -3   20.06    0.98
   2   4   4   39.30    1.92
  -2  -4  -4   38.16    1.68
   2   4   5  143.32    4.02
  -2  -4  -5  143.48    3.74
   2   4   6   21.59    1.40
   2   4   6   21.04    0.66
  -2  -4  -6   21.94    1.30
   2   4   7    8.64    1.02
   2   4   7    7.44    0.48
  -2  -4  -7    5.64    1.26
   2   4   8    0.32    0.71
   2   4   8    1.20    0.41
  -2  -4  -8    1.35    0.85
   2   4   9    0.54    1.03
   2   4   9    2.32    0.57
  -2  -4  -9    1.99    1.00
   2   4  10   49.12    2.96
   2   4  10   48.83    1.92
  -2  -4 -10   51.32    3.00
   2   4  11    3.24    0.79
   2   4  11    1.81    1.13
  -2  -4 -11    3.85    1.37
   2   4  12    8.66    1.15
   2   4  12    8.04    2.03
  -2  -4 -12   10.14    1.73
   2   4  13   -0.28    1.01
   2   4  13    0.52    0.76
  -2  -4 -13    0.14    0.89
   2   4  14    4.09    1.83
   2   4  14    2.68    1.14
  -2  -4 -14    2.97    1.51
   2   4  15    5.60    2.02
   2   4  15    2.50    1.24
  -2  -4 -15    2.58    1.39
   2   4  16    6.46    2.20
  -2  -4 -16   10.70    2.30
   2   5 -14    2.71    1.62
  -2  -5  14   -2.17    1.25
   2   5 -13    3.14    1.69
  -2  -5  13    4.65    1.89
   2   5 -12    7.70    2.19
  -2  -5  12    6.27    1.77
   2   5 -11   63.47    4.63
  -2  -5  11   65.19    4.06
   2   5 -10   53.93    2.82
   2   5 -10   63.98    3.94
  -2  -5  10   63.73    3.57
   2   5  -9    0.07    0.99
   2   5  -9    1.85    0.68
  -2  -5   9    0.33    1.22
   2   5  -8    3.41    1.10
   2   5  -8    0.98    0.61
  -2  -5   8   -0.90    0.98
   2   5  -7   21.92    1.31
   2   5  -7   18.30    1.78
  -2  -5   7   23.66    1.79
   2   5  -6    2.59    0.74
   2   5  -6    5.70    1.07
  -2  -5   6    4.31    0.93
   2   5  -5   26.03    1.24
   2   5  -5   24.93    1.71
  -2  -5   5   25.56    1.53
   2   5  -4   17.98    1.05
   2   5  -4   18.78    1.64
  -2  -5   4   18.73    1.16
   2   5  -3    7.53    0.74
   2   5  -3    8.37    1.01
  -2  -5   3    9.42    0.81
   2   5  -2    9.61    1.00
   2   5  -2   10.58    0.81
  -2  -5   2    9.35    0.74
   2   5  -1    0.67    0.60
   2   5  -1   -0.18    0.34
  -2  -5   1   -0.24    0.40
   2   5   0    6.40    0.81
   2   5   0    6.91    0.66
  -2  -5   0    8.56    0.60
   2   5   1   15.38    0.96
  -2  -5  -1   14.64    0.53
  -2  -5  -1   15.43    1.08
   2   5   2   69.51    2.32
  -2  -5  -2   75.47    2.35
   2   5   3  357.61    8.33
  -2  -5  -3  357.61    7.84
   2   5   4    5.84    1.08
  -2  -5  -4    7.34    0.89
   2   5   5   17.92    1.38
  -2  -5  -5   20.98    1.34
   2   5   6  460.78   11.94
  -2  -5  -6  458.37   10.57
   2   5   7  127.11    4.83
  -2  -5  -7  109.73    4.02
   2   5   8    1.12    0.73
   2   5   8   -0.15    0.28
  -2  -5  -8    1.89    1.01
   2   5   9    2.24    0.99
   2   5   9    1.92    0.44
  -2  -5  -9    1.63    1.14
   2   5  10   20.74    2.27
   2   5  10   20.19    1.04
  -2  -5 -10   23.26    2.39
   2   5  11   75.95    4.49
   2   5  11   61.94    2.15
  -2  -5 -11   68.35    3.54
   2   5  12    5.28    1.64
   2   5  12    3.28    0.82
  -2  -5 -12    5.51    1.55
   2   5  13    4.22    1.51
   2   5  13    2.68    0.94
  -2  -5 -13    3.91    1.53
   2   5  14    2.98    1.96
  -2  -5 -14    5.48    1.37
   2   5  15    1.01    1.76
  -2  -5 -15    1.83    1.56
   2   5  16   24.20    3.91
  -2  -5 -16   33.16    3.73
  -2  -6  13    2.08    1.45
   2   6 -12    7.15    2.17
  -2  -6  12    8.19    2.01
   2   6 -11    2.40    1.43
  -2  -6  11    5.34    1.43
   2   6 -10   34.48    2.49
   2   6 -10   34.66    3.36
  -2  -6  10   42.39    3.34
   2   6  -9   75.14    3.79
   2   6  -9   78.83    4.62
  -2  -6   9   85.95    4.67
   2   6  -8    4.79    1.44
   2   6  -8    3.90    1.10
  -2  -6   8    7.43    1.62
   2   6  -7    1.22    0.79
   2   6  -7    2.46    1.08
  -2  -6   7    0.41    1.20
   2   6  -6   21.89    1.28
   2   6  -6   21.25    1.80
  -2  -6   6   19.63    1.72
   2   6  -5    1.05    0.49
   2   6  -5    0.17    0.88
  -2  -6   5    0.41    0.87
   2   6  -4    5.23    1.17
   2   6  -4    4.83    0.78
  -2  -6   4    6.65    1.07
   2   6  -3    3.09    0.67
   2   6  -3    1.84    0.92
  -2  -6   3    2.63    0.66
   2   6  -2   -0.49    0.54
   2   6  -2    3.06    0.68
  -2  -6   2    0.70    0.46
   2   6  -1   84.58    2.71
   2   6  -1   77.67    2.98
  -2  -6   1   78.27    2.14
   2   6   0  350.95    8.10
   2   6   0  384.92    9.14
  -2  -6   0  350.85    6.09
   2   6   1  391.94    8.92
  -2  -6  -1  388.98    9.33
  -2  -6  -1  380.50    5.68
   2   6   2   23.91    1.32
  -2  -6  -2   19.42    0.60
  -2  -6  -2   20.00    1.26
   2   6   3  147.85    4.39
  -2  -6  -3  147.82    4.34
   2   6   4    4.16    0.84
  -2  -6  -4    3.32    0.78
   2   6   5  122.30    4.36
  -2  -6  -5  115.44    3.83
   2   6   6  266.32    8.65
  -2  -6  -6  267.14    7.27
   2   6   7   35.04    2.20
  -2  -6  -7   35.84    2.21
   2   6   8    2.32    1.02
  -2  -6  -8    3.26    1.22
   2   6   9   20.11    2.41
  -2  -6  -9   23.45    2.51
   2   6  10    0.04    1.09
  -2  -6 -10    0.18    0.99
   2   6  11    1.50    1.27
  -2  -6 -11    2.36    1.24
   2   6  12    4.19    1.90
  -2  -6 -12    6.97    1.82
   2   6  13   -0.29    1.47
  -2  -6 -13    1.69    1.36
   2   6  14    2.38    1.56
  -2  -6 -14    0.08    1.16
   2   6  15   -0.67    1.41
  -2  -6 -15    2.87    1.62
   2   6  16   12.49    2.92
  -2  -6 -16   12.49    2.84
  -2  -7  12    2.20    1.99
   2   7 -11    1.81    1.44
  -2  -7  11    1.36    1.76
   2   7 -10   12.55    1.76
   2   7 -10   11.90    2.28
  -2  -7  10   17.46    2.48
   2   7  -9    3.42    1.11
   2   7  -9    3.38    1.56
  -2  -7   9    5.08    1.71
   2   7  -8    0.10    1.09
   2   7  -8    1.35    0.94
  -2  -7   8    4.48    1.16
   2   7  -7   23.10    1.88
   2   7  -7   24.45    2.45
  -2  -7   7   23.53    2.06
   2   7  -6  156.94    6.52
   2   7  -6  142.91    4.93
  -2  -7   6  139.48    5.31
   2   7  -5   25.19    2.39
   2   7  -5   23.39    1.71
  -2  -7   5   29.59    1.86
   2   7  -4   20.82    1.55
   2   7  -4   18.29    1.85
  -2  -7   4   19.02    1.81
   2   7  -3   58.11    2.45
   2   7  -3   66.58    3.04
  -2  -7   3   64.80    2.78
   2   7  -2   27.89    1.79
   2   7  -2   31.57    1.93
  -2  -7   2   30.41    1.49
   2   7  -1   79.10    2.78
   2   7  -1   72.02    3.40
  -2  -7   1   73.76    2.36
   2   7   0  318.06    8.20
  -2  -7   0  313.28    6.12
  -2  -7   0  318.87    9.12
   2   7   1  665.96   14.83
  -2  -7  -1  613.03    9.77
  -2  -7  -1  627.72   15.28
   2   7   2    4.96    0.82
  -2  -7  -2    4.68    0.81
  -2  -7  -2    3.54    0.41
   2   7   3   17.63    1.47
  -2  -7  -3   15.28    1.23
   2   7   4    1.00    0.91
  -2  -7  -4    0.73    0.90
   2   7   5    4.64    1.13
  -2  -7  -5    5.16    1.01
   2   7   6  168.07    6.32
  -2  -7  -6  165.04    5.63
   2   7   7   28.21    2.74
  -2  -7  -7   35.16    2.27
   2   7   8   12.39    1.69
  -2  -7  -8   12.50    2.31
   2   7   9  126.47    6.32
  -2  -7  -9  149.52    6.05
   2   7  10    5.96    1.67
  -2  -7 -10    6.67    1.72
   2   7  11   56.29    4.06
  -2  -7 -11   59.77    4.26
   2   7  12   10.44    2.19
  -2  -7 -12   17.45    2.68
   2   7  13    0.20    1.27
  -2  -7 -13    1.55    1.22
   2   7  14    6.69    2.36
  -2  -7 -14    5.00    2.21
   2   7  15    6.09    2.67
  -2  -7 -15    9.61    2.13
   2   7  16   10.59    3.20
  -2  -7 -16   16.80    2.61
  -2  -8  12    6.93    2.09
  -2  -8  11    1.99    1.56
   2   8 -10    9.94    2.72
   2   8 -10   15.58    2.15
  -2  -8  10   23.20    2.36
   2   8  -9    3.47    1.56
   2   8  -9    3.95    1.31
  -2  -8   9    2.47    1.77
   2   8  -8   -1.57    1.23
   2   8  -8   -0.22    0.96
   2   8  -7    6.67    1.89
   2   8  -7   11.26    1.32
  -2  -8   7   10.75    1.60
   2   8  -6   86.15    4.98
   2   8  -6   96.67    4.37
  -2  -8   6   93.78    4.21
   2   8  -5    1.03    0.99
   2   8  -5    0.29    0.80
  -2  -8   5    0.08    0.79
   2   8  -4    9.99    1.20
   2   8  -4    9.16    1.36
  -2  -8   4   10.02    1.38
   2   8  -3   76.02    3.62
   2   8  -3   70.27    3.09
  -2  -8   3   76.18    3.04
   2   8  -2    4.25    0.86
   2   8  -2    6.06    1.14
  -2  -8   2    2.79    0.84
   2   8  -1    0.59    0.66
  -2  -8   1   -1.07    0.55
  -2  -8   1    1.07    0.76
   2   8   0   41.90    2.45
  -2  -8   0   41.97    1.68
  -2  -8   0   40.38    2.40
   2   8   1   78.12    3.47
  -2  -8  -1   78.05    3.31
  -2  -8  -1   65.90    1.95
   2   8   2   -0.95    0.81
  -2  -8  -2   -0.10    0.31
  -2  -8  -2   -0.49    0.76
   2   8   3   -0.93    0.70
  -2  -8  -3    0.35    0.79
   2   8   4    6.60    1.29
  -2  -8  -4   11.96    1.53
   2   8   5    3.30    1.19
  -2  -8  -5    1.46    1.27
   2   8   6    4.62    1.26
  -2  -8  -6    4.42    1.28
   2   8   7    0.41    0.83
  -2  -8  -7   -0.61    0.92
   2   8   8    0.93    1.35
  -2  -8  -8    0.85    1.58
   2   8   9    7.97    1.95
  -2  -8  -9    7.43    2.00
   2   8  10    4.64    1.58
  -2  -8 -10    7.66    2.17
   2   8  11   51.14    4.02
  -2  -8 -11   46.40    3.75
   2   8  12   83.08    5.87
  -2  -8 -12   92.78    6.04
   2   8  13    3.22    1.49
  -2  -8 -13   -0.53    1.50
   2   8  14    7.11    2.82
  -2  -8 -14   11.20    2.65
   2   8  15    0.42    1.56
  -2  -8 -15   -0.35    1.22
  -2  -9  11   -0.55    1.63
  -2  -9  10    0.16    1.19
   2   9  -9    0.95    1.22
  -2  -9   9    1.95    1.57
   2   9  -8    0.49    1.30
   2   9  -8    0.29    1.12
  -2  -9   8    3.06    1.25
   2   9  -7    0.61    1.23
   2   9  -7    0.11    1.04
  -2  -9   7    2.33    1.12
   2   9  -6    0.99    0.98
   2   9  -6    0.79    1.14
  -2  -9   6    0.99    1.23
   2   9  -5   -0.58    0.84
   2   9  -5    0.16    0.74
  -2  -9   5    0.72    0.78
   2   9  -4    6.13    1.35
   2   9  -4    4.28    1.29
  -2  -9   4    5.18    1.17
   2   9  -3   23.07    2.19
   2   9  -3   23.15    1.82
  -2  -9   3   22.56    2.03
   2   9  -2   -1.00    0.65
  -2  -9   2    0.16    0.69
  -2  -9   2    0.99    0.72
   2   9  -1    4.88    0.99
  -2  -9   1    4.27    0.93
  -2  -9   1    5.53    1.08
   2   9   0    2.89    1.02
  -2  -9   0    3.95    1.08
  -2  -9   0    2.83    0.68
   2   9   1    4.53    1.25
  -2  -9  -1    2.71    0.60
  -2  -9  -1    4.25    1.11
   2   9   2    4.75    1.14
  -2  -9  -2    4.17    0.92
  -2  -9  -2    3.40    0.50
   2   9   3    8.15    1.28
  -2  -9  -3    7.48    1.50
   2   9   4    1.56    0.86
  -2  -9  -4   -0.59    0.94
   2   9   5    3.83    1.64
  -2  -9  -5    2.94    1.18
   2   9   6    0.74    1.15
  -2  -9  -6    1.20    1.05
   2   9   7    3.76    1.18
  -2  -9  -7   -1.15    1.20
   2   9   8   45.05    3.96
  -2  -9  -8   43.25    3.35
   2   9   9    1.03    1.11
  -2  -9  -9   -0.52    1.20
   2   9  10    1.30    1.65
  -2  -9 -10    0.65    1.93
   2   9  11   36.26    4.15
  -2  -9 -11   39.22    3.37
   2   9  12    9.62    2.79
  -2  -9 -12    9.58    2.61
   2   9  13    1.44    2.17
  -2  -9 -13    2.56    1.75
   2   9  14    5.99    3.14
  -2  -9 -14   11.70    2.37
   2   9  15    0.39    1.89
  -2  -9 -15    3.16    1.87
   2  10  -9    0.29    1.42
  -2 -10   9    3.80    1.79
   2  10  -8    0.50    1.14
  -2 -10   8    0.40    1.29
   2  10  -7   -0.99    1.08
   2  10  -7    0.71    1.07
  -2 -10   7    0.91    1.23
   2  10  -6   -0.60    0.96
   2  10  -6   -0.10    0.76
  -2 -10   6    0.73    0.91
   2  10  -5   10.38    1.95
   2  10  -5    9.95    1.89
  -2 -10   5   11.48    1.92
   2  10  -4    0.27    0.85
  -2 -10   4   -0.00    1.01
  -2 -10   4   -1.10    1.04
   2  10  -3    4.09    1.14
  -2 -10   3    1.87    1.42
  -2 -10   3    2.77    1.18
   2  10  -2    0.77    1.05
  -2 -10   2    0.39    0.66
  -2 -10   2   -0.05    1.00
   2  10  -1    5.35    1.37
  -2 -10   1    6.46    1.49
  -2 -10   1    6.67    1.06
   2  10   0   19.10    1.96
  -2 -10   0   18.89    1.69
  -2 -10   0   15.65    1.38
   2  10   1    7.13    1.46
  -2 -10  -1    8.85    1.23
  -2 -10  -1    6.46    0.76
   2  10   2    5.64    1.28
  -2 -10  -2    5.19    1.46
   2  10   3   -0.45    0.95
  -2 -10  -3    0.27    0.94
   2  10   4    1.08    1.04
  -2 -10  -4   -0.29    1.08
   2  10   5    6.77    1.96
  -2 -10  -5    8.23    1.58
   2  10   6    4.35    1.35
  -2 -10  -6    0.18    1.27
   2  10   7    1.72    1.32
  -2 -10  -7    0.92    1.53
   2  10   8    2.36    1.66
  -2 -10  -8    5.66    1.64
   2  10   9    3.39    1.92
  -2 -10  -9    1.76    1.72
   2  10  10    6.66    2.06
  -2 -10 -10   10.25    2.33
   2  10  11   91.43    6.69
  -2 -10 -11  112.72    7.30
   2  10  12    3.64    1.86
  -2 -10 -12    0.04    1.80
   2  10  13   -0.99    2.44
  -2 -10 -13    2.94    1.91
   2  10  14    1.73    2.37
  -2 -10 -14    1.61    1.82
   2  11  -8    0.38    1.13
  -2 -11   8    0.31    1.45
   2  11  -7    1.67    1.85
  -2 -11   7    7.07    1.93
   2  11  -6   -0.67    1.31
  -2 -11   6    0.82    1.13
  -2 -11   6    1.34    1.30
   2  11  -5   14.92    2.11
  -2 -11   5   15.64    2.43
  -2 -11   5   17.00    2.05
   2  11  -4   16.34    2.38
  -2 -11   4   13.97    2.21
  -2 -11   4   15.67    2.07
   2  11  -3   -1.31    1.16
  -2 -11   3    0.72    1.10
  -2 -11   3   -0.73    0.95
   2  11  -2    4.14    1.63
  -2 -11   2    1.86    0.90
  -2 -11   2    6.72    1.38
   2  11  -1    2.87    1.79
  -2 -11   1    6.58    1.23
  -2 -11   1    8.11    1.53
   2  11   0    2.72    1.21
  -2 -11   0    3.35    1.28
  -2 -11   0    1.26    0.77
   2  11   1    2.84    1.33
  -2 -11  -1    4.04    1.14
   2  11   2   -0.78    1.40
  -2 -11  -2    3.31    1.27
   2  11   3    6.36    1.76
  -2 -11  -3    4.66    1.45
   2  11   4    9.24    1.91
  -2 -11  -4   12.82    2.18
   2  11   5    1.26    1.41
  -2 -11  -5    2.55    1.23
   2  11   6    8.52    2.35
  -2 -11  -6    8.35    1.80
   2  11   7    1.70    1.65
  -2 -11  -7    3.13    1.86
   2  11   8    2.86    1.66
  -2 -11  -8   -1.43    1.38
   2  11   9    8.27    2.23
  -2 -11  -9    4.45    2.09
   2  11  10    0.54    2.41
  -2 -11 -10    5.67    2.00
   2  11  11   -1.22    1.65
  -2 -11 -11    0.40    2.12
   2  11  12   10.98    3.21
  -2 -11 -12    6.74    3.10
   2  11  13    1.69    2.18
  -2 -11 -13   -2.16    2.08
   2  12  -6   -0.31    1.40
  -2 -12   6   -0.17    1.37
   2  12  -5    2.08    1.78
  -2 -12   5    2.36    1.50
   2  12  -4    5.52    1.73
  -2 -12   4    4.41    1.41
  -2 -12   4    6.70    1.68
   2  12  -3   -1.46    1.25
  -2 -12   3    1.50    1.07
  -2 -12   3   -0.57    1.06
   2  12  -2   -2.65    1.39
  -2 -12   2   -0.43    1.09
  -2 -12   2    0.73    1.02
   2  12  -1    0.66    1.65
  -2 -12   1    3.95    1.41
  -2 -12   1    1.26    0.96
   2  12   0    0.32    1.40
  -2 -12   0    0.51    1.08
   2  12   1   -0.99    1.10
  -2 -12  -1    2.25    1.21
   2  12   2   -0.27    1.62
  -2 -12  -2   -1.86    1.42
   2  12   3    5.76    1.87
  -2 -12  -3    7.35    1.99
   2  12   4   -0.53    1.32
  -2 -12  -4    2.40    1.47
   2  12   5    0.71    1.53
  -2 -12  -5    2.67    1.64
   2  12   6    7.01    1.88
  -2 -12  -6    5.22    2.05
   2  12   7    6.98    2.21
  -2 -12  -7   10.27    2.47
   2  12   8    2.18    1.82
  -2 -12  -8   -1.61    1.76
   2  12   9   -0.47    1.66
  -2 -12  -9    1.92    1.91
   2  12  10    9.53    3.01
  -2 -12 -10   21.89    3.86
   2  12  11    5.27    2.88
  -2 -12 -11    5.74    2.99
   2  13  -4    0.08    1.48
   2  13  -3    0.20    1.28
   2  13  -2  106.14    6.50
   2  13  -1    0.20    1.15
  -2 -13   1   -0.08    1.17
   2  13   0    1.01    1.12
  -2 -13   0   -0.51    0.99
   2  13   1    0.90    1.43
  -2 -13  -1    0.84    1.44
   2  13   2    0.76    1.80
  -2 -13  -2    1.98    1.26
   2  13   3   -0.24    1.28
  -2 -13  -3    0.40    1.04
   2  13   4    4.65    1.93
  -2 -13  -4   -0.32    1.68
   2  13   5    2.55    2.20
  -2 -13  -5    5.30    2.02
   2  13   6   12.79    2.83
  -2 -13  -6   20.07    2.67
   2  13   7    0.88    1.75
  -2 -13  -7    0.30    1.51
   2  13   8   -0.28    1.68
  -2 -13  -8   -1.43    2.11
   2  13   9    2.92    2.68
  -2 -13  -9    9.37    3.05
   2  13  10    3.82    3.50
  -2 -13 -10    8.55    2.75
   2  14   0   -0.01    1.64
  -2 -14   0    2.82    1.72
   2  14   1    3.02    1.97
  -2 -14  -1    6.00    1.95
   2  14   2    0.61    1.56
  -2 -14  -2    0.45    1.21
   2  14   3    1.02    1.68
  -2 -14  -3    0.79    1.59
   2  14   4    0.95    1.63
  -2 -14  -4   -0.56    1.13
   2  14   5    0.12    2.03
  -2 -14  -5    5.42    2.16
   2  14   6    0.73    1.95
  -2 -14  -6   -0.62    1.38
   3 -11  -8   12.15    2.33
  -3  11   8    2.64    2.90
   3 -11  -7    3.48    1.48
  -3  11   7    5.37    2.46
   3 -11  -6    8.20    1.85
  -3  11   6    0.90    1.89
   3 -11  -5    7.31    1.73
  -3  11   5    4.03    2.55
  -3  11   4    1.25    1.85
  -3  11   3    1.66    1.96
   3 -11  -2    1.98    1.51
  -3  11   2    3.18    2.17
   3 -11  -1   -0.29    1.18
  -3  11   1   -0.99    1.43
   3 -11   0    4.46    2.05
  -3  11   0    7.39    2.58
   3 -11   1   -0.27    1.53
  -3  11  -1    0.84    1.72
   3 -11   2    2.45    1.89
  -3  11  -2    1.35    2.11
   3 -11   3    1.81    1.65
  -3  11  -3   -0.66    1.42
   3 -10 -10    1.81    1.60
  -3  10  10    1.81    2.25
   3 -10  -9   -1.40    1.35
  -3  10   9   -0.78    1.55
   3 -10  -8    4.38    1.89
  -3  10   8    2.67    1.79
   3 -10  -7   62.14    4.38
  -3  10   7   63.42    5.55
   3 -10  -6    4.82    1.48
  -3  10   6    4.59    1.68
   3 -10  -5    1.32    1.38
  -3  10   5    6.53    1.68
   3 -10  -4   95.87    5.35
   3 -10  -4   90.42    4.66
  -3  10   4  103.69    6.78
   3 -10  -3   11.20    1.93
   3 -10  -3   10.03    1.67
  -3  10   3    8.22    2.14
   3 -10  -2    3.54    1.52
  -3  10   2    1.90    1.63
   3 -10  -1    3.27    1.63
  -3  10   1    3.83    2.01
   3 -10   0    1.61    1.63
  -3  10   0    1.95    1.54
   3 -10   1    3.01    1.66
  -3  10  -1    2.13    1.94
   3 -10   2   -2.44    1.35
  -3  10  -2    0.32    1.35
   3 -10   3    7.81    2.14
  -3  10  -3    8.61    2.68
   3 -10   4    1.33    2.02
  -3  10  -4    1.67    1.55
   3 -10   5   22.40    2.95
  -3  10  -5   18.46    3.65
   3  -9 -11    2.55    1.75
  -3   9  11    4.47    1.83
   3  -9 -10    2.43    1.64
  -3   9  10    4.85    1.79
   3  -9  -9    3.42    1.72
  -3   9   9    0.57    1.83
   3  -9  -8    4.30    1.85
  -3   9   8    4.33    2.01
   3  -9  -7   -0.84    1.31
  -3   9   7   -0.68    1.43
   3  -9  -6   17.90    2.12
   3  -9  -6   21.20    1.98
  -3   9   6   15.94    2.39
   3  -9  -5   29.06    2.51
   3  -9  -5   26.46    2.38
  -3   9   5   27.25    2.80
   3  -9  -4    9.98    1.60
   3  -9  -4    9.49    1.70
  -3   9   4    7.95    1.76
   3  -9  -3   -0.03    1.12
   3  -9  -3   -1.14    0.95
  -3   9   3   -1.21    1.16
   3  -9  -2    0.19    0.92
   3  -9  -2    1.06    1.18
  -3   9   2    3.20    1.23
   3  -9  -1   13.14    2.07
   3  -9  -1   10.60    1.32
  -3   9   1   13.72    2.05
   3  -9   0    2.38    1.22
  -3   9   0    1.34    1.32
   3  -9   1    2.01    1.40
  -3   9  -1    1.08    1.25
   3  -9   2    0.14    1.25
  -3   9  -2    1.24    1.24
   3  -9   3    1.27    1.64
  -3   9  -3    1.98    1.47
   3  -9   4   39.69    3.28
  -3   9  -4   29.27    3.47
   3  -9   5    2.33    1.61
  -3   9  -5   -1.22    1.65
   3  -9   6    8.20    1.96
  -3   9  -6    5.48    2.38
   3  -9   7    8.63    2.77
  -3   9  -7    8.72    2.90
   3  -8 -13    9.78    2.93
   3  -8 -12    1.75    1.81
  -3   8  12    0.39    1.63
   3  -8 -11    7.81    2.35
  -3   8  11    5.51    2.17
   3  -8 -10   -2.12    1.19
  -3   8  10    2.34    1.49
   3  -8  -9   11.80    1.70
  -3   8   9    0.06    1.96
   3  -8  -8   -0.34    0.92
  -3   8   8    0.32    0.92
  -3   8   8    0.49    0.95
   3  -8  -7   10.45    1.53
  -3   8   7   10.06    1.76
  -3   8   7    8.60    1.73
   3  -8  -6   18.08    1.89
   3  -8  -6   17.83    2.09
  -3   8   6   10.64    2.25
   3  -8  -5   56.02    3.17
   3  -8  -5   53.74    3.12
  -3   8   5   50.99    3.57
   3  -8  -4   -1.40    0.97
   3  -8  -4   -1.60    0.91
  -3   8   4    2.31    1.16
   3  -8  -3    3.94    1.38
   3  -8  -3    4.43    1.16
  -3   8   3    6.59    1.70
   3  -8  -2    0.50    1.08
   3  -8  -2    0.79    0.75
  -3   8   2    0.32    1.21
   3  -8  -1    3.05    0.86
   3  -8  -1    3.65    1.32
  -3   8   1    4.20    1.32
   3  -8   0    0.43    0.69
   3  -8   0   -0.27    1.10
  -3   8   0    0.45    0.92
   3  -8   1    4.10    1.26
  -3   8  -1    7.06    1.45
   3  -8   2    1.17    0.93
  -3   8  -2   -1.05    0.86
   3  -8   3   -1.23    1.19
  -3   8  -3    1.83    1.13
   3  -8   4    5.50    1.90
  -3   8  -4    5.57    1.69
   3  -8   5   16.02    2.49
  -3   8  -5   14.59    2.83
   3  -8   6   76.40    5.25
  -3   8  -6   80.92    5.70
   3  -8   7    5.85    1.67
  -3   8  -7    5.88    1.89
   3  -8   8    1.11    1.52
  -3   8  -8   -0.30    1.62
   3  -8   9   -1.58    1.54
  -3   8  -9   -1.82    1.64
   3  -7 -14   -0.06    1.38
   3  -7 -13   -0.54    1.33
   3  -7 -12   -0.29    1.41
  -3   7  12    2.38    1.41
   3  -7 -11    1.18    1.11
  -3   7  11   -0.83    1.19
   3  -7 -10    0.95    1.09
  -3   7  10   -0.89    1.26
  -3   7  10    0.40    0.87
   3  -7  -9   23.80    2.22
  -3   7   9   17.97    2.45
  -3   7   9   15.57    2.03
   3  -7  -8    5.59    1.35
  -3   7   8    5.44    1.41
  -3   7   8    2.34    1.21
   3  -7  -7    7.05    1.34
  -3   7   7    4.96    1.23
  -3   7   7    5.87    1.60
   3  -7  -6   51.97    2.96
   3  -7  -6   55.29    3.20
  -3   7   6   45.19    3.09
   3  -7  -5   -0.75    0.77
   3  -7  -5   -0.40    0.88
  -3   7   5    0.32    0.78
   3  -7  -4    0.43    0.95
   3  -7  -4    0.56    0.93
  -3   7   4    0.89    0.86
   3  -7  -3    4.63    1.15
   3  -7  -3    6.01    1.17
  -3   7   3    3.99    1.37
   3  -7  -2    7.75    1.14
   3  -7  -2    6.18    1.48
  -3   7   2    7.11    1.34
   3  -7  -1   13.80    1.45
   3  -7  -1   10.74    1.18
  -3   7   1   13.38    1.65
   3  -7   0    6.87    1.37
   3  -7   0    5.82    0.85
  -3   7   0    5.34    1.63
   3  -7   1    0.39    0.55
   3  -7   1    1.73    1.05
  -3   7  -1    0.08    0.93
   3  -7   2    4.90    1.25
  -3   7  -2    1.50    1.62
   3  -7   3    4.34    1.58
  -3   7  -3    6.33    1.49
   3  -7   4    6.52    1.51
  -3   7  -4    1.01    1.26
   3  -7   5   27.31    2.32
  -3   7  -5   15.28    2.32
   3  -7   6   62.75    3.76
  -3   7  -6   68.72    4.38
   3  -7   7    0.04    1.19
  -3   7  -7    0.60    1.43
   3  -7   8   -1.80    1.06
  -3   7  -8    1.00    1.27
   3  -7   9   -0.86    1.36
  -3   7  -9    1.94    1.53
   3  -7  10    5.25    1.80
  -3   7 -10    2.30    1.76
   3  -6 -14   -2.81    2.24
   3  -6 -13    0.25    1.44
   3  -6 -12    3.45    1.85
  -3   6  12    1.53    1.38
  -3   6  12    2.62    1.17
   3  -6 -11    2.57    1.15
  -3   6  11   -0.23    0.78
  -3   6  11   -1.27    0.97
   3  -6 -10    6.86    1.80
  -3   6  10    5.58    1.36
  -3   6  10    3.66    1.58
   3  -6  -9   11.18    1.92
  -3   6   9    9.74    1.62
  -3   6   9   10.01    1.62
   3  -6  -8    0.80    1.10
  -3   6   8   -1.27    0.91
  -3   6   8    1.54    0.89
   3  -6  -7    1.52    1.34
  -3   6   7    5.79    1.19
  -3   6   7    1.90    1.16
   3  -6  -6    0.38    0.83
   3  -6  -6    1.41    0.81
  -3   6   6   -0.30    0.85
   3  -6  -5   20.98    1.75
   3  -6  -5   19.03    1.58
  -3   6   5   19.62    1.88
   3  -6  -4   21.51    1.82
   3  -6  -4   20.70    1.55
  -3   6   4   22.10    1.72
   3  -6  -3    4.60    1.27
   3  -6  -3    9.65    1.20
  -3   6   3    6.59    1.28
   3  -6  -2   10.90    1.25
   3  -6  -2   12.95    1.20
  -3   6   2   14.59    1.34
   3  -6  -1   10.03    1.17
   3  -6  -1    7.49    0.98
  -3   6   1    9.42    1.24
   3  -6   0   12.74    1.21
   3  -6   0    9.65    0.94
  -3   6   0   10.25    1.31
   3  -6   1    4.73    1.31
   3  -6   1    2.46    0.68
  -3   6  -1    5.44    1.38
   3  -6   2   27.85    1.94
  -3   6  -2   24.23    2.16
   3  -6   3    6.40    1.33
  -3   6  -3    9.55    1.61
   3  -6   4   38.91    2.80
  -3   6  -4   34.71    2.57
   3  -6   5    9.36    1.44
  -3   6  -5    9.04    1.81
   3  -6   6    5.82    1.36
  -3   6  -6    5.09    1.48
   3  -6   7    9.96    1.60
  -3   6  -7    6.15    1.64
   3  -6   8   -1.69    1.04
  -3   6  -8    1.47    1.18
   3  -6   9    5.10    1.63
  -3   6  -9    6.37    2.18
   3  -6  10    8.61    2.32
  -3   6 -10    4.24    2.01
   3  -6  11    1.14    1.40
  -3   6 -11    0.25    1.52
   3  -6  12    1.41    1.52
  -3   6 -12   -0.39    2.02
   3  -5 -15    3.34    2.45
   3  -5 -14    0.17    1.64
  -3   5  14   -0.66    0.87
   3  -5 -13   -0.97    1.51
  -3   5  13   -0.23    1.01
   3  -5 -12    2.58    1.63
  -3   5  12    1.01    1.09
  -3   5  12    1.44    1.07
   3  -5 -11    9.98    2.09
  -3   5  11    6.20    1.47
  -3   5  11    8.90    1.46
   3  -5 -10   19.56    2.49
  -3   5  10   16.52    1.91
  -3   5  10   16.12    1.89
   3  -5  -9    2.65    1.30
  -3   5   9    1.24    0.93
  -3   5   9   -0.16    0.93
   3  -5  -8   10.86    1.49
  -3   5   8   10.32    1.49
  -3   5   8    7.43    1.39
   3  -5  -7   -0.41    0.70
  -3   5   7    0.75    0.72
  -3   5   7   -0.43    0.68
   3  -5  -6    2.28    0.95
  -3   5   6    2.99    0.96
   3  -5  -5   13.17    1.58
   3  -5  -5   14.79    1.49
  -3   5   5   16.24    1.54
   3  -5  -4    3.44    1.01
   3  -5  -4    4.33    0.98
  -3   5   4    3.05    0.80
   3  -5  -3    1.82    0.85
   3  -5  -3    1.77    0.78
  -3   5   3    2.13    0.69
   3  -5  -2    2.77    0.76
   3  -5  -2    2.77    0.79
  -3   5   2    4.90    0.81
   3  -5  -1    5.40    0.72
   3  -5  -1    4.63    1.05
  -3   5   1    3.12    0.93
   3  -5   0    8.48    0.77
   3  -5   0    9.63    1.05
  -3   5   0   10.59    1.32
   3  -5   1   59.35    2.68
   3  -5   1   50.45    1.59
  -3   5  -1   54.78    2.73
   3  -5   2   25.70    1.79
  -3   5  -2   21.69    2.02
   3  -5   3    2.84    1.13
  -3   5  -3    3.43    1.26
   3  -5   4    1.11    0.83
  -3   5  -4    1.53    0.84
   3  -5   5   -0.02    0.81
  -3   5  -5    1.51    0.91
   3  -5   6    2.23    1.08
  -3   5  -6    2.54    1.42
   3  -5   7    4.51    1.25
  -3   5  -7    0.98    1.63
   3  -5   8   15.07    2.06
  -3   5  -8   17.63    2.33
   3  -5   9    6.04    1.58
  -3   5  -9    5.88    1.57
   3  -5  10    8.79    1.92
  -3   5 -10    7.10    1.77
   3  -5  11    2.99    1.60
  -3   5 -11    4.80    1.62
   3  -5  12    1.22    1.48
  -3   5 -12    5.34    1.89
   3  -4 -15    1.94    1.81
  -3   4  15    2.21    1.37
   3  -4 -14   -0.14    1.40
  -3   4  14    1.32    1.12
   3  -4 -13    0.17    1.23
  -3   4  13    0.85    1.05
   3  -4 -12    1.98    1.03
  -3   4  12   -0.99    0.93
   3  -4 -11   25.96    2.42
  -3   4  11   18.87    2.02
  -3   4  11   28.66    2.29
   3  -4 -10    6.89    1.35
  -3   4  10    3.50    1.06
  -3   4  10    6.69    1.25
   3  -4  -9    2.53    1.20
  -3   4   9    1.78    0.92
  -3   4   9    0.84    0.85
   3  -4  -8   50.89    3.12
  -3   4   8   51.28    2.91
  -3   4   8   44.71    2.52
   3  -4  -7   44.76    2.39
  -3   4   7   42.88    2.45
  -3   4   7   40.96    1.99
   3  -4  -6    4.94    1.06
  -3   4   6    8.12    1.17
  -3   4   6    5.49    0.96
   3  -4  -5   23.90    1.55
   3  -4  -5   30.40    1.89
  -3   4   5   25.31    1.60
   3  -4  -4  175.08    5.43
   3  -4  -4  181.11    4.78
  -3   4   4  182.63    5.14
   3  -4  -3    1.35    0.73
   3  -4  -3    0.28    0.60
  -3   4   3    0.71    0.63
   3  -4  -2   30.40    1.83
   3  -4  -2   29.89    1.31
  -3   4   2   29.71    1.68
   3  -4  -1   19.53    1.32
   3  -4  -1   17.51    0.98
  -3   4   1   21.33    1.59
   3  -4   0    0.06    0.63
   3  -4   0    0.15    0.33
  -3   4   0    1.15    0.57
   3  -4   1  164.43    4.97
   3  -4   1  142.99    2.58
  -3   4  -1  154.59    4.84
   3  -4   2   20.93    1.45
  -3   4  -2   20.48    1.45
   3  -4   3    0.47    0.87
  -3   4  -3    1.21    0.74
   3  -4   4   50.83    2.63
  -3   4  -4   52.87    2.54
   3  -4   5    4.19    1.07
  -3   4  -5    2.93    0.93
   3  -4   6   -0.51    0.83
  -3   4  -6   -0.20    0.93
   3  -4   7    9.31    1.45
  -3   4  -7    7.05    1.69
   3  -4   8   29.83    2.20
  -3   4  -8   28.96    2.54
   3  -4   9    3.99    1.23
  -3   4  -9    2.03    1.58
   3  -4  10    6.43    1.45
  -3   4 -10    4.40    1.93
   3  -4  11   18.27    2.13
  -3   4 -11   13.82    2.77
   3  -4  12   14.54    2.12
  -3   4 -12   10.33    2.33
   3  -4  13    0.43    1.09
  -3   4 -13   -0.79    1.44
   3  -3 -15    7.82    2.70
  -3   3  15    5.75    1.34
   3  -3 -14   -0.62    1.32
  -3   3  14   -0.56    1.12
   3  -3 -13    1.48    1.35
  -3   3  13    1.06    1.15
   3  -3 -12    0.18    1.35
  -3   3  12    1.86    0.88
   3  -3 -11   -0.42    0.99
  -3   3  11   -0.53    0.74
  -3   3  11   -0.30    0.91
   3  -3 -10    1.25    1.17
  -3   3  10    1.59    0.83
  -3   3  10    0.51    0.91
   3  -3  -9    0.48    0.93
  -3   3   9    1.28    0.66
  -3   3   9    0.19    0.71
   3  -3  -8    0.75    0.81
  -3   3   8    1.22    0.74
  -3   3   8    1.47    0.65
   3  -3  -7    6.25    1.12
  -3   3   7    3.35    1.00
  -3   3   7    3.22    0.69
   3  -3  -6    0.78    0.68
  -3   3   6    1.46    0.69
  -3   3   6    0.97    0.56
   3  -3  -5   81.35    3.00
  -3   3   5   79.10    2.58
  -3   3   5   81.86    3.04
   3  -3  -4   83.28    2.77
   3  -3  -4   78.80    2.84
  -3   3   4   72.05    2.40
   3  -3  -3   75.95    2.42
   3  -3  -3   71.72    2.86
  -3   3   3   67.76    2.28
   3  -3  -2   11.85    0.89
   3  -3  -2   12.58    1.03
  -3   3   2   12.47    1.00
   3  -3  -1   17.21    0.88
   3  -3  -1   16.29    1.35
  -3   3   1   18.81    1.22
   3  -3   0  112.58    2.19
   3  -3   0  117.96    3.71
  -3   3   0  109.38    3.44
   3  -3   1  119.91    3.98
  -3   3  -1  121.61    3.95
   3  -3   2    2.93    0.66
  -3   3  -2    1.44    0.66
   3  -3   3    8.42    0.95
  -3   3  -3    7.10    0.97
   3  -3   4    0.36    0.78
  -3   3  -4    1.68    0.92
   3  -3   5   39.10    2.08
  -3   3  -5   38.94    2.42
   3  -3   6    9.53    1.27
  -3   3  -6    7.26    1.37
   3  -3   7   21.25    1.94
  -3   3  -7   20.62    2.14
   3  -3   8   -0.26    0.73
  -3   3  -8   -0.12    1.05
   3  -3   9    7.18    1.43
  -3   3  -9    9.86    1.63
   3  -3  10   13.46    1.86
  -3   3 -10    8.28    2.36
   3  -3  11    7.94    1.65
  -3   3 -11   14.00    2.42
   3  -3  12    5.81    1.53
  -3   3 -12    3.24    2.18
   3  -3  13    1.38    1.29
  -3   3 -13    0.77    1.58
   3  -3  14    3.85    1.97
  -3   3 -14    3.05    2.32
   3  -2 -16    0.86    1.81
  -3   2  16   -0.59    1.26
   3  -2 -15   25.71    3.20
  -3   2  15   20.78    2.37
   3  -2 -14    3.39    1.84
  -3   2  14    2.24    1.49
   3  -2 -13    6.10    1.70
  -3   2  13    5.20    1.43
   3  -2 -12    0.57    1.31
  -3   2  12   -0.77    0.77
   3  -2 -11   19.12    2.15
  -3   2  11   20.40    2.05
   3  -2 -10    3.00    1.13
  -3   2  10    2.55    0.85
   3  -2  -9    6.08    1.58
  -3   2   9    6.78    0.92
  -3   2   9   10.04    1.16
   3  -2  -8    7.77    1.18
  -3   2   8    6.73    0.76
  -3   2   8    9.42    1.22
   3  -2  -7   40.22    2.11
  -3   2   7   39.12    2.24
  -3   2   7   37.57    1.59
   3  -2  -6   19.68    1.35
  -3   2   6   14.11    1.35
  -3   2   6   15.97    0.93
   3  -2  -5   37.97    1.68
  -3   2   5   35.12    2.02
  -3   2   5   31.74    1.22
   3  -2  -4    1.35    0.58
   3  -2  -4    2.46    0.61
  -3   2   4    1.11    0.45
   3  -2  -3   18.69    0.99
   3  -2  -3   20.94    1.17
  -3   2   3   20.38    0.97
   3  -2  -2   37.84    1.34
   3  -2  -2   35.54    1.66
  -3   2   2   40.20    1.54
   3  -2  -1  649.78    9.80
   3  -2  -1  661.98   13.45
  -3   2   1  678.55   12.06
   3  -2   0  213.09    5.58
  -3   2   0  221.62    5.38
   3  -2   1   93.05    1.49
   3  -2   1  103.55    3.01
  -3   2  -1   97.34    2.83
   3  -2   2   10.51    0.95
  -3   2  -2    8.56    0.93
   3  -2   3  144.22    4.19
  -3   2  -3  140.13    4.72
   3  -2   4   29.87    1.44
  -3   2  -4   32.65    1.74
   3  -2   5   37.58    1.87
  -3   2  -5   37.58    2.02
   3  -2   6    4.26    0.82
  -3   2  -6    5.08    1.15
   3  -2   7   57.86    2.45
  -3   2  -7   55.58    3.15
   3  -2   8    0.48    0.61
  -3   2  -8   -0.94    0.86
   3  -2   9   27.32    1.95
  -3   2  -9   29.62    2.50
   3  -2  10   -1.07    1.09
  -3   2 -10    0.17    1.13
   3  -2  11   45.96    3.01
  -3   2 -11   41.31    3.60
   3  -2  12   -0.19    1.19
  -3   2 -12    0.90    1.08
   3  -2  13    1.31    1.33
  -3   2 -13    0.42    1.49
   3  -2  14    5.23    1.63
  -3   2 -14    2.48    2.18
   3  -2  15   -0.80    1.21
  -3   2 -15    1.44    1.41
   3  -1 -16   15.05    3.14
  -3   1  16   14.14    2.59
   3  -1 -15    4.20    2.22
  -3   1  15    1.61    1.35
   3  -1 -14    0.04    1.45
  -3   1  14   -0.10    1.07
   3  -1 -13    0.74    1.48
  -3   1  13    2.19    1.27
   3  -1 -12    5.13    1.62
  -3   1  12   -0.20    1.09
   3  -1 -11   17.61    2.17
  -3   1  11   15.93    1.57
   3  -1 -10   14.61    2.11
  -3   1  10    8.14    1.49
   3  -1  -9   -0.93    0.81
  -3   1   9    1.02    0.66
   3  -1  -8    0.69    0.72
  -3   1   8    0.17    0.40
  -3   1   8    0.48    0.58
   3  -1  -7   47.89    2.33
  -3   1   7   44.22    1.57
  -3   1   7   48.47    2.36
   3  -1  -6   31.00    1.98
  -3   1   6   30.89    1.81
  -3   1   6   28.07    1.03
   3  -1  -5   34.06    1.63
  -3   1   5   38.17    1.83
  -3   1   5   31.38    0.96
   3  -1  -4   84.24    2.48
  -3   1   4   79.15    1.74
  -3   1   4   82.88    2.90
   3  -1  -3   61.56    1.87
   3  -1  -3   60.88    2.27
  -3   1   3   60.64    1.47
   3  -1  -2   83.93    2.15
   3  -1  -2   86.70    2.51
   3  -1  -1   53.11    1.91
   3  -1  -1   50.33    1.40
  -3   1   1   47.93    1.53
   3  -1   0   42.31    1.02
   3  -1   0   46.31    1.66
  -3   1   0   48.50    1.53
   3  -1   1    2.58    0.68
   3  -1   1    2.86    0.28
  -3   1  -1    3.39    0.56
   3  -1   2    8.72    0.76
  -3   1  -2    8.13    0.79
   3  -1   3    2.54    0.68
  -3   1  -3    1.48    0.87
   3  -1   4   -0.33    0.58
  -3   1  -4   -0.02    0.59
   3  -1   5   50.87    2.14
  -3   1  -5   61.53    2.72
   3  -1   6   21.46    1.26
  -3   1  -6   25.51    1.78
  -3   1  -6   18.91    0.68
   3  -1   7    6.29    1.13
  -3   1  -7    4.39    0.51
  -3   1  -7    8.02    1.40
   3  -1   8    0.53    0.69
  -3   1  -8    3.22    1.03
  -3   1  -8    0.50    0.35
   3  -1   9    0.74    0.70
  -3   1  -9   -0.84    0.82
  -3   1  -9    0.18    0.44
   3  -1  10    2.46    0.86
  -3   1 -10    0.41    0.53
  -3   1 -10    1.31    1.09
   3  -1  11   35.45    2.34
  -3   1 -11   42.47    3.70
   3  -1  12    9.57    1.46
  -3   1 -12    9.10    1.90
   3  -1  13   -0.35    0.84
  -3   1 -13    0.29    1.18
   3  -1  14    6.21    1.87
  -3   1 -14    4.92    2.47
   3  -1  15    6.78    1.93
  -3   1 -15    0.90    2.32
   3   0 -16   16.75    3.06
  -3   0  16   13.04    2.85
   3   0 -15   -1.25    1.80
  -3   0  15    1.37    1.41
   3   0 -14   -1.01    1.89
  -3   0  14   -0.70    1.41
   3   0 -13   21.52    2.87
  -3   0  13   25.66    2.24
   3   0 -12    0.88    1.07
  -3   0  12   -0.72    0.79
   3   0 -11    1.69    1.64
  -3   0  11    5.06    1.23
   3   0 -10   10.90    2.09
  -3   0  10   13.09    1.55
   3   0  -9   26.36    2.36
  -3   0   9   24.27    1.93
   3   0  -8   20.20    1.72
  -3   0   8   13.46    0.88
  -3   0   8   17.33    1.36
   3   0  -7   39.18    2.17
  -3   0   7   44.32    1.97
  -3   0   7   35.08    1.20
   3   0  -6  346.39    9.15
  -3   0   6  332.87    8.61
   3   0  -5  101.57    3.34
  -3   0   5   97.01    3.26
   3   0  -4   25.08    1.31
  -3   0   4   21.83    0.57
  -3   0   4   26.45    1.48
   3   0  -3   -0.19    0.39
  -3   0   3    0.56    0.45
   3   0  -2   71.65    2.09
   3   0  -2   80.57    2.31
  -3   0   2   78.35    1.47
   3   0  -1   32.14    1.23
   3   0  -1   30.18    1.27
  -3   0   1   30.09    0.89
   3   0   0  282.94    4.60
  -3   0   0  282.71    5.16
   3   0   1  226.07    4.79
  -3   0  -1  216.85    4.81
   3   0   2  107.64    1.64
   3   0   2  109.94    2.76
  -3   0  -2  105.52    3.30
   3   0   3   12.69    0.87
  -3   0  -3   12.30    1.03
  -3   0  -3   12.27    0.35
   3   0   4  193.19    4.35
  -3   0  -4  191.52    2.55
  -3   0  -4  203.98    5.63
   3   0   5    4.37    0.74
  -3   0  -5    4.99    1.08
   3   0   6   27.79    1.42
  -3   0  -6   27.56    1.79
  -3   0  -6   28.38    0.98
   3   0   7   56.55    2.26
  -3   0  -7   53.21    1.69
  -3   0  -7   57.75    3.07
   3   0   8   -1.02    0.56
  -3   0  -8   -0.15    0.41
  -3   0  -8    0.62    0.67
   3   0   9    3.57    1.08
  -3   0  -9    4.89    1.14
  -3   0  -9    3.94    0.68
   3   0  10    6.17    1.07
  -3   0 -10    4.20    0.83
  -3   0 -10    4.56    1.71
   3   0  11    6.03    1.34
  -3   0 -11    5.30    1.02
  -3   0 -11    7.19    1.90
   3   0  12    2.14    1.04
  -3   0 -12   -1.76    1.13
  -3   0 -12    0.43    0.73
   3   0  13    4.79    1.32
  -3   0 -13    7.58    1.85
  -3   0 -13    6.08    1.27
   3   0  14    6.02    1.75
  -3   0 -14    8.03    2.50
   3   0  15    6.92    1.59
  -3   0 -15    7.94    2.76
   3   0  16    3.01    1.46
  -3   0 -16    1.05    2.33
   3   1 -15    0.03    1.80
   3   1 -14    0.76    1.43
  -3  -1  14   -0.24    0.97
   3   1 -13    2.52    1.63
  -3  -1  13    4.67    1.28
   3   1 -12   13.51    2.59
  -3  -1  12   13.83    1.76
   3   1 -11   24.21    2.66
  -3  -1  11   16.82    1.68
   3   1 -10    0.61    1.12
  -3  -1  10    3.01    1.03
   3   1  -9    6.14    1.30
  -3  -1   9    6.81    1.07
   3   1  -8   34.99    2.11
  -3  -1   8   35.73    2.00
   3   1  -7    8.38    1.09
  -3  -1   7    8.70    1.00
   3   1  -6  141.22    4.61
  -3  -1   6  135.41    4.11
   3   1  -5  329.00    8.14
  -3  -1   5  337.40    8.17
  -3  -1   4  101.47    3.14
   3   1  -3   15.65    1.06
  -3  -1   3   17.13    1.22
   3   1  -2  142.49    3.38
  -3  -1   2  142.20    3.63
   3   1  -1    1.83    0.45
   3   1  -1    2.50    0.48
   3   1   0   62.47    1.75
   3   1   0   61.45    1.90
   3   1   1   74.20    2.00
   3   1   1   75.42    1.83
   3   1   1   76.34    1.99
   3   1   2   50.13    1.21
   3   1   2   55.23    1.80
   3   1   3    1.55    0.59
   3   1   3    0.41    0.42
  -3  -1  -3    0.78    0.27
   3   1   4  273.47    6.43
  -3  -1  -4  248.19    3.78
   3   1   5    1.34    0.63
   3   1   5    0.19    0.46
  -3  -1  -5    1.25    0.41
   3   1   6   18.34    1.38
   3   1   6   18.87    1.15
  -3  -1  -6   18.88    0.96
   3   1   7    3.89    0.88
   3   1   7    3.15    0.73
  -3  -1  -7    3.02    0.62
   3   1   8   33.17    2.21
   3   1   8   35.69    1.61
  -3  -1  -8   30.61    1.43
   3   1   9    5.17    0.96
   3   1   9    3.46    1.00
  -3  -1  -9    4.75    0.79
   3   1  10    7.63    1.62
   3   1  10   10.90    1.14
  -3  -1 -10    9.92    1.13
   3   1  11    2.14    1.01
  -3  -1 -11    1.32    1.12
  -3  -1 -11    2.34    0.83
   3   1  12    6.04    1.36
  -3  -1 -12    4.56    1.17
  -3  -1 -12    7.30    1.99
   3   1  13    1.70    1.02
  -3  -1 -13    2.23    1.82
  -3  -1 -13    1.58    1.06
   3   1  14    6.24    1.77
  -3  -1 -14   13.34    2.59
  -3  -1 -14    6.17    1.61
   3   1  15    1.06    1.35
  -3  -1 -15    1.15    2.01
   3   1  16    1.67    1.55
  -3  -1 -16    3.16    2.07
   3   2 -15   18.65    3.77
  -3  -2  15   16.53    2.90
   3   2 -14   -0.17    1.70
  -3  -2  14    2.68    1.51
   3   2 -13   -0.29    1.37
  -3  -2  13   -0.58    1.09
   3   2 -12    2.93    1.79
  -3  -2  12    5.13    1.53
   3   2 -11    0.39    1.28
  -3  -2  11    2.28    1.16
   3   2 -10   -1.29    1.19
  -3  -2  10    1.52    0.95
   3   2  -9   42.35    2.78
  -3  -2   9   32.96    2.33
   3   2  -8   29.39    2.49
  -3  -2   8   26.86    1.69
   3   2  -7    4.20    1.12
  -3  -2   7    7.32    1.10
   3   2  -6    1.43    0.75
  -3  -2   6    0.67    0.62
   3   2  -5  512.60   12.67
  -3  -2   5  520.51   11.12
   3   2  -4    1.26    0.58
  -3  -2   4    0.23    0.51
   3   2  -3   90.13    3.01
  -3  -2   3   99.00    2.78
   3   2  -2    7.39    0.93
  -3  -2   2    8.62    0.70
   3   2  -1  106.55    1.80
   3   2  -1  111.07    2.95
  -3  -2   1  101.51    2.66
   3   2   0  203.41    3.54
   3   2   0  202.01    3.81
   3   2   0  205.29    4.28
   3   2   1   44.46    1.42
   3   2   1   42.64    1.34
   3   2   1   43.91    1.35
   3   2   2    2.56    0.42
   3   2   2    2.78    0.59
   3   2   2    2.68    0.46
   3   2   3    2.44    0.56
   3   2   3    2.28    0.35
  -3  -2  -3    1.76    0.39
   3   2   4   69.15    2.43
   3   2   4   68.73    1.69
  -3  -2  -4   69.31    1.65
   3   2   5  276.85    7.03
   3   2   5  281.57    5.02
  -3  -2  -5  290.33    5.17
   3   2   6  137.89    4.42
   3   2   6  135.87    3.08
  -3  -2  -6  139.21    3.40
   3   2   7   16.66    0.99
   3   2   7   15.42    1.24
  -3  -2  -7   17.30    1.19
   3   2   8   89.82    4.00
   3   2   8   87.75    2.61
  -3  -2  -8   89.17    3.03
   3   2   9   80.40    2.83
   3   2   9   76.49    3.99
  -3  -2  -9   82.86    3.08
   3   2  10    7.79    1.27
   3   2  10    9.90    1.49
  -3  -2 -10    8.53    1.25
   3   2  11    0.02    0.67
   3   2  11   -0.07    0.94
  -3  -2 -11    1.30    0.80
   3   2  12   37.87    3.13
   3   2  12   35.64    2.21
  -3  -2 -12   35.89    2.41
   3   2  13    4.64    1.31
   3   2  13    5.76    1.46
  -3  -2 -13    4.03    1.12
   3   2  14   -0.26    0.76
  -3  -2 -14    0.91    0.93
  -3  -2 -14   -1.36    1.19
   3   2  15    7.97    1.79
  -3  -2 -15    9.66    2.63
  -3  -2 -15    6.10    1.52
   3   2  16   -1.06    1.30
  -3  -2 -16    0.46    2.04
   3   3 -15    1.63    2.13
  -3  -3  15    0.31    1.32
   3   3 -14    3.23    1.97
  -3  -3  14    1.67    1.81
   3   3 -13    5.48    1.67
  -3  -3  13    0.81    1.35
   3   3 -12    6.73    1.98
  -3  -3  12    2.02    1.71
   3   3 -11    3.87    1.32
  -3  -3  11    1.43    1.10
   3   3 -10   29.27    2.86
  -3  -3  10   28.13    2.31
   3   3  -9   10.40    1.47
  -3  -3   9    8.41    1.23
   3   3  -8    9.61    1.37
  -3  -3   8    8.44    1.03
   3   3  -7   16.61    0.62
   3   3  -7   20.72    1.62
  -3  -3   7   20.91    1.25
   3   3  -6   15.36    0.56
   3   3  -6   15.94    1.68
  -3  -3   6   18.10    1.15
   3   3  -5    2.56    0.73
   3   3  -5    1.88    0.20
  -3  -3   5    1.63    0.74
   3   3  -4  131.43    4.29
  -3  -3   4  132.09    3.70
   3   3  -3   70.78    1.14
   3   3  -3   84.79    2.99
  -3  -3   3   73.86    2.24
   3   3  -2   28.39    1.68
   3   3  -2   31.12    0.78
  -3  -3   2   31.86    1.30
   3   3  -1   36.33    1.64
   3   3  -1   36.62    0.96
  -3  -3   1   35.78    1.25
   3   3   0    6.95    0.51
   3   3   0    6.93    0.71
  -3  -3   0    7.06    0.52
   3   3   1    2.63    0.48
   3   3   1    2.48    0.46
  -3  -3  -1    1.58    0.31
   3   3   2    3.51    0.52
   3   3   2    3.50    0.51
   3   3   2    2.67    0.38
   3   3   3   23.20    1.13
   3   3   3   20.40    0.80
  -3  -3  -3   20.63    1.02
   3   3   4   22.02    1.40
   3   3   4   19.68    0.76
  -3  -3  -4   19.88    0.90
   3   3   5  170.11    4.83
   3   3   5  162.16    3.01
  -3  -3  -5  168.70    3.95
   3   3   6   90.32    2.18
   3   3   6   97.51    3.41
  -3  -3  -6   83.88    2.53
   3   3   7   11.41    0.71
   3   3   7   13.04    1.27
  -3  -3  -7   16.08    1.30
   3   3   8    2.34    0.58
   3   3   8    2.26    0.90
  -3  -3  -8    3.58    0.83
   3   3   9    0.43    0.95
   3   3   9   -0.30    0.56
  -3  -3  -9    1.99    0.68
   3   3  10    0.34    0.78
   3   3  10    0.10    0.61
  -3  -3 -10   -1.09    0.70
   3   3  11  111.88    5.19
   3   3  11  106.92    3.78
  -3  -3 -11   92.70    4.07
   3   3  12    0.68    0.86
   3   3  12   -1.78    1.35
  -3  -3 -12    1.66    0.75
   3   3  13    4.56    1.22
   3   3  13    4.73    1.84
  -3  -3 -13    6.17    1.22
   3   3  14    0.77    0.86
   3   3  14    0.73    1.10
  -3  -3 -14   -1.33    0.99
   3   3  15    8.39    1.91
   3   3  15    8.14    1.68
  -3  -3 -15    6.51    1.84
   3   3  16   -0.13    1.15
  -3  -3 -16    0.97    1.35
   3   4 -14    3.03    2.52
  -3  -4  14    5.41    2.11
   3   4 -13   -0.54    1.13
  -3  -4  13    0.35    1.01
   3   4 -12    0.39    1.31
  -3  -4  12   -0.32    0.93
   3   4 -11    1.00    1.18
  -3  -4  11    0.78    0.98
   3   4 -10   95.59    5.39
  -3  -4  10  107.54    4.54
   3   4  -9    7.92    1.71
  -3  -4   9    5.47    1.49
   3   4  -8    0.44    0.44
   3   4  -8    0.04    1.08
  -3  -4   8    2.11    0.79
   3   4  -7    1.69    0.85
   3   4  -7   -0.27    0.31
  -3  -4   7   -0.65    0.59
   3   4  -6    2.33    0.44
   3   4  -6    3.75    1.06
  -3  -4   6    3.33    0.72
   3   4  -5   27.91    0.89
   3   4  -5   24.99    1.87
  -3  -4   5   23.06    1.44
   3   4  -4   22.74    1.69
  -3  -4   4   19.92    1.31
   3   4  -3   70.89    1.57
   3   4  -3   70.80    2.85
  -3  -4   3   71.29    2.33
   3   4  -2    6.95    0.54
   3   4  -2    7.53    0.92
  -3  -4   2    7.41    0.61
   3   4  -1   35.41    1.08
   3   4  -1   35.28    1.70
  -3  -4   1   34.38    1.23
   3   4   0    4.98    0.77
   3   4   0    6.14    0.59
  -3  -4   0    4.99    0.48
   3   4   1    1.51    0.45
   3   4   1    0.41    0.39
   3   4   2   37.65    1.40
  -3  -4  -2   37.20    0.89
   3   4   3   11.22    0.86
  -3  -4  -3   10.92    0.80
   3   4   4   53.91    2.37
   3   4   4   48.40    1.00
  -3  -4  -4   55.03    1.95
   3   4   5   83.56    1.62
   3   4   5   82.00    3.26
  -3  -4  -5   84.54    2.69
   3   4   6    7.94    1.14
   3   4   6    5.33    0.38
  -3  -4  -6    6.92    0.75
   3   4   7    4.18    0.87
   3   4   7    3.05    0.49
  -3  -4  -7    4.39    0.76
   3   4   8    1.75    0.43
   3   4   8    0.82    1.01
  -3  -4  -8    0.40    0.84
   3   4   9    1.20    0.96
   3   4   9    2.72    0.56
  -3  -4  -9    3.04    1.06
   3   4  10   28.44    2.27
   3   4  10   26.44    1.41
  -3  -4 -10   29.66    1.97
   3   4  11   13.78    1.83
   3   4  11   11.06    1.10
  -3  -4 -11   16.21    1.86
   3   4  12    7.75    1.87
   3   4  12    5.44    1.08
  -3  -4 -12    7.60    1.32
   3   4  13    0.55    0.65
   3   4  13    1.96    1.20
  -3  -4 -13   -1.48    0.75
   3   4  14    2.42    1.73
   3   4  14    0.94    0.93
  -3  -4 -14    1.17    1.06
   3   4  15    1.81    1.90
   3   4  15    2.57    1.13
  -3  -4 -15    0.21    1.52
   3   4  16   -1.29    1.76
  -3  -4 -16   -0.15    1.14
   3   5 -14    0.11    2.56
  -3  -5  14    7.35    2.05
   3   5 -13    5.41    2.62
  -3  -5  13    8.96    2.28
   3   5 -12    0.50    1.76
  -3  -5  12    1.89    1.48
   3   5 -11   45.08    4.40
  -3  -5  11   54.60    3.69
   3   5 -10   90.72    5.89
  -3  -5  10   93.63    4.39
   3   5  -9    0.41    1.22
  -3  -5   9    1.10    0.95
   3   5  -8    0.63    0.46
   3   5  -8    2.08    1.11
  -3  -5   8   -0.74    0.78
   3   5  -7    1.48    0.48
   3   5  -7    1.58    0.96
  -3  -5   7    1.69    0.85
   3   5  -6    7.14    0.66
   3   5  -6    6.96    1.24
  -3  -5   6    8.52    1.02
   3   5  -5    1.43    0.73
   3   5  -5    0.62    0.44
  -3  -5   5    0.10    0.61
   3   5  -4   20.88    0.93
   3   5  -4   20.90    1.59
  -3  -5   4   20.56    1.38
   3   5  -3    2.96    0.48
   3   5  -3    4.79    1.02
  -3  -5   3    3.82    0.70
   3   5  -2    0.95    0.77
   3   5  -2    2.35    0.45
  -3  -5   2    1.07    0.57
   3   5  -1  180.25    5.31
   3   5  -1  168.27    3.80
  -3  -5   1  173.12    3.68
   3   5   0   54.71    2.40
   3   5   0   56.68    1.81
  -3  -5   0   54.72    1.43
   3   5   1    2.89    0.79
   3   5   1    1.92    0.52
  -3  -5  -1    2.51    0.33
   3   5   2   18.13    1.27
  -3  -5  -2   16.05    0.51
  -3  -5  -2   15.11    1.10
   3   5   3    4.94    0.70
  -3  -5  -3    3.99    0.19
  -3  -5  -3    4.00    0.66
   3   5   4   11.55    1.24
  -3  -5  -4   14.64    1.06
   3   5   5    8.78    1.05
  -3  -5  -5    9.67    1.14
   3   5   6  204.81    6.41
  -3  -5  -6  211.28    5.89
   3   5   7    8.33    1.29
   3   5   7    6.26    0.39
  -3  -5  -7    6.05    1.04
   3   5   8    3.08    0.90
   3   5   8    1.62    0.39
  -3  -5  -8    4.18    1.19
   3   5   9    8.91    1.38
   3   5   9   10.26    0.61
  -3  -5  -9    6.78    1.45
   3   5  10   -1.53    1.07
   3   5  10    0.61    0.43
  -3  -5 -10    1.23    0.92
   3   5  11   86.81    4.80
   3   5  11   77.01    2.49
  -3  -5 -11   92.45    4.37
   3   5  12    2.41    1.53
   3   5  12    0.80    0.65
  -3  -5 -12    2.28    1.10
   3   5  13    1.59    1.26
   3   5  13    0.14    0.57
  -3  -5 -13   -0.99    0.79
   3   5  14    1.10    1.83
  -3  -5 -14    2.66    1.21
   3   5  15    2.59    1.70
  -3  -5 -15    3.72    1.72
   3   5  16    9.80    2.28
  -3  -5 -16    6.09    1.87
   3   6 -13    2.76    1.74
  -3  -6  13   -0.42    1.33
   3   6 -12   -2.46    1.60
  -3  -6  12    2.76    1.23
   3   6 -11   40.41    3.67
  -3  -6  11   44.09    3.68
   3   6 -10   57.08    4.72
  -3  -6  10   75.84    4.17
   3   6  -9   20.68    1.55
   3   6  -9   30.00    2.91
  -3  -6   9   31.63    2.33
   3   6  -8   21.22    1.51
   3   6  -8   22.76    2.67
  -3  -6   8   23.65    2.32
   3   6  -7    1.29    0.62
   3   6  -7    2.11    1.28
  -3  -6   7    2.23    0.90
   3   6  -6   12.85    1.06
   3   6  -6   13.09    1.90
  -3  -6   6   16.59    1.51
   3   6  -5    1.24    0.51
   3   6  -5   -1.14    0.99
  -3  -6   5    0.37    0.84
   3   6  -4    2.61    0.59
   3   6  -4    2.80    1.13
  -3  -6   4    3.63    0.87
   3   6  -3    3.52    1.13
   3   6  -3    2.60    0.60
  -3  -6   3    1.61    0.76
   3   6  -2   27.65    2.09
   3   6  -2   24.58    1.28
  -3  -6   2   28.36    1.22
   3   6  -1   64.50    2.97
   3   6  -1   65.74    2.18
  -3  -6   1   68.01    1.98
   3   6   0  283.04    8.02
   3   6   0  282.15    6.55
  -3  -6   0  292.52    5.45
   3   6   1   35.10    2.03
   3   6   1   36.75    1.54
  -3  -6  -1   31.86    0.98
   3   6   2   12.25    1.10
  -3  -6  -2   12.58    0.48
  -3  -6  -2   11.60    1.07
   3   6   3   87.72    3.22
  -3  -6  -3   86.52    3.14
   3   6   4    1.85    0.73
  -3  -6  -4    4.11    0.81
   3   6   5   -0.16    0.93
  -3  -6  -5    2.67    0.70
   3   6   6   18.42    1.61
  -3  -6  -6   20.28    1.46
   3   6   7   49.37    2.76
  -3  -6  -7   47.56    2.41
   3   6   8    4.48    1.26
  -3  -6  -8    5.51    1.28
   3   6   9    2.67    1.19
  -3  -6  -9    3.35    1.26
   3   6  10   34.62    3.01
  -3  -6 -10   30.65    2.65
   3   6  11   48.68    4.01
  -3  -6 -11   48.89    3.66
   3   6  12   17.55    2.35
  -3  -6 -12   14.45    2.51
   3   6  13    6.84    2.12
  -3  -6 -13    3.45    1.82
   3   6  14    0.24    1.38
  -3  -6 -14   -0.08    1.11
   3   6  15    1.28    1.48
  -3  -6 -15    1.92    1.36
   3   6  16    0.69    1.93
  -3  -6 -16    0.57    1.61
   3   7 -12   -1.84    1.30
  -3  -7  12    4.51    1.68
   3   7 -11   10.19    2.43
  -3  -7  11    7.07    1.92
   3   7 -10    7.46    1.78
  -3  -7  10    6.69    1.68
   3   7  -9    0.89    0.75
   3   7  -9    0.22    1.05
  -3  -7   9    1.71    1.35
   3   7  -8    3.91    0.96
   3   7  -8    7.11    1.59
  -3  -7   8    6.61    1.33
   3   7  -7    0.70    0.71
   3   7  -7    0.59    1.23
  -3  -7   7    2.74    0.97
   3   7  -6    1.24    0.69
   3   7  -6    1.54    1.20
  -3  -7   6    0.14    0.85
   3   7  -5   44.36    3.25
   3   7  -5   42.52    2.08
  -3  -7   5   47.65    2.68
   3   7  -4    0.61    0.94
   3   7  -4    2.57    0.70
  -3  -7   4    0.74    0.78
   3   7  -3    0.79    0.83
   3   7  -3    1.01    0.66
  -3  -7   3    1.03    0.62
   3   7  -2    0.76    0.55
   3   7  -2   -0.73    0.65
  -3  -7   2    0.14    0.57
   3   7  -1   11.76    1.33
   3   7  -1   17.11    1.25
  -3  -7   1   17.40    1.11
   3   7   0  490.99   13.56
   3   7   0  495.16   11.43
  -3  -7   0  471.43    8.68
   3   7   1  172.23    5.19
  -3  -7  -1  166.40    5.76
  -3  -7  -1  161.81    3.37
   3   7   2  133.59    4.35
  -3  -7  -2  117.51    2.08
  -3  -7  -2  132.79    4.61
   3   7   3   19.40    1.37
  -3  -7  -3   18.96    1.65
   3   7   4   67.20    3.18
  -3  -7  -4   68.51    2.77
   3   7   5   26.95    2.24
  -3  -7  -5   23.80    1.74
   3   7   6    3.61    1.07
  -3  -7  -6    4.70    1.24
   3   7   7   -0.12    0.84
  -3  -7  -7    0.87    0.78
   3   7   8    4.72    1.29
  -3  -7  -8    5.39    1.38
   3   7   9    4.58    1.32
  -3  -7  -9    0.71    1.68
   3   7  10   37.20    3.69
  -3  -7 -10   41.71    3.11
   3   7  11    8.44    2.26
  -3  -7 -11    9.84    1.79
   3   7  12    7.48    1.91
  -3  -7 -12    7.86    1.77
   3   7  13    4.82    2.07
  -3  -7 -13    2.97    1.60
   3   7  14    0.15    1.32
  -3  -7 -14    1.16    1.24
   3   7  15    2.08    1.91
  -3  -7 -15   -0.27    1.64
   3   7  16    0.02    1.42
  -3  -7 -16   -0.36    1.28
  -3  -8  12    2.30    1.67
   3   8 -11    5.65    1.97
  -3  -8  11    7.50    1.97
   3   8 -10   22.16    3.60
  -3  -8  10   32.78    2.85
   3   8  -9    0.07    1.55
  -3  -8   9    1.95    1.41
   3   8  -8    0.48    1.04
   3   8  -8    6.49    1.74
  -3  -8   8    5.53    1.29
   3   8  -7    0.61    1.12
   3   8  -7    0.35    0.76
  -3  -8   7   -1.60    0.91
   3   8  -6    5.67    1.56
   3   8  -6    3.00    1.06
  -3  -8   6    7.52    1.53
   3   8  -5   -0.30    0.86
   3   8  -5    0.55    0.62
  -3  -8   5   -0.45    0.66
   3   8  -4   11.37    1.74
   3   8  -4    7.31    1.18
  -3  -8   4    8.17    1.21
   3   8  -3    5.99    1.25
   3   8  -3    2.83    0.79
  -3  -8   3    2.51    1.11
   3   8  -2    5.67    1.34
   3   8  -2    5.92    1.10
  -3  -8   2    6.28    1.03
   3   8  -1    8.45    1.30
   3   8  -1   10.87    1.12
  -3  -8   1   11.30    1.10
   3   8   0   23.88    1.77
  -3  -8   0   23.20    1.82
  -3  -8   0   22.37    1.16
   3   8   1    7.11    1.16
  -3  -8  -1    6.86    0.67
  -3  -8  -1    5.20    1.06
   3   8   2    0.23    0.84
  -3  -8  -2    1.08    0.70
  -3  -8  -2    0.74    0.29
   3   8   3    5.33    1.02
  -3  -8  -3    4.59    1.17
   3   8   4    0.58    0.77
  -3  -8  -4    0.32    0.83
   3   8   5    1.24    0.90
  -3  -8  -5    0.60    0.86
   3   8   6  122.72    5.61
  -3  -8  -6  125.03    5.33
   3   8   7   -0.33    0.90
  -3  -8  -7    0.44    0.81
   3   8   8   33.96    2.73
  -3  -8  -8   36.96    2.67
   3   8   9   65.25    4.10
  -3  -8  -9   62.59    3.90
   3   8  10   20.70    3.04
  -3  -8 -10   28.70    3.15
   3   8  11   26.16    3.16
  -3  -8 -11   37.30    3.64
   3   8  12   15.96    2.54
  -3  -8 -12   20.22    2.83
   3   8  13    6.31    2.54
  -3  -8 -13    7.21    1.94
   3   8  14    7.14    2.23
  -3  -8 -14    6.49    2.09
   3   8  15   -1.19    1.84
  -3  -8 -15    0.13    1.38
  -3  -9  11    3.59    2.18
   3   9 -10   29.80    4.08
  -3  -9  10   48.72    4.05
   3   9  -9    4.39    2.14
  -3  -9   9    8.05    1.72
   3   9  -8    0.90    1.08
   3   9  -8   -0.18    0.92
  -3  -9   8   -1.67    1.00
   3   9  -7    5.07    1.74
   3   9  -7    2.68    1.18
  -3  -9   7    4.13    1.32
   3   9  -6   27.84    2.67
   3   9  -6   28.03    2.26
  -3  -9   6   26.14    2.62
   3   9  -5    5.20    1.49
   3   9  -5    4.35    1.13
  -3  -9   5    0.87    1.32
   3   9  -4    5.48    1.18
   3   9  -4    2.19    1.54
  -3  -9   4    4.10    1.08
   3   9  -3   18.75    1.90
   3   9  -3   19.45    1.91
  -3  -9   3   21.45    1.59
   3   9  -2    1.79    1.33
   3   9  -2    3.02    0.84
  -3  -9   2    3.35    0.94
   3   9  -1    4.92    1.01
  -3  -9   1    4.69    1.00
  -3  -9   1    6.66    1.27
   3   9   0    9.42    1.29
  -3  -9   0   10.62    1.34
  -3  -9   0    9.20    0.94
   3   9   1   71.56    3.65
  -3  -9  -1   72.83    3.72
  -3  -9  -1   62.54    2.16
   3   9   2    0.13    0.80
  -3  -9  -2    1.25    0.76
  -3  -9  -2    0.36    0.36
   3   9   3   -0.24    0.70
  -3  -9  -3    0.11    0.92
   3   9   4    0.41    1.03
  -3  -9  -4   -0.60    0.77
   3   9   5    0.44    1.03
  -3  -9  -5   -1.42    0.91
   3   9   6    3.78    1.40
  -3  -9  -6    4.33    1.32
   3   9   7    5.73    1.39
  -3  -9  -7    0.44    1.51
   3   9   8    9.98    2.15
  -3  -9  -8    9.37    2.12
   3   9   9   30.19    3.69
  -3  -9  -9   34.00    3.31
   3   9  10   -1.66    1.34
  -3  -9 -10    0.38    1.79
   3   9  11   24.10    3.64
  -3  -9 -11   27.43    3.62
   3   9  12   -0.77    2.02
  -3  -9 -12    3.20    1.62
   3   9  13    2.64    2.08
  -3  -9 -13    4.61    2.10
   3   9  14    1.83    2.24
  -3  -9 -14    1.62    1.79
   3   9  15   -0.73    1.54
  -3  -9 -15    0.50    1.80
  -3 -10   9   19.66    2.67
   3  10  -8    3.42    1.70
   3  10  -8    0.82    1.10
  -3 -10   8    4.35    1.71
   3  10  -7    3.30    1.39
   3  10  -7    2.61    1.43
  -3 -10   7    3.97    1.68
   3  10  -6    5.55    1.32
   3  10  -6    5.93    1.85
  -3 -10   6    7.29    1.82
   3  10  -5    2.58    1.25
   3  10  -5    1.00    1.36
  -3 -10   5    3.84    1.38
   3  10  -4   12.04    2.20
   3  10  -4   17.41    1.97
  -3 -10   4   15.93    2.03
   3  10  -3  103.95    6.40
   3  10  -3  124.05    6.01
  -3 -10   3  124.63    5.00
   3  10  -2   38.81    2.65
  -3 -10   2   35.74    2.29
  -3 -10   2   36.44    3.21
   3  10  -1   21.74    2.43
  -3 -10   1   25.45    2.43
  -3 -10   1   23.14    1.73
   3  10   0    1.93    1.23
  -3 -10   0    2.16    0.73
  -3 -10   0    2.48    1.13
   3  10   1  263.88   10.14
  -3 -10  -1  280.48    9.61
   3  10   2    1.90    1.28
  -3 -10  -2    1.69    0.99
   3  10   3    4.01    1.22
  -3 -10  -3    4.68    1.28
   3  10   4    4.87    1.43
  -3 -10  -4    3.64    1.30
   3  10   5    0.94    1.68
  -3 -10  -5    3.72    1.23
   3  10   6    7.77    1.99
  -3 -10  -6   11.75    1.77
   3  10   7    6.52    2.20
  -3 -10  -7    5.03    1.56
   3  10   8    1.11    1.31
  -3 -10  -8   -0.18    1.13
   3  10   9   17.16    2.75
  -3 -10  -9   19.06    3.04
   3  10  10    3.16    1.85
  -3 -10 -10    3.49    1.83
   3  10  11   21.14    3.05
  -3 -10 -11   18.49    3.04
   3  10  12   -1.02    2.22
  -3 -10 -12   -1.95    1.95
   3  10  13    0.41    1.75
  -3 -10 -13   -1.42    1.66
   3  10  14    0.21    2.36
  -3 -10 -14    1.61    1.79
  -3 -11   8   -0.60    1.23
   3  11  -7    1.23    1.58
   3  11  -7    0.60    1.38
  -3 -11   7    2.31    1.32
   3  11  -6   -0.05    1.29
   3  11  -6    0.13    1.17
  -3 -11   6    1.95    1.14
   3  11  -5    0.04    1.46
   3  11  -5    2.02    1.34
  -3 -11   5    4.25    1.47
   3  11  -4    3.87    1.53
  -3 -11   4    5.73    1.47
  -3 -11   4    3.09    1.55
   3  11  -3   13.21    1.82
  -3 -11   3   12.39    2.39
  -3 -11   3   13.48    1.82
   3  11  -2   -0.16    0.98
  -3 -11   2   -0.95    0.86
  -3 -11   2   -1.53    1.26
   3  11  -1   15.85    2.26
  -3 -11   1   14.45    1.45
  -3 -11   1   18.75    2.37
   3  11   0   67.00    4.13
  -3 -11   0   76.73    4.22
  -3 -11   0   57.49    2.66
   3  11   1   21.14    2.62
  -3 -11  -1   23.87    2.18
   3  11   2    9.30    2.14
  -3 -11  -2   11.96    1.69
   3  11   3    2.32    1.61
  -3 -11  -3    3.62    1.50
   3  11   4    3.15    1.62
  -3 -11  -4    2.66    1.26
   3  11   5   -0.49    1.42
  -3 -11  -5   -0.52    1.31
   3  11   6    2.14    1.80
  -3 -11  -6    6.26    1.60
   3  11   7    1.13    1.38
  -3 -11  -7    0.83    1.26
   3  11   8    2.57    2.28
  -3 -11  -8    5.83    2.11
   3  11   9   -2.04    1.18
  -3 -11  -9    2.06    1.22
   3  11  10   -0.17    1.29
  -3 -11 -10    0.18    1.33
   3  11  11   11.16    3.18
  -3 -11 -11   12.51    3.18
   3  11  12   31.47    4.74
  -3 -11 -12   42.15    4.55
   3  11  13    0.96    3.08
  -3 -11 -13    6.00    2.27
   3  12  -6    0.60    1.27
  -3 -12   6    1.64    1.48
   3  12  -5    0.95    1.55
  -3 -12   5    7.07    1.68
  -3 -12   5    6.82    1.98
   3  12  -4   -0.31    1.33
  -3 -12   4   -0.52    1.32
  -3 -12   4    1.34    1.09
   3  12  -3    0.11    1.23
  -3 -12   3    2.20    1.09
  -3 -12   3    0.93    1.45
   3  12  -2    0.40    1.30
  -3 -12   2    1.61    1.27
  -3 -12   2   -0.13    0.93
   3  12  -1    0.58    1.29
  -3 -12   1    0.49    0.80
  -3 -12   1   -0.02    1.21
   3  12   0    0.88    1.25
  -3 -12   0    1.13    1.34
   3  12   1    1.00    1.23
  -3 -12  -1    1.67    1.41
   3  12   2    2.07    1.89
  -3 -12  -2    5.65    1.59
   3  12   3    3.09    1.94
  -3 -12  -3    6.12    1.49
   3  12   4    0.78    1.19
  -3 -12  -4    0.04    1.14
   3  12   5    0.23    1.64
  -3 -12  -5    5.11    1.73
   3  12   6    1.11    1.76
  -3 -12  -6    3.14    1.46
   3  12   7    6.72    2.00
  -3 -12  -7    2.57    1.69
   3  12   8   -1.42    1.82
  -3 -12  -8   -1.24    1.56
   3  12   9    0.87    2.22
  -3 -12  -9   -3.37    2.09
   3  12  10    0.73    2.12
  -3 -12 -10    1.07    2.06
   3  12  11    7.31    2.51
  -3 -12 -11    3.72    2.35
   3  12  12   11.47    3.92
  -3 -12 -12   27.79    3.54
   3  13  -4    1.34    1.81
  -3 -13   4    2.23    1.70
   3  13  -3    0.47    1.32
  -3 -13   3   -0.18    1.01
   3  13  -2   -0.01    1.61
  -3 -13   2    2.47    1.54
   3  13  -1   -0.39    1.31
  -3 -13   1    1.93    1.45
   3  13   0   -0.47    1.38
  -3 -13   0    2.57    1.27
   3  13   1    0.31    1.38
  -3 -13  -1    2.32    1.26
   3  13   2   -0.55    1.36
  -3 -13  -2    2.26    1.56
   3  13   3    0.25    1.43
  -3 -13  -3    1.28    1.52
   3  13   4    2.55    1.54
  -3 -13  -4   -0.36    1.57
   3  13   5    0.13    1.71
  -3 -13  -5    3.17    1.80
   3  13   6   -1.42    2.20
  -3 -13  -6    2.93    1.84
   3  13   7   -0.39    1.95
  -3 -13  -7    0.90    1.68
   3  13   8    2.70    2.37
  -3 -13  -8   -0.04    1.97
   3  13   9    0.31    2.53
  -3 -13  -9    2.32    2.38
   3  13  10    1.97    2.19
  -3 -13 -10   -1.95    2.08
   3  14  -1    0.10    1.79
  -3 -14   1    1.15    1.63
   3  14   0    0.54    1.54
  -3 -14   0    0.98    1.35
   3  14   1   -0.16    1.69
  -3 -14  -1    5.29    2.00
   3  14   2    2.73    1.77
  -3 -14  -2    1.79    1.91
   3  14   3    0.21    1.81
  -3 -14  -3   -1.18    1.65
   3  14   4    1.61    1.40
  -3 -14  -4   -1.13    1.28
   3  14   5    2.06    1.70
  -3 -14  -5   -0.47    1.70
   3  14   6    5.21    2.46
  -3 -14  -6    4.92    2.52
   3  14   7   -0.64    2.50
  -3 -14  -7    2.32    1.74
  -4  11   4   21.93    4.01
  -4  11   3    7.45    2.92
  -4  11   2   -0.19    1.75
  -4  11   1    1.92    1.91
   4 -10  -8    1.42    1.23
  -4  10   8   -2.38    1.56
   4 -10  -7   14.53    2.33
  -4  10   7   10.44    2.96
   4 -10  -6    1.50    1.35
  -4  10   6    0.94    1.79
   4 -10  -5   20.37    2.38
  -4  10   5   18.96    3.04
   4 -10  -4    2.36    1.73
  -4  10   4    3.88    2.08
   4 -10  -3    1.01    1.49
  -4  10   3    1.39    1.58
   4 -10  -2    0.77    1.50
  -4  10   2    2.40    1.60
   4 -10  -1   -0.65    1.54
  -4  10   1    2.27    1.69
   4 -10   0    0.40    1.34
  -4  10   0    1.16    1.37
   4 -10   1    3.84    1.94
  -4  10  -1    0.16    2.11
   4 -10   2    3.09    1.83
  -4  10  -2    5.11    2.27
   4 -10   3    1.19    1.27
  -4  10  -3   -1.69    1.35
   4 -10   4    1.42    1.88
  -4  10  -4    0.28    2.00
   4  -9 -10    1.01    1.67
  -4   9  10    0.91    1.81
   4  -9  -9    2.10    1.15
  -4   9   9   -2.36    1.60
   4  -9  -8    2.52    1.57
  -4   9   8    1.10    1.39
   4  -9  -7    4.10    1.69
  -4   9   7    2.27    1.90
   4  -9  -6   15.59    2.38
   4  -9  -6   15.70    1.91
  -4   9   6   15.82    2.82
   4  -9  -5   39.42    3.45
   4  -9  -5   44.67    2.65
  -4   9   5   41.91    4.11
   4  -9  -4   15.68    2.39
   4  -9  -4   13.62    1.74
  -4   9   4    9.93    2.55
   4  -9  -3    6.84    1.57
   4  -9  -3    4.61    1.28
  -4   9   3    7.13    1.76
   4  -9  -2   -0.38    1.27
  -4   9   2    1.34    1.42
   4  -9  -1    2.80    1.24
  -4   9   1   -0.87    1.69
   4  -9   0    3.14    1.57
  -4   9   0   -0.33    1.43
   4  -9   1   -0.29    1.63
  -4   9  -1    1.48    1.66
   4  -9   2   -1.04    1.34
  -4   9  -2   -0.85    1.40
   4  -9   3   19.62    2.64
  -4   9  -3   17.15    2.68
   4  -9   4   15.29    3.09
  -4   9  -4   12.23    3.08
   4  -9   5   -1.82    1.48
  -4   9  -5    1.11    1.40
   4  -9   6    7.14    2.19
  -4   9  -6    5.55    2.23
  -4   8  11   -3.25    2.00
   4  -8 -10    5.22    1.63
  -4   8  10    0.75    1.94
   4  -8  -9   13.49    2.37
  -4   8   9    4.91    2.29
   4  -8  -8    1.10    1.15
  -4   8   8    0.98    1.37
  -4   8   8    1.73    1.18
   4  -8  -7    6.23    1.77
  -4   8   7    4.98    1.58
  -4   8   7    6.35    1.86
   4  -8  -6   33.00    2.79
   4  -8  -6   37.04    2.97
  -4   8   6   25.49    3.12
   4  -8  -5    0.27    0.92
   4  -8  -5   -1.60    0.98
  -4   8   5   -0.37    1.06
   4  -8  -4    2.72    1.62
   4  -8  -4    3.44    1.11
  -4   8   4    5.64    1.65
   4  -8  -3    5.44    1.71
   4  -8  -3    7.39    1.18
  -4   8   3    5.58    1.54
   4  -8  -2   17.40    2.26
   4  -8  -2   13.89    1.44
  -4   8   2   17.94    2.11
   4  -8  -1   49.52    3.31
  -4   8   1   53.56    3.75
   4  -8   0   19.94    2.86
  -4   8   0   35.91    2.77
   4  -8   1   -0.67    1.16
  -4   8  -1    0.00    1.01
   4  -8   2    1.88    1.66
  -4   8  -2    2.93    1.76
   4  -8   3    5.28    1.51
  -4   8  -3   -2.29    1.79
   4  -8   4   28.46    3.65
  -4   8  -4   22.67    3.68
   4  -8   5   17.64    2.55
  -4   8  -5   18.25    3.06
   4  -8   6    1.46    1.77
  -4   8  -6    5.56    1.94
   4  -8   7    2.22    2.04
  -4   8  -7    1.73    1.75
   4  -8   8    1.77    1.81
  -4   8  -8    3.67    1.77
   4  -7 -13    1.22    1.66
   4  -7 -12    2.62    1.62
   4  -7 -11    1.68    1.45
  -4   7  11   -1.58    1.27
   4  -7 -10    6.26    1.62
  -4   7  10    5.85    1.67
  -4   7  10    2.01    1.47
   4  -7  -9    6.50    1.82
  -4   7   9    3.79    1.50
  -4   7   9    1.77    1.64
   4  -7  -8   10.91    1.66
  -4   7   8    7.38    1.69
  -4   7   8    6.74    1.84
   4  -7  -7   37.54    2.96
  -4   7   7   36.39    3.26
  -4   7   7   40.29    2.96
   4  -7  -6    2.38    1.41
   4  -7  -6    4.47    1.41
  -4   7   6    5.33    1.17
   4  -7  -5   24.82    2.17
   4  -7  -5   23.25    2.29
  -4   7   5   17.83    2.07
   4  -7  -4   85.51    4.76
   4  -7  -4   82.19    3.69
  -4   7   4   89.32    4.48
   4  -7  -3    2.44    1.19
   4  -7  -3    4.20    1.01
  -4   7   3    5.03    1.41
   4  -7  -2   48.34    3.05
  -4   7   2   47.38    3.33
   4  -7  -1  108.09    5.25
   4  -7  -1   90.80    3.27
  -4   7   1  111.13    5.42
   4  -7   0    3.73    1.60
  -4   7   0    4.37    1.55
   4  -7   1    3.84    1.16
  -4   7  -1    1.46    1.57
   4  -7   2   14.91    1.89
  -4   7  -2   12.34    2.27
   4  -7   3    4.21    1.57
  -4   7  -3   -2.15    1.52
   4  -7   4    2.30    1.69
  -4   7  -4    4.28    1.91
   4  -7   5   79.30    4.76
  -4   7  -5   75.29    4.93
   4  -7   6    1.96    1.58
  -4   7  -6    5.22    2.04
   4  -7   7   16.82    2.72
  -4   7  -7   14.48    3.05
   4  -7   8    1.11    1.43
  -4   7  -8    0.11    1.38
   4  -7   9   -0.06    1.37
  -4   7  -9   -0.68    1.41
   4  -6 -13   21.48    3.37
   4  -6 -12    4.82    2.08
  -4   6  12    2.46    1.53
   4  -6 -11    0.13    1.01
  -4   6  11   -0.34    1.00
  -4   6  11    0.20    0.95
   4  -6 -10    2.82    1.62
  -4   6  10    3.58    1.45
  -4   6  10    0.78    1.37
   4  -6  -9    6.96    1.46
  -4   6   9    6.36    1.53
  -4   6   9    1.99    1.23
   4  -6  -8   10.74    1.72
  -4   6   8    3.84    1.67
  -4   6   8    5.96    1.56
   4  -6  -7   11.57    1.42
  -4   6   7    5.97    1.93
  -4   6   7    8.40    1.60
   4  -6  -6   49.40    3.00
   4  -6  -6   52.68    3.28
  -4   6   6   45.83    3.13
   4  -6  -5   23.23    2.09
   4  -6  -5   27.96    2.32
  -4   6   5   26.68    2.03
   4  -6  -4    4.72    1.18
   4  -6  -4    7.18    1.51
  -4   6   4    5.39    1.41
   4  -6  -3   -0.37    0.99
   4  -6  -3   -0.12    0.58
  -4   6   3   -1.01    0.92
   4  -6  -2    0.83    1.07
   4  -6  -2    2.13    0.72
  -4   6   2   -0.58    0.90
   4  -6  -1   24.68    2.47
   4  -6  -1   28.89    1.45
  -4   6   1   28.63    2.53
   4  -6   0    2.87    0.57
   4  -6   0    2.25    1.06
  -4   6   0    1.09    1.03
   4  -6   1   16.96    1.76
  -4   6  -1   15.42    2.26
   4  -6   2   64.59    3.71
  -4   6  -2   64.39    4.15
   4  -6   3    2.28    1.11
  -4   6  -3   -0.17    1.03
   4  -6   4   75.76    4.25
  -4   6  -4   63.39    4.07
   4  -6   5    2.10    1.74
  -4   6  -5    5.81    1.46
   4  -6   6    3.48    1.35
  -4   6  -6    1.91    1.36
   4  -6   7   83.59    5.27
  -4   6  -7   79.20    5.12
   4  -6   8   -0.36    1.07
  -4   6  -8    1.13    1.30
   4  -6   9    1.08    1.03
  -4   6  -9   -2.38    1.65
   4  -6  10   -1.32    1.33
  -4   6 -10    3.24    1.56
   4  -6  11    2.34    2.20
  -4   6 -11    6.88    2.60
   4  -5 -14    0.16    1.38
   4  -5 -13   26.26    2.80
  -4   5  13   16.73    2.62
   4  -5 -12    0.87    1.81
  -4   5  12    3.16    1.13
   4  -5 -11   -0.02    1.11
  -4   5  11   -0.68    1.10
  -4   5  11   -0.40    0.91
   4  -5 -10   51.84    3.35
  -4   5  10   51.80    3.58
   4  -5  -9    9.68    1.57
  -4   5   9    6.16    1.77
  -4   5   9    6.95    1.61
   4  -5  -8    0.07    1.06
  -4   5   8    0.39    0.93
  -4   5   8    0.66    0.87
   4  -5  -7   39.16    2.46
  -4   5   7   34.96    3.01
  -4   5   7   37.08    2.50
   4  -5  -6   23.86    1.91
  -4   5   6   23.91    1.78
   4  -5  -5   41.39    2.09
   4  -5  -5   44.61    2.85
  -4   5   5   41.16    2.39
   4  -5  -4   -0.04    0.57
   4  -5  -4    1.50    0.77
  -4   5   4   -0.92    0.55
   4  -5  -3   13.47    1.24
   4  -5  -3   15.19    1.78
  -4   5   3   11.69    1.50
   4  -5  -2    0.51    0.68
   4  -5  -2    2.52    1.01
  -4   5   2    1.89    0.79
   4  -5  -1    0.03    0.42
   4  -5  -1    1.13    0.70
  -4   5   1   -0.76    0.64
   4  -5   0    5.26    0.70
   4  -5   0    5.91    1.15
  -4   5   0    7.60    1.31
   4  -5   1    2.63    1.05
  -4   5  -1    4.11    1.11
   4  -5   2    1.76    1.05
  -4   5  -2    2.28    0.99
   4  -5   3    2.32    1.14
  -4   5  -3    2.39    1.08
   4  -5   4   11.29    1.50
  -4   5  -4    7.46    1.57
   4  -5   5   17.56    1.93
  -4   5  -5   20.73    2.40
   4  -5   6   55.89    3.84
  -4   5  -6   52.80    3.72
   4  -5   7   38.42    2.90
  -4   5  -7   44.60    3.91
   4  -5   8    6.38    1.47
  -4   5  -8    2.62    1.43
   4  -5   9    0.39    1.22
  -4   5  -9    3.67    1.59
   4  -5  10    0.12    1.25
  -4   5 -10    0.97    1.17
   4  -5  11    0.44    1.28
  -4   5 -11    0.27    1.55
   4  -5  12    0.71    1.68
  -4   5 -12    0.77    1.79
   4  -4 -14   -0.66    1.47
  -4   4  14   -0.37    1.05
   4  -4 -13    1.18    1.56
  -4   4  13   -0.33    1.05
   4  -4 -12    1.67    1.21
  -4   4  12   -0.41    0.92
   4  -4 -11    3.27    1.38
  -4   4  11    1.15    1.06
   4  -4 -10   -0.70    1.32
  -4   4  10    2.68    1.20
  -4   4  10    1.00    0.81
   4  -4  -9    1.57    1.10
  -4   4   9    1.82    1.02
  -4   4   9    2.03    0.91
   4  -4  -8    4.46    1.14
  -4   4   8    4.55    1.10
  -4   4   8    4.04    1.02
   4  -4  -7    1.31    1.11
  -4   4   7    1.21    1.14
  -4   4   7    1.46    0.77
   4  -4  -6   35.55    2.29
  -4   4   6   34.58    2.54
  -4   4   6   31.00    1.90
   4  -4  -5   13.40    1.22
   4  -4  -5   16.34    1.70
  -4   4   5   14.99    1.33
   4  -4  -4    6.27    0.97
   4  -4  -4    4.90    1.00
  -4   4   4    5.07    0.85
   4  -4  -3    6.92    0.80
   4  -4  -3    6.42    1.33
  -4   4   3    7.43    0.94
   4  -4  -2    3.25    0.65
   4  -4  -2    1.30    0.86
  -4   4   2    2.11    0.69
   4  -4  -1    0.49    0.43
   4  -4  -1    1.76    0.91
  -4   4   1    0.53    0.88
   4  -4   0   15.55    1.52
  -4   4   0   18.04    1.67
   4  -4   1   30.45    2.02
  -4   4  -1   37.14    2.06
   4  -4   2    5.46    1.14
  -4   4  -2    4.49    1.17
   4  -4   3    0.26    0.97
  -4   4  -3    0.78    0.80
   4  -4   4    6.18    1.29
  -4   4  -4    5.48    1.43
   4  -4   5    8.14    1.36
  -4   4  -5   10.54    1.68
   4  -4   6  162.43    6.28
  -4   4  -6  163.54    6.79
   4  -4   7   33.08    2.25
  -4   4  -7   30.13    2.55
   4  -4   8    0.84    1.31
  -4   4  -8    1.33    1.38
   4  -4   9    6.02    1.63
   4  -4  10    1.65    1.57
  -4   4 -10    0.41    1.33
   4  -4  11    7.68    1.81
  -4   4 -11    2.23    1.94
   4  -4  12    1.12    1.69
  -4   4 -12    5.37    2.16
   4  -4  13    3.25    1.98
  -4   4 -13   -0.02    1.54
   4  -3 -15    0.50    2.20
  -4   3  15    0.86    1.36
   4  -3 -14    1.05    1.85
  -4   3  14    0.42    1.26
   4  -3 -13    1.06    1.59
  -4   3  13    1.59    1.36
   4  -3 -12   -0.72    1.69
  -4   3  12    2.38    1.06
   4  -3 -11   12.62    1.97
  -4   3  11   11.94    1.87
   4  -3 -10   -1.54    1.16
  -4   3  10    0.62    0.96
   4  -3  -9   22.20    1.92
  -4   3   9   14.43    1.66
  -4   3   9   12.33    1.28
   4  -3  -8    1.68    0.86
  -4   3   8    1.47    1.05
  -4   3   8    0.38    0.63
   4  -3  -7    4.05    1.08
  -4   3   7    4.17    0.76
  -4   3   7    6.08    1.11
   4  -3  -6   12.12    1.31
  -4   3   6   14.81    1.62
  -4   3   6   10.65    1.00
   4  -3  -5   36.77    2.07
   4  -3  -5   39.15    2.26
  -4   3   5   37.53    1.73
   4  -3  -4   -0.47    0.70
   4  -3  -4    0.53    0.61
  -4   3   4   -0.30    0.48
   4  -3  -3   33.73    1.63
   4  -3  -3   31.57    1.87
  -4   3   3   30.08    1.55
   4  -3  -2    0.51    0.62
   4  -3  -2    0.35    0.48
  -4   3   2    0.91    0.68
   4  -3  -1   23.22    1.04
   4  -3  -1   25.14    1.87
  -4   3   1   24.78    1.46
   4  -3   0  104.57    2.39
   4  -3   0  121.03    4.26
  -4   3   0  117.50    3.90
   4  -3   1   21.96    1.64
  -4   3  -1   25.95    1.86
   4  -3   2   30.04    2.15
  -4   3  -2   27.43    1.61
   4  -3   3   12.21    1.41
  -4   3  -3    7.91    1.10
   4  -3   4    4.47    1.07
  -4   3  -4    4.38    1.05
   4  -3   5    5.01    1.05
  -4   3  -5    2.05    1.38
   4  -3   6   73.43    3.36
  -4   3  -6   69.78    3.99
   4  -3   7    1.63    0.93
  -4   3  -7    2.45    1.17
   4  -3   8    1.63    0.97
  -4   3  -8    2.88    1.52
   4  -3   9    1.15    1.03
  -4   3  -9   -0.17    1.21
   4  -3  10    2.61    1.28
  -4   3 -10    2.97    1.52
   4  -3  11   -1.38    1.35
  -4   3 -11    1.17    1.55
   4  -3  12    8.13    1.83
  -4   3 -12    4.09    2.00
   4  -3  13    0.11    1.47
  -4   3 -13    1.61    1.53
   4  -2 -15    0.19    1.81
  -4   2  15    1.85    1.44
   4  -2 -14    2.81    2.33
   4  -2 -13    0.54    1.56
  -4   2  13    1.20    0.98
   4  -2 -12   10.25    2.61
  -4   2  12    9.26    1.87
   4  -2 -11   13.59    2.08
  -4   2  11    9.20    1.78
   4  -2 -10   24.51    2.34
  -4   2  10   26.40    2.40
   4  -2  -9    7.21    1.28
  -4   2   9    2.96    0.82
  -4   2   9    5.26    1.32
   4  -2  -8   29.28    2.24
  -4   2   8   28.62    2.13
   4  -2  -7    1.02    0.73
  -4   2   7    0.32    0.70
  -4   2   7    0.27    0.44
   4  -2  -6   12.78    1.43
  -4   2   6    9.50    1.55
  -4   2   6    7.19    0.75
   4  -2  -5   11.58    1.12
  -4   2   5    9.10    1.39
  -4   2   5    9.28    0.78
   4  -2  -4    8.11    0.95
   4  -2  -4    7.66    0.93
  -4   2   4    6.53    0.68
   4  -2  -3   46.10    2.14
   4  -2  -3   47.36    1.75
  -4   2   3   46.37    1.70
   4  -2  -2    4.17    0.59
   4  -2  -2    3.51    0.79
  -4   2   2    2.87    0.74
   4  -2  -1   25.23    1.60
   4  -2  -1   24.81    1.10
  -4   2   1   25.94    1.40
   4  -2   0   46.65    1.29
   4  -2   0   50.04    2.23
  -4   2   0   47.34    2.04
   4  -2   1   23.26    0.75
   4  -2   1   28.53    1.62
  -4   2  -1   25.80    1.32
   4  -2   2  162.80    5.17
  -4   2  -2  169.82    5.23
   4  -2   3    0.49    0.66
  -4   2  -3    1.34    0.88
   4  -2   4   28.04    1.72
  -4   2  -4   22.94    1.83
   4  -2   5    1.14    0.86
  -4   2  -5    0.24    0.80
   4  -2   6    0.44    0.66
  -4   2  -6    0.29    0.71
   4  -2   7    0.45    0.73
  -4   2  -7    0.48    0.85
   4  -2   8    3.72    1.18
  -4   2  -8    4.23    1.14
   4  -2   9    0.46    1.06
  -4   2  -9    0.39    0.96
   4  -2  10   72.31    4.33
  -4   2 -10   67.64    4.19
   4  -2  11   13.22    1.88
  -4   2 -11    8.92    2.36
   4  -2  12    0.89    0.97
  -4   2 -12   -1.67    1.38
   4  -2  13    0.74    1.41
  -4   2 -13   -0.51    1.47
   4  -2  14    1.51    1.58
  -4   2 -14    4.68    2.37
   4  -1 -15    0.47    2.02
  -4   1  15   -1.14    1.45
   4  -1 -14   -0.64    1.40
  -4   1  14   -0.29    1.05
   4  -1 -13    0.54    1.90
  -4   1  13    2.51    1.46
   4  -1 -12    5.63    1.78
  -4   1  12    5.48    1.59
   4  -1 -11   19.43    2.41
  -4   1  11   21.12    2.24
   4  -1 -10   14.88    2.02
  -4   1  10   13.76    1.59
   4  -1  -9    6.58    1.52
  -4   1   9    5.99    1.33
   4  -1  -8   38.53    2.56
  -4   1   8   30.71    2.32
   4  -1  -7    6.05    1.25
  -4   1   7    3.50    0.89
  -4   1   7    2.06    0.50
   4  -1  -6    1.99    0.95
  -4   1   6    1.55    0.79
  -4   1   6    0.37    0.34
   4  -1  -5    0.24    0.74
  -4   1   5    1.99    0.68
  -4   1   5    0.45    0.34
   4  -1  -4  241.35    6.26
  -4   1   4  203.59    6.86
  -4   1   4  224.47    4.27
   4  -1  -3   -0.18    0.46
   4  -1  -3    1.37    0.67
  -4   1   3   -0.55    0.33
   4  -1  -2   12.05    0.91
   4  -1  -2   12.52    1.15
  -4   1   2   12.49    0.81
   4  -1  -1   56.71    1.78
   4  -1  -1   64.09    2.42
  -4   1   1   64.58    2.08
   4  -1   0    7.62    0.62
   4  -1   0    9.78    0.97
  -4   1   0    7.06    0.81
   4  -1   1   16.75    1.23
  -4   1  -1   14.98    1.28
   4  -1   2  108.58    3.48
  -4   1  -2   96.57    3.27
   4  -1   3   33.69    1.78
  -4   1  -3   35.34    1.84
   4  -1   4   62.32    2.42
  -4   1  -4   62.00    2.82
   4  -1   5    1.06    0.77
  -4   1  -5    1.50    1.01
   4  -1   6   11.89    1.12
  -4   1  -6   10.09    1.77
   4  -1   7   16.61    1.38
  -4   1  -7   14.52    1.87
   4  -1   8   19.88    1.62
  -4   1  -8   18.63    2.18
   4  -1   9    1.52    1.12
  -4   1  -9    0.36    1.08
   4  -1  10    8.38    1.72
  -4   1 -10    5.19    1.65
   4  -1  11   18.71    1.83
  -4   1 -11   22.16    2.83
   4  -1  12    8.15    1.77
  -4   1 -12    9.23    2.44
   4  -1  13    6.96    1.96
  -4   1 -13   10.47    2.70
   4  -1  14    4.38    1.52
  -4   1 -14    4.03    1.97
   4  -1  15   12.34    2.46
  -4   1 -15   13.98    3.29
   4   0 -15    0.73    1.64
  -4   0  15   -1.32    1.26
   4   0 -14   -1.02    2.32
  -4   0  14    5.10    1.70
   4   0 -13    3.16    2.19
  -4   0  13    2.52    1.11
   4   0 -12    8.72    2.17
  -4   0  12   10.90    1.84
   4   0 -11    8.12    1.72
  -4   0  11    5.68    1.30
   4   0 -10    9.17    1.64
  -4   0  10   10.09    1.36
   4   0  -9    0.59    1.33
  -4   0   9    2.23    1.04
   4   0  -8   11.72    1.40
  -4   0   8    7.99    1.19
   4   0  -7    3.43    0.95
  -4   0   7    2.91    0.82
   4   0  -6    1.19    0.74
  -4   0   6    0.50    0.67
   4   0  -5   50.57    2.23
  -4   0   5   55.86    2.57
   4   0  -4   16.10    1.11
  -4   0   4   14.29    0.55
  -4   0   4   19.30    1.36
   4   0  -3    6.71    0.97
  -4   0   3    3.86    0.68
  -4   0   3    7.62    0.46
   4   0  -2  190.08    4.49
  -4   0   2  195.75    3.85
   4   0  -1  276.15    5.71
  -4   0   1  261.95    5.14
   4   0   0   13.01    0.78
   4   0   0   14.95    1.11
  -4   0   0   12.40    0.86
   4   0   1  251.10    6.09
  -4   0  -1  261.58    6.00
   4   0   2  397.99    5.91
   4   0   2  388.79    8.99
  -4   0  -2  401.18    9.62
   4   0   3    3.19    0.84
  -4   0  -3    2.29    0.26
  -4   0  -3    4.05    0.78
   4   0   4   14.33    1.21
  -4   0  -4   16.12    1.58
   4   0   5   77.50    2.63
  -4   0  -5   90.73    3.90
   4   0   6   -0.62    0.46
  -4   0  -6    0.71    0.68
  -4   0  -6    0.25    0.27
   4   0   7   37.96    1.79
  -4   0  -7   41.40    2.64
   4   0   8    2.81    0.90
  -4   0  -8    2.04    0.50
  -4   0  -8    5.35    1.38
   4   0   9   35.65    2.22
  -4   0  -9   34.68    2.75
   4   0  10    3.63    0.93
  -4   0 -10    1.76    1.47
   4   0  11   -0.99    0.83
  -4   0 -11   -1.14    1.25
   4   0  12    5.00    1.50
  -4   0 -12    7.12    2.12
   4   0  13    5.35    1.55
  -4   0 -13    2.50    2.22
   4   0  14    1.42    1.18
  -4   0 -14    1.78    2.20
   4   0  15   26.18    3.07
  -4   0 -15   28.20    3.65
   4   1 -15   26.42    4.17
  -4  -1  15   22.93    2.90
   4   1 -14    3.43    3.00
  -4  -1  14    4.21    1.54
   4   1 -13   10.54    3.14
  -4  -1  13    8.65    1.70
   4   1 -12    3.65    1.81
  -4  -1  12    1.11    1.06
   4   1 -11   21.35    2.72
  -4  -1  11   13.31    2.13
   4   1 -10   19.32    2.22
  -4  -1  10   16.71    2.04
   4   1  -9   -0.81    1.27
  -4  -1   9   -1.30    0.84
   4   1  -8    0.24    0.92
  -4  -1   8    0.11    0.78
   4   1  -7   12.50    1.58
  -4  -1   7   10.11    1.15
   4   1  -6   10.10    1.20
  -4  -1   6   10.10    1.14
   4   1  -5   -0.53    0.53
  -4  -1   5    0.41    0.50
   4   1  -4   47.44    2.13
  -4  -1   4   39.48    2.13
   4   1  -3   25.21    1.33
  -4  -1   3   21.58    1.56
  -4  -1   3   21.34    0.51
   4   1  -2   38.76    1.72
  -4  -1   2   38.46    0.97
   4   1  -1  371.99    7.72
   4   1  -1  364.54    8.07
  -4  -1   1  362.98    6.09
   4   1   0    9.58    0.93
   4   1   0   10.74    0.77
  -4  -1   0   10.16    0.81
   4   1   1  421.43    8.60
   4   1   1  427.84    7.54
  -4  -1  -1  407.18    8.89
   4   1   2  234.88    4.39
   4   1   2  223.97    5.34
  -4  -1  -2  227.50    5.72
   4   1   3  111.63    3.19
   4   1   3  115.45    3.55
  -4  -1  -3  108.97    2.33
   4   1   4   39.23    1.85
   4   1   4   43.24    1.80
  -4  -1  -4   38.73    1.01
   4   1   5    6.23    0.88
   4   1   5    6.48    0.66
  -4  -1  -5    4.71    0.49
   4   1   6   34.57    1.91
   4   1   6   33.76    1.51
  -4  -1  -6   33.15    1.18
   4   1   7  107.30    3.49
   4   1   7  106.50    4.29
  -4  -1  -7  110.74    2.78
   4   1   8    0.94    0.61
  -4  -1  -8    0.21    0.49
   4   1   9    8.92    1.11
  -4  -1  -9    9.93    1.56
  -4  -1  -9   11.44    1.01
   4   1  10    5.75    1.18
  -4  -1 -10    5.89    0.90
  -4  -1 -10    7.00    1.52
   4   1  11   36.83    2.31
  -4  -1 -11   30.23    1.90
  -4  -1 -11   37.71    3.50
   4   1  12   11.53    1.44
  -4  -1 -12   14.26    2.11
   4   1  13    1.25    0.98
  -4  -1 -13    0.33    1.82
   4   1  14    4.08    1.51
  -4  -1 -14    3.41    2.50
   4   1  15    4.23    1.58
  -4  -1 -15   -0.41    2.37
   4   2 -15    4.27    2.45
  -4  -2  15    3.59    1.74
   4   2 -14    0.55    1.61
  -4  -2  14    0.11    1.17
   4   2 -13    0.62    1.72
  -4  -2  13    0.75    1.16
   4   2 -12    1.57    1.66
  -4  -2  12    2.82    1.19
   4   2 -11   -0.92    1.62
  -4  -2  11    2.24    1.06
   4   2 -10    5.32    1.61
  -4  -2  10    7.14    1.55
   4   2  -9   10.31    1.71
  -4  -2   9    8.28    1.22
   4   2  -8    1.74    0.98
  -4  -2   8    0.43    1.00
   4   2  -7   99.07    4.68
  -4  -2   7   96.11    3.94
   4   2  -6   45.84    2.83
  -4  -2   6   43.25    2.19
   4   2  -5    2.90    0.77
  -4  -2   5    1.39    0.69
   4   2  -4  112.95    3.70
  -4  -2   4  110.85    3.88
   4   2  -3  135.58    4.09
  -4  -2   3  134.11    3.96
   4   2  -2   31.93    1.61
  -4  -2   2   30.58    1.82
  -4  -2   2   28.88    0.81
   4   2  -1   58.56    1.47
   4   2  -1   60.13    2.26
   4   2   0   73.95    2.39
   4   2   0   75.65    2.00
   4   2   0   69.47    2.39
   4   2   1  145.92    3.66
   4   2   1  143.20    3.43
   4   2   2   -0.29    0.32
   4   2   2    0.12    0.46
   4   2   2    1.09    0.38
   4   2   3   97.04    3.07
   4   2   3   87.83    2.49
  -4  -2  -3   88.58    2.38
   4   2   4    0.80    0.42
   4   2   4    1.03    0.77
  -4  -2  -4    0.41    0.35
   4   2   5    6.46    1.19
   4   2   5    6.49    0.75
  -4  -2  -5    6.26    0.62
   4   2   6    0.18    0.68
   4   2   6    0.03    0.41
  -4  -2  -6   -0.20    0.38
   4   2   7    3.85    0.88
   4   2   7    1.48    0.47
  -4  -2  -7    2.47    0.63
   4   2   8    5.28    0.92
   4   2   8    5.47    1.30
  -4  -2  -8    4.67    0.93
   4   2   9    5.43    1.28
   4   2   9    6.25    1.12
  -4  -2  -9    4.99    0.98
   4   2  10    9.23    1.39
   4   2  10    7.49    1.08
  -4  -2 -10    6.87    1.11
   4   2  11    9.04    1.92
   4   2  11   10.13    1.35
  -4  -2 -11    9.61    1.24
   4   2  12   18.70    2.50
   4   2  12   18.57    1.52
  -4  -2 -12   17.64    1.65
   4   2  13   -0.10    0.70
  -4  -2 -13   -0.49    0.80
  -4  -2 -13    0.31    1.12
   4   2  14    2.40    1.08
  -4  -2 -14    4.79    2.12
  -4  -2 -14    4.79    1.26
   4   2  15    1.23    1.30
  -4  -2 -15    1.12    1.71
   4   2  16    4.90    1.51
  -4  -2 -16    7.79    2.50
   4   3 -14    1.38    2.07
  -4  -3  14    1.23    1.35
   4   3 -13    3.87    2.02
  -4  -3  13    5.28    1.61
   4   3 -12   -1.68    1.39
  -4  -3  12    3.88    1.40
   4   3 -11    0.59    1.64
  -4  -3  11    1.62    1.04
   4   3 -10   25.78    2.85
  -4  -3  10   21.20    1.92
   4   3  -9   -0.58    1.23
  -4  -3   9   -0.39    0.84
   4   3  -8    2.96    1.10
  -4  -3   8    0.87    1.08
   4   3  -7    8.82    1.18
  -4  -3   7    6.42    1.03
   4   3  -6   65.53    3.39
  -4  -3   6   65.45    2.67
   4   3  -5   22.71    1.91
  -4  -3   5   22.07    1.40
   4   3  -4   54.45    2.41
  -4  -3   4   51.53    2.11
   4   3  -3   45.29    2.22
  -4  -3   3   48.20    2.06
   4   3  -2    4.81    0.86
  -4  -3   2    4.86    0.83
   4   3  -1   37.30    1.21
   4   3  -1   37.94    1.95
  -4  -3   1   44.01    1.73
   4   3   0   13.55    0.81
   4   3   0   15.66    1.03
  -4  -3   0   13.04    1.03
   4   3   1  179.32    4.46
   4   3   1  167.81    3.90
   4   3   2   23.78    1.42
   4   3   2   23.56    1.19
   4   3   2   24.84    1.15
   4   3   3   10.38    0.93
   4   3   3   11.15    0.80
  -4  -3  -3   10.38    0.82
   4   3   4   11.84    0.80
   4   3   4   10.99    1.00
  -4  -3  -4   10.58    0.83
   4   3   5    1.29    0.62
   4   3   5    0.49    0.42
  -4  -3  -5    0.60    0.44
   4   3   6  109.76    3.91
   4   3   6  111.20    2.87
  -4  -3  -6  107.94    2.91
   4   3   7   14.71    1.33
   4   3   7   12.20    0.81
  -4  -3  -7   13.34    1.10
   4   3   8    3.49    1.01
   4   3   8    2.91    0.69
  -4  -3  -8    5.22    0.93
   4   3   9    0.44    1.04
   4   3   9    0.76    0.65
  -4  -3  -9    0.33    0.81
   4   3  10    0.66    1.14
   4   3  10    0.95    0.73
  -4  -3 -10    0.15    0.85
   4   3  11   14.12    1.95
   4   3  11   12.61    1.31
  -4  -3 -11   12.67    1.56
   4   3  12   10.89    1.93
   4   3  12   14.09    1.45
  -4  -3 -12   11.88    1.60
   4   3  13    7.86    2.02
   4   3  13    4.74    1.30
  -4  -3 -13    6.67    1.43
   4   3  14    6.49    1.79
   4   3  14    7.81    1.46
  -4  -3 -14    6.51    1.60
   4   3  15    2.09    1.18
  -4  -3 -15    0.83    1.27
   4   3  16    2.14    1.32
  -4  -3 -16   -0.08    1.78
   4   4 -14   -0.83    2.20
  -4  -4  14   -1.12    1.49
   4   4 -13    5.84    1.97
  -4  -4  13    1.37    1.85
   4   4 -12   20.62    3.31
  -4  -4  12   21.91    2.35
   4   4 -11    3.23    1.72
  -4  -4  11    5.91    1.73
   4   4 -10   12.50    2.06
  -4  -4  10   11.48    1.57
   4   4  -9    3.72    1.49
  -4  -4   9    1.66    0.93
   4   4  -8   29.09    2.46
  -4  -4   8   26.60    2.15
   4   4  -7    6.71    1.38
  -4  -4   7    2.64    1.07
   4   4  -6   59.89    3.22
  -4  -4   6   62.67    2.51
   4   4  -5  274.77    8.95
  -4  -4   5  257.38    6.80
   4   4  -4    4.27    1.06
   4   4  -4    2.41    0.29
  -4  -4   4    3.14    0.60
   4   4  -3    8.92    1.40
   4   4  -3    9.16    0.49
  -4  -4   3    8.84    0.80
   4   4  -2   90.93    3.48
   4   4  -2   87.75    1.98
  -4  -4   2   87.67    2.62
   4   4  -1   32.99    1.69
   4   4  -1   30.84    1.12
  -4  -4   1   34.38    1.32
   4   4   0   61.67    2.43
   4   4   0   64.31    1.96
  -4  -4   0   64.18    1.92
   4   4   1  226.39    5.92
   4   4   1  225.70    5.33
  -4  -4  -1  232.44    5.04
   4   4   2   20.01    1.34
   4   4   2   19.52    1.32
   4   4   2   21.67    0.95
   4   4   3    2.70    0.69
   4   4   3    0.17    0.38
  -4  -4  -3    1.07    0.53
   4   4   4  102.52    3.61
  -4  -4  -4   96.27    2.99
   4   4   5   70.31    3.11
   4   4   5   66.89    1.89
  -4  -4  -5   76.28    2.36
   4   4   6   -0.27    0.61
   4   4   6    0.36    0.35
  -4  -4  -6   -0.02    0.45
   4   4   7   25.58    1.94
   4   4   7   26.19    1.16
  -4  -4  -7   28.00    1.64
   4   4   8   11.19    1.71
   4   4   8    9.98    0.71
  -4  -4  -8   11.20    1.30
   4   4   9    0.73    0.47
   4   4   9   -0.11    0.91
  -4  -4  -9    2.16    0.87
   4   4  10    4.41    0.82
   4   4  10    4.28    1.17
  -4  -4 -10    3.06    1.35
   4   4  11    0.77    1.54
   4   4  11    3.25    0.88
  -4  -4 -11    3.88    1.25
   4   4  12    1.89    1.44
   4   4  12    3.26    0.88
  -4  -4 -12    4.86    1.29
   4   4  13   13.23    2.60
   4   4  13   11.43    1.40
  -4  -4 -13   12.53    1.54
   4   4  14    1.83    1.90
   4   4  14    1.16    1.02
  -4  -4 -14    4.11    1.35
   4   4  15    2.53    1.48
   4   4  15    0.82    0.98
  -4  -4 -15   -0.14    1.26
   4   4  16   -1.13    1.76
  -4  -4 -16    1.11    1.27
   4   5 -14   -1.94    1.97
  -4  -5  14    1.23    1.28
   4   5 -13   -1.13    1.66
  -4  -5  13   -0.56    1.32
   4   5 -12    1.14    1.28
  -4  -5  12   -0.55    1.28
   4   5 -11    0.90    1.45
  -4  -5  11    3.43    1.21
   4   5 -10    5.69    1.88
  -4  -5  10    8.98    1.45
   4   5  -9   28.19    2.99
  -4  -5   9   22.30    2.08
   4   5  -8    7.42    1.73
  -4  -5   8    4.18    1.32
   4   5  -7    4.92    1.08
  -4  -5   7    0.83    0.80
   4   5  -6    1.32    0.33
   4   5  -6    0.22    0.99
  -4  -5   6    1.95    0.81
   4   5  -5  144.60    2.86
   4   5  -5  164.47    6.38
  -4  -5   5  154.33    4.79
   4   5  -4   51.23    1.42
   4   5  -4   61.56    3.09
  -4  -5   4   55.93    2.05
   4   5  -3   61.25    1.62
   4   5  -3   66.99    3.06
  -4  -5   3   62.83    2.25
   4   5  -2    2.77    0.44
   4   5  -2    4.92    1.02
  -4  -5   2    2.17    0.51
   4   5  -1    9.52    1.05
   4   5  -1    8.57    0.74
  -4  -5   1   10.01    0.77
   4   5   0  124.85    4.13
   4   5   0  134.85    3.48
  -4  -5   0  117.29    2.84
   4   5   1    3.65    0.78
   4   5   1    2.03    0.58
  -4  -5  -1    4.43    0.49
   4   5   2   17.51    1.24
   4   5   2   19.30    1.12
  -4  -5  -2   16.56    0.70
   4   5   3    3.07    0.73
  -4  -5  -3    2.45    0.68
   4   5   4   66.03    2.85
  -4  -5  -4   59.80    2.22
   4   5   5   41.99    2.13
   4   5   5   40.97    1.12
  -4  -5  -5   41.41    1.98
   4   5   6   92.59    3.86
   4   5   6   91.73    2.17
  -4  -5  -6  107.85    3.55
   4   5   7    5.80    1.37
   4   5   7    4.50    0.53
  -4  -5  -7    4.58    0.87
   4   5   8    0.73    1.09
   4   5   8    1.61    0.43
  -4  -5  -8    0.67    0.77
   4   5   9    0.45    1.37
   4   5   9    0.92    0.49
  -4  -5  -9    1.03    0.90
   4   5  10   35.25    3.19
   4   5  10   31.82    1.34
  -4  -5 -10   40.65    2.84
   4   5  11   10.58    2.09
   4   5  11    9.73    0.95
  -4  -5 -11    5.63    1.73
   4   5  12   24.13    2.95
   4   5  12   21.49    1.74
  -4  -5 -12   28.22    2.48
   4   5  13    0.85    1.16
   4   5  13    0.79    0.72
  -4  -5 -13   -0.63    1.17
   4   5  14    7.66    1.99
  -4  -5 -14    4.58    1.34
   4   5  15    0.14    1.28
  -4  -5 -15   -0.07    0.84
   4   5  16    2.32    2.18
  -4  -5 -16    0.70    1.47
   4   6 -13    0.08    2.18
  -4  -6  13    1.73    1.38
   4   6 -12    1.58    1.93
   4   6 -11    1.12    1.77
  -4  -6  11    1.46    1.28
   4   6 -10    0.54    1.50
  -4  -6  10    3.08    1.20
   4   6  -9   15.58    2.27
  -4  -6   9   14.24    1.75
   4   6  -8   -0.03    1.03
  -4  -6   8    0.81    0.83
   4   6  -7    1.58    1.57
  -4  -6   7    3.39    0.94
   4   6  -6    0.47    0.43
   4   6  -6    1.81    1.04
  -4  -6   6   -1.25    0.65
   4   6  -5   24.39    1.11
   4   6  -5   24.14    2.04
  -4  -6   5   23.83    1.55
   4   6  -4    0.14    0.35
   4   6  -4    0.88    0.92
  -4  -6   4    0.50    0.52
   4   6  -3    0.13    0.33
   4   6  -3   -0.50    0.64
  -4  -6   3    0.02    0.38
   4   6  -2   -0.23    0.76
   4   6  -2    0.68    0.40
  -4  -6   2    0.63    0.42
   4   6  -1   92.50    3.82
   4   6  -1   89.65    2.50
  -4  -6   1   95.71    2.57
   4   6   0    6.62    1.05
   4   6   0    7.30    0.83
  -4  -6   0    6.32    0.59
   4   6   1   41.90    2.16
   4   6   1   48.44    1.94
  -4  -6  -1   47.34    1.32
   4   6   2   14.23    1.08
  -4  -6  -2   14.46    0.62
   4   6   3   31.80    1.64
  -4  -6  -3   31.99    1.73
   4   6   4    3.43    0.73
  -4  -6  -4    4.64    0.77
   4   6   5   52.44    2.58
  -4  -6  -5   58.58    2.58
   4   6   6  148.35    5.65
  -4  -6  -6  154.18    5.06
   4   6   7   -0.00    0.80
  -4  -6  -7    0.57    0.69
   4   6   8    3.21    1.06
  -4  -6  -8    2.07    0.97
   4   6   9   -1.71    1.09
  -4  -6  -9    0.62    1.17
   4   6  10    8.09    1.60
  -4  -6 -10   10.99    1.94
   4   6  11   47.62    3.58
  -4  -6 -11   46.57    3.55
   4   6  12   11.86    2.16
  -4  -6 -12   12.70    1.93
   4   6  13    8.18    1.98
  -4  -6 -13    7.23    1.56
   4   6  14    1.37    1.60
  -4  -6 -14    2.02    1.58
   4   6  15   11.75    2.72
  -4  -6 -15   18.24    2.49
   4   6  16   -1.44    1.72
  -4  -6 -16    1.86    1.23
   4   7 -12    6.00    2.49
  -4  -7  12    5.70    1.78
   4   7 -11   12.36    3.07
  -4  -7  11   13.34    1.96
   4   7 -10   11.36    2.29
  -4  -7  10   14.40    2.21
   4   7  -9   17.68    2.54
  -4  -7   9   25.61    2.62
   4   7  -8    0.45    1.34
  -4  -7   8    0.25    0.88
   4   7  -7    1.47    0.61
   4   7  -7    1.08    1.16
  -4  -7   7    1.87    1.13
   4   7  -6   -0.26    0.44
   4   7  -6   -0.26    0.87
  -4  -7   6    0.97    0.70
   4   7  -5    0.13    0.56
   4   7  -5    2.18    1.21
  -4  -7   5    1.85    0.86
   4   7  -4    2.04    1.37
   4   7  -4    1.52    0.70
  -4  -7   4    3.50    0.76
   4   7  -3    1.72    0.92
   4   7  -3    1.40    0.59
  -4  -7   3    2.02    0.64
   4   7  -2   -0.69    0.93
   4   7  -2   -0.48    0.53
  -4  -7   2   -0.14    0.48
   4   7  -1   36.61    2.27
   4   7  -1   31.82    1.70
  -4  -7   1   35.76    1.51
   4   7   0    3.53    1.05
   4   7   0    3.26    0.79
  -4  -7   0    2.08    0.52
   4   7   1    5.64    1.16
   4   7   1    7.36    1.03
  -4  -7  -1    6.15    0.54
   4   7   2    8.54    1.30
  -4  -7  -2    8.43    0.53
  -4  -7  -2    8.81    1.21
   4   7   3   10.34    1.36
  -4  -7  -3    6.66    0.99
   4   7   4    0.94    0.90
  -4  -7  -4    0.55    0.65
   4   7   5   19.34    1.59
  -4  -7  -5   22.15    1.57
   4   7   6   21.38    1.83
  -4  -7  -6   20.79    1.90
   4   7   7   16.58    2.20
  -4  -7  -7   19.85    1.73
   4   7   8    0.31    1.10
  -4  -7  -8    2.16    1.15
   4   7   9   -1.35    1.12
  -4  -7  -9    0.93    0.95
   4   7  10   17.66    2.33
  -4  -7 -10   15.86    2.05
   4   7  11    6.59    2.00
  -4  -7 -11   10.16    1.85
   4   7  12   14.74    2.65
  -4  -7 -12   19.11    2.58
   4   7  13    5.23    2.61
  -4  -7 -13    9.67    2.19
   4   7  14    0.57    1.73
  -4  -7 -14    0.10    1.46
   4   7  15    2.88    2.13
  -4  -7 -15    1.48    1.88
   4   7  16   -0.41    1.74
  -4  -7 -16   -1.94    1.40
   4   8 -12    3.16    2.23
  -4  -8  12    1.95    2.11
   4   8 -11   13.51    3.15
  -4  -8  11   19.59    2.62
   4   8 -10   60.50    5.64
  -4  -8  10   68.07    4.77
   4   8  -9    1.86    1.30
  -4  -8   9    0.52    1.10
   4   8  -8    1.37    1.59
   4   8  -7   -0.29    0.62
   4   8  -7    0.83    1.09
  -4  -8   7    1.35    1.06
   4   8  -6   -0.51    1.02
   4   8  -6    0.96    0.66
  -4  -8   6   -0.29    0.96
   4   8  -5    6.92    1.04
   4   8  -5    6.63    1.84
  -4  -8   5    7.20    1.39
   4   8  -4    3.01    1.71
   4   8  -4    3.89    0.90
  -4  -8   4    6.29    1.01
   4   8  -3    6.45    1.33
   4   8  -3    4.11    0.90
  -4  -8   3    5.61    1.11
   4   8  -2    0.35    0.81
   4   8  -2    0.55    0.62
  -4  -8   2   -0.12    0.63
   4   8  -1   35.32    2.58
   4   8  -1   38.60    1.91
  -4  -8   1   39.28    1.76
   4   8   0    3.28    0.89
   4   8   0    1.73    0.86
  -4  -8   0    1.34    0.58
   4   8   1    1.56    0.70
  -4  -8  -1    0.70    0.45
  -4  -8  -1    1.04    0.90
   4   8   2   58.92    2.77
  -4  -8  -2   53.99    2.74
   4   8   3    9.60    1.56
  -4  -8  -3    7.02    1.14
   4   8   4    3.12    1.05
  -4  -8  -4    2.96    1.13
   4   8   5    6.92    1.26
  -4  -8  -5    5.87    1.14
   4   8   6   -1.87    1.23
  -4  -8  -6   -0.40    0.87
   4   8   7    8.91    1.53
  -4  -8  -7    6.14    1.34
   4   8   8    0.18    1.47
  -4  -8  -8    1.77    1.21
   4   8   9   23.00    2.50
  -4  -8  -9   22.14    2.77
   4   8  10    8.85    2.74
  -4  -8 -10   13.84    1.94
   4   8  11    6.97    2.48
  -4  -8 -11   11.47    1.86
   4   8  12   -0.89    1.17
  -4  -8 -12    1.16    1.36
   4   8  13    5.75    1.95
  -4  -8 -13    2.97    2.06
   4   8  14   42.02    3.57
  -4  -8 -14    1.47    2.18
   4   8  15    2.30    1.90
  -4  -8 -15   -0.48    1.28
   4   9 -11    4.83    2.87
  -4  -9  11    9.92    2.03
   4   9 -10   36.78    4.92
  -4  -9  10   43.85    4.07
   4   9  -9    2.05    1.53
  -4  -9   9    1.40    1.60
   4   9  -8   -0.30    1.38
  -4  -9   8    0.45    1.19
   4   9  -7    1.32    1.25
   4   9  -7    0.19    0.91
  -4  -9   7    2.21    1.23
   4   9  -6    2.02    1.48
   4   9  -6    3.03    1.08
  -4  -9   6    3.86    1.18
   4   9  -5    6.03    1.17
   4   9  -5    6.42    1.93
  -4  -9   5    2.99    1.37
   4   9  -4   -0.15    1.14
   4   9  -4    0.81    0.72
  -4  -9   4   -0.90    0.67
   4   9  -3   -1.36    1.42
   4   9  -3    0.76    0.72
  -4  -9   3    3.98    0.96
   4   9  -2    2.12    1.24
   4   9  -2    3.14    1.12
  -4  -9   2    5.41    1.00
   4   9  -1   -1.47    0.75
   4   9  -1    0.97    0.69
  -4  -9   1    0.07    0.46
   4   9   0   38.24    2.60
  -4  -9   0   38.75    1.74
   4   9   1    2.31    0.79
  -4  -9  -1    1.76    1.26
  -4  -9  -1    0.72    0.53
   4   9   2    0.06    0.72
  -4  -9  -2   -0.41    0.72
   4   9   3    1.31    1.07
  -4  -9  -3   -0.17    1.03
   4   9   4    1.32    1.13
  -4  -9  -4    2.66    1.00
   4   9   5    5.98    1.83
  -4  -9  -5    5.48    1.22
   4   9   6   16.38    2.08
  -4  -9  -6   16.84    2.22
   4   9   7   36.19    3.58
  -4  -9  -7   39.08    2.85
   4   9   8   -0.39    1.16
  -4  -9  -8    1.78    1.23
   4   9   9    1.59    1.42
  -4  -9  -9    1.05    1.23
   4   9  10   27.08    3.71
  -4  -9 -10   31.18    3.16
   4   9  11   19.67    2.97
  -4  -9 -11   18.68    2.75
   4   9  12   28.90    3.43
  -4  -9 -12   32.24    3.52
   4   9  13    7.36    2.67
  -4  -9 -13    4.33    2.04
   4   9  14    1.40    2.23
  -4  -9 -14    8.34    2.37
   4   9  15    0.44    1.62
  -4  -9 -15   -0.07    1.50
   4  10  -9   -0.64    1.30
  -4 -10   9    1.21    1.16
   4  10  -8   -0.12    1.65
  -4 -10   8    1.27    1.15
   4  10  -7    2.18    1.39
   4  10  -7    0.59    1.08
  -4 -10   7    1.79    1.43
   4  10  -6   -0.46    1.01
   4  10  -6    4.36    1.29
  -4 -10   6    0.03    1.05
   4  10  -5    3.33    1.50
   4  10  -5    2.77    1.27
  -4 -10   5    5.26    1.23
   4  10  -4    7.35    1.86
   4  10  -4    3.40    1.38
  -4 -10   4    6.14    1.16
   4  10  -3    1.08    1.32
   4  10  -3    1.55    1.07
  -4 -10   3    1.42    1.04
   4  10  -2    9.46    2.11
   4  10  -2   13.83    1.80
  -4 -10   2   12.02    1.35
   4  10  -1    3.62    0.99
  -4 -10   1    1.45    0.85
  -4 -10   1    3.62    1.24
   4  10   0  118.37    5.46
  -4 -10   0  127.76    5.94
  -4 -10   0  110.00    3.83
   4  10   1  129.18    6.15
  -4 -10  -1  141.66    6.23
   4  10   2    4.84    1.56
  -4 -10  -2    4.48    1.22
   4  10   3   14.15    1.68
  -4 -10  -3   12.86    1.66
   4  10   4    3.11    1.39
  -4 -10  -4    4.00    1.23
   4  10   5   11.38    2.01
  -4 -10  -5   11.98    2.04
   4  10   6    6.54    2.11
  -4 -10  -6    7.05    1.95
   4  10   7    6.26    1.84
  -4 -10  -7    9.19    1.75
   4  10   8   37.90    2.79
  -4 -10  -8    5.98    1.86
   4  10   9   17.57    2.73
  -4 -10  -9   18.95    2.42
   4  10  10   12.74    3.19
  -4 -10 -10   14.16    2.84
   4  10  11   13.03    2.82
  -4 -10 -11   15.56    3.14
   4  10  12   10.35    2.90
  -4 -10 -12   13.24    2.48
   4  10  13    1.38    2.64
  -4 -10 -13    4.46    2.02
   4  10  14   -0.25    1.60
  -4 -10 -14   -0.53    1.99
   4  11  -8    1.66    1.89
  -4 -11   8    2.12    1.61
   4  11  -7   -0.65    1.59
  -4 -11   7   -0.71    1.40
   4  11  -6   -0.43    1.56
   4  11  -6    1.83    1.25
  -4 -11   6    1.01    1.10
   4  11  -5    1.49    1.39
   4  11  -5    0.14    1.06
  -4 -11   5   -0.43    1.07
   4  11  -4   -0.13    1.02
   4  11  -4    1.22    0.99
  -4 -11   4   -0.60    1.00
   4  11  -3    1.64    1.80
   4  11  -3    4.22    1.14
  -4 -11   3    5.67    1.37
   4  11  -2   -0.02    0.93
  -4 -11   2    0.41    0.83
  -4 -11   2    1.46    1.37
   4  11  -1    4.34    1.29
  -4 -11   1    3.28    1.88
  -4 -11   1    4.42    1.03
   4  11   0    7.12    1.80
  -4 -11   0    5.40    1.02
  -4 -11   0   11.17    1.70
   4  11   1   66.64    3.94
  -4 -11  -1   70.31    4.18
   4  11   2    4.05    1.33
  -4 -11  -2    1.56    1.31
   4  11   3    1.76    1.67
  -4 -11  -3    6.30    1.70
   4  11   4    0.85    1.69
  -4 -11  -4    2.71    1.52
   4  11   5    0.03    1.56
  -4 -11  -5   -1.16    1.09
   4  11   6    8.26    2.29
  -4 -11  -6    5.74    1.78
   4  11   7    0.67    1.48
  -4 -11  -7   -0.04    1.41
   4  11   8   -1.21    1.51
  -4 -11  -8   -0.90    1.61
   4  11   9    9.52    2.51
  -4 -11  -9   13.34    2.25
   4  11  10    2.01    1.81
  -4 -11 -10    1.62    1.56
   4  11  11   -2.77    2.24
  -4 -11 -11    3.80    1.70
   4  11  12   44.41    6.13
  -4 -11 -12   51.75    4.94
   4  11  13    4.68    2.91
  -4 -11 -13    9.32    2.45
  -4 -12   7    1.14    1.36
   4  12  -6    0.27    1.15
  -4 -12   6   -0.46    1.06
   4  12  -5    1.51    1.47
   4  12  -5   -1.13    1.24
  -4 -12   5   -0.79    1.21
   4  12  -4    6.16    1.67
  -4 -12   4    2.73    1.69
  -4 -12   4    2.51    1.59
   4  12  -3   12.14    2.01
  -4 -12   3   15.71    1.95
  -4 -12   3   14.73    2.85
   4  12  -2    1.10    1.35
  -4 -12   2    1.33    1.23
  -4 -12   2    0.24    0.96
   4  12  -1    1.94    1.60
  -4 -12   1    2.60    1.80
   4  12   0    9.77    2.36
  -4 -12   0   14.58    2.40
   4  12   1   -0.55    1.23
  -4 -12  -1    2.83    1.45
   4  12   2   -0.65    1.80
  -4 -12  -2    5.83    1.47
   4  12   3    0.17    1.30
  -4 -12  -3    2.04    1.24
   4  12   4   -1.05    1.27
  -4 -12  -4   -0.50    1.49
   4  12   5    0.74    1.85
  -4 -12  -5    2.07    1.43
   4  12   6    1.34    2.07
  -4 -12  -6    2.76    1.78
   4  12   7   -1.22    1.84
  -4 -12  -7   -2.47    1.51
   4  12   8    5.93    2.04
  -4 -12  -8    1.39    1.80
   4  12   9   -0.82    1.45
  -4 -12  -9    0.85    1.33
   4  12  10    9.30    2.79
  -4 -12 -10    3.95    2.34
   4  12  11    9.68    3.85
  -4 -12 -11   17.58    3.66
   4  12  12    2.11    2.70
  -4 -12 -12    1.78    2.08
   4  13  -4    0.79    1.26
  -4 -13   4    2.85    1.79
   4  13  -3   10.63    2.47
  -4 -13   3    9.30    2.19
   4  13  -2   -0.29    1.26
  -4 -13   2    0.19    1.03
   4  13  -1    2.04    1.56
  -4 -13   1    0.17    1.74
   4  13   0   49.01    4.72
  -4 -13   0   62.72    4.77
   4  13   1   70.08    6.32
  -4 -13  -1   94.52    5.56
   4  13   2   11.86    2.98
  -4 -13  -2   17.80    2.44
   4  13   3    6.17    2.14
  -4 -13  -3    9.15    2.00
   4  13   4   15.36    3.40
  -4 -13  -4   15.44    2.46
   4  13   5   -3.06    1.84
  -4 -13  -5   -1.46    1.46
   4  13   6    2.03    1.83
  -4 -13  -6   -0.69    1.27
   4  13   7    1.34    2.37
  -4 -13  -7    1.54    1.92
   4  13   8    2.27    2.07
  -4 -13  -8    1.72    2.20
   4  13   9    2.71    2.05
  -4 -13  -9    2.23    2.31
   4  13  10    0.88    2.32
  -4 -13 -10    3.68    2.10
   4  14  -2    0.06    1.41
  -4 -14   2    1.96    1.70
   4  14  -1   -0.11    1.99
  -4 -14   1    3.46    1.90
   4  14   0    9.89    2.42
  -4 -14   0    2.67    1.89
   4  14   1   13.63    2.93
  -4 -14  -1   18.62    3.24
   4  14   2    2.95    1.70
  -4 -14  -2    0.40    1.44
   4  14   3   10.69    2.59
  -4 -14  -3   18.59    3.28
   4  14   4   -0.79    2.04
  -4 -14  -4    1.69    1.81
   4  14   5    2.30    1.95
  -4 -14  -5    1.33    1.67
   4  14   6   -1.08    2.18
  -4 -14  -6    0.82    1.38
   4  14   7    0.68    2.16
  -4 -14  -7   -3.23    1.74
   4  14   8   -0.79    2.69
  -4 -14  -8   -1.12    1.78
  -5  10   5   -0.22    1.34
  -5  10   4   -0.65    1.75
   5 -10  -3    6.66    2.48
  -5  10   3    7.28    2.68
   5 -10  -2    0.48    1.57
  -5  10   2    0.28    1.73
   5 -10  -1    2.32    1.66
  -5  10   1    4.12    1.94
   5 -10   0    6.28    2.62
  -5  10   0    6.48    2.82
   5  -9  -8    4.32    1.51
  -5   9   8   -1.51    1.47
   5  -9  -7   -0.35    1.24
  -5   9   7    0.78    1.39
   5  -9  -6    0.63    1.04
   5  -9  -6   -0.79    1.34
  -5   9   6   -0.46    1.33
   5  -9  -5    2.45    1.59
  -5   9   5    1.16    1.90
   5  -9  -4   -0.49    1.23
  -5   9   4    2.68    1.61
   5  -9  -3   15.38    2.39
  -5   9   3   14.21    2.55
   5  -9  -2    2.70    1.61
  -5   9   2   -0.13    1.42
   5  -9  -1   -1.77    1.34
  -5   9   1    0.50    1.32
   5  -9   0    9.74    2.17
  -5   9   0    5.97    2.40
   5  -9   1    0.84    1.50
  -5   9  -1    1.19    1.51
   5  -9   2    0.24    1.79
  -5   9  -2    2.10    1.57
   5  -9   3    1.73    1.84
  -5   9  -3    0.92    1.62
   5  -9   4   -1.17    2.02
  -5   9  -4    3.65    2.07
   5  -8 -10    1.44    1.52
   5  -8  -9   -0.03    1.19
  -5   8   9    1.05    1.43
   5  -8  -8    3.96    1.38
  -5   8   8    0.59    1.94
  -5   8   8    3.98    1.76
   5  -8  -7    0.92    1.09
  -5   8   7    1.65    1.25
  -5   8   7   -0.85    1.44
   5  -8  -6   -0.87    1.03
   5  -8  -6    0.43    1.02
   5  -8  -5    3.25    1.07
   5  -8  -5    4.84    1.65
  -5   8   5    0.97    1.69
   5  -8  -4   85.87    4.38
   5  -8  -4  106.44    5.70
  -5   8   4   97.53    5.93
   5  -8  -3    3.56    1.78
  -5   8   3    2.26    1.46
   5  -8  -2   -0.05    1.39
  -5   8   2   -0.98    1.46
   5  -8  -1   21.94    2.42
  -5   8   1   20.51    2.54
   5  -8   0   15.33    2.84
  -5   8   0   12.26    2.15
   5  -8   1   -1.10    1.29
  -5   8  -1    0.20    1.56
   5  -8   2    3.75    2.00
  -5   8  -2   -0.32    1.79
   5  -8   3   -2.94    1.94
  -5   8  -3    0.12    1.81
   5  -8   4   27.57    3.94
  -5   8  -4   29.61    4.29
   5  -8   5    4.24    2.44
  -5   8  -5    3.94    2.14
   5  -8   6    1.96    2.42
  -5   8  -6    3.25    1.99
   5  -7 -11    0.54    1.67
   5  -7 -10    2.22    1.36
  -5   7  10   -0.10    1.59
   5  -7  -9    2.47    1.32
  -5   7   9    2.32    1.87
  -5   7   9    2.22    1.53
   5  -7  -8    2.55    1.24
  -5   7   8    1.60    1.61
  -5   7   8    0.66    1.40
   5  -7  -7   31.07    2.46
  -5   7   7   22.99    3.24
  -5   7   7   27.48    2.95
   5  -7  -6   -0.25    1.20
   5  -7  -6   -0.56    1.43
  -5   7   6   -2.11    1.07
   5  -7  -5    6.02    1.42
   5  -7  -5    5.03    1.51
  -5   7   5    5.75    1.68
   5  -7  -4   89.36    4.17
   5  -7  -4  102.98    5.27
  -5   7   4   91.42    5.27
   5  -7  -3   14.67    1.54
   5  -7  -3   19.28    2.54
  -5   7   3   13.52    2.31
   5  -7  -2    0.17    0.68
   5  -7  -2    0.85    1.26
  -5   7   2    0.89    1.28
   5  -7  -1    1.64    1.47
  -5   7   1    1.72    1.28
   5  -7   0    1.98    1.43
  -5   7   0    4.65    1.38
   5  -7   1   -1.42    1.21
  -5   7  -1   -0.04    1.18
   5  -7   2    3.17    1.64
  -5   7  -2   -0.79    1.67
   5  -7   3   13.43    2.15
  -5   7  -3   11.06    2.79
   5  -7   4    0.68    1.22
  -5   7  -4   -0.65    1.38
   5  -7   5    3.88    1.73
  -5   7  -5    1.11    1.50
   5  -7   6    1.76    2.18
  -5   7  -6    2.01    1.73
   5  -7   7   12.39    2.61
  -5   7  -7   11.34    2.55
   5  -7   8   -1.21    2.14
  -5   7  -8    1.91    1.58
   5  -6 -12   19.73    2.46
  -5   6  12    5.12    2.03
   5  -6 -11   -0.09    1.64
  -5   6  11    1.38    1.46
   5  -6 -10    1.07    1.45
  -5   6  10    0.04    1.37
   5  -6  -9    1.24    1.22
  -5   6   9    2.21    1.66
  -5   6   9    1.97    1.27
   5  -6  -8    8.76    1.52
  -5   6   8    5.86    1.78
  -5   6   8    5.64    1.60
   5  -6  -7   38.54    2.94
  -5   6   7   32.56    3.17
  -5   6   7   26.95    2.78
   5  -6  -6   27.37    2.42
   5  -6  -6   25.35    2.35
  -5   6   6   20.43    2.32
   5  -6  -5   58.79    3.42
   5  -6  -5   65.38    3.76
  -5   6   5   51.49    3.25
   5  -6  -4   24.78    1.66
   5  -6  -4   26.76    2.39
  -5   6   4   18.10    1.97
   5  -6  -3   10.50    1.30
   5  -6  -3   15.27    1.74
  -5   6   3    8.10    1.58
   5  -6  -2   16.79    1.39
   5  -6  -2   18.60    2.31
  -5   6   2   16.06    2.19
   5  -6  -1   18.62    1.36
   5  -6  -1   23.30    2.46
  -5   6   1   22.44    2.20
   5  -6   0    0.97    1.18
  -5   6   0   -1.15    0.91
   5  -6   1   -0.51    1.55
  -5   6  -1    3.40    1.24
   5  -6   2    1.63    1.38
  -5   6  -2   -0.69    1.21
   5  -6   3   11.30    1.89
  -5   6  -3    7.85    1.69
   5  -6   4   25.04    2.74
  -5   6  -4   20.54    2.77
   5  -6   5    5.89    1.70
  -5   6  -5    0.50    1.94
   5  -6   6   15.13    2.42
  -5   6  -6   14.40    2.41
   5  -6   7   12.75    2.40
  -5   6  -7   12.78    2.47
   5  -6   8    5.49    2.05
  -5   6  -8    3.77    2.41
   5  -6   9    4.42    2.17
  -5   6  -9    4.78    2.23
   5  -6  10   -2.45    2.01
  -5   6 -10    3.55    1.85
   5  -5 -13    2.10    1.83
  -5   5  13    2.07    1.59
   5  -5 -12    2.03    1.96
  -5   5  12    2.16    1.69
   5  -5 -11    0.72    1.27
  -5   5  11    0.23    1.35
   5  -5 -10    5.53    1.53
  -5   5  10    2.24    1.48
   5  -5  -9    6.91    1.60
  -5   5   9    5.70    1.72
  -5   5   9    3.55    1.36
   5  -5  -8    0.27    0.99
  -5   5   8    0.78    1.22
  -5   5   8    2.09    1.01
   5  -5  -7    0.55    0.87
  -5   5   7    0.50    1.02
  -5   5   7    0.45    0.71
   5  -5  -6   22.34    2.07
   5  -5  -6   19.05    2.01
  -5   5   6   16.29    1.86
   5  -5  -5  120.87    4.80
   5  -5  -5  131.15    5.87
  -5   5   5  112.83    4.86
   5  -5  -4    1.39    0.97
   5  -5  -4    2.66    1.28
  -5   5   4    2.01    0.88
   5  -5  -3    3.00    0.90
   5  -5  -3    2.82    1.40
  -5   5   3    3.59    1.18
   5  -5  -2   85.33    4.52
   5  -5  -2   82.23    2.96
  -5   5   2   80.59    4.29
   5  -5  -1   53.10    2.10
   5  -5  -1   54.53    3.13
  -5   5   1   63.19    3.23
   5  -5   0   18.23    1.94
  -5   5   0   16.44    2.21
   5  -5   1  122.11    5.71
  -5   5  -1  125.07    5.58
   5  -5   2  126.42    5.70
  -5   5  -2  128.73    5.71
   5  -5   3   33.65    2.75
  -5   5  -3   29.42    2.87
   5  -5   4   62.02    3.89
  -5   5  -4   51.15    4.18
   5  -5   5   74.05    4.47
  -5   5  -5   66.09    4.94
   5  -5   6   15.09    2.23
  -5   5  -6   15.48    2.40
   5  -5   7   13.47    2.19
  -5   5  -7   11.62    2.35
   5  -5   8    9.74    1.99
  -5   5  -8   11.38    2.86
   5  -5   9   -0.01    1.05
  -5   5  -9   -0.18    1.22
   5  -5  10    1.96    1.44
  -5   5 -10    0.95    1.62
   5  -5  11    0.26    1.61
  -5   5 -11    2.82    1.63
   5  -4 -14   12.82    3.49
  -5   4  14    6.11    2.32
   5  -4 -13    7.06    2.33
  -5   4  13    6.93    2.10
   5  -4 -12   12.18    2.71
  -5   4  12    4.34    1.69
   5  -4 -11    2.96    2.05
  -5   4  11    6.82    1.90
   5  -4 -10   15.59    2.11
  -5   4  10   11.99    2.40
   5  -4  -9   14.54    1.77
  -5   4   9   11.95    1.80
  -5   4   9    6.45    1.38
   5  -4  -8    4.71    1.20
  -5   4   8    5.09    1.62
  -5   4   8    1.72    0.94
   5  -4  -7   54.70    3.28
  -5   4   7   50.24    3.74
  -5   4   7   36.11    2.42
   5  -4  -6    7.75    1.16
  -5   4   6    5.54    1.18
  -5   4   6    6.42    1.44
   5  -4  -5   92.20    3.69
   5  -4  -5   91.46    4.21
  -5   4   5   78.88    3.56
   5  -4  -4   22.43    1.47
   5  -4  -4   23.05    2.20
  -5   4   4   16.62    1.68
   5  -4  -3    0.20    0.78
   5  -4  -3    2.10    1.02
  -5   4   3    1.96    0.69
   5  -4  -2    9.36    0.98
   5  -4  -2    7.97    1.44
  -5   4   2    9.37    1.34
   5  -4  -1    6.25    0.73
   5  -4  -1    6.91    1.25
  -5   4   1    8.34    1.43
   5  -4   0    8.86    0.68
   5  -4   0   11.53    1.88
  -5   4   0    8.43    1.27
   5  -4   1   33.83    2.76
  -5   4  -1   30.55    2.18
   5  -4   2  110.95    4.79
  -5   4  -2  101.53    4.81
   5  -4   3   -0.08    1.00
  -5   4  -3    1.66    1.12
   5  -4   4   15.97    2.07
  -5   4  -4   14.13    1.95
   5  -4   5   12.31    1.81
  -5   4  -5    9.33    1.93
   5  -4   6  130.95    5.79
  -5   4  -6  105.78    5.58
   5  -4   7    4.12    1.84
  -5   4  -7    5.02    1.54
   5  -4   8    1.46    1.29
  -5   4  -8    2.50    1.60
   5  -4   9    0.15    1.17
  -5   4  -9   -0.11    1.04
   5  -4  10    1.50    1.67
  -5   4 -10    1.57    1.49
   5  -4  11   -1.17    1.32
  -5   4 -11   -1.18    1.62
   5  -4  12   -0.92    1.69
  -5   4 -12    2.22    1.75
   5  -3 -14    2.49    2.02
  -5   3  14    3.24    1.52
   5  -3 -13    4.62    2.43
  -5   3  13    4.53    1.84
   5  -3 -12    0.74    1.62
  -5   3  12   -1.71    1.33
   5  -3 -11   21.15    2.87
  -5   3  11   20.07    2.59
   5  -3 -10   44.11    3.50
  -5   3  10   43.33    3.57
   5  -3  -9   95.68    4.91
  -5   3   9   87.56    5.36
   5  -3  -8    8.84    1.36
  -5   3   8    6.41    1.41
  -5   3   8    3.28    0.84
   5  -3  -7    2.74    1.12
  -5   3   7   -0.80    1.24
  -5   3   7    0.63    0.58
   5  -3  -6  109.56    4.48
  -5   3   6  106.45    5.09
  -5   3   6   98.49    3.70
   5  -3  -5    3.90    0.97
   5  -3  -5    7.11    1.23
  -5   3   5    3.90    0.87
   5  -3  -4   21.17    1.60
   5  -3  -4   21.21    2.04
  -5   3   4   18.90    1.30
   5  -3  -3    5.71    1.17
   5  -3  -3    5.10    0.90
  -5   3   3    5.00    0.90
   5  -3  -2    0.89    0.66
   5  -3  -2    0.22    0.92
  -5   3   2    3.04    0.71
   5  -3  -1    4.05    1.03
   5  -3  -1    2.85    0.60
  -5   3   1    2.94    0.79
   5  -3   0    0.18    0.33
   5  -3   0    0.41    0.68
  -5   3   0   -0.40    0.54
   5  -3   1   11.10    0.66
   5  -3   1   15.60    1.80
  -5   3  -1   14.35    1.31
   5  -3   2   15.79    2.08
  -5   3  -2   14.46    1.67
   5  -3   3   22.59    1.88
  -5   3  -3   21.99    2.01
   5  -3   4  194.52    7.48
  -5   3  -4  204.91    7.80
   5  -3   5   98.79    4.64
  -5   3  -5   96.13    5.26
   5  -3   6   58.96    3.47
  -5   3  -6   55.41    3.69
   5  -3   7   98.99    5.03
  -5   3  -7   90.51    5.57
   5  -3   8   -0.92    0.92
  -5   3  -8    1.73    1.11
   5  -3   9    9.19    2.03
  -5   3  -9    9.00    2.38
   5  -3  10    6.92    1.50
  -5   3 -10    7.80    2.61
   5  -3  11    0.84    1.66
  -5   3 -11    2.70    1.68
   5  -3  12    0.36    1.07
  -5   3 -12   -0.45    1.33
   5  -3  13    1.82    1.33
  -5   3 -13   -1.17    1.61
   5  -2 -14    1.44    2.04
  -5   2  14    0.25    1.19
   5  -2 -13    0.03    1.76
  -5   2  13    3.21    1.32
   5  -2 -12   -0.82    1.35
  -5   2  12    1.65    1.34
   5  -2 -11    6.87    1.96
  -5   2  11    6.45    1.83
   5  -2 -10   98.57    5.44
  -5   2  10   98.22    5.55
   5  -2  -9    2.66    1.37
  -5   2   9    0.88    1.43
   5  -2  -8    9.91    1.90
  -5   2   8    9.42    1.86
   5  -2  -7    8.68    1.49
  -5   2   7    7.41    1.69
  -5   2   7    5.06    0.75
   5  -2  -6    0.76    0.76
  -5   2   6    0.41    0.87
  -5   2   6    0.09    0.42
   5  -2  -5  111.09    4.08
  -5   2   5   94.83    4.65
  -5   2   5   95.32    2.95
   5  -2  -4    7.14    0.93
   5  -2  -4    5.27    1.17
  -5   2   4    4.87    0.73
   5  -2  -3   34.47    1.88
   5  -2  -3   33.44    2.02
  -5   2   3   31.30    1.57
   5  -2  -2   17.47    1.04
   5  -2  -2   21.57    1.61
  -5   2   2   17.06    1.27
   5  -2  -1   25.44    2.00
   5  -2  -1   24.90    1.21
  -5   2   1   23.36    1.38
   5  -2   0    2.79    0.50
   5  -2   0    2.67    0.84
  -5   2   0    1.12    0.90
   5  -2   1    4.35    0.45
   5  -2   1    5.37    1.02
  -5   2  -1    4.42    0.75
   5  -2   2    4.43    1.27
  -5   2  -2    4.00    0.98
   5  -2   3   20.40    1.92
  -5   2  -3   21.98    1.75
   5  -2   4   76.75    3.66
  -5   2  -4   79.89    3.83
   5  -2   5   16.43    1.98
  -5   2  -5   15.30    1.83
   5  -2   6   17.84    2.01
  -5   2  -6   12.92    1.81
   5  -2   7   91.19    4.14
  -5   2  -7   87.06    4.62
   5  -2   8    8.41    1.45
  -5   2  -8    5.47    1.51
   5  -2   9    2.59    1.35
  -5   2  -9    3.05    1.61
   5  -2  10    2.23    1.10
  -5   2 -10    0.40    1.38
   5  -2  11    3.17    1.52
  -5   2 -11    1.40    1.60
   5  -2  12    0.53    1.21
  -5   2 -12    1.44    1.45
   5  -2  13   -1.49    1.44
  -5   2 -13    3.98    2.00
   5  -1 -14    2.03    2.31
  -5   1  14    1.73    1.40
   5  -1 -13    1.17    1.72
  -5   1  13    1.73    1.52
   5  -1 -12    7.24    1.91
  -5   1  12    6.04    1.84
   5  -1 -11    0.69    1.13
  -5   1  11   -0.09    0.89
   5  -1 -10   20.69    2.44
  -5   1  10   21.57    2.20
   5  -1  -9   -0.44    1.21
  -5   1   9   -0.21    0.85
   5  -1  -8    4.74    1.42
  -5   1   8    6.76    1.33
   5  -1  -7   15.11    1.68
  -5   1   7   13.05    1.90
   5  -1  -6   12.21    1.40
  -5   1   6    9.90    1.53
   5  -1  -5   28.92    1.76
  -5   1   5   28.53    2.16
   5  -1  -4   -0.03    0.57
   5  -1  -4    2.15    0.71
  -5   1   4    0.01    0.36
   5  -1  -3    0.51    0.83
   5  -1  -3   -0.46    0.49
  -5   1   3   -0.21    0.43
   5  -1  -2   12.15    1.02
   5  -1  -2    9.37    1.10
  -5   1   2    9.83    0.88
   5  -1  -1   48.58    1.88
   5  -1  -1   48.92    2.36
  -5   1   1   47.69    1.99
   5  -1   0    3.19    0.54
   5  -1   0    4.55    0.85
  -5   1   0    3.53    0.76
   5  -1   1   38.34    2.35
  -5   1  -1   38.21    2.14
   5  -1   2    2.18    0.94
   5  -1   2    1.45    0.29
  -5   1  -2    1.38    0.93
   5  -1   3    0.28    0.71
  -5   1  -3    1.58    0.73
   5  -1   4   17.44    1.58
  -5   1  -4   16.66    1.75
   5  -1   5   -0.33    0.75
  -5   1  -5    2.54    0.88
   5  -1   6   93.11    3.97
  -5   1  -6   83.30    4.36
   5  -1   7   43.89    2.54
  -5   1  -7   38.11    3.29
   5  -1   8    3.71    1.26
  -5   1  -8    3.69    1.36
   5  -1   9    0.44    0.80
  -5   1  -9    0.18    1.31
   5  -1  10    3.08    1.25
  -5   1 -10    1.45    1.47
   5  -1  11    4.92    1.50
  -5   1 -11    2.89    2.13
   5  -1  12    1.98    1.23
  -5   1 -12    2.23    1.68
   5  -1  13   -0.73    1.07
  -5   1 -13    0.38    1.36
   5  -1  14    3.08    1.72
  -5   1 -14   -0.36    2.00
   5   0 -14    2.31    1.75
  -5   0  14    0.60    1.52
   5   0 -13    4.16    2.56
  -5   0  13    4.80    1.48
   5   0 -12    0.96    1.46
  -5   0  12   -0.35    0.88
   5   0 -11   -1.32    1.33
  -5   0  11   -0.47    1.27
   5   0 -10   18.14    2.32
  -5   0  10   13.50    1.85
   5   0  -9   15.47    2.35
  -5   0   9   14.78    1.70
   5   0  -8   22.77    2.44
  -5   0   8   16.79    1.89
   5   0  -7    4.42    1.37
  -5   0   7    1.28    0.99
   5   0  -6    0.34    0.69
  -5   0   6    0.06    0.89
   5   0  -5   10.08    1.19
  -5   0   5    8.43    1.26
   5   0  -4    4.02    0.91
  -5   0   4    2.82    0.85
  -5   0   4    1.51    0.33
   5   0  -3    2.15    0.65
   5   0  -3    1.49    0.80
  -5   0   3    1.06    0.35
   5   0  -2    8.96    1.02
   5   0  -2   10.00    1.05
   5   0  -1    5.04    0.86
   5   0  -1    4.50    0.73
  -5   0   1    3.02    0.63
   5   0   0  104.10    3.90
   5   0   0  106.73    2.97
  -5   0   0  106.60    3.33
   5   0   1   25.13    1.59
   5   0   1   29.43    1.26
  -5   0  -1   24.45    1.50
   5   0   2   53.03    1.54
   5   0   2   53.48    2.50
  -5   0  -2   51.44    2.42
   5   0   3    5.88    0.39
   5   0   3    5.81    1.16
  -5   0  -3    5.45    1.07
   5   0   4   32.34    1.83
  -5   0  -4   33.93    2.53
   5   0   5    3.33    0.87
  -5   0  -5    3.20    1.01
   5   0   6   77.57    3.51
  -5   0  -6   78.93    3.87
   5   0   7  108.30    3.94
  -5   0  -7  110.65    5.55
   5   0   8    9.90    1.51
  -5   0  -8    6.70    2.03
   5   0   9    5.65    1.25
  -5   0  -9    6.54    1.59
   5   0  10    8.04    1.25
  -5   0 -10    7.78    2.36
   5   0  11    0.63    0.92
  -5   0 -11    1.48    1.59
   5   0  12    8.81    1.80
  -5   0 -12    6.24    2.69
   5   0  13    0.85    1.09
  -5   0 -13    0.88    1.66
   5   0  14    2.39    1.34
  -5   0 -14    0.66    1.89
   5   0  15    0.06    1.43
  -5   0 -15    0.69    2.07
   5   1 -14    1.88    2.13
  -5  -1  14   -0.34    1.12
   5   1 -13    1.70    2.80
  -5  -1  13    6.27    1.55
   5   1 -12   13.51    3.18
  -5  -1  12    8.59    2.17
   5   1 -11    1.49    1.47
  -5  -1  11    0.36    1.25
   5   1 -10    4.27    1.59
  -5  -1  10    3.57    1.24
   5   1  -9   14.32    2.19
  -5  -1   9   14.03    1.68
   5   1  -8   10.18    1.75
  -5  -1   8    7.94    1.64
   5   1  -7    4.37    1.44
  -5  -1   7    3.05    1.02
   5   1  -6    7.76    1.28
  -5  -1   6    6.84    1.21
   5   1  -5   67.09    3.36
  -5  -1   5   66.89    3.01
   5   1  -4    2.39    1.05
  -5  -1   4    5.39    0.96
   5   1  -3    8.14    1.15
  -5  -1   3   10.48    1.31
  -5  -1   3    8.37    0.47
   5   1  -2    2.94    0.83
   5   1  -2    4.90    0.98
  -5  -1   2    3.44    0.47
   5   1  -1  109.55    3.41
   5   1  -1  107.02    3.53
  -5  -1   1   99.72    2.50
   5   1   0  270.35    7.26
   5   1   0  272.44    6.56
  -5  -1   0  278.40    6.67
   5   1   1   64.87    2.62
   5   1   1   56.23    1.98
  -5  -1  -1   64.52    2.59
   5   1   2  193.66    4.26
   5   1   2  187.22    5.26
  -5  -1  -2  194.91    5.92
   5   1   3    6.66    0.52
   5   1   3    8.08    0.91
  -5  -1  -3    7.12    1.16
   5   1   4    4.95    0.74
  -5  -1  -4    6.39    1.17
  -5  -1  -4    4.36    0.44
   5   1   5    1.28    0.74
  -5  -1  -5    0.68    0.72
  -5  -1  -5    0.27    0.26
   5   1   6    3.61    0.79
  -5  -1  -6    4.47    1.24
  -5  -1  -6    2.66    0.52
   5   1   7    3.17    0.96
  -5  -1  -7    4.88    1.14
  -5  -1  -7    2.05    0.50
   5   1   8    5.76    1.19
  -5  -1  -8    8.34    1.62
  -5  -1  -8    6.11    0.69
   5   1   9   10.88    1.19
  -5  -1  -9   10.81    1.72
  -5  -1  -9    9.21    0.89
   5   1  10   30.35    2.29
  -5  -1 -10   39.45    3.23
   5   1  11    0.19    0.74
  -5  -1 -11   -1.38    1.42
   5   1  12    6.21    1.58
  -5  -1 -12    7.76    2.45
   5   1  13    7.40    1.58
  -5  -1 -13    5.82    2.20
   5   1  14    9.56    2.33
  -5  -1 -14   16.26    3.24
   5   1  15    8.70    1.95
  -5  -1 -15   11.35    3.40
   5   2 -14    0.87    2.97
  -5  -2  14    4.66    1.66
   5   2 -13   -0.75    2.28
  -5  -2  13   -1.61    1.30
   5   2 -12    1.38    1.97
  -5  -2  12    1.54    1.41
   5   2 -11   10.35    2.16
  -5  -2  11    8.03    1.71
   5   2 -10   34.32    3.47
  -5  -2  10   39.08    2.80
   5   2  -9    4.93    1.59
  -5  -2   9    5.01    1.29
   5   2  -8   15.14    1.96
  -5  -2   8   15.39    1.57
   5   2  -7    0.57    0.95
  -5  -2   7    0.82    0.85
   5   2  -6   15.32    1.61
  -5  -2   6   15.22    1.55
   5   2  -5    0.55    0.95
  -5  -2   5    1.21    0.73
   5   2  -4   56.34    2.68
  -5  -2   4   56.54    2.82
   5   2  -3   11.80    1.08
  -5  -2   3   11.74    1.40
  -5  -2   3   10.58    0.35
   5   2  -2   24.66    1.63
  -5  -2   2   22.89    1.46
  -5  -2   2   19.14    0.81
   5   2  -1    0.98    0.86
   5   2  -1    3.59    0.78
  -5  -2   1    1.56    0.46
   5   2   0   -0.48    0.63
   5   2   0    0.40    0.60
  -5  -2   0    0.59    0.36
   5   2   1    9.48    0.75
   5   2   1    7.94    1.09
   5   2   1    6.58    0.90
   5   2   2    2.75    0.66
   5   2   2    3.81    0.67
   5   2   2    2.77    0.67
   5   2   3   18.04    1.25
   5   2   3   16.66    0.95
   5   2   3   14.99    1.30
   5   2   4    9.71    1.24
   5   2   4    8.78    0.88
  -5  -2  -4    8.43    0.69
   5   2   5   -0.47    0.62
   5   2   5    1.71    0.47
  -5  -2  -5   -0.42    0.33
   5   2   6   27.94    1.75
   5   2   6   26.74    1.89
  -5  -2  -6   27.68    1.18
   5   2   7    4.64    1.15
   5   2   7    7.35    1.01
  -5  -2  -7    5.72    0.73
   5   2   8   10.85    1.46
   5   2   8   16.09    1.30
  -5  -2  -8    9.23    1.11
   5   2   9    1.19    0.98
   5   2   9    1.60    0.73
  -5  -2  -9    1.11    0.71
   5   2  10    1.74    1.20
   5   2  10    0.47    0.64
  -5  -2 -10   -0.00    0.62
   5   2  11   32.33    2.08
  -5  -2 -11   19.81    2.02
  -5  -2 -11   27.98    1.73
   5   2  12    0.13    0.98
  -5  -2 -12    3.24    1.71
   5   2  13   10.05    1.48
  -5  -2 -13   18.38    2.88
   5   2  14    2.45    1.15
  -5  -2 -14    2.27    1.87
   5   2  15    6.13    1.52
  -5  -2 -15    4.51    2.39
   5   3 -14    2.05    2.17
  -5  -3  14   -0.01    1.41
   5   3 -13    7.40    2.23
  -5  -3  13    3.23    1.67
   5   3 -12   20.95    2.87
  -5  -3  12   15.31    2.21
   5   3 -11    1.57    1.28
  -5  -3  11   -0.36    0.96
   5   3 -10   45.81    3.66
  -5  -3  10   40.75    3.12
   5   3  -9    5.36    1.57
  -5  -3   9    4.82    1.30
   5   3  -8   14.78    2.27
  -5  -3   8   10.89    1.52
   5   3  -7    1.43    0.88
  -5  -3   7   -0.65    0.68
   5   3  -6    2.11    1.17
  -5  -3   6    1.24    0.84
   5   3  -5    3.82    1.23
   5   3  -4   55.26    2.74
  -5  -3   4   52.90    2.84
   5   3  -3    1.74    0.72
  -5  -3   3    0.49    0.19
  -5  -3   3   -0.10    0.64
   5   3  -2   85.51    3.35
  -5  -3   2   88.86    3.28
   5   3  -1    4.97    0.55
   5   3  -1    4.58    0.87
  -5  -3   1    3.50    0.82
   5   3   0   43.16    1.55
   5   3   0   42.71    1.99
   5   3   0   42.59    1.95
   5   3   1    3.36    0.77
   5   3   1    3.55    0.58
   5   3   1    3.65    0.68
   5   3   2  668.20   13.64
   5   3   2  608.30   13.10
   5   3   2  631.80   13.23
   5   3   3    1.30    0.65
   5   3   3    2.84    0.68
   5   3   3    2.35    0.62
   5   3   4   -0.15    0.71
   5   3   4    1.04    0.53
  -5  -3  -4    0.10    0.50
   5   3   5  258.32    7.65
   5   3   5  270.52    6.42
  -5  -3  -5  263.70    5.99
   5   3   6    2.00    0.90
  -5  -3  -6    1.45    0.60
   5   3   7    5.30    1.11
   5   3   7    3.07    0.77
  -5  -3  -7    2.74    0.73
   5   3   8   -0.44    0.89
   5   3   8    0.54    0.55
  -5  -3  -8   -0.35    0.47
   5   3   9   10.70    1.64
   5   3   9   14.72    1.10
  -5  -3  -9   13.02    1.48
   5   3  10    1.99    0.87
   5   3  10    0.13    0.62
  -5  -3 -10   -1.23    0.68
   5   3  11   -0.07    0.93
   5   3  11   -0.06    0.66
  -5  -3 -11   -0.10    0.72
   5   3  12    1.24    1.29
   5   3  12    0.07    0.75
  -5  -3 -12   -0.83    0.73
   5   3  13    9.65    2.17
   5   3  13    6.80    1.45
  -5  -3 -13    6.76    1.37
   5   3  14    2.30    1.21
  -5  -3 -14    1.25    1.25
   5   3  15   22.60    2.54
  -5  -3 -15   23.71    3.55
   5   4 -14    4.33    2.45
  -5  -4  14    4.01    1.93
   5   4 -13    3.63    1.80
  -5  -4  13   -1.79    1.17
   5   4 -12    1.68    1.48
  -5  -4  12   -0.67    1.48
   5   4 -11    0.29    1.55
  -5  -4  11    3.83    1.54
   5   4 -10    8.16    1.74
  -5  -4  10    4.08    1.35
   5   4  -9    2.99    1.39
  -5  -4   9    1.82    1.00
   5   4  -8   -1.68    0.99
  -5  -4   8    0.97    0.89
   5   4  -7    2.26    1.17
  -5  -4   7    1.32    0.87
   5   4  -6   13.69    1.84
  -5  -4   6   11.42    1.34
   5   4  -5   29.62    2.29
  -5  -4   5   30.27    1.87
   5   4  -4    0.32    0.99
  -5  -4   4   -1.45    0.77
   5   4  -3    4.75    0.41
   5   4  -3    6.54    1.03
  -5  -4   3    5.10    0.86
   5   4  -2    1.01    0.38
   5   4  -2    0.76    0.92
  -5  -4   2    0.93    0.71
   5   4  -1   31.06    1.22
   5   4  -1   29.30    1.85
  -5  -4   1   31.98    1.84
   5   4   0    1.81    0.71
   5   4   0   -0.56    0.43
  -5  -4   0   -0.52    0.47
   5   4   1  292.83    7.59
   5   4   1  292.16    7.04
   5   4   2    6.36    0.96
   5   4   2    4.74    0.86
   5   4   2    5.46    0.79
   5   4   3   21.47    1.36
   5   4   3   20.12    1.18
   5   4   3   18.10    1.15
   5   4   4    1.18    0.48
   5   4   4    0.60    0.65
  -5  -4  -4   -0.22    0.57
   5   4   5   29.10    2.01
   5   4   5   26.87    1.33
  -5  -4  -5   25.71    1.47
   5   4   6   65.07    3.41
   5   4   6   64.11    2.24
  -5  -4  -6   68.17    2.56
   5   4   7   68.27    3.64
   5   4   7   73.86    2.54
  -5  -4  -7   75.43    2.98
   5   4   8   16.40    2.01
   5   4   8   14.94    1.13
  -5  -4  -8   18.86    1.46
   5   4   9    7.60    1.85
   5   4   9    8.72    1.00
  -5  -4  -9   10.45    1.40
   5   4  10   13.92    2.38
   5   4  10   17.03    1.38
  -5  -4 -10   19.84    1.87
   5   4  11    5.69    1.58
   5   4  11    4.84    0.89
  -5  -4 -11    6.25    1.30
   5   4  12    9.69    1.96
   5   4  12    7.96    1.20
  -5  -4 -12    6.00    1.52
   5   4  13    4.33    1.81
   5   4  13    5.27    1.18
  -5  -4 -13    6.19    1.37
   5   4  14   -0.93    1.96
   5   4  14    4.33    1.04
  -5  -4 -14   -0.04    1.19
   5   4  15   10.70    2.36
   5   4  16    1.46    1.67
   5   5 -13    3.07    1.71
  -5  -5  13   -2.13    1.69
   5   5 -12    0.44    1.75
  -5  -5  12    1.45    1.36
   5   5 -11    2.37    1.73
  -5  -5  11    1.91    1.59
   5   5 -10   10.12    2.15
  -5  -5  10   10.73    1.81
   5   5  -9    0.83    1.45
  -5  -5   9    0.33    0.82
   5   5  -8   -0.45    1.35
  -5  -5   8   -0.57    0.89
   5   5  -7   36.98    3.15
  -5  -5   7   37.92    2.43
   5   5  -6    0.61    1.14
  -5  -5   6   -0.75    0.80
   5   5  -5   33.03    2.44
  -5  -5   5   27.23    1.89
   5   5  -4  124.63    5.53
  -5  -5   4  121.75    3.94
   5   5  -3   15.97    0.81
   5   5  -3   17.91    1.64
  -5  -5   3   19.01    1.20
   5   5  -2   22.33    1.04
   5   5  -2   22.25    2.04
  -5  -5   2   24.92    1.34
   5   5  -1   -0.34    0.81
  -5  -5   1   -0.27    0.42
   5   5   0   93.64    2.86
   5   5   0   89.51    3.77
  -5  -5   0   92.10    2.84
   5   5   1   99.48    3.18
   5   5   1   81.47    3.35
  -5  -5  -1   95.22    2.96
   5   5   2    4.21    0.79
   5   5   2    5.77    1.04
  -5  -5  -2    6.21    0.70
   5   5   3   10.77    1.19
   5   5   3   10.08    0.84
  -5  -5  -3    6.79    0.73
   5   5   4    4.06    0.97
   5   5   4    6.79    0.66
  -5  -5  -4    4.71    0.80
   5   5   5   13.93    0.95
   5   5   5   15.50    1.40
  -5  -5  -5   15.06    1.13
   5   5   6   29.23    1.99
   5   5   6   23.34    1.19
  -5  -5  -6   31.52    1.75
   5   5   7    3.44    1.00
  -5  -5  -7    3.24    0.93
   5   5   8   -0.43    1.01
   5   5   8    0.68    0.44
  -5  -5  -8   -0.65    0.80
   5   5   9    1.36    0.97
   5   5   9    0.15    0.50
  -5  -5  -9    0.55    0.95
   5   5  10    6.62    1.82
   5   5  10    4.43    0.82
  -5  -5 -10    6.37    1.47
   5   5  11    4.29    1.48
   5   5  11    3.17    0.81
  -5  -5 -11    3.67    1.19
   5   5  12   19.28    2.73
   5   5  12   13.91    1.51
  -5  -5 -12   22.40    1.98
   5   5  13   -1.07    1.38
   5   5  13    1.02    0.74
  -5  -5 -13    1.10    0.99
   5   5  14    0.67    1.86
  -5  -5 -14    0.85    1.21
   5   5  15   -0.60    1.50
  -5  -5 -15   -0.05    1.24
   5   5  16    0.17    1.85
   5   6 -13   -2.25    2.01
  -5  -6  13   -1.76    1.64
   5   6 -12    1.71    1.71
  -5  -6  12    0.55    1.65
   5   6 -11    3.07    1.82
  -5  -6  11    2.37    1.72
   5   6 -10    3.98    2.38
  -5  -6  10    5.19    1.38
   5   6  -9    0.63    1.51
  -5  -6   9    4.27    1.15
   5   6  -8    0.51    1.17
  -5  -6   8    0.44    0.97
   5   6  -7   -0.96    1.32
  -5  -6   7   -0.20    0.73
   5   6  -6    8.48    1.89
  -5  -6   6    6.45    1.23
   5   6  -5   10.80    2.08
  -5  -6   5   12.93    1.20
   5   6  -4    5.58    1.60
   5   6  -4    5.22    0.57
  -5  -6   4    7.23    0.84
   5   6  -3    0.78    0.95
  -5  -6   3    1.64    0.60
   5   6  -2    4.45    1.20
   5   6  -2    4.57    0.68
  -5  -6   2    5.60    0.67
   5   6  -1    2.35    0.82
   5   6  -1    1.74    0.56
  -5  -6   1    0.33    0.55
   5   6   0    3.70    0.96
   5   6   0    4.50    0.76
  -5  -6   0    4.82    0.63
   5   6   1   15.34    1.26
   5   6   1   20.33    1.41
  -5  -6  -1   15.14    0.91
   5   6   2    5.53    0.98
   5   6   2    6.65    1.05
  -5  -6  -2    3.81    0.51
   5   6   3    9.51    1.28
  -5  -6  -3    9.87    0.69
  -5  -6  -3    7.39    1.10
   5   6   4    1.13    0.73
  -5  -6  -4    0.69    0.68
  -5  -6  -4    1.11    0.39
   5   6   5    0.65    0.70
   5   6   5    0.07    0.34
  -5  -6  -5    0.27    0.56
   5   6   6   49.44    2.76
   5   6   6   49.01    1.57
  -5  -6  -6   53.21    2.66
   5   6   7    2.43    1.09
   5   6   7    0.42    0.37
  -5  -6  -7    2.13    0.74
   5   6   8   -0.86    0.95
   5   6   8    0.19    0.32
  -5  -6  -8   -0.36    0.64
   5   6   9    7.12    1.48
  -5  -6  -9    4.97    1.17
   5   6  10    4.91    1.44
  -5  -6 -10    4.52    1.57
   5   6  11    7.52    1.99
  -5  -6 -11    4.16    1.73
   5   6  12   12.93    2.28
  -5  -6 -12   14.76    2.22
   5   6  13    5.66    1.68
  -5  -6 -13    3.09    1.44
   5   6  14    7.38    2.48
  -5  -6 -14    3.81    1.78
   5   6  15    0.54    1.63
  -5  -6 -15   -1.28    1.38
   5   7 -12   12.64    3.22
  -5  -7  12    9.77    2.49
   5   7 -11    0.63    1.91
  -5  -7  11    0.58    1.16
   5   7 -10    0.51    1.39
  -5  -7  10    0.32    1.07
   5   7  -9    4.61    2.22
  -5  -7   9    5.14    1.36
   5   7  -8   -0.09    1.15
  -5  -7   8    0.91    0.87
   5   7  -7    4.66    1.85
  -5  -7   7    4.07    1.40
   5   7  -6    7.40    1.63
  -5  -7   6    6.78    1.36
   5   7  -5   94.83    5.45
  -5  -7   5   86.42    3.49
   5   7  -4   22.14    2.79
  -5  -7   4   22.42    1.42
   5   7  -3    6.84    1.77
   5   7  -3    7.66    0.76
  -5  -7   3    5.98    0.86
   5   7  -2    0.70    1.00
   5   7  -2   -0.63    0.50
  -5  -7   2   -0.13    0.43
   5   7  -1    5.98    1.28
   5   7  -1    7.41    0.92
  -5  -7   1    7.15    0.77
   5   7   0    0.33    0.75
   5   7   0   -1.11    0.60
  -5  -7   0   -0.05    0.42
   5   7   1   68.60    3.32
   5   7   1   77.91    3.07
  -5  -7  -1   74.14    2.05
   5   7   2    3.01    1.02
   5   7   2    2.66    0.90
  -5  -7  -2    1.67    0.38
   5   7   3    3.25    0.79
  -5  -7  -3    5.73    1.16
  -5  -7  -3    2.32    0.32
   5   7   4    1.78    0.79
  -5  -7  -4    1.22    0.94
   5   7   5   19.88    1.74
  -5  -7  -5   21.44    1.88
   5   7   6   11.80    1.65
  -5  -7  -6   12.51    1.53
   5   7   7    4.13    1.26
  -5  -7  -7    4.01    1.06
   5   7   8   -0.31    0.89
  -5  -7  -8    0.61    1.01
   5   7   9   -0.24    1.02
  -5  -7  -9   -0.94    0.94
   5   7  10    0.65    1.03
  -5  -7 -10    0.39    0.96
   5   7  11    0.50    1.51
  -5  -7 -11   -1.00    1.10
   5   7  12   15.10    3.00
  -5  -7 -12    8.81    2.42
   5   7  13    1.34    1.65
  -5  -7 -13    1.21    1.34
   5   7  14    1.25    1.39
  -5  -7 -14   -0.36    1.54
   5   7  15    1.00    1.69
  -5  -7 -15    0.88    1.65
   5   8 -11    0.55    1.61
  -5  -8  11   -1.57    1.24
   5   8 -10   16.22    3.22
  -5  -8  10   19.97    2.74
   5   8  -9    1.72    1.58
  -5  -8   9   -1.26    1.04
   5   8  -8    0.60    1.46
  -5  -8   8    0.09    0.89
   5   8  -7    1.79    1.41
  -5  -8   7    2.40    1.22
   5   8  -6    2.23    1.41
  -5  -8   6    2.19    0.97
   5   8  -5   71.43    4.44
   5   8  -5   54.22    2.37
  -5  -8   5   63.23    3.26
   5   8  -4    6.35    1.70
   5   8  -4    7.45    1.10
  -5  -8   4    9.26    1.12
   5   8  -3    6.79    1.60
   5   8  -3    5.62    0.91
  -5  -8   3   10.45    1.18
   5   8  -2   11.84    1.97
   5   8  -2    9.76    1.10
  -5  -8   2    8.94    1.15
   5   8  -1    5.06    1.47
   5   8  -1    3.32    0.91
  -5  -8   1    3.55    0.77
   5   8   0   54.12    3.15
   5   8   0   51.49    2.64
  -5  -8   0   53.53    1.94
   5   8   1   15.97    2.14
   5   8   1   16.79    1.62
  -5  -8  -1   17.87    1.02
   5   8   2   34.53    2.26
  -5  -8  -2   33.45    1.12
  -5  -8  -2   36.80    2.41
   5   8   3    3.99    0.98
  -5  -8  -3    4.09    1.04
   5   8   4   30.34    2.10
  -5  -8  -4   30.92    1.98
   5   8   5   24.84    2.05
  -5  -8  -5   31.31    2.40
   5   8   6   19.51    2.08
  -5  -8  -6   20.56    1.75
   5   8   7   23.37    2.41
  -5  -8  -7   27.73    2.21
   5   8   8   -0.27    1.28
  -5  -8  -8    2.11    0.99
   5   8   9    1.54    1.31
  -5  -8  -9    1.50    1.19
   5   8  10   15.01    2.39
  -5  -8 -10   16.74    2.37
   5   8  11   -0.30    1.39
  -5  -8 -11    1.32    1.21
   5   8  12    2.62    1.53
  -5  -8 -12   -0.54    1.74
   5   8  13    5.33    2.13
  -5  -8 -13    6.81    1.86
   5   8  14    6.77    2.05
  -5  -8 -14    2.83    1.86
   5   8  15    0.75    1.45
  -5  -8 -15   -0.62    1.21
   5   9 -10    1.24    2.01
  -5  -9  10    5.18    1.61
   5   9  -9    6.56    2.07
  -5  -9   9    5.00    1.99
   5   9  -8    1.84    1.86
  -5  -9   8    4.61    1.40
   5   9  -7    0.89    1.55
  -5  -9   7   -1.94    1.28
   5   9  -6   -0.74    1.40
  -5  -9   6    0.51    0.96
   5   9  -5    7.36    2.12
   5   9  -5    6.02    1.03
  -5  -9   5    5.84    1.41
   5   9  -4   17.88    2.41
   5   9  -4   21.95    1.72
  -5  -9   4   19.32    1.92
   5   9  -3    0.79    1.12
   5   9  -3   -0.58    0.74
  -5  -9   3    1.38    0.68
   5   9  -2    1.63    1.15
   5   9  -2    0.34    0.68
  -5  -9   2   -1.14    0.66
   5   9  -1    2.05    1.12
   5   9  -1    1.94    0.99
  -5  -9   1    3.16    0.82
   5   9   0    1.18    0.83
   5   9   0   -0.44    0.85
  -5  -9   0   -0.09    0.53
   5   9   1    5.76    1.11
  -5  -9  -1    4.01    0.68
  -5  -9  -1    4.70    0.96
   5   9   2   29.79    2.32
  -5  -9  -2   34.22    2.65
   5   9   3   21.74    1.94
  -5  -9  -3   17.26    2.28
   5   9   4    4.50    1.19
  -5  -9  -4    1.82    1.09
   5   9   5    1.18    1.09
  -5  -9  -5    0.92    0.91
   5   9   6   82.53    4.45
  -5  -9  -6   82.97    4.52
   5   9   7    5.39    1.50
  -5  -9  -7    3.60    1.34
   5   9   8    1.27    1.46
  -5  -9  -8    0.10    0.95
   5   9   9    5.85    2.02
  -5  -9  -9    2.81    1.66
   5   9  10    1.56    2.19
  -5  -9 -10    5.24    1.51
   5   9  11   13.70    2.98
  -5  -9 -11   11.60    2.16
   5   9  12   11.06    3.11
  -5  -9 -12    8.90    2.71
   5   9  13    1.21    2.05
  -5  -9 -13    0.23    1.77
   5   9  14    1.32    1.81
  -5  -9 -14   -0.88    1.58
   5  10  -9   12.45    3.82
  -5 -10   9   27.26    2.69
   5  10  -8    4.36    2.56
  -5 -10   8    7.63    1.98
   5  10  -7    0.06    1.29
  -5 -10   7    0.38    1.19
   5  10  -6    2.66    1.73
  -5 -10   6    0.13    0.97
   5  10  -5    0.85    1.34
   5  10  -5    1.02    0.87
  -5 -10   5   -0.37    1.05
   5  10  -4    2.06    1.37
   5  10  -4    0.98    1.00
  -5 -10   4    1.19    0.83
   5  10  -3   -1.88    1.27
   5  10  -3    1.94    0.97
  -5 -10   3    1.78    0.95
   5  10  -2    1.60    1.28
   5  10  -2    2.18    1.05
  -5 -10   2    2.49    0.93
   5  10  -1    1.64    1.08
   5  10  -1   -0.14    1.00
  -5 -10   1    0.61    0.74
   5  10   0    6.22    1.35
  -5 -10   0    2.86    0.96
  -5 -10   0    4.24    0.81
   5  10   1    4.23    1.13
  -5 -10  -1    1.37    0.62
  -5 -10  -1    2.25    1.33
   5  10   2    0.22    1.13
  -5 -10  -2    0.31    1.01
   5  10   3   -0.72    2.20
  -5 -10  -3   40.04    2.30
   5  10   4   -0.11    0.99
  -5 -10  -4    1.33    0.91
   5  10   5   26.06    2.73
  -5 -10  -5   35.88    2.89
   5  10   6    9.27    1.81
  -5 -10  -6   11.50    1.74
   5  10   7    1.55    1.39
  -5 -10  -7    3.10    1.34
   5  10   8   -0.29    1.28
  -5 -10  -8    1.32    1.04
   5  10   9   -0.28    1.12
  -5 -10  -9    0.32    1.20
   5  10  10    5.24    2.17
  -5 -10 -10    6.80    2.12
   5  10  11    0.90    1.85
  -5 -10 -11    2.08    1.90
   5  10  12   22.32    3.42
  -5 -10 -12   27.58    4.07
   5  10  13    0.48    1.82
  -5 -10 -13    1.12    1.71
   5  10  14    0.26    1.92
  -5 -10 -14    1.83    1.79
   5  11  -8   -1.10    1.54
  -5 -11   8    3.32    1.65
   5  11  -7    4.98    2.42
  -5 -11   7    5.99    1.86
   5  11  -6   -1.62    1.29
  -5 -11   6    1.03    1.21
   5  11  -5    3.00    1.47
   5  11  -5   -0.49    1.15
  -5 -11   5    1.80    1.05
   5  11  -4    0.91    1.10
   5  11  -4    0.73    0.89
  -5 -11   4   -0.94    0.71
   5  11  -3   -1.68    1.58
   5  11  -3    0.89    1.04
  -5 -11   3    1.63    1.04
   5  11  -2    3.55    1.85
   5  11  -2    4.62    1.39
  -5 -11   2    2.60    1.16
   5  11  -1    7.65    1.33
  -5 -11   1    6.15    1.64
  -5 -11   1    3.00    1.05
   5  11   0    3.85    1.28
  -5 -11   0    3.04    0.81
  -5 -11   0    2.27    1.49
   5  11   1   11.42    2.15
  -5 -11  -1   11.93    1.98
   5  11   2   17.15    2.13
  -5 -11  -2   14.08    2.11
   5  11   3    1.43    1.36
  -5 -11  -3    0.08    1.28
   5  11   4    6.20    1.70
  -5 -11  -4    5.43    1.53
   5  11   5   -0.23    1.22
  -5 -11  -5    1.02    1.09
   5  11   6    7.70    1.95
  -5 -11  -6    8.27    1.77
   5  11   7    5.30    1.99
  -5 -11  -7    6.23    1.69
   5  11   8   -0.07    1.81
  -5 -11  -8    1.82    1.31
   5  11   9    3.12    2.25
  -5 -11  -9    3.50    1.65
   5  11  10    4.46    2.76
  -5 -11 -10    8.88    2.40
   5  11  11    6.75    3.00
  -5 -11 -11    7.38    2.32
   5  11  12    5.91    2.91
  -5 -11 -12    3.29    2.22
   5  11  13    0.70    2.22
  -5 -11 -13    0.20    2.10
   5  12  -6    1.16    1.35
  -5 -12   6   -1.26    1.22
   5  12  -5    1.37    1.42
  -5 -12   5    0.94    1.28
   5  12  -4    0.40    1.29
   5  12  -4    0.54    1.21
  -5 -12   4   -1.34    0.91
   5  12  -3   -1.59    1.27
   5  12  -3    0.25    1.02
  -5 -12   3    1.45    0.93
   5  12  -2    2.91    1.48
  -5 -12   2    1.79    1.10
  -5 -12   2    2.80    1.63
   5  12  -1    2.00    1.47
  -5 -12   1    1.59    1.80
   5  12   0    1.10    1.68
  -5 -12   0    3.97    1.80
   5  12   1    6.98    2.13
  -5 -12  -1    9.49    2.22
   5  12   2    0.38    1.23
  -5 -12  -2   -1.33    1.17
   5  12   3   -2.17    1.81
  -5 -12  -3   -1.43    1.29
   5  12   4    0.32    1.57
  -5 -12  -4    4.24    1.68
   5  12   5    3.51    2.03
  -5 -12  -5    1.95    1.43
   5  12   6    1.89    1.98
  -5 -12  -6    6.00    1.94
   5  12   7    7.51    2.07
  -5 -12  -7    3.26    1.79
   5  12   8   -1.45    1.94
  -5 -12  -8    2.62    1.45
   5  12   9    0.72    2.01
  -5 -12  -9   -2.54    1.70
   5  12  10   12.02    3.96
  -5 -12 -10   16.75    2.56
   5  12  11    9.64    2.91
  -5 -12 -11    3.57    3.15
   5  12  12   10.79    3.08
  -5 -12 -12    9.96    2.79
   5  13  -4   -0.59    1.32
  -5 -13   4    1.55    1.70
   5  13  -3    2.28    1.67
  -5 -13   3    0.05    1.97
   5  13  -2    0.18    1.40
  -5 -13   2    0.36    1.31
   5  13  -1    5.85    2.12
  -5 -13   1    5.10    2.25
   5  13   0   14.32    2.82
  -5 -13   0   11.83    2.36
   5  13   1   30.79    3.87
  -5 -13  -1   29.55    3.15
   5  13   2   -1.41    1.65
  -5 -13  -2    1.40    1.24
   5  13   3   -0.54    1.57
  -5 -13  -3    2.64    1.43
   5  13   4   -0.55    1.52
  -5 -13  -4    1.88    1.42
   5  13   5    0.50    2.14
  -5 -13  -5    2.48    1.54
   5  13   6    3.13    2.03
  -5 -13  -6    4.58    2.28
   5  13   7    4.93    2.41
  -5 -13  -7    1.64    1.76
   5  13   8    5.23    2.31
   5  13   9    0.05    1.90
  -5 -13  -9    2.70    1.95
   5  13  10    1.99    2.74
  -5 -13 -10    1.28    2.12
   5  14  -2   -0.48    1.25
  -5 -14   2    0.10    1.32
   5  14  -1    4.35    2.59
  -5 -14   1    8.21    2.65
   5  14   0    7.10    2.28
  -5 -14   0   12.51    2.81
   5  14   1   35.54    4.81
  -5 -14  -1   52.11    4.88
   5  14   2   -2.10    2.12
  -5 -14  -2    2.00    1.45
   5  14   3   -1.16    1.97
  -5 -14  -3    0.21    1.73
   5  14   4   -1.08    1.77
  -5 -14  -4   -0.90    1.90
   5  14   5    7.83    2.48
  -5 -14  -5    3.78    2.56
   5  14   6   -1.55    1.73
  -5 -14  -6    2.68    1.83
   5  14   7    4.44    2.26
  -5 -14  -7    0.87    2.37
   5  14   8   -0.93    1.99
  -5 -14  -8   -1.48    2.16
   6  -9  -5    2.62    1.48
  -6   9   5   -0.05    1.51
   6  -9  -4    1.35    2.02
  -6   9   4    4.07    2.02
   6  -9  -3    2.49    1.97
  -6   9   3    0.80    1.51
   6  -9  -2    3.88    2.17
  -6   9   2    1.70    1.77
   6  -9  -1    1.77    2.09
  -6   9   1    2.00    1.64
   6  -9   0   -0.25    1.49
  -6   9   0   -0.26    1.71
   6  -9   1   -1.91    2.28
  -6   9  -1   -1.99    1.84
   6  -8  -8    0.20    1.22
  -6   8   8    1.07    1.84
  -6   8   8    1.01    1.49
   6  -8  -7    1.48    1.52
  -6   8   7    1.32    1.96
  -6   8   7    1.20    1.24
   6  -8  -6    5.67    1.60
   6  -8  -6    1.72    1.70
  -6   8   6    1.97    1.87
   6  -8  -5   -1.49    1.36
  -6   8   5   -0.32    1.32
   6  -8  -4    0.27    1.21
  -6   8   4    0.27    1.08
   6  -8  -3   -2.22    1.82
  -6   8   3   -0.53    1.71
   6  -8  -2    4.18    1.72
  -6   8   2    3.54    1.60
   6  -8  -1    3.60    2.05
  -6   8   1    4.50    1.80
   6  -8   0   -2.05    1.36
  -6   8   0    1.36    1.27
   6  -8   1   21.71    3.59
  -6   8  -1   14.10    2.46
   6  -8   2    1.13    1.89
  -6   8  -2    3.61    2.04
   6  -8   3    7.87    2.43
  -6   8  -3    4.57    2.02
   6  -8   4   10.32    3.23
  -6   8  -4    6.01    2.73
   6  -7 -10    3.17    1.67
   6  -7  -9    1.19    1.69
  -6   7   9    1.88    1.96
   6  -7  -8    8.30    2.21
  -6   7   8   10.35    2.70
  -6   7   8    6.86    2.09
   6  -7  -7    4.94    1.71
  -6   7   7    3.32    2.23
  -6   7   7    2.59    1.64
   6  -7  -6   -0.50    1.19
   6  -7  -6   -0.63    1.43
  -6   7   6    0.29    1.23
   6  -7  -5    2.00    1.46
   6  -7  -5    0.72    1.00
  -6   7   5   -1.43    1.17
   6  -7  -4    2.30    1.32
   6  -7  -4    5.33    1.58
  -6   7   4    5.60    1.48
   6  -7  -3    8.85    2.38
  -6   7   3    9.33    1.75
   6  -7  -2    0.80    1.45
  -6   7   2   -1.54    1.37
   6  -7  -1    8.95    1.91
  -6   7   1    6.56    1.78
   6  -7   0    3.79    1.54
  -6   7   0    1.35    1.45
   6  -7   1   15.23    2.85
  -6   7  -1   13.35    2.21
   6  -7   2   -0.40    1.37
  -6   7  -2   -0.28    1.24
   6  -7   3    6.69    2.13
  -6   7  -3    6.05    2.08
   6  -7   4   11.12    2.50
  -6   7  -4    7.22    2.26
   6  -7   5   -0.53    1.50
  -6   7  -5   -0.62    1.80
   6  -7   6   -0.79    1.63
  -6   7  -6   -1.19    2.25
   6  -7   7   11.88    2.87
  -6   7  -7    8.89    3.38
   6  -6 -11    0.07    1.57
  -6   6  11    0.56    1.61
   6  -6 -10    2.57    1.73
  -6   6  10   -0.45    1.79
   6  -6  -9    3.20    1.89
  -6   6   9    2.06    2.18
   6  -6  -8    8.27    1.74
  -6   6   8    8.26    2.56
  -6   6   8    6.83    1.83
   6  -6  -7    1.33    1.38
  -6   6   7    1.88    1.38
  -6   6   7    0.51    0.96
   6  -6  -6   -1.41    0.99
   6  -6  -6    0.62    1.25
  -6   6   6    1.30    0.99
   6  -6  -5   21.07    2.11
   6  -6  -5   18.30    2.36
  -6   6   5   13.71    1.85
   6  -6  -4    4.13    1.28
   6  -6  -4    4.70    1.44
  -6   6   4    4.07    1.25
   6  -6  -3   20.06    1.76
   6  -6  -3   25.26    2.95
  -6   6   3   16.04    2.43
   6  -6  -2   -1.42    1.05
  -6   6   2    1.07    1.06
   6  -6  -1   12.85    1.99
  -6   6   1   14.93    2.26
   6  -6   0    0.95    1.08
  -6   6   0   -0.64    1.13
   6  -6   1   23.96    2.81
  -6   6  -1   24.14    3.25
   6  -6   2    2.28    1.39
  -6   6  -2   -1.72    1.13
   6  -6   3   -0.99    1.49
  -6   6  -3   -0.77    1.54
   6  -6   4    1.68    1.08
  -6   6  -4   -1.70    1.08
   6  -6   5    4.70    2.11
  -6   6  -5    0.38    1.75
   6  -6   6    1.97    1.99
  -6   6  -6    0.85    1.58
   6  -6   7    1.74    1.84
  -6   6  -7   -1.15    1.34
   6  -6   8    1.35    1.83
  -6   6  -8   -0.18    1.97
   6  -5 -12    5.31    2.16
  -6   5  12    2.95    2.08
   6  -5 -11   12.18    2.92
  -6   5  11    6.73    2.22
   6  -5 -10   -0.43    1.37
  -6   5  10    1.13    1.24
   6  -5  -9    5.12    1.55
  -6   5   9    2.93    1.84
   6  -5  -8    2.34    1.31
  -6   5   8   -0.66    1.56
  -6   5   8    0.14    0.98
   6  -5  -7   -0.59    0.85
  -6   5   7   -0.55    1.36
  -6   5   7    0.60    0.85
   6  -5  -6    2.54    0.99
   6  -5  -6    0.18    1.25
  -6   5   6    0.39    1.04
   6  -5  -5   -0.11    1.44
   6  -5  -5    0.17    1.04
  -6   5   5    2.48    1.03
   6  -5  -4   44.16    2.47
   6  -5  -4   46.84    3.18
  -6   5   4   38.97    2.70
   6  -5  -3   39.77    2.41
   6  -5  -3   36.46    3.51
  -6   5   3   37.35    2.65
   6  -5  -2    1.25    0.77
   6  -5  -2    0.87    1.38
  -6   5   2   -0.12    1.08
   6  -5  -1   15.26    2.39
  -6   5   1   16.26    1.88
   6  -5   0   11.67    1.97
  -6   5   0   11.11    2.04
   6  -5   1   11.19    1.93
  -6   5  -1    9.64    1.63
   6  -5   2   27.02    2.92
  -6   5  -2   27.03    2.90
   6  -5   3   16.45    2.68
  -6   5  -3    8.68    1.94
   6  -5   4   19.04    2.84
  -6   5  -4   16.04    2.40
   6  -5   5    1.09    1.47
  -6   5  -5    1.73    1.76
   6  -5   6   27.73    3.67
  -6   5  -6   20.19    3.10
   6  -5   7   10.05    2.88
  -6   5  -7   10.99    3.03
   6  -5   8    2.96    2.03
  -6   5  -8    7.63    2.60
   6  -5   9    4.07    2.17
  -6   5  -9   -0.03    1.85
   6  -5  10    2.26    2.29
  -6   5 -10    2.40    2.05
   6  -4 -13   14.18    3.53
  -6   4  13   12.20    2.39
   6  -4 -12   -0.79    1.65
  -6   4  12    0.46    1.36
   6  -4 -11    2.07    2.02
  -6   4  11    2.39    1.86
   6  -4 -10    8.89    2.42
  -6   4  10    4.51    1.88
   6  -4  -9    1.81    1.45
  -6   4   9    1.74    1.33
   6  -4  -8    1.52    1.56
  -6   4   8    3.27    1.74
  -6   4   8    1.25    0.89
   6  -4  -7   48.25    3.24
  -6   4   7   40.89    3.64
   6  -4  -6   -0.14    0.93
  -6   4   6   -0.64    0.81
  -6   4   6   -0.42    1.07
   6  -4  -5    0.59    1.13
   6  -4  -5    1.15    1.17
  -6   4   5    2.05    0.88
   6  -4  -4  203.98    7.23
   6  -4  -4  203.48    8.49
  -6   4   4  195.83    6.74
   6  -4  -3    5.73    1.14
   6  -4  -3    5.22    1.35
  -6   4   3    2.43    1.21
   6  -4  -2   13.52    1.16
   6  -4  -2   11.69    2.21
  -6   4   2   11.15    1.38
   6  -4  -1    6.64    0.95
   6  -4  -1    6.54    1.72
  -6   4   1    5.84    1.50
   6  -4   0    6.69    1.74
  -6   4   0    5.64    1.24
   6  -4   1    6.68    1.47
  -6   4  -1    4.57    1.23
   6  -4   2   15.02    2.09
  -6   4  -2   13.09    1.83
   6  -4   3   39.99    3.07
  -6   4  -3   34.68    3.52
   6  -4   4   10.59    1.98
  -6   4  -4   12.84    1.93
   6  -4   5   30.86    3.08
  -6   4  -5   29.10    3.22
   6  -4   6   15.72    2.92
  -6   4  -6   14.03    2.24
   6  -4   7   10.55    2.77
  -6   4  -7    8.04    2.34
   6  -4   8    7.79    1.89
  -6   4  -8    1.67    1.82
   6  -4   9    3.07    2.04
  -6   4  -9    3.04    1.72
   6  -4  10    1.92    1.64
  -6   4 -10    2.05    1.62
   6  -4  11    9.48    2.99
  -6   4 -11    7.27    2.30
   6  -3 -13   -0.09    1.74
  -6   3  13    0.78    1.58
   6  -3 -12    3.18    1.73
  -6   3  12    0.14    1.77
   6  -3 -11    6.31    1.94
  -6   3  11    4.06    2.17
   6  -3 -10    3.22    1.73
  -6   3  10    5.99    1.65
   6  -3  -9   11.11    2.35
  -6   3   9    9.71    1.96
   6  -3  -8    9.31    1.75
  -6   3   8    5.72    1.85
   6  -3  -7   56.86    3.40
  -6   3   7   59.27    4.36
  -6   3   7   39.30    2.53
   6  -3  -6   48.27    3.06
  -6   3   6   46.31    3.62
   6  -3  -5    2.06    1.21
   6  -3  -5    3.42    1.49
  -6   3   5    3.34    0.90
   6  -3  -4  195.15    6.54
   6  -3  -4  192.30    7.67
  -6   3   4  175.31    5.95
   6  -3  -3   -0.07    0.75
   6  -3  -3   -0.07    0.97
  -6   3   3    1.94    0.74
   6  -3  -2    6.66    1.71
  -6   3   2    4.63    1.22
   6  -3  -1    0.93    0.96
   6  -3  -1    0.22    0.65
  -6   3   1    1.50    0.74
   6  -3   0   14.31    1.75
   6  -3   0   13.27    0.94
  -6   3   0   18.41    1.67
   6  -3   1   25.28    2.25
  -6   3  -1   25.97    2.10
   6  -3   2   57.18    3.87
  -6   3  -2   52.25    3.56
   6  -3   3   44.68    3.33
  -6   3  -3   34.09    2.48
   6  -3   4   74.49    3.94
  -6   3  -4   65.78    3.74
   6  -3   5   11.39    2.04
  -6   3  -5   13.45    2.02
   6  -3   6    8.82    1.82
  -6   3  -6    7.49    1.97
   6  -3   7   49.37    3.45
  -6   3  -7   47.14    3.81
   6  -3   8   -0.45    1.14
  -6   3  -8   -0.10    1.46
   6  -3   9    9.59    2.42
  -6   3  -9    7.59    2.08
   6  -3  10    0.43    1.18
  -6   3 -10   -0.28    1.23
   6  -3  11   13.98    2.82
  -6   3 -11    9.70    2.57
   6  -3  12    3.02    2.38
  -6   3 -12    6.76    2.71
   6  -2 -13   10.46    2.47
  -6   2  13    4.56    2.42
   6  -2 -12    5.72    2.26
  -6   2  12    8.91    2.29
   6  -2 -11   -1.45    1.56
  -6   2  11    1.08    1.12
   6  -2 -10    0.35    1.42
  -6   2  10    0.71    1.35
   6  -2  -9   27.93    2.83
  -6   2   9   28.95    2.76
   6  -2  -8    8.25    1.70
  -6   2   8    8.13    1.70
   6  -2  -7    0.39    0.95
  -6   2   7    0.08    1.35
   6  -2  -6   50.66    2.95
  -6   2   6   51.76    3.48
   6  -2  -5  178.97    6.14
  -6   2   5  160.81    7.27
  -6   2   5  167.22    4.82
   6  -2  -4   64.95    2.99
   6  -2  -4   61.01    3.75
  -6   2   4   63.11    2.53
   6  -2  -3    3.96    0.93
   6  -2  -3    4.38    1.14
  -6   2   3    2.33    0.79
   6  -2  -2    0.97    0.74
   6  -2  -2    2.24    1.01
  -6   2   2    1.73    0.80
   6  -2  -1    0.68    0.53
   6  -2  -1   -0.04    0.87
  -6   2   1    0.59    0.71
   6  -2   0    0.63    1.09
   6  -2   0    0.66    0.48
  -6   2   0    0.68    0.82
   6  -2   1  213.22    7.96
  -6   2  -1  203.23    6.61
   6  -2   2   51.70    3.17
  -6   2  -2   46.82    2.79
   6  -2   3    5.36    1.41
  -6   2  -3    5.76    1.33
   6  -2   4   10.08    1.97
  -6   2  -4    9.17    1.78
   6  -2   5  384.95   13.36
  -6   2  -5  375.57   14.65
   6  -2   6    3.32    1.39
  -6   2  -6    5.13    1.50
   6  -2   7   72.40    4.54
  -6   2  -7   74.24    4.81
   6  -2   8   -0.16    1.27
  -6   2  -8    0.56    1.15
   6  -2   9    0.51    1.11
  -6   2  -9   -0.14    1.59
   6  -2  10    1.56    1.43
  -6   2 -10    0.24    1.49
   6  -2  11   12.27    2.38
  -6   2 -11    5.78    2.59
   6  -2  12    8.24    2.00
  -6   2 -12    8.89    3.03
   6  -2  13   -1.75    1.69
  -6   2 -13    3.55    2.06
   6  -1 -14    1.26    1.61
  -6   1  14   -0.54    1.07
   6  -1 -13    0.61    1.85
  -6   1  13    1.31    1.30
   6  -1 -12    1.87    1.64
  -6   1  12    0.27    1.31
   6  -1 -11   25.27    3.90
  -6   1  11   22.83    3.07
   6  -1 -10   18.25    2.51
  -6   1  10   13.84    2.60
   6  -1  -9    9.63    2.29
  -6   1   9    5.97    1.64
   6  -1  -8   12.08    1.96
  -6   1   8   13.25    1.88
   6  -1  -7  102.89    5.49
  -6   1   7  102.39    5.51
   6  -1  -6    2.73    1.13
  -6   1   6    4.15    1.46
   6  -1  -5  163.53    5.67
  -6   1   5  148.77    6.42
  -6   1   5  128.98    3.55
   6  -1  -4    0.84    0.87
   6  -1  -4    1.21    0.81
  -6   1   4    0.15    0.47
   6  -1  -3    1.74    1.02
   6  -1  -3    3.71    0.98
  -6   1   3    2.01    0.66
   6  -1  -2    1.42    0.82
   6  -1  -2    2.74    0.98
  -6   1   2    3.15    0.66
   6  -1  -1    3.11    0.79
   6  -1  -1    3.00    1.11
  -6   1   1    5.20    0.90
   6  -1   0    1.30    0.79
   6  -1   0    0.09    0.56
   6  -1   1   35.97    2.67
   6  -1   1   37.34    1.46
  -6   1  -1   40.34    2.32
   6  -1   2    7.22    1.39
   6  -1   2    3.73    0.53
  -6   1  -2    4.40    1.02
   6  -1   3   26.10    2.39
  -6   1  -3   30.17    2.40
   6  -1   4   89.55    4.27
  -6   1  -4   92.11    4.56
   6  -1   5    1.84    1.08
  -6   1  -5    0.01    0.96
   6  -1   6  213.90    8.54
  -6   1  -6  206.15    8.22
   6  -1   7  140.37    6.35
  -6   1  -7  159.27    6.70
   6  -1   8   80.92    4.58
  -6   1  -8   79.50    4.97
   6  -1   9   17.96    2.29
  -6   1  -9   10.74    2.22
   6  -1  10    1.62    1.19
  -6   1 -10    1.66    1.37
   6  -1  11    3.60    1.44
  -6   1 -11    1.79    1.95
   6  -1  12   -0.49    1.09
  -6   1 -12    0.23    1.32
   6  -1  13   -0.80    1.53
  -6   1 -13    0.35    1.40
   6   0 -14   -2.23    2.08
  -6   0  14    2.71    1.45
   6   0 -13    0.21    2.29
  -6   0  13    3.62    1.87
   6   0 -12    2.95    2.16
  -6   0  12    1.91    1.75
   6   0 -11    5.82    2.71
  -6   0  11    8.52    1.76
   6   0 -10   18.26    2.65
  -6   0  10   17.90    2.60
   6   0  -9   49.97    3.40
  -6   0   9   38.62    3.23
   6   0  -8   49.64    3.35
  -6   0   8   48.85    3.77
   6   0  -7  121.93    5.60
  -6   0   7  115.47    5.68
   6   0  -6  268.51    9.09
  -6   0   6  281.25   10.56
   6   0  -5    2.95    1.00
  -6   0   5    1.51    1.08
   6   0  -4   18.94    1.57
  -6   0   4   16.17    0.83
  -6   0   4   18.20    2.18
   6   0  -3   27.29    2.38
   6   0  -3   30.18    1.96
  -6   0   3   32.35    1.25
   6   0  -2    6.03    1.09
   6   0  -2    8.20    1.05
  -6   0   2    6.08    0.79
   6   0  -1    3.57    1.01
   6   0  -1    3.16    0.82
  -6   0   1    5.83    0.78
   6   0   0    5.01    1.05
   6   0   0    4.81    0.81
  -6   0   0    3.60    0.93
   6   0   1   23.16    1.82
   6   0   1   23.02    1.19
  -6   0  -1   25.79    1.54
   6   0   2    2.45    0.50
   6   0   2    2.23    0.90
  -6   0  -2    2.16    0.96
   6   0   3    3.06    0.39
   6   0   3    4.28    0.99
  -6   0  -3    2.43    0.96
   6   0   4   58.11    2.94
  -6   0  -4   59.91    3.31
   6   0   5    9.30    1.33
  -6   0  -5    8.56    1.69
   6   0   6  323.96   10.55
  -6   0  -6  326.80   12.05
   6   0   7   61.44    3.50
  -6   0  -7   64.19    4.31
   6   0   8    0.13    1.08
  -6   0  -8    0.88    1.18
   6   0   9    7.61    1.78
  -6   0  -9    8.51    2.01
   6   0  10   15.54    1.87
  -6   0 -10   19.74    3.05
   6   0  11   -1.02    1.04
  -6   0 -11   -0.74    1.39
   6   0  12    1.51    1.17
  -6   0 -12    0.57    1.55
   6   0  13   -1.95    1.55
  -6   0 -13    0.09    1.65
   6   0  14    8.27    2.07
  -6   0 -14    9.22    2.68
   6   1 -14    3.42    3.11
  -6  -1  14    4.31    1.96
   6   1 -13    2.06    2.24
  -6  -1  13   -0.78    1.09
   6   1 -12    2.40    1.94
  -6  -1  12    1.38    1.77
   6   1 -11   -0.09    1.48
  -6  -1  11   -0.59    1.06
   6   1 -10   11.65    2.50
  -6  -1  10   11.85    1.96
   6   1  -9   35.14    3.45
  -6  -1   9   33.63    2.77
   6   1  -8    5.59    1.61
  -6  -1   8    4.75    1.72
   6   1  -7    9.51    1.94
  -6  -1   7    6.30    1.50
   6   1  -6    1.08    1.43
  -6  -1   6    2.22    1.05
   6   1  -5   10.13    1.46
  -6  -1   5   10.23    1.57
   6   1  -4   96.69    4.00
  -6  -1   4  107.90    4.39
   6   1  -3    4.11    0.93
  -6  -1   3    5.84    1.33
  -6  -1   3    3.89    0.44
   6   1  -2    1.67    0.65
   6   1  -2    1.51    0.78
  -6  -1   2    0.47    0.41
   6   1  -1   44.28    2.31
   6   1  -1   46.29    2.06
  -6  -1   1   47.08    1.81
   6   1   0    8.27    1.45
   6   1   0    8.18    0.87
  -6  -1   0    8.74    1.02
   6   1   1    3.32    0.89
   6   1   1    2.65    0.69
  -6  -1  -1    3.69    0.90
   6   1   2    2.95    0.67
   6   1   2    6.63    0.96
  -6  -1  -2    4.15    0.92
   6   1   3    9.51    0.71
   6   1   3   12.06    1.19
  -6  -1  -3   10.71    1.37
   6   1   4   16.32    1.49
  -6  -1  -4   15.49    1.98
  -6  -1  -4   20.93    0.86
   6   1   5   26.63    1.71
  -6  -1  -5   29.90    2.44
  -6  -1  -5   22.50    0.88
   6   1   6   58.75    2.93
  -6  -1  -6   61.76    3.68
   6   1   7  125.07    5.26
  -6  -1  -7  118.91    5.64
   6   1   8   18.42    1.87
  -6  -1  -8   13.25    2.14
   6   1   9   -0.87    1.03
  -6  -1  -9    0.35    1.41
   6   1  10    5.86    1.39
  -6  -1 -10    3.13    2.20
   6   1  11    2.24    1.08
  -6  -1 -11    1.57    1.93
   6   1  12    0.60    0.96
  -6  -1 -12   -2.88    1.74
   6   1  13    0.55    1.51
  -6  -1 -13    3.77    2.26
   6   1  14   -1.00    1.20
  -6  -1 -14    0.22    1.70
   6   2 -14    0.60    2.37
  -6  -2  14    3.36    1.86
   6   2 -13   -1.24    1.60
  -6  -2  13    0.39    1.09
   6   2 -12    2.66    1.98
  -6  -2  12   -0.17    1.21
   6   2 -11    0.38    1.52
  -6  -2  11    1.57    1.21
   6   2 -10   22.40    2.66
  -6  -2  10   21.63    2.76
   6   2  -9   11.46    2.10
  -6  -2   9   13.03    1.81
   6   2  -8    5.03    1.71
  -6  -2   8    2.17    1.17
   6   2  -7   -0.61    0.99
  -6  -2   7    1.68    1.10
   6   2  -6   10.61    1.62
  -6  -2   6   10.05    1.57
   6   2  -5   26.86    2.22
  -6  -2   5   31.71    2.22
   6   2  -4    8.15    1.28
  -6  -2   4    6.52    1.34
   6   2  -3    2.02    0.99
  -6  -2   3    1.32    0.82
  -6  -2   3    0.81    0.27
   6   2  -2   11.48    1.45
  -6  -2   2   14.21    1.34
  -6  -2   2    9.70    0.68
   6   2  -1    3.52    0.88
   6   2  -1    3.36    0.97
  -6  -2   1    3.96    0.69
   6   2   0    0.09    0.58
   6   2   0   -0.44    0.64
  -6  -2   0   -0.23    0.53
   6   2   1   25.68    1.88
   6   2   1   23.94    1.50
  -6  -2  -1   19.92    1.33
   6   2   2   97.67    3.10
   6   2   2  100.00    3.58
  -6  -2  -2   97.40    3.77
   6   2   3   56.30    1.92
   6   2   3   51.00    2.61
  -6  -2  -3   50.15    2.62
   6   2   4   34.99    2.06
  -6  -2  -4   34.56    1.49
   6   2   5    0.45    0.90
  -6  -2  -5    1.70    0.44
   6   2   6   18.27    1.68
  -6  -2  -6   18.09    1.02
   6   2   7   48.33    2.64
  -6  -2  -7   39.07    1.52
   6   2   8   15.47    1.83
  -6  -2  -8   14.85    1.98
  -6  -2  -8   15.37    1.12
   6   2   9    0.99    0.84
  -6  -2  -9    0.09    1.05
  -6  -2  -9   -0.11    0.51
   6   2  10   13.86    1.83
  -6  -2 -10   12.03    2.09
   6   2  11    1.77    1.15
  -6  -2 -11    0.17    1.75
   6   2  12    6.72    1.68
  -6  -2 -12    6.66    1.93
   6   2  13    0.83    1.29
  -6  -2 -13    1.28    2.08
   6   2  14    1.33    1.40
  -6  -2 -14    0.06    1.73
   6   2  15    1.45    1.61
  -6  -2 -15    2.02    2.50
   6   3 -13    1.99    2.42
  -6  -3  13    3.71    1.62
   6   3 -12   11.45    2.49
  -6  -3  12    0.45    1.47
   6   3 -11    2.98    1.79
  -6  -3  11   -0.56    1.02
   6   3 -10    9.35    2.15
  -6  -3  10    6.98    2.01
   6   3  -9    8.28    2.09
  -6  -3   9    3.42    1.40
   6   3  -8    0.87    1.15
  -6  -3   8   -1.72    0.93
   6   3  -7    8.57    1.58
  -6  -3   7    5.14    1.32
   6   3  -6    9.02    1.64
  -6  -3   6   10.88    1.51
   6   3  -5    4.91    1.28
  -6  -3   5    6.42    1.47
   6   3  -4   16.04    1.65
  -6  -3   4   17.82    1.60
   6   3  -3   -0.86    0.75
  -6  -3   3    0.21    0.92
   6   3  -2    1.69    0.72
  -6  -3   2    0.51    0.73
  -6  -3   2    0.16    0.42
   6   3  -1   11.04    1.19
  -6  -3   1   10.33    0.71
  -6  -3   1   10.95    1.35
   6   3   0   38.53    1.61
   6   3   0   40.72    1.97
   6   3   0   37.44    2.18
   6   3   1   29.01    1.74
   6   3   1   25.73    1.49
   6   3   1   23.31    1.45
   6   3   2    4.38    0.88
   6   3   2    5.41    0.89
   6   3   2    3.37    1.01
   6   3   3    4.27    0.93
   6   3   3    3.63    0.78
   6   3   3    4.03    0.84
   6   3   4   13.89    1.31
   6   3   4   12.94    1.11
  -6  -3  -4   15.78    1.21
   6   3   5   17.37    1.60
   6   3   5   20.13    1.29
  -6  -3  -5   16.76    1.11
   6   3   6   22.83    1.88
   6   3   6   25.38    1.73
  -6  -3  -6   24.68    1.29
   6   3   7   84.07    4.48
   6   3   7   89.57    3.29
  -6  -3  -7   86.03    2.82
   6   3   8   -0.26    0.55
   6   3   8    1.54    0.96
  -6  -3  -8   -0.29    0.53
   6   3   9    2.29    1.20
   6   3   9    2.43    0.96
  -6  -3  -9    1.53    0.82
   6   3  10   36.59    2.94
   6   3  10   43.19    2.59
  -6  -3 -10   38.19    2.20
   6   3  11    1.32    1.50
   6   3  11    2.05    1.18
  -6  -3 -11    1.94    0.88
   6   3  12    1.06    1.43
   6   3  12    2.77    1.19
   6   3  13   -0.48    1.20
  -6  -3 -13   -1.56    1.51
   6   3  14    1.20    1.37
  -6  -3 -14    0.76    1.63
   6   3  15    3.49    1.43
  -6  -3 -15    3.15    2.55
   6   4 -13    0.42    1.80
   6   4 -12    0.69    1.76
  -6  -4  12   -1.72    1.50
   6   4 -11    4.35    1.94
  -6  -4  11    3.77    1.73
   6   4 -10    6.19    2.29
  -6  -4  10    9.30    1.96
   6   4  -9   13.26    2.07
  -6  -4   9   11.09    1.77
   6   4  -8    1.33    1.32
  -6  -4   8    2.33    1.04
   6   4  -7    3.43    1.42
  -6  -4   7    4.10    1.16
   6   4  -6    1.06    1.29
  -6  -4   6    0.54    1.03
   6   4  -5    1.50    1.45
  -6  -4   5    3.80    1.24
   6   4  -4   19.99    1.91
  -6  -4   4   21.62    1.66
   6   4  -3    2.84    1.42
  -6  -4   3    5.44    1.21
   6   4  -2   24.44    1.11
   6   4  -2   28.10    2.10
  -6  -4   2   22.90    1.64
   6   4  -1   17.56    0.96
   6   4  -1   16.23    1.53
  -6  -4   1   17.31    1.64
   6   4   0   23.58    1.28
   6   4   0   25.70    1.73
  -6  -4   0   19.10    1.69
   6   4   1  163.80    5.21
   6   4   1  155.88    4.55
   6   4   1  156.54    4.77
   6   4   2   98.31    3.31
   6   4   2   98.11    3.35
   6   4   3    7.26    1.08
   6   4   3    5.08    0.99
   6   4   3    4.38    0.92
   6   4   4   16.90    1.38
   6   4   4   18.05    1.40
  -6  -4  -4   17.75    1.37
   6   4   5    3.50    0.93
   6   4   5    4.23    0.84
  -6  -4  -5    3.66    0.76
   6   4   6   38.94    2.46
   6   4   6   43.69    2.12
  -6  -4  -6   44.10    2.08
   6   4   7    1.56    1.28
   6   4   7    3.19    0.84
  -6  -4  -7    2.36    0.82
   6   4   8    0.28    0.46
   6   4   8    0.09    0.80
  -6  -4  -8   -0.42    0.59
   6   4   9   14.29    2.50
   6   4   9   20.01    1.62
  -6  -4  -9   19.79    1.61
   6   4  10   12.16    1.93
   6   4  10   13.45    1.47
  -6  -4 -10    9.73    1.48
   6   4  11    1.90    1.35
   6   4  11    3.98    1.12
  -6  -4 -11    3.92    1.11
   6   4  12    7.02    2.31
   6   4  12    8.89    1.28
  -6  -4 -12    5.66    1.44
   6   4  13    0.40    1.47
   6   4  13    1.12    0.91
  -6  -4 -13   -0.71    0.87
   6   4  14    0.76    2.18
   6   4  14    5.04    1.42
  -6  -4 -15    0.46    1.16
   6   5 -13    3.09    2.55
  -6  -5  13    0.59    1.93
   6   5 -12    2.29    2.60
  -6  -5  12    2.43    1.55
   6   5 -11    3.13    2.77
  -6  -5  11    6.51    1.67
   6   5 -10    9.23    2.77
  -6  -5  10    5.17    1.77
   6   5  -9    5.11    1.89
  -6  -5   9    5.53    1.73
   6   5  -8    2.63    1.50
  -6  -5   8    2.17    1.32
   6   5  -7    4.77    1.46
  -6  -5   7    4.02    1.32
   6   5  -6    6.27    1.51
  -6  -5   6    3.71    1.09
   6   5  -5    6.30    2.03
  -6  -5   5   35.42    2.16
   6   5  -4    1.04    1.30
  -6  -5   4    3.62    1.05
   6   5  -3    7.35    1.40
  -6  -5   3    8.24    1.29
   6   5  -2   11.76    0.85
   6   5  -2    9.85    1.71
  -6  -5   2    7.69    1.16
   6   5  -1    6.10    0.76
   6   5  -1    7.02    1.28
  -6  -5   1    7.79    0.98
   6   5   0    0.67    1.05
   6   5   0    2.26    0.68
  -6  -5   0    2.07    0.86
   6   5   1   77.09    3.40
   6   5   1   86.08    3.14
  -6  -5  -1   83.76    3.21
   6   5   2   10.53    1.08
   6   5   2   12.98    1.39
   6   5   3    0.13    0.57
   6   5   3   -0.42    0.54
   6   5   4   31.43    2.23
   6   5   4   33.24    1.70
  -6  -5  -4   32.29    2.00
   6   5   5   21.93    1.73
   6   5   5   20.30    1.33
  -6  -5  -5   21.65    1.44
   6   5   6   -0.65    0.78
   6   5   6    0.43    0.51
  -6  -5  -6    0.56    0.63
   6   5   7    8.16    1.57
   6   5   7    4.32    0.90
  -6  -5  -7    5.94    0.96
   6   5   8    1.98    1.45
   6   5   8    3.71    0.92
  -6  -5  -8    2.51    0.85
   6   5   9    3.04    1.34
   6   5   9    3.92    0.82
  -6  -5  -9    5.58    1.18
   6   5  10    1.88    1.17
   6   5  10   -0.16    0.71
  -6  -5 -10    0.80    0.80
   6   5  11   27.04    2.91
   6   5  11   28.91    2.09
  -6  -5 -11   33.96    2.50
   6   5  12    1.96    1.86
   6   5  12    1.92    0.95
  -6  -5 -12    1.39    1.22
   6   5  13    2.80    2.10
  -6  -5 -13    4.28    1.44
   6   5  14    2.65    1.68
  -6  -5 -14    1.09    1.28
   6   5  15   -0.77    1.60
   6   6 -12    3.90    2.10
  -6  -6  12    0.62    1.83
   6   6 -11    1.26    1.89
  -6  -6  11    2.08    1.42
   6   6 -10   58.86    5.67
  -6  -6  10   58.04    4.20
   6   6  -9    2.26    1.58
  -6  -6   9    1.76    1.12
   6   6  -8    0.55    1.33
  -6  -6   8   -1.13    0.88
   6   6  -7    5.61    1.57
  -6  -6   7    2.76    1.36
   6   6  -6   12.16    1.88
  -6  -6   6   11.07    1.43
   6   6  -5    0.33    1.36
  -6  -6   5    5.51    1.08
   6   6  -4   34.27    2.74
  -6  -6   4   27.73    2.11
   6   6  -3   -0.02    0.38
   6   6  -3   -0.25    0.84
  -6  -6   3   -0.50    0.55
   6   6  -2   23.45    1.23
   6   6  -2   21.41    2.03
  -6  -6   2   21.28    1.61
   6   6  -1    2.68    0.97
   6   6  -1    1.98    0.69
  -6  -6   1    3.64    0.80
   6   6   0   42.31    1.98
   6   6   0   35.86    2.41
  -6  -6   0   38.30    1.91
   6   6   1    0.84    0.70
   6   6   1    1.75    0.96
  -6  -6  -1    0.47    0.59
   6   6   2  109.16    4.20
   6   6   2  115.30    4.58
  -6  -6  -2  115.63    3.71
   6   6   3    8.37    1.17
   6   6   3   10.36    1.19
  -6  -6  -3    9.53    0.94
   6   6   4    9.45    1.15
   6   6   4    7.36    0.79
  -6  -6  -4    5.59    1.23
   6   6   5  152.71    5.80
  -6  -6  -5  148.08    5.08
   6   6   6    0.26    0.74
   6   6   6   -0.47    0.45
  -6  -6  -6    0.40    0.56
   6   6   7   13.40    1.67
   6   6   7    8.63    1.04
  -6  -6  -7   12.06    1.56
   6   6   8   17.87    2.32
   6   6   8   13.72    1.20
  -6  -6  -8   18.29    1.58
   6   6   9   23.54    2.72
   6   6   9   17.74    1.48
  -6  -6  -9   21.71    1.80
   6   6  10    6.07    1.41
   6   6  10    1.86    0.81
  -6  -6 -10    0.21    1.32
   6   6  11   -0.46    1.19
  -6  -6 -11    1.12    1.12
   6   6  12    5.55    2.26
  -6  -6 -12    5.41    1.72
   6   6  13    7.88    2.28
  -6  -6 -13    9.07    1.96
   6   6  14    1.36    1.65
  -6  -6 -14    0.85    1.32
   6   6  15    9.24    3.06
  -6  -6 -15   11.36    2.26
   6   7 -12    2.04    1.85
  -6  -7  12   -0.30    1.46
   6   7 -11    0.51    1.89
  -6  -7  11    1.74    1.30
   6   7 -10    3.61    2.15
  -6  -7  10    1.03    1.25
   6   7  -9   -0.68    1.36
  -6  -7   9   -0.06    1.18
   6   7  -8    2.77    1.56
  -6  -7   8    1.20    1.06
   6   7  -7    8.84    2.32
  -6  -7   7    6.83    1.30
   6   7  -6    2.60    1.39
  -6  -7   6    2.34    1.04
   6   7  -5    6.57    1.82
  -6  -7   5    3.26    0.94
   6   7  -4    8.45    1.61
   6   7  -4    7.19    0.77
  -6  -7   4    8.38    1.24
   6   7  -3    1.04    0.51
   6   7  -3    0.36    1.06
  -6  -7   3    0.37    0.74
   6   7  -2    0.48    1.29
   6   7  -2    0.91    0.59
  -6  -7   2    1.80    0.72
   6   7  -1    9.78    1.02
   6   7  -1    9.03    1.67
  -6  -7   1    8.80    0.98
   6   7   0   -0.48    0.59
   6   7   0    1.52    0.73
  -6  -7   0   -0.39    0.47
   6   7   1   55.82    2.72
   6   7   1   55.88    2.99
  -6  -7  -1   55.07    2.03
   6   7   2    8.44    1.10
   6   7   2    5.96    1.38
  -6  -7  -2    6.68    0.82
   6   7   3    2.69    0.90
  -6  -7  -3    2.22    0.59
  -6  -7  -3    2.60    0.97
   6   7   4    0.75    0.90
  -6  -7  -4    0.13    0.44
  -6  -7  -4   -0.01    0.64
   6   7   5    4.15    1.17
  -6  -7  -5    2.87    0.61
  -6  -7  -5    4.42    0.95
   6   7   6   33.31    2.56
  -6  -7  -6   36.08    2.31
   6   7   7    5.78    1.59
  -6  -7  -7    5.56    1.17
   6   7   8   18.67    2.20
  -6  -7  -8   20.41    2.14
   6   7   9    0.41    1.68
  -6  -7  -9    3.39    1.06
   6   7  10    4.68    1.56
  -6  -7 -10    4.68    1.62
   6   7  11    0.69    1.31
  -6  -7 -11    1.17    1.45
   6   7  12    1.55    1.48
  -6  -7 -12    1.82    1.58
   6   7  13    3.70    1.84
  -6  -7 -13    4.36    1.77
   6   7  14    0.19    1.61
  -6  -7 -14    1.74    1.27
   6   7  15    1.07    2.15
  -6  -7 -15    3.63    1.79
   6   8 -11    0.34    1.73
  -6  -8  11   -1.26    1.19
   6   8 -10    4.88    2.80
  -6  -8  10    5.33    1.66
   6   8  -9   -1.20    1.46
  -6  -8   9   -0.64    1.17
   6   8  -8   -0.51    1.35
  -6  -8   8    1.25    1.01
   6   8  -7    0.53    2.03
  -6  -8   7    4.41    1.15
   6   8  -6   -0.44    1.61
  -6  -8   6   -0.46    0.83
   6   8  -5   46.08    4.21
  -6  -8   5   40.55    2.36
   6   8  -4   14.20    2.04
   6   8  -4    9.46    1.07
  -6  -8   4   10.32    1.14
   6   8  -3    1.49    1.11
   6   8  -3    0.65    0.71
  -6  -8   3    0.26    0.55
   6   8  -2    0.62    1.19
   6   8  -2    1.20    0.74
  -6  -8   2    1.33    0.60
   6   8  -1   13.90    1.80
   6   8  -1   13.17    1.28
  -6  -8   1   10.26    0.92
   6   8   0   22.77    2.25
   6   8   0   25.31    1.81
  -6  -8   0   23.08    1.35
   6   8   1   51.91    3.44
   6   8   1   56.29    2.82
  -6  -8  -1   51.16    1.87
   6   8   2    1.22    0.93
   6   8   2    7.17    1.16
  -6  -8  -2    2.94    0.50
   6   8   3   -1.39    0.81
  -6  -8  -3    0.19    0.28
  -6  -8  -3   -0.03    0.92
   6   8   4    4.11    1.15
  -6  -8  -4    4.44    1.08
   6   8   5   18.13    2.21
  -6  -8  -5   15.67    1.66
   6   8   6   25.30    2.05
  -6  -8  -6    9.31    1.87
   6   8   7   -0.28    1.22
  -6  -8  -7   -0.47    1.00
   6   8   8    8.28    1.64
  -6  -8  -8    7.95    1.46
   6   8   9    3.23    1.49
  -6  -8  -9    3.49    1.27
   6   8  10    4.08    1.55
  -6  -8 -10    3.76    1.39
   6   8  11   -0.44    1.40
  -6  -8 -11    0.83    1.22
   6   8  12   14.47    3.36
  -6  -8 -12   16.18    2.88
   6   8  13    4.32    2.22
  -6  -8 -13    6.38    1.88
   6   8  14    0.15    1.82
  -6  -8 -14   -0.07    1.23
   6   8  15   -0.44    1.86
  -6  -8 -15    0.38    1.49
   6   9 -10   -1.14    2.56
  -6  -9  10    5.58    1.96
   6   9  -9    6.83    2.60
  -6  -9   9    1.09    1.64
   6   9  -8   -1.45    1.83
  -6  -9   8    0.85    1.01
   6   9  -7    0.80    1.97
  -6  -9   7    1.56    1.08
   6   9  -6    7.66    2.51
  -6  -9   6    9.13    1.65
   6   9  -5   14.39    2.78
  -6  -9   5   15.51    1.56
   6   9  -4    1.49    1.14
   6   9  -4   -0.13    0.64
  -6  -9   4   -1.08    0.82
   6   9  -3    5.33    1.95
   6   9  -3    3.78    0.99
  -6  -9   3    5.91    1.10
   6   9  -2    0.89    1.35
   6   9  -2    1.86    0.94
  -6  -9   2    2.96    0.84
   6   9  -1   -0.85    0.90
   6   9  -1    0.51    0.75
  -6  -9   1    0.12    0.42
   6   9   0    0.45    0.89
   6   9   0    0.95    0.77
  -6  -9   0   -0.45    0.48
   6   9   1    0.09    1.02
   6   9   1    0.95    0.83
  -6  -9  -1    1.49    0.51
   6   9   2    0.54    1.07
  -6  -9  -2    4.29    1.29
  -6  -9  -2    1.47    0.43
   6   9   3    1.56    1.00
  -6  -9  -3    2.97    1.06
   6   9   4   -0.96    1.08
  -6  -9  -4   -0.25    1.06
   6   9   5   -0.30    1.02
  -6  -9  -5   -0.78    1.10
   6   9   6    7.28    1.56
  -6  -9  -6    7.26    1.34
   6   9   7    6.60    1.73
  -6  -9  -7    4.77    1.44
   6   9   8    1.10    1.12
  -6  -9  -8   -1.57    1.08
   6   9   9   -1.54    1.49
  -6  -9  -9    0.02    1.35
   6   9  10    1.20    1.74
  -6  -9 -10    0.61    1.19
   6   9  11    2.85    1.66
  -6  -9 -11   -0.88    1.68
   6   9  12   10.23    2.94
  -6  -9 -12    8.50    2.10
   6   9  13    2.78    2.16
  -6  -9 -13   -0.03    1.45
   6   9  14   -0.02    1.56
  -6  -9 -14    0.18    1.54
   6  10  -9    0.15    2.09
  -6 -10   9    1.54    1.28
   6  10  -8    0.84    2.35
  -6 -10   8    3.87    1.64
   6  10  -7    1.45    1.68
  -6 -10   7   -0.36    1.16
   6  10  -6    1.82    1.82
  -6 -10   6    0.32    0.93
   6  10  -5    8.13    2.29
  -6 -10   5    3.77    1.14
   6  10  -4    4.09    2.27
   6  10  -4    3.25    1.13
  -6 -10   4    6.18    1.26
   6  10  -3    2.30    1.44
   6  10  -3    0.43    1.00
  -6 -10   3    1.51    0.92
   6  10  -2    0.51    1.23
   6  10  -2    1.62    1.01
  -6 -10   2    0.85    0.69
   6  10  -1   -0.28    1.05
   6  10  -1    0.46    0.87
  -6 -10   1    0.05    0.62
   6  10   0    4.04    1.51
   6  10   0    3.13    1.20
  -6 -10   0    0.60    0.69
   6  10   1    0.32    1.06
  -6 -10  -1   -1.72    1.19
  -6 -10  -1    0.87    0.53
   6  10   2    2.13    1.10
  -6 -10  -2    5.60    1.64
   6  10   3    2.94    1.31
  -6 -10  -3    0.57    1.58
   6  10   4    0.57    1.00
  -6 -10  -4    0.68    1.01
   6  10   5    1.88    1.36
  -6 -10  -5    0.68    1.08
   6  10   6    8.11    1.93
  -6 -10  -6   11.31    1.99
   6  10   7    2.70    1.39
  -6 -10  -7    3.17    1.34
   6  10   8    0.09    1.94
  -6 -10  -8    2.29    1.33
   6  10   9   -1.69    1.23
  -6 -10  -9    2.24    1.35
   6  10  10    1.48    1.60
  -6 -10 -10    0.53    1.55
   6  10  11    3.32    2.13
  -6 -10 -11   -0.40    1.40
   6  10  12   15.24    3.82
  -6 -10 -12   15.31    2.75
   6  10  13    0.82    1.78
  -6 -10 -13   -1.53    1.51
   6  10  14    3.11    2.09
  -6 -10 -14    0.60    1.99
   6  11  -8   -0.53    1.63
  -6 -11   8    0.32    1.19
   6  11  -7    2.91    2.01
  -6 -11   7    2.85    1.64
   6  11  -6   -1.88    1.62
  -6 -11   6    1.12    1.10
   6  11  -5   10.49    2.69
  -6 -11   5   12.59    1.62
   6  11  -4   15.78    3.27
   6  11  -4   21.28    2.10
  -6 -11   4   14.14    1.98
   6  11  -3   -0.93    1.60
   6  11  -3    0.42    1.03
  -6 -11   3    1.49    0.96
   6  11  -2   -3.07    1.42
   6  11  -2    0.41    0.98
  -6 -11   2    0.33    0.77
   6  11  -1   -0.05    1.24
   6  11  -1    1.16    1.20
  -6 -11   1    0.50    0.72
   6  11   0    7.23    1.50
  -6 -11   0    5.92    1.69
  -6 -11   0    3.60    0.95
   6  11   1   19.13    2.64
  -6 -11  -1   25.84    2.72
   6  11   2    2.82    1.58
  -6 -11  -2    1.91    1.81
   6  11   3    5.08    1.59
  -6 -11  -3    6.10    1.59
   6  11   4   -0.34    1.40
  -6 -11  -4    0.89    1.08
   6  11   5   11.86    2.08
  -6 -11  -5   13.82    1.92
   6  11   6    1.26    1.73
  -6 -11  -6    3.61    1.37
   6  11   7   12.30    2.39
  -6 -11  -7   10.58    2.10
   6  11   8    1.25    2.22
  -6 -11  -8    3.81    1.52
   6  11   9   -1.75    2.18
   6  11  10    1.69    1.89
  -6 -11 -10    3.74    2.00
   6  11  11    5.03    2.15
  -6 -11 -11    1.24    2.30
   6  11  12    6.91    3.45
  -6 -11 -12    8.95    2.84
   6  11  13    2.88    2.54
  -6 -11 -13    3.91    2.57
   6  12  -6    1.20    1.65
  -6 -12   6    1.90    1.20
   6  12  -5    0.56    1.45
  -6 -12   5   -0.87    1.14
   6  12  -4    7.10    2.09
  -6 -12   4    5.62    1.56
   6  12  -3    0.88    1.34
   6  12  -3   -0.20    1.13
  -6 -12   3    0.35    0.82
   6  12  -2   -0.55    2.02
   6  12  -2    0.69    1.36
  -6 -12   2    2.43    1.03
   6  12  -1    6.43    2.03
  -6 -12   1    5.66    2.16
   6  12   0    1.06    1.21
  -6 -12   0    1.21    1.43
   6  12   1    7.66    1.73
  -6 -12  -1    4.94    1.87
   6  12   2   -1.61    1.26
  -6 -12  -2    1.05    1.46
   6  12   3    2.49    1.62
  -6 -12  -3    4.35    1.62
   6  12   4    1.29    1.76
  -6 -12  -4    1.10    1.23
   6  12   5    3.79    1.84
  -6 -12  -5    5.68    1.66
   6  12   6   19.57    3.66
  -6 -12  -6   35.58    3.60
   6  12   7    9.20    2.29
  -6 -12  -7   11.11    2.05
   6  12   8    1.34    2.19
  -6 -12  -8    2.56    1.60
   6  12   9    6.81    2.38
  -6 -12  -9    5.88    2.19
   6  12  10    0.96    2.66
  -6 -12 -10    2.34    1.77
   6  12  11    4.18    3.11
  -6 -12 -11    7.03    2.26
   6  12  12    5.06    2.74
  -6 -12 -12    2.87    2.85
   6  13  -4    1.04    1.99
   6  13  -3   -1.12    1.50
  -6 -13   3   -0.13    1.69
   6  13  -2   -0.57    1.47
  -6 -13   2   -0.19    1.96
   6  13  -1    1.03    1.44
  -6 -13   1   -3.11    1.60
   6  13   0    7.50    2.35
  -6 -13   0    7.75    2.55
   6  13   1    0.46    1.50
  -6 -13  -1    2.77    1.81
   6  13   2    2.23    1.67
  -6 -13  -2    4.56    2.04
  -6 -13  -3    0.21    1.56
   6  13   4    0.12    1.25
  -6 -13  -4   -0.38    1.49
   6  13   5    1.79    2.13
  -6 -13  -5    1.59    1.55
   6  13   6    5.34    2.15
  -6 -13  -6    4.41    1.96
   6  13   7    5.96    2.14
  -6 -13  -7    6.00    2.59
   6  13   8    2.54    2.66
  -6 -13  -8    4.13    1.84
   6  13   9    1.46    2.10
  -6 -13  -9    1.75    1.99
   6  13  10    3.24    2.42
  -6 -13 -10    3.19    2.07
   6  14  -2    0.36    1.56
  -6 -14   2    0.26    1.84
   6  14  -1    2.07    1.69
  -6 -14   1    0.74    1.74
   6  14   0    0.83    2.11
  -6 -14   0    2.31    1.73
   6  14   1   14.40    3.20
  -6 -14  -1   26.20    3.21
   6  14   2   -1.27    2.04
  -6 -14  -2   -0.84    1.81
   6  14   3    1.19    2.05
  -6 -14  -3   -2.30    1.59
   6  14   4    0.21    1.72
  -6 -14  -4   -0.01    1.40
   6  14   5    1.01    2.38
  -6 -14  -5    2.01    1.67
   6  14   6    2.93    2.68
  -6 -14  -6    3.05    1.99
   6  14   7    5.47    2.07
  -6 -14  -7    0.23    1.99
   6  14   8    4.49    2.68
  -6 -14  -8   -0.38    2.48
   7  -8  -4   -1.77    1.89
  -7   8   4   -0.55    1.35
   7  -8  -3    3.59    1.81
  -7   8   3   -0.34    1.75
   7  -8  -2    1.34    1.72
  -7   8   2    1.49    1.81
   7  -8  -1    0.77    1.41
  -7   8   1   -0.57    1.45
   7  -8   0    1.65    2.03
  -7   8   0    0.22    1.40
   7  -7  -7    2.90    1.88
  -7   7   7    2.03    2.29
   7  -7  -6    8.45    2.56
  -7   7   6    6.25    1.76
   7  -7  -5    3.47    1.98
  -7   7   5    5.84    1.83
   7  -7  -4    2.64    1.68
  -7   7   4   -0.57    1.06
   7  -7  -3    0.06    1.61
  -7   7   3    2.59    1.32
   7  -7  -2   -0.16    1.69
  -7   7   2   -0.26    1.36
   7  -7  -1   10.24    2.51
  -7   7   1    2.78    2.29
   7  -7   0   -0.38    1.44
  -7   7   0    0.78    1.44
   7  -7   1   -1.05    1.92
  -7   7  -1   -0.34    1.38
   7  -7   2    5.88    2.96
  -7   7  -2    8.18    2.73
   7  -7   3    0.05    2.10
  -7   7  -3    1.11    1.93
   7  -7   4    3.70    2.20
  -7   7  -4    2.48    2.10
   7  -6  -9    0.71    1.57
  -7   6   9   -2.72    1.68
   7  -6  -8    1.73    1.79
  -7   6   8    0.26    1.61
   7  -6  -7    5.61    1.78
  -7   6   7    0.02    1.83
  -7   6   7    1.53    1.47
   7  -6  -6    7.15    1.73
   7  -6  -6    4.41    2.53
  -7   6   6    7.93    1.86
   7  -6  -5    1.49    1.91
   7  -6  -5    1.95    1.38
  -7   6   5    1.12    1.34
   7  -6  -4    0.48    1.31
  -7   6   4   -0.29    1.00
   7  -6  -3    0.39    1.58
  -7   6   3    3.06    1.48
   7  -6  -2    6.55    1.97
  -7   6   2    8.03    1.97
   7  -6  -1   -1.04    1.78
  -7   6   1    2.49    1.18
   7  -6   0   13.21    2.55
  -7   6   0    5.40    1.82
   7  -6   1    2.91    1.93
  -7   6  -1    5.98    1.71
   7  -6   2   11.53    2.73
  -7   6  -2   14.74    2.88
   7  -6   3    2.73    2.00
  -7   6  -3    1.96    2.12
   7  -6   4   17.81    2.95
  -7   6  -4   12.30    2.56
   7  -6   5   -1.09    2.31
  -7   6  -5   -1.58    1.95
   7  -6   6    4.43    2.47
  -7   6  -6    1.15    2.02
   7  -5 -10   -1.07    1.75
  -7   5  10    1.59    1.53
   7  -5  -9   -0.40    1.40
  -7   5   9   -1.22    1.65
   7  -5  -8    8.25    2.16
  -7   5   8   12.98    2.53
   7  -5  -7    1.16    1.29
  -7   5   7    0.13    1.89
  -7   5   7    1.05    1.13
   7  -5  -6    4.12    1.84
  -7   5   6    5.86    1.44
   7  -5  -5   14.59    1.72
   7  -5  -5    6.55    2.38
  -7   5   5    2.27    1.32
   7  -5  -4    1.22    1.04
   7  -5  -4   -1.03    1.47
  -7   5   4    1.02    1.12
   7  -5  -3    2.25    1.11
   7  -5  -3    5.49    1.71
  -7   5   3    4.25    1.22
   7  -5  -2    1.84    1.56
  -7   5   2    3.49    1.48
   7  -5  -1    8.26    1.89
  -7   5   1    6.48    1.77
   7  -5   0    5.31    1.78
  -7   5   0    5.02    1.58
   7  -5   1    1.59    1.50
  -7   5  -1    2.33    1.38
   7  -5   2    7.59    2.59
  -7   5  -2    7.32    2.09
   7  -5   3    1.47    1.20
  -7   5  -3   -0.93    1.01
   7  -5   4   -1.29    1.86
  -7   5  -4   -0.17    1.59
   7  -5   5   -1.44    1.65
  -7   5  -5    2.24    1.37
   7  -5   6    0.27    1.89
  -7   5  -6    1.84    2.10
   7  -5   7    5.50    2.63
  -7   5  -7    3.81    2.60
   7  -5   8    0.64    1.62
  -7   5  -8   -0.18    1.63
   7  -4 -11   14.79    2.61
  -7   4  11    8.83    2.70
   7  -4 -10    0.76    1.76
  -7   4  10    0.25    1.77
   7  -4  -9   -1.46    1.42
  -7   4   9    0.35    1.79
   7  -4  -8    0.71    1.54
  -7   4   8    1.10    1.52
   7  -4  -7   -1.39    1.17
  -7   4   7    1.48    1.16
  -7   4   6    1.84    0.96
  -7   4   6    0.41    1.39
   7  -4  -5   22.39    1.97
   7  -4  -5   23.44    2.59
  -7   4   5   16.40    1.94
   7  -4  -4   38.48    2.71
   7  -4  -4   54.85    3.66
  -7   4   4   38.21    2.76
   7  -4  -3   11.73    1.89
   7  -4  -3    9.12    1.37
  -7   4   3    5.64    1.25
   7  -4  -2    2.02    0.92
   7  -4  -2    1.38    1.44
  -7   4   2    5.28    1.21
   7  -4  -1   56.13    4.11
  -7   4   1   46.06    3.34
   7  -4   0    4.17    1.91
  -7   4   0    3.94    1.25
   7  -4   1   36.25    3.12
  -7   4  -1   33.08    2.64
   7  -4   2   10.21    2.42
  -7   4  -2    8.17    1.60
   7  -4   3    0.73    1.48
  -7   4  -3    3.40    1.72
   7  -4   4   14.89    2.26
  -7   4  -4    6.77    2.13
   7  -4   5    0.49    1.73
  -7   4  -5    0.76    1.40
   7  -4   6    1.28    1.61
  -7   4  -6    2.53    1.55
   7  -4   7   13.60    2.63
  -7   4  -7    9.82    2.38
   7  -4   8    4.70    2.10
  -7   4  -8    2.68    1.80
   7  -4   9    9.60    2.75
  -7   4  -9    8.58    2.37
   7  -3 -12    5.08    2.55
  -7   3  12    2.22    1.84
   7  -3 -11   -0.83    1.55
  -7   3  11   -0.63    1.72
   7  -3 -10   -0.15    1.78
  -7   3  10   -1.18    1.50
   7  -3  -9    6.60    1.97
  -7   3   9    8.77    2.35
   7  -3  -8    8.10    1.76
  -7   3   8    5.27    2.06
   7  -3  -7    6.74    1.63
  -7   3   7    6.05    1.88
   7  -3  -6    0.39    1.32
  -7   3   6    2.95    1.38
  -7   3   6    1.12    0.80
   7  -3  -5   30.68    2.61
   7  -3  -5   28.88    2.69
  -7   3   5   24.00    2.02
   7  -3  -4    9.25    1.26
   7  -3  -4   10.02    1.97
  -7   3   4    8.98    1.35
   7  -3  -3   30.92    3.16
   7  -3  -3   26.83    2.08
  -7   3   3   26.14    2.10
   7  -3  -2   14.31    1.52
   7  -3  -2   20.16    2.20
  -7   3   2   15.54    1.94
   7  -3  -1   -1.03    0.51
   7  -3  -1    0.67    0.92
  -7   3   1    1.24    0.63
   7  -3   0    3.61    1.71
  -7   3   0    2.28    1.24
   7  -3   1   25.81    2.52
  -7   3  -1   26.35    2.23
   7  -3   2   13.23    2.02
  -7   3  -2   11.96    1.81
   7  -3   3    6.98    2.19
  -7   3  -3    8.33    1.51
   7  -3   4    2.35    1.51
  -7   3  -4    2.22    1.26
   7  -3   5    2.99    1.64
  -7   3  -5    3.52    1.44
   7  -3   6    6.83    2.15
  -7   3  -6    3.61    1.87
   7  -3   7    3.21    1.56
  -7   3  -7   -2.42    1.24
   7  -3   8    3.52    2.03
  -7   3  -8    0.12    2.15
   7  -3   9   13.57    2.78
  -7   3  -9   14.26    2.99
   7  -3  10    6.01    2.39
  -7   3 -10    8.47    2.50
   7  -3  11    8.60    2.46
  -7   3 -11   10.28    2.73
   7  -2 -12   -2.48    1.74
  -7   2  12   -0.00    1.40
   7  -2 -11    2.26    1.60
  -7   2  11   -0.39    1.47
   7  -2 -10   10.61    3.06
  -7   2  10   12.01    2.89
   7  -2  -9   29.15    3.77
  -7   2   9   22.67    3.03
   7  -2  -8    3.90    1.77
  -7   2   8    2.51    1.49
   7  -2  -7    1.75    1.54
  -7   2   7    1.85    1.76
   7  -2  -6    3.14    1.51
  -7   2   6    2.65    1.78
   7  -2  -5    3.74    1.36
  -7   2   5    4.44    1.08
  -7   2   5    2.93    0.81
   7  -2  -4   15.53    1.61
   7  -2  -4   12.30    1.89
  -7   2   4   10.10    1.21
   7  -2  -3  107.83    4.48
   7  -2  -3  107.37    5.29
  -7   2   3   95.20    3.84
   7  -2  -2    4.88    1.07
   7  -2  -2    7.64    1.48
  -7   2   2    4.98    1.16
   7  -2  -1    0.63    0.62
   7  -2  -1   -0.36    1.03
  -7   2   1    0.48    0.79
   7  -2   0   -0.01    0.93
  -7   2   0    0.36    0.71
   7  -2   1    9.45    1.96
  -7   2  -1    8.18    1.28
   7  -2   2    0.34    1.04
  -7   2  -2   -1.15    0.81
   7  -2   3    2.60    1.45
  -7   2  -3    7.74    1.61
   7  -2   4   41.57    3.70
  -7   2  -4   36.78    3.13
   7  -2   5   22.97    3.01
  -7   2  -5   24.65    2.91
   7  -2   6    0.85    1.30
  -7   2  -6    3.20    1.78
   7  -2   7    0.49    1.20
  -7   2  -7    0.85    1.64
   7  -2   8    1.17    1.42
  -7   2  -8    1.03    1.47
   7  -2   9    0.07    2.07
  -7   2  -9    3.52    1.79
   7  -2  10    9.51    2.44
  -7   2 -10    8.46    2.39
   7  -2  11    5.58    2.22
  -7   2 -11    9.88    2.57
   7  -1 -13   -1.26    1.92
  -7   1  13    1.76    1.67
   7  -1 -12    5.76    2.49
  -7   1  12    5.47    2.24
   7  -1 -11    0.21    1.78
  -7   1  11    2.15    1.43
   7  -1 -10   14.30    2.88
  -7   1  10    6.85    2.22
   7  -1  -9    9.66    2.01
  -7   1   9    6.42    2.40
   7  -1  -8    3.02    1.48
  -7   1   8    3.89    1.53
   7  -1  -7   -2.60    1.43
  -7   1   7   -1.39    1.32
   7  -1  -6   19.90    2.66
  -7   1   6   22.51    2.45
   7  -1  -5   61.62    3.88
  -7   1   5   59.33    4.11
   7  -1  -4  125.05    5.32
   7  -1  -4  124.41    5.45
  -7   1   4  104.10    3.53
   7  -1  -3   39.86    2.52
   7  -1  -3   40.22    2.94
  -7   1   3   35.12    1.97
   7  -1  -2    0.56    0.76
   7  -1  -2    2.53    1.11
  -7   1   2   -0.25    0.66
   7  -1  -1    0.36    0.81
   7  -1  -1   -0.52    1.14
  -7   1   1    6.09    0.95
   7  -1   0    4.92    1.22
   7  -1   0    3.21    0.79
  -7   1   0    3.82    0.98
   7  -1   1   13.23    1.54
   7  -1   1    6.64    0.90
  -7   1  -1    7.85    1.27
   7  -1   2    5.62    1.26
  -7   1  -2    3.70    1.13
   7  -1   3   31.92    3.06
  -7   1  -3   33.55    2.92
   7  -1   4   24.88    2.87
  -7   1  -4   26.66    2.49
   7  -1   5   67.60    4.15
  -7   1  -5   70.42    4.01
   7  -1   6   29.14    2.56
  -7   1  -6   32.12    2.77
   7  -1   7    0.98    1.40
  -7   1  -7    0.26    1.17
   7  -1   8    0.44    1.36
  -7   1  -8   -0.02    1.44
   7  -1   9    2.25    1.69
  -7   1  -9   -0.29    1.74
   7  -1  10   -0.41    1.07
  -7   1 -10    0.61    1.38
   7  -1  11    2.31    1.53
  -7   1 -11    1.31    1.72
   7  -1  12   36.17    3.57
  -7   1 -12   29.74    4.46
   7   0 -13   -0.45    2.24
  -7   0  13    3.56    1.92
   7   0 -12   -0.52    1.76
  -7   0  12   -0.07    1.25
   7   0 -11   -1.90    2.08
  -7   0  11    0.03    1.30
   7   0 -10    3.30    2.41
  -7   0  10    3.07    1.55
   7   0  -9    1.12    1.56
  -7   0   9    1.31    1.61
   7   0  -8   35.92    3.52
  -7   0   8   29.12    3.11
   7   0  -7   96.72    5.43
  -7   0   7   85.34    5.36
   7   0  -6   47.87    3.18
  -7   0   6   39.68    3.50
   7   0  -5    2.37    1.29
  -7   0   5    1.92    1.30
   7   0  -4  295.14    9.73
  -7   0   4  306.48   11.39
   7   0  -3   58.87    2.83
   7   0  -3   58.67    3.42
  -7   0   3   52.96    2.09
   7   0  -2   19.34    1.39
   7   0  -2   19.52    1.80
  -7   0   2   13.39    1.24
   7   0  -1   10.56    1.27
   7   0  -1    9.95    1.75
  -7   0   1    9.43    0.99
   7   0   0    2.67    1.14
   7   0   0    1.88    0.77
  -7   0   0    1.96    0.88
   7   0   1   10.12    1.45
   7   0   1    6.49    0.89
  -7   0  -1    6.30    1.36
   7   0   2   18.80    1.10
   7   0   2   14.95    1.79
  -7   0  -2   19.27    1.62
   7   0   3    1.27    1.08
  -7   0  -3    0.28    0.97
   7   0   4  169.53    7.06
  -7   0  -4  166.62    7.09
   7   0   5  105.24    5.27
  -7   0  -5  105.80    5.65
   7   0   6    1.80    1.11
  -7   0  -6    1.57    1.63
   7   0   7  111.46    5.56
   7   0   8   -0.65    0.99
  -7   0  -8    0.51    1.09
   7   0   9    7.93    1.72
  -7   0  -9    5.96    1.94
   7   0  10    0.38    1.40
  -7   0 -10    3.78    1.55
   7   0  11   10.21    2.05
  -7   0 -11   10.44    2.98
   7   0  12   -0.91    1.34
  -7   0 -12    0.28    2.09
   7   0  13    3.58    1.70
  -7   0 -13    0.47    2.16
   7   1 -13    2.96    2.16
  -7  -1  13    0.15    1.48
   7   1 -12    4.03    2.05
  -7  -1  12   -0.30    1.80
   7   1 -11    3.04    1.83
  -7  -1  11    0.17    1.24
   7   1 -10    1.19    1.61
  -7  -1  10    0.77    1.20
   7   1  -9    4.72    1.74
  -7  -1   9    4.23    1.54
   7   1  -8   55.09    4.10
  -7  -1   8   56.57    4.46
   7   1  -7    4.31    1.45
  -7  -1   7    2.51    1.37
   7   1  -6   21.59    2.12
  -7  -1   6   21.11    2.63
   7   1  -5   71.15    4.10
  -7  -1   5   77.49    4.44
   7   1  -4  107.62    5.00
  -7  -1   4  110.78    5.65
   7   1  -3   14.77    1.72
  -7  -1   3   16.03    1.77
  -7  -1   3   11.19    0.79
   7   1  -2    9.76    1.37
   7   1  -2    9.55    1.52
  -7  -1   2    8.31    0.75
   7   1  -1   -0.51    0.68
  -7  -1   1    0.24    0.52
   7   1   0    7.13    1.29
   7   1   0    5.75    1.03
  -7  -1   0    6.40    1.04
   7   1   1   25.06    2.28
   7   1   1   24.89    1.54
  -7  -1  -1   28.02    1.87
   7   1   2    2.97    0.71
   7   1   2    6.28    1.11
  -7  -1  -2    3.04    0.99
   7   1   3    0.56    0.53
   7   1   3    0.50    0.82
  -7  -1  -3    0.74    1.08
   7   1   4    1.43    0.90
  -7  -1  -4    0.66    1.00
  -7  -1  -4    1.14    0.45
   7   1   5  187.02    7.35
  -7  -1  -5  190.75    7.78
   7   1   6    3.93    1.12
  -7  -1  -6    4.03    1.49
   7   1   7    3.21    1.45
  -7  -1  -7    5.91    1.70
   7   1   8  129.16    6.14
  -7  -1  -8  155.28    7.20
   7   1   9   35.60    3.20
  -7  -1  -9   31.06    3.60
   7   1  10   -0.81    0.97
  -7  -1 -10    2.63    1.59
   7   1  11   10.86    2.20
  -7  -1 -11    7.06    2.96
   7   1  12    0.49    1.21
  -7  -1 -12    0.11    1.47
   7   1  13    0.62    1.95
  -7  -1 -13    5.16    2.65
   7   2 -13    1.13    2.32
  -7  -2  13    2.25    1.56
   7   2 -12    1.97    2.55
  -7  -2  12    1.15    1.91
   7   2 -11   -1.75    2.03
  -7  -2  11   -0.27    1.31
   7   2 -10    5.86    1.87
  -7  -2  10    1.37    1.91
   7   2  -9   19.39    3.33
  -7  -2   9   17.25    2.79
   7   2  -8    7.74    1.84
  -7  -2   8    8.95    2.08
   7   2  -7   66.45    4.32
  -7  -2   7   74.71    4.34
   7   2  -6    6.17    1.44
  -7  -2   6    5.10    1.49
   7   2  -5  359.60   11.94
  -7  -2   5  345.80   12.14
   7   2  -4    1.01    0.89
  -7  -2   4    0.40    1.05
   7   2  -3   37.53    2.32
  -7  -2   3   36.29    2.60
  -7  -2   3   32.84    1.29
   7   2  -2    0.20    0.82
  -7  -2   2   -0.47    0.65
  -7  -2   2    1.23    0.43
   7   2  -1    7.15    1.12
   7   2  -1    4.66    1.22
  -7  -2   1    5.52    0.77
   7   2   0    7.20    1.42
   7   2   0    7.87    1.23
  -7  -2   0    6.31    1.04
   7   2   1   88.52    3.90
   7   2   1   87.03    3.50
  -7  -2  -1   89.43    3.74
   7   2   2   12.62    1.21
   7   2   2   10.99    1.57
  -7  -2  -2   14.14    1.61
   7   2   3    6.08    0.84
   7   2   3    6.60    1.10
  -7  -2  -3    5.63    1.48
   7   2   4    2.56    0.85
  -7  -2  -4    2.24    0.62
  -7  -2  -4    1.09    1.21
   7   2   5   57.49    3.16
  -7  -2  -5   51.65    3.53
   7   2   6   56.65    3.25
  -7  -2  -6   64.66    3.64
  -7  -2  -6   51.80    1.83
   7   2   7  336.99   10.62
  -7  -2  -7  386.09   13.52
   7   2   8   28.93    2.46
  -7  -2  -8   29.19    3.39
   7   2   9   -1.19    0.91
  -7  -2  -9    1.00    1.28
   7   2  10   54.80    3.43
  -7  -2 -10   52.17    4.23
   7   2  11   73.62    4.87
  -7  -2 -11   78.36    5.59
   7   2  12    8.92    1.84
  -7  -2 -12   14.30    2.60
   7   2  13    1.24    1.09
  -7  -2 -13   -1.90    1.53
   7   2  14   -0.50    1.50
  -7  -2 -14   -0.22    2.10
   7   3 -13   -1.36    2.02
  -7  -3  13    0.46    1.23
   7   3 -12    1.85    2.48
  -7  -3  12    1.45    1.82
   7   3 -11   -0.16    1.55
  -7  -3  11    0.49    1.45
   7   3 -10    9.99    2.38
  -7  -3  10   10.42    2.02
   7   3  -9   11.63    2.71
  -7  -3   9   11.04    2.25
   7   3  -8   15.41    2.52
  -7  -3   8   20.11    2.53
   7   3  -7   27.49    2.75
  -7  -3   7   30.24    3.01
   7   3  -6   63.33    4.56
  -7  -3   6   65.20    4.24
   7   3  -5   51.71    3.44
  -7  -3   5   53.81    3.29
   7   3  -4  223.28    8.77
  -7  -3   4  217.04    8.15
   7   3  -3   74.65    4.13
  -7  -3   3   75.47    4.16
   7   3  -2   12.77    1.78
  -7  -3   2   13.77    1.86
  -7  -3   2   10.43    0.84
   7   3  -1   62.91    2.97
  -7  -3   1   56.08    2.37
   7   3   0    6.60    1.17
   7   3   0    4.34    1.01
  -7  -3   0    6.01    0.95
   7   3   1   10.38    1.45
   7   3   1   10.90    1.49
  -7  -3  -1   15.04    1.33
   7   3   2   19.51    1.52
   7   3   2   19.76    1.83
   7   3   3    8.04    0.95
   7   3   3    4.65    0.98
   7   3   3    4.20    1.00
   7   3   4   14.16    1.65
   7   3   4   12.91    1.54
   7   3   5    1.47    0.80
   7   3   5    1.32    0.85
  -7  -3  -5    0.52    0.54
   7   3   6  225.36    7.55
   7   3   6  212.91    6.86
  -7  -3  -6  198.74    5.46
   7   3   7   49.66    3.47
   7   3   7   49.74    2.69
  -7  -3  -7   47.86    2.04
   7   3   8    7.63    1.33
   7   3   8    4.51    1.22
  -7  -3  -8    3.78    0.77
   7   3   9   15.88    2.02
   7   3   9   14.72    1.80
  -7  -3  -9   14.23    1.31
   7   3  10   15.87    1.80
  -7  -3 -10   15.84    1.93
   7   3  11    0.07    0.89
  -7  -3 -11    0.24    1.50
   7   3  12   -1.31    1.29
  -7  -3 -12    0.10    1.46
   7   3  13    5.87    1.88
  -7  -3 -13    9.68    2.45
   7   3  14    0.25    1.13
  -7  -3 -14   -0.44    1.46
   7   4 -12    1.27    1.83
  -7  -4  12    0.39    1.30
   7   4 -11    0.76    2.27
  -7  -4  11    7.21    1.76
   7   4 -10    1.92    1.68
  -7  -4  10    0.58    1.65
   7   4  -9   33.44    3.97
  -7  -4   9   28.07    3.04
   7   4  -8    1.15    2.17
  -7  -4   8    5.86    1.47
   7   4  -7    1.48    1.48
  -7  -4   7   -0.10    0.93
   7   4  -6   15.99    1.95
  -7  -4   6    9.15    2.04
   7   4  -5    5.47    1.52
  -7  -4   5    5.65    1.64
   7   4  -4   50.53    3.46
  -7  -4   4   50.23    3.11
   7   4  -3    1.83    0.93
  -7  -4   3   -0.49    0.95
   7   4  -2   29.49    2.27
  -7  -4   2   26.45    1.27
  -7  -4   2   35.77    2.59
   7   4  -1   19.96    1.16
   7   4  -1   23.17    2.16
  -7  -4   1   24.77    2.14
   7   4   0   37.78    1.90
   7   4   0   38.86    2.44
  -7  -4   0   37.99    2.34
   7   4   1    1.50    0.66
   7   4   1   -0.08    0.68
   7   4   1   -0.46    0.65
   7   4   2   16.07    1.36
   7   4   2   14.69    1.23
   7   4   2   15.20    1.60
   7   4   3    3.07    0.84
   7   4   3    1.01    1.03
   7   4   3    0.91    0.93
   7   4   4    2.30    1.01
   7   4   4   -0.02    0.87
  -7  -4  -4    1.79    0.65
   7   4   5   23.62    2.28
   7   4   5   18.80    1.48
  -7  -4  -5   20.47    1.58
   7   4   6   52.80    3.02
   7   4   6   51.36    2.67
  -7  -4  -6   39.25    2.21
   7   4   7   -0.31    0.87
   7   4   7    0.87    0.73
  -7  -4  -7   -0.10    0.62
   7   4   8   53.15    3.51
   7   4   8   52.53    2.97
  -7  -4  -8   57.05    2.49
   7   4   9    8.86    1.79
   7   4   9   10.21    1.44
  -7  -4  -9   11.04    1.23
   7   4  10   -0.22    0.86
  -7  -4 -10    0.31    0.70
   7   4  11    1.84    1.25
   7   4  11    0.34    1.09
  -7  -4 -11    0.77    0.83
   7   4  12    7.77    2.18
   7   4  12    7.07    1.72
   7   4  13    0.81    1.49
   7   4  13    1.96    1.44
  -7  -4 -14    0.25    1.65
   7   5 -12   -1.46    1.96
  -7  -5  12   -0.15    1.64
   7   5 -11    2.39    2.06
  -7  -5  11    2.60    1.79
   7   5 -10   11.72    3.39
  -7  -5  10   11.96    2.49
   7   5  -9    7.38    1.94
  -7  -5   9    5.48    1.84
   7   5  -8   10.14    2.14
  -7  -5   8   11.60    2.16
   7   5  -7    6.92    1.66
  -7  -5   7    0.96    1.28
   7   5  -6    6.86    2.07
  -7  -5   6    6.32    1.72
   7   5  -5    5.56    2.05
  -7  -5   5    7.25    1.33
   7   5  -4    5.41    1.53
  -7  -5   4    5.11    1.19
   7   5  -3    3.03    1.05
  -7  -5   3   -0.35    0.90
   7   5  -2    1.60    0.58
   7   5  -2    3.90    1.39
  -7  -5   2    0.30    1.12
   7   5  -1    4.17    0.72
   7   5  -1    4.14    1.27
  -7  -5   1    5.49    1.34
   7   5   0    2.71    1.07
   7   5   0    2.75    0.74
  -7  -5   0    3.98    1.17
   7   5   1   10.97    1.52
   7   5   1    9.01    1.18
  -7  -5  -1    9.18    1.16
   7   5   2   16.86    1.61
   7   5   2   12.24    1.18
   7   5   2   13.43    1.40
   7   5   3    5.58    0.98
   7   5   3    4.27    1.10
   7   5   3    3.65    1.06
   7   5   4    3.52    1.21
   7   5   4    3.32    0.90
  -7  -5  -4    5.00    1.10
   7   5   5   27.79    2.49
   7   5   5   33.63    2.03
  -7  -5  -5   33.14    2.08
   7   5   6   30.77    2.83
   7   5   6   33.68    2.10
  -7  -5  -6   36.57    2.08
   7   5   7   61.86    3.79
   7   5   7   53.49    2.75
  -7  -5  -7   58.13    2.87
   7   5   8   25.72    2.47
   7   5   8   25.14    1.83
  -7  -5  -8   25.30    2.01
   7   5   9    4.25    1.71
   7   5   9    2.00    0.97
  -7  -5  -9    3.32    1.04
   7   5  10   10.59    2.10
   7   5  10    9.32    1.48
  -7  -5 -10   10.64    1.54
   7   5  11   -0.21    1.41
   7   5  11   -0.62    0.82
  -7  -5 -11    0.39    0.94
   7   5  12    3.27    2.11
   7   5  12    3.15    1.24
  -7  -5 -12    3.80    1.38
   7   5  13    4.93    2.06
   7   5  14    2.86    1.83
   7   6 -12    6.91    3.36
  -7  -6  12    6.40    2.08
   7   6 -11   -1.05    2.08
  -7  -6  11   -0.29    1.23
   7   6 -10    8.18    2.49
  -7  -6  10   10.11    2.26
   7   6  -9    8.76    2.89
  -7  -6   9   12.81    2.02
   7   6  -8    1.03    1.85
  -7  -6   8   -1.60    1.10
   7   6  -7    0.55    1.59
  -7  -6   7   -0.63    0.97
   7   6  -6    1.15    1.53
  -7  -6   6    3.81    1.21
   7   6  -5   -0.49    1.22
  -7  -6   5    1.63    1.06
   7   6  -4    2.31    1.46
  -7  -6   4    0.35    0.91
   7   6  -3    8.71    1.74
  -7  -6   3    6.84    1.47
   7   6  -2    1.98    0.61
   7   6  -2    2.44    1.24
  -7  -6   2    1.95    1.10
   7   6  -1    0.48    0.55
  -7  -6   1   -0.48    0.77
   7   6   0   10.58    1.78
   7   6   0   10.51    1.17
  -7  -6   0    8.19    1.14
   7   6   1   19.38    1.81
   7   6   1   19.09    1.62
  -7  -6  -1   19.43    1.60
   7   6   2   38.00    2.47
   7   6   2   33.45    2.58
  -7  -6  -2   40.76    2.28
   7   6   3    0.37    0.72
   7   6   3   -0.05    0.89
  -7  -6  -3   -0.62    0.56
   7   6   4    1.03    1.10
   7   6   4    0.39    0.74
  -7  -6  -4    2.35    0.83
   7   6   5    8.13    1.59
   7   6   5    6.62    1.14
  -7  -6  -5    6.38    1.34
   7   6   6   -1.49    0.95
   7   6   6    0.13    0.64
  -7  -6  -6   -0.58    0.69
   7   6   7   51.86    3.70
   7   6   7   54.00    2.50
  -7  -6  -7   51.05    2.97
   7   6   8    0.60    1.01
   7   6   8    0.44    0.76
  -7  -6  -8    0.29    0.95
   7   6   9   -0.83    0.94
  -7  -6  -9    0.53    0.82
   7   6  10    6.00    1.77
   7   6  10    6.11    1.12
  -7  -6 -10    5.93    1.47
  -7  -6 -11   -0.58    1.16
   7   6  12    8.07    2.52
  -7  -6 -12    4.56    1.35
   7   6  13    6.34    2.35
  -7  -6 -13    2.70    1.50
   7   6  14    2.21    2.21
   7   7 -11    1.82    2.18
  -7  -7  11    2.08    1.59
   7   7 -10    1.84    2.21
  -7  -7  10    0.31    1.28
   7   7  -9    0.07    1.45
  -7  -7   9   -0.43    0.95
   7   7  -8   -1.67    1.44
  -7  -7   8    0.20    1.22
   7   7  -7    3.34    1.66
  -7  -7   7    2.59    1.12
   7   7  -6    3.03    1.55
  -7  -7   6    1.42    1.23
   7   7  -5    1.83    1.37
  -7  -7   5    1.30    1.11
   7   7  -4    2.12    1.45
  -7  -7   4    2.34    1.09
   7   7  -3    2.71    1.32
  -7  -7   3    1.63    1.00
   7   7  -2    1.11    1.23
   7   7  -2    1.13    0.60
  -7  -7   2   -0.32    0.83
   7   7  -1    7.94    1.55
   7   7  -1    4.90    1.02
  -7  -7   1    7.54    1.17
   7   7   0   15.41    1.41
   7   7   0   13.35    1.95
  -7  -7   0   11.09    1.13
   7   7   1   20.91    1.73
   7   7   1   17.95    1.91
  -7  -7  -1   19.06    1.49
   7   7   2    4.67    1.16
   7   7   2    2.43    1.10
  -7  -7  -2    3.21    0.84
   7   7   3   10.61    1.34
   7   7   3   10.12    1.72
  -7  -7  -3    7.28    1.04
   7   7   4   11.50    1.71
  -7  -7  -4   10.71    1.11
  -7  -7  -4    7.27    1.76
   7   7   5    8.28    1.75
  -7  -7  -5    6.13    1.22
  -7  -7  -5    8.30    0.83
   7   7   6   13.18    1.74
   7   7   6    9.68    1.02
  -7  -7  -6   10.83    1.42
   7   7   7   18.92    2.09
   7   7   7   15.75    1.38
  -7  -7  -7   20.91    1.79
   7   7   8    5.49    1.48
  -7  -7  -8    4.40    1.14
   7   7   9    1.74    1.32
  -7  -7  -9    0.15    1.18
   7   7  10    3.25    1.58
  -7  -7 -10    3.67    1.48
   7   7  11   12.42    2.35
  -7  -7 -11   14.24    2.16
   7   7  12    1.47    1.79
  -7  -7 -12    5.16    1.72
   7   7  13    1.11    1.80
  -7  -7 -13    1.89    1.26
   7   7  14   -1.57    2.14
  -7  -7 -14    2.79    1.61
   7   8 -10    1.52    1.65
  -7  -8  10   -0.41    1.21
   7   8  -9    0.48    2.28
  -7  -8   9    2.92    1.70
   7   8  -8    0.84    1.95
  -7  -8   8    0.41    1.22
   7   8  -7    5.25    2.05
  -7  -8   7    4.49    1.29
   7   8  -6   -1.77    1.68
  -7  -8   6   -0.29    0.85
   7   8  -5    1.01    1.48
  -7  -8   5   -0.00    0.89
   7   8  -4    2.99    1.43
  -7  -8   4    1.27    0.82
   7   8  -3    0.40    0.67
   7   8  -3    2.05    1.50
  -7  -8   3    1.41    0.87
   7   8  -2    0.08    0.54
   7   8  -2    0.82    1.18
  -7  -8   2   -0.08    0.53
   7   8  -1   11.47    1.27
   7   8  -1   12.05    1.89
  -7  -8   1   11.12    1.30
   7   8   0   -0.12    0.85
   7   8   0    0.42    1.00
  -7  -8   0    0.82    0.61
   7   8   1   51.75    3.01
   7   8   1   47.45    3.42
  -7  -8  -1   48.46    2.16
   7   8   2    1.83    0.89
   7   8   2    0.43    0.82
  -7  -8  -2   -0.46    0.57
   7   8   3    0.23    0.83
  -7  -8  -3   -0.76    0.93
  -7  -8  -3   -0.42    0.44
   7   8   4    2.13    0.95
  -7  -8  -4    1.27    0.57
  -7  -8  -4    0.34    0.91
   7   8   5   -0.73    0.90
  -7  -8  -5    0.03    0.98
   7   8   6   31.77    2.74
  -7  -8  -6   32.03    2.58
   7   8   7    6.06    1.66
  -7  -8  -7    6.52    1.36
   7   8   8   12.09    2.01
  -7  -8  -8   15.95    2.15
   7   8   9   14.32    2.36
  -7  -8  -9   18.02    2.34
   7   8  10    3.13    1.52
  -7  -8 -10    1.89    1.52
   7   8  11   23.58    3.37
  -7  -8 -11   28.35    2.99
   7   8  12   -1.62    1.42
  -7  -8 -12   -0.45    1.64
   7   8  13    0.67    1.73
  -7  -8 -13    3.17    1.85
   7   8  14   -1.81    2.06
  -7  -8 -14   -0.10    1.28
   7   9  -9    3.56    2.57
  -7  -9   9    2.51    1.45
   7   9  -8    3.42    2.09
  -7  -9   8   -0.07    1.40
   7   9  -7   10.37    2.80
  -7  -9   7    7.19    1.82
   7   9  -6    4.91    2.06
  -7  -9   6    4.97    1.51
   7   9  -5    1.86    1.70
  -7  -9   5    2.55    1.13
   7   9  -4   -0.28    2.16
  -7  -9   4    7.10    1.25
   7   9  -3    7.62    1.78
   7   9  -3    4.88    1.15
  -7  -9   3    6.27    1.14
   7   9  -2    5.96    1.53
   7   9  -2    1.73    0.92
  -7  -9   2    3.13    0.83
   7   9  -1    3.43    1.11
   7   9  -1    4.12    1.50
  -7  -9   1    3.53    0.89
   7   9   0    8.23    1.37
   7   9   0    7.61    1.59
  -7  -9   0    8.50    0.98
   7   9   1    7.81    1.46
   7   9   1    8.40    1.83
  -7  -9  -1    6.99    0.93
   7   9   2    5.60    1.36
   7   9   2    4.94    1.39
  -7  -9  -2    4.12    0.64
   7   9   3    8.27    1.45
  -7  -9  -3    7.42    1.97
   7   9   4    4.20    1.27
  -7  -9  -4    2.80    1.29
   7   9   5   28.87    2.65
  -7  -9  -5   34.79    2.94
   7   9   6    3.02    1.58
  -7  -9  -6    0.69    1.32
   7   9   7    4.27    1.73
  -7  -9  -7    2.76    1.57
   7   9   8   14.78    2.16
  -7  -9  -8   15.34    2.10
   7   9   9    0.19    1.34
  -7  -9  -9    1.05    1.10
   7   9  10   -0.33    1.39
  -7  -9 -10   -0.61    1.30
   7   9  11    1.75    2.06
  -7  -9 -11    3.33    1.81
   7   9  12   17.08    3.18
  -7  -9 -12   19.46    2.74
   7   9  13    0.74    2.51
  -7  -9 -13    2.22    2.00
   7   9  14   -0.12    2.03
  -7  -9 -14    2.40    1.71
   7  10  -8    0.30    1.66
  -7 -10   8    0.77    1.14
   7  10  -7    0.58    2.10
  -7 -10   7    1.40    1.38
   7  10  -6    2.79    2.04
  -7 -10   6    5.33    1.34
   7  10  -5    4.46    2.06
  -7 -10   5    0.70    1.14
   7  10  -4   17.49    2.86
  -7 -10   4   16.98    1.69
   7  10  -3   -0.77    1.25
   7  10  -3    0.54    0.84
  -7 -10   3   -0.87    0.83
   7  10  -2   -0.88    1.31
   7  10  -2   -0.97    0.92
  -7 -10   2   -0.58    0.80
   7  10  -1    7.27    1.86
   7  10  -1    9.54    1.26
  -7 -10   1    7.25    1.15
   7  10   0    1.29    1.19
   7  10   0    0.89    1.02
  -7 -10   0    0.50    0.66
   7  10   1    7.27    1.71
   7  10   1    8.86    1.64
  -7 -10  -1    7.34    0.93
   7  10   2    7.80    1.39
  -7 -10  -2    8.43    1.80
   7  10   3    1.52    1.14
  -7 -10  -3    1.94    1.19
   7  10   4   -0.82    1.03
  -7 -10  -4    0.22    1.06
   7  10   5    1.61    1.00
  -7 -10  -5   -1.14    0.94
   7  10   6    9.36    2.40
  -7 -10  -6   10.63    2.00
   7  10   7    0.21    1.10
  -7 -10  -7   -0.88    1.02
   7  10   8    6.74    1.90
  -7 -10  -8    4.48    2.05
   7  10   9    3.00    1.93
  -7 -10  -9    0.32    1.36
   7  10  10    0.65    1.60
  -7 -10 -10   -2.21    1.50
   7  10  11    1.67    1.69
  -7 -10 -11    0.81    1.85
   7  10  12    0.24    2.64
  -7 -10 -12    3.09    1.72
   7  10  13    4.12    2.51
  -7 -10 -13    7.71    2.19
   7  11  -7    0.14    1.82
  -7 -11   7    1.89    1.45
   7  11  -6   -0.37    2.17
  -7 -11   6   -1.68    1.35
   7  11  -5   11.56    2.53
  -7 -11   5   12.10    1.92
   7  11  -4   -0.90    1.35
  -7 -11   4    0.28    0.87
   7  11  -3   -1.40    1.75
   7  11  -3    0.87    1.04
  -7 -11   3    0.83    0.92
   7  11  -2    0.31    1.39
   7  11  -2    0.63    1.09
  -7 -11   2    1.13    0.90
   7  11  -1    8.89    1.96
   7  11  -1    6.45    1.40
  -7 -11   1    5.83    1.10
   7  11   0    8.21    1.79
   7  11   0    7.45    1.72
  -7 -11   0    5.38    1.04
   7  11   1    7.82    1.47
  -7 -11  -1   11.35    2.04
   7  11   2   10.15    1.72
  -7 -11  -2   11.57    2.34
   7  11   3    0.17    1.18
  -7 -11  -3    3.88    1.52
   7  11   4    1.15    1.15
  -7 -11  -4    1.58    1.28
   7  11   5    5.42    1.74
  -7 -11  -5    8.29    1.60
   7  11   6    7.23    1.89
  -7 -11  -6    0.58    1.31
   7  11   7    3.08    1.99
  -7 -11  -7    1.87    1.39
   7  11   8    1.41    1.82
  -7 -11  -8    5.23    1.65
   7  11   9   -0.49    1.88
  -7 -11  -9   -1.10    1.44
   7  11  10    1.28    1.73
  -7 -11 -10    0.11    1.77
   7  11  11   -0.16    1.57
  -7 -11 -11    0.47    1.59
   7  11  12   -0.34    2.61
  -7 -11 -12    2.45    2.03
   7  12  -6    5.69    2.23
  -7 -12   6    2.48    1.47
   7  12  -5    6.51    3.05
  -7 -12   5    6.11    1.70
   7  12  -4    2.43    2.56
  -7 -12   4    5.86    1.46
   7  12  -3    3.63    2.28
  -7 -12   3    3.34    1.26
   7  12  -2    0.74    1.37
   7  12  -2   -0.61    1.20
  -7 -12   2    0.64    0.84
   7  12  -1    2.00    1.61
   7  12  -1   -0.49    0.94
   7  12   0    0.42    1.44
  -7 -12   0    3.29    1.97
   7  12   1    1.11    1.26
  -7 -12  -1    1.38    1.86
   7  12   2   -1.68    1.47
  -7 -12  -2   -0.47    1.71
   7  12   3    0.28    1.32
  -7 -12  -3    0.57    1.24
   7  12   4    0.70    1.56
  -7 -12  -4    1.30    1.66
   7  12   5    0.88    1.86
  -7 -12  -5    3.01    1.34
   7  12   6    7.69    1.92
  -7 -12  -6    0.61    2.09
   7  12   7    1.78    1.90
  -7 -12  -7    3.33    2.03
   7  12   8    1.34    1.98
  -7 -12  -8   -1.34    1.41
   7  12   9    0.27    1.74
  -7 -12  -9   -1.05    1.33
   7  12  10    3.58    2.19
  -7 -12 -10    0.53    1.96
   7  12  11    0.38    2.33
  -7 -12 -11    0.18    1.83
   7  13  -4   -1.72    2.29
   7  13  -3    1.66    2.22
   7  13  -2   -0.42    1.26
  -7 -13   2    0.47    1.09
   7  13  -1    0.52    1.39
  -7 -13   1   -0.22    1.85
  -7 -13   0    0.74    1.75
   7  13   1    0.47    1.50
  -7 -13  -1    0.51    1.80
   7  13   2   -2.39    1.38
  -7 -13  -2    0.42    1.82
   7  13   3   -1.13    1.41
  -7 -13  -3   -0.51    1.83
   7  13   4    0.24    1.44
  -7 -13  -4    1.53    1.35
   7  13   5    3.55    1.77
  -7 -13  -5    1.81    1.60
   7  13   6    5.06    1.92
  -7 -13  -6   -0.41    1.98
   7  13   7    2.13    1.93
  -7 -13  -7    1.29    1.53
   7  13   8   -1.59    1.93
  -7 -13  -8    0.76    1.65
   7  13   9    1.74    2.12
  -7 -13  -9   -0.67    1.43
   7  13  10   -1.76    1.92
  -7 -13 -10    2.27    1.94
   7  14  -1   -1.88    1.53
  -7 -14   1   -0.68    1.80
   7  14   0    1.20    1.92
  -7 -14   0    1.25    2.16
   7  14   1    4.89    2.31
  -7 -14  -1    1.77    1.91
   7  14   2    3.07    1.69
  -7 -14  -2   -1.03    2.03
   7  14   3    1.01    2.00
  -7 -14  -3   -2.40    1.92
   7  14   4    0.29    2.06
  -7 -14  -4    0.82    1.52
   7  14   5    1.35    2.55
  -7 -14  -5    6.30    2.22
   7  14   6    1.81    2.46
  -7 -14  -6    2.35    2.50
   7  14   7    2.77    2.91
  -7 -14  -7    4.08    2.55
   8  -7  -2    2.50    2.46
  -8   7   2    2.34    1.56
   8  -7  -1    1.41    1.61
  -8   7   1   -1.12    1.29
   8  -6  -5    0.08    1.58
  -8   6   5    1.13    1.33
   8  -6  -4   11.01    2.60
  -8   6   4    9.57    2.19
   8  -6  -3   -0.99    1.80
  -8   6   3    0.80    1.09
   8  -6  -2    6.67    2.71
  -8   6   2    3.55    1.95
   8  -6  -1    1.11    1.49
  -8   6   1   -0.39    1.13
   8  -6   0    3.08    1.96
  -8   6   0   -0.31    1.39
   8  -6   1    3.21    2.42
  -8   6  -1    7.30    2.09
   8  -6   2    3.77    1.88
  -8   6  -2   -0.77    1.71
   8  -6   3    0.20    2.16
  -8   6  -3    2.58    1.72
   8  -6   4    5.69    2.94
  -8   6  -4    2.90    2.20
   8  -5  -8   17.99    3.31
  -8   5   8   13.33    3.89
   8  -5  -7   10.55    2.10
  -8   5   7    2.78    2.33
   8  -5  -6   -0.33    1.44
  -8   5   6    1.82    1.67
   8  -5  -5   13.48    2.45
   8  -5  -5    9.42    2.05
  -8   5   5    5.70    1.59
   8  -5  -4    1.46    1.69
  -8   5   4   -0.12    0.89
   8  -5  -3    0.85    1.28
  -8   5   3   -0.44    1.14
   8  -5  -2   15.16    2.63
  -8   5   2    9.80    2.13
   8  -5  -1    2.63    1.73
  -8   5   1    1.64    1.58
   8  -5   0    2.76    2.06
  -8   5   0    0.72    1.37
   8  -5   1   12.72    2.58
  -8   5  -1    8.63    2.69
   8  -5   2    1.74    1.94
  -8   5  -2   -0.12    1.33
   8  -5   3    0.60    1.50
  -8   5  -3   -0.12    1.33
   8  -5   4   -0.05    1.50
  -8   5  -4   -0.12    1.29
   8  -5   5   15.02    3.81
  -8   5  -5   11.34    3.40
   8  -5   6   -0.17    2.56
  -8   5  -6    1.91    1.79
   8  -4  -9   -0.42    1.91
  -8   4   9   -0.58    1.52
   8  -4  -8   16.94    2.58
  -8   4   8   12.74    3.61
   8  -4  -7    0.13    1.46
  -8   4   7    0.42    1.53
   8  -4  -6    9.35    2.15
  -8   4   6    5.68    2.78
   8  -4  -5    7.84    1.81
   8  -4  -5    9.18    2.02
  -8   4   5    3.49    1.44
   8  -4  -4    2.60    1.55
   8  -4  -4    8.93    2.14
  -8   4   4    2.99    1.41
   8  -4  -3    1.48    1.48
   8  -4  -3    2.47    1.17
  -8   4   3    0.36    1.13
   8  -4  -2    3.97    1.70
  -8   4   2    2.87    1.13
   8  -4  -1   17.64    2.57
  -8   4   1   14.22    1.98
   8  -4   0   -1.01    1.29
  -8   4   0    0.35    1.22
   8  -4   1    9.51    2.12
  -8   4  -1    6.26    2.01
   8  -4   2    0.51    1.50
  -8   4  -2    0.50    1.38
   8  -4   3    2.37    2.05
  -8   4  -3    3.34    1.89
   8  -4   4    2.00    1.70
  -8   4  -4   -0.63    1.96
   8  -4   5    7.47    2.21
  -8   4  -5    4.89    2.29
   8  -4   6   -0.06    1.60
  -8   4  -6   -0.23    1.46
   8  -4   7   31.77    4.54
  -8   4  -7   36.66    4.26
   8  -4   8    4.49    2.20
  -8   4  -8    1.15    2.10
   8  -3 -10    4.09    2.12
  -8   3  10   -0.83    1.56
   8  -3  -9    3.17    2.35
  -8   3   9    4.24    2.42
   8  -3  -8    2.39    1.85
  -8   3   8   -0.12    2.21
   8  -3  -7   11.09    2.12
  -8   3   7   10.71    2.58
   8  -3  -6    3.85    1.59
  -8   3   6    5.95    2.02
   8  -3  -5    2.51    1.48
   8  -3  -5   -0.18    1.82
  -8   3   5    2.06    0.98
   8  -3  -4    0.46    1.07
   8  -3  -4    0.76    1.27
  -8   3   4   -0.13    0.82
   8  -3  -3    1.42    1.06
   8  -3  -3    3.76    1.84
  -8   3   3    1.21    1.02
   8  -3  -2    0.83    0.90
   8  -3  -2    2.81    1.31
  -8   3   2   -0.27    1.16
   8  -3  -1    1.38    1.49
  -8   3   1    1.42    0.98
   8  -3   0   11.96    2.23
  -8   3   0   11.94    1.91
   8  -3   1    2.12    1.42
  -8   3  -1    0.87    1.10
   8  -3   2   25.52    2.80
  -8   3  -2   21.87    2.68
   8  -3   3    2.50    1.79
  -8   3  -3    6.86    2.02
   8  -3   4    0.64    1.75
  -8   3  -4    3.55    1.42
   8  -3   5    1.06    1.66
  -8   3  -5    1.41    1.43
   8  -3   6    5.22    1.89
  -8   3  -6    1.05    1.75
   8  -3   7    8.63    2.50
  -8   3  -7    0.54    1.76
   8  -3   8    0.17    1.45
  -8   3  -8    0.65    1.66
   8  -3   9   -0.74    1.60
  -8   3  -9    0.37    1.49
   8  -2 -11    4.35    2.25
  -8   2  11    0.93    2.31
   8  -2 -10    5.64    2.62
  -8   2  10    1.40    1.93
   8  -2  -9    2.62    2.19
  -8   2   9    2.42    1.82
   8  -2  -8    3.51    1.90
  -8   2   8    2.63    2.21
   8  -2  -7   -0.47    1.52
  -8   2   7    0.78    1.41
   8  -2  -6    0.79    1.56
  -8   2   6    1.60    1.46
   8  -2  -5   15.68    2.33
  -8   2   5   17.67    2.61
   8  -2  -4    2.08    1.19
   8  -2  -4    4.23    1.31
  -8   2   4   -0.51    0.85
   8  -2  -3   10.03    2.14
   8  -2  -3    6.38    1.36
  -8   2   3    4.80    1.29
   8  -2  -2   24.31    2.02
   8  -2  -2   23.21    2.81
  -8   2   2   31.64    2.24
   8  -2  -1    0.90    0.82
   8  -2  -1    3.26    1.38
  -8   2   1    0.20    0.79
   8  -2   0    1.19    1.08
  -8   2   0   -0.55    0.94
   8  -2   1    2.39    1.37
  -8   2  -1    2.61    1.20
   8  -2   2   11.69    2.10
  -8   2  -2   12.49    1.71
   8  -2   3    1.17    1.61
  -8   2  -3    0.65    1.33
   8  -2   4    9.45    2.50
  -8   2  -4    9.15    2.00
   8  -2   5   -0.60    1.73
  -8   2  -5    4.10    1.54
   8  -2   6    6.70    2.12
  -8   2  -6    6.87    2.08
   8  -2   7    6.18    2.33
  -8   2  -7    2.69    1.75
   8  -2   8    0.51    2.04
  -8   2  -8    3.66    2.14
   8  -2   9    1.16    1.46
  -8   2  -9   -0.67    1.43
   8  -2  10    3.09    2.37
  -8   2 -10    3.68    2.07
   8  -1 -11    4.00    2.58
  -8   1  11    5.47    2.49
   8  -1 -10   14.14    2.98
  -8   1  10    9.55    2.79
   8  -1  -9    0.27    1.41
  -8   1   9   -0.04    1.20
   8  -1  -8   15.43    2.92
  -8   1   8    9.61    2.41
   8  -1  -7    1.66    1.52
  -8   1   7    1.84    1.92
   8  -1  -6    0.25    1.07
  -8   1   6    0.56    1.24
   8  -1  -5    0.84    1.29
  -8   1   5    1.42    1.37
   8  -1  -4   18.90    2.13
   8  -1  -4   20.39    2.68
  -8   1   4   14.50    1.39
   8  -1  -3    5.07    1.35
   8  -1  -3    4.88    1.56
  -8   1   3    4.27    1.05
   8  -1  -2   58.42    3.24
   8  -1  -2   67.50    4.13
  -8   1   2   62.93    3.00
   8  -1  -1   72.40    4.73
   8  -1  -1   68.26    3.23
  -8   1   1   57.44    3.18
   8  -1   0    2.18    1.32
   8  -1   0    0.98    0.80
  -8   1   0    2.51    1.14
   8  -1   1   -0.01    1.22
  -8   1  -1    0.16    0.71
   8  -1   2   57.93    4.18
  -8   1  -2   63.34    4.05
   8  -1   3   -1.30    1.15
  -8   1  -3   -0.63    1.05
   8  -1   4    9.31    2.09
  -8   1  -4    5.46    1.80
   8  -1   5    3.08    1.48
  -8   1  -5    1.28    1.48
   8  -1   6    8.34    2.42
  -8   1  -6    7.91    2.37
   8  -1   7   15.97    2.29
  -8   1  -7    6.56    2.36
   8  -1   8    2.29    1.54
  -8   1  -8    2.64    2.23
   8  -1   9    0.55    1.59
  -8   1  -9    3.75    1.86
   8  -1  10   -0.80    1.69
  -8   1 -10    0.05    1.68
   8  -1  11    2.55    1.68
  -8   1 -11   -1.15    2.26
   8   0 -12   -0.80    2.34
  -8   0  12    6.37    2.25
   8   0 -11    2.93    2.09
  -8   0  11    0.75    1.56
   8   0 -10   -2.40    2.19
  -8   0  10   -0.33    1.54
   8   0  -9    1.22    1.69
  -8   0   9    2.91    1.65
   8   0  -8    5.76    1.75
  -8   0   8    0.75    2.10
   8   0  -7    1.58    1.25
  -8   0   7   -0.12    1.29
   8   0  -6    1.27    1.26
  -8   0   6    2.76    1.58
   8   0  -5    0.13    1.13
  -8   0   5   -0.80    1.18
   8   0  -4   49.54    3.37
  -8   0   4   46.55    4.22
   8   0  -3    2.74    1.62
   8   0  -3    2.25    1.09
  -8   0   3    1.38    0.68
   8   0  -2    0.40    1.13
   8   0  -2    5.25    1.30
  -8   0   2    1.90    0.75
   8   0  -1   22.06    2.18
   8   0  -1   21.59    1.90
  -8   0   1   20.91    1.64
   8   0   0   -0.15    1.19
   8   0   0   -0.22    0.66
  -8   0   0   -0.08    0.63
   8   0   1  122.98    5.89
   8   0   1  111.10    4.02
  -8   0  -1  133.63    5.31
   8   0   2    4.02    0.78
   8   0   2    1.24    1.53
  -8   0  -2   -0.20    1.38
   8   0   3    4.72    1.82
  -8   0  -3    7.97    1.84
   8   0   4    3.63    1.47
  -8   0  -4    6.61    1.58
   8   0   5    5.43    2.06
  -8   0  -5    9.16    1.67
   8   0   6   23.23    3.16
  -8   0  -6   24.58    2.54
   8   0   7    8.14    1.82
  -8   0  -7    6.43    1.77
   8   0   8    1.43    1.83
  -8   0  -8    4.86    1.65
   8   0   9    3.84    1.95
  -8   0  -9    6.47    2.00
   8   0  10    8.42    2.01
  -8   0 -10    6.65    2.22
   8   0  11    2.68    2.33
  -8   0 -11    5.74    2.42
   8   0  12   25.85    4.00
  -8   0 -12   22.89    3.65
   8   1 -12    5.58    2.37
  -8  -1  12    3.02    2.00
   8   1 -11    3.97    2.52
  -8  -1  11    0.88    2.05
   8   1 -10    3.23    2.40
  -8  -1  10    3.72    1.74
   8   1  -9    1.83    1.77
  -8  -1   9    2.65    1.64
   8   1  -8    0.78    1.82
  -8  -1   8    2.62    1.70
   8   1  -7    0.50    1.32
  -8  -1   7    1.75    1.65
   8   1  -6   76.54    5.00
  -8  -1   6   84.33    5.39
   8   1  -5    1.93    1.29
  -8  -1   5    3.13    1.85
   8   1  -4   11.01    1.65
  -8  -1   4    9.18    1.92
   8   1  -3   41.35    2.61
  -8  -1   3   27.08    2.37
  -8  -1   3   39.06    1.65
   8   1  -2   20.18    2.21
   8   1  -2   23.97    2.14
  -8  -1   2   18.77    1.38
   8   1  -1    2.69    1.19
   8   1  -1   -0.09    0.84
  -8  -1   1   -0.20    0.65
   8   1   0   15.81    2.25
   8   1   0   17.66    1.64
  -8  -1   0   20.00    1.82
   8   1   1    3.54    1.21
  -8  -1  -1    2.90    1.15
   8   1   2    1.21    0.91
   8   1   2    3.57    1.50
  -8  -1  -2    4.19    1.01
   8   1   3   -0.26    0.47
   8   1   3    1.68    0.86
  -8  -1  -3    0.49    0.88
   8   1   4    9.11    1.56
  -8  -1  -4    8.44    1.64
   8   1   5    2.99    1.21
  -8  -1  -5   -1.53    1.02
   8   1   6    7.04    1.56
  -8  -1  -6    5.47    1.61
   8   1   7    5.23    1.49
  -8  -1  -7    6.82    2.23
   8   1   8   12.97    2.56
  -8  -1  -8   16.44    3.03
   8   1   9   23.36    2.88
  -8  -1  -9   22.52    3.65
   8   1  10    2.80    1.58
  -8  -1 -10   -0.87    1.73
   8   1  11   -0.98    1.05
  -8  -1 -11    2.11    1.54
   8   1  12   34.01    3.48
  -8  -1 -12   30.91    4.01
   8   2 -12    0.85    1.89
  -8  -2  12    0.25    1.39
   8   2 -11    4.54    2.19
  -8  -2  11    1.81    2.06
   8   2 -10    3.15    1.72
  -8  -2  10   -0.17    1.48
   8   2  -9   -0.91    1.33
  -8  -2   9    0.53    1.09
   8   2  -8    0.97    1.57
  -8  -2   8   -1.13    1.19
   8   2  -7    2.33    1.73
  -8  -2   7    0.99    1.33
   8   2  -6   19.72    2.39
  -8  -2   6   17.89    2.37
   8   2  -5   36.39    3.44
  -8  -2   5   43.07    3.90
   8   2  -4    5.70    1.39
  -8  -2   4    3.04    1.49
   8   2  -3  222.53    8.43
  -8  -2   3  212.40    9.12
   8   2  -2   -0.59    0.92
  -8  -2   2    0.64    0.49
   8   2  -1   -0.07    1.19
   8   2  -1    0.05    0.75
  -8  -2   1   -1.08    0.65
   8   2   0    9.76    1.80
   8   2   0    8.74    1.49
  -8  -2   0   10.93    1.24
   8   2   1   -0.84    1.19
   8   2   1   -1.06    0.91
  -8  -2  -1   -1.39    0.78
   8   2   2   25.44    1.92
   8   2   2   30.55    2.40
  -8  -2  -2   32.77    2.27
   8   2   3    3.26    0.94
   8   2   3    5.89    1.48
  -8  -2  -3    4.39    1.20
   8   2   4   10.08    1.49
  -8  -2  -4   10.38    2.02
  -8  -2  -4   10.22    0.94
   8   2   5   87.79    4.39
  -8  -2  -5  104.97    5.58
   8   2   6   27.39    2.74
  -8  -2  -6   29.06    2.83
   8   2   7    3.60    1.24
  -8  -2  -7    3.90    2.02
   8   2   8    4.34    1.67
  -8  -2  -8    5.97    1.82
   8   2   9    7.07    1.51
  -8  -2  -9    6.58    2.17
   8   2  10    2.47    1.29
  -8  -2 -10    1.48    2.06
   8   2  11    3.38    1.45
  -8  -2 -11    2.78    1.95
   8   2  12   29.00    3.59
  -8  -2 -12   25.15    3.87
   8   2  13   -1.62    1.93
  -8  -2 -13   -0.97    2.05
   8   3 -12    0.85    2.05
  -8  -3  12    0.81    1.56
   8   3 -11    0.29    1.63
  -8  -3  11   -0.44    1.47
   8   3 -10   -0.04    1.50
  -8  -3  10    0.52    1.21
   8   3  -9    3.89    2.32
  -8  -3   9    2.17    1.87
   8   3  -8    3.77    2.20
  -8  -3   8    6.58    1.74
   8   3  -7    1.02    1.45
  -8  -3   7    1.41    1.24
   8   3  -6   93.38    6.09
  -8  -3   6   90.90    5.20
   8   3  -5   34.12    3.51
  -8  -3   5   34.11    2.92
   8   3  -4  118.42    5.95
  -8  -3   4  130.22    6.62
   8   3  -3   86.89    4.49
  -8  -3   3   84.52    4.60
   8   3  -2    2.86    1.23
  -8  -3   2    1.15    1.15
  -8  -3   2    1.35    0.55
   8   3  -1   41.48    2.67
   8   3  -1   39.97    2.80
  -8  -3   1   34.54    1.94
   8   3   0    1.27    0.92
  -8  -3   0    0.37    0.84
   8   3   1    0.81    0.87
   8   3   1    1.02    0.87
  -8  -3  -1    0.57    0.89
   8   3   2    3.56    1.11
   8   3   2    7.43    1.47
  -8  -3  -2    4.38    1.46
   8   3   3   13.41    1.36
   8   3   3   16.46    1.93
  -8  -3  -3   18.52    1.95
   8   3   4   30.33    2.21
  -8  -3  -4   28.75    2.82
   8   3   5   23.17    2.07
  -8  -3  -5   19.73    1.42
  -8  -3  -5   22.41    2.20
   8   3   6   32.26    2.59
  -8  -3  -6   27.83    1.58
  -8  -3  -6   30.41    3.07
   8   3   7   82.72    4.03
  -8  -3  -7   83.60    5.29
  -8  -3  -7   64.39    2.72
   8   3   8    1.93    1.17
  -8  -3  -8    4.36    1.50
   8   3   9    2.10    1.38
  -8  -3  -9    0.66    1.71
   8   3  10   15.93    2.14
  -8  -3 -10   10.72    2.50
   8   3  11   18.88    2.09
  -8  -3 -11   17.43    3.03
   8   3  12    1.55    1.48
  -8  -3 -12    0.48    1.82
   8   3  13   -0.03    1.11
  -8  -3 -13    0.56    1.95
   8   4 -12    4.35    2.44
  -8  -4  12   -0.23    1.61
   8   4 -11    0.29    1.67
  -8  -4  11   -0.63    1.28
   8   4 -10    3.73    2.10
  -8  -4  10    4.02    2.03
   8   4  -9    0.33    2.00
  -8  -4   9    1.02    1.24
   8   4  -8   12.41    2.77
  -8  -4   8   15.16    2.22
   8   4  -7    6.12    1.91
  -8  -4   7    5.71    1.54
   8   4  -6   51.75    4.68
  -8  -4   6   61.90    4.37
   8   4  -5   -0.10    1.60
  -8  -4   5    2.32    1.51
   8   4  -4  174.33    7.85
  -8  -4   4  170.77    7.53
   8   4  -3   44.45    3.18
  -8  -4   3   44.33    3.09
   8   4  -2    5.76    1.42
  -8  -4   2    7.94    1.78
  -8  -4   2    5.37    0.90
   8   4  -1    1.79    1.09
  -8  -4   1   -0.45    1.18
  -8  -4   1    0.67    0.68
   8   4   0    3.46    1.25
  -8  -4   0   -0.95    0.72
  -8  -4   0    4.50    0.84
   8   4   1   21.34    1.69
   8   4   1   20.37    1.81
  -8  -4  -1   11.59    1.34
   8   4   2   23.46    2.06
   8   4   2   22.25    1.65
   8   4   2   18.94    2.10
   8   4   3   22.39    1.90
   8   4   3   24.77    2.06
   8   4   3   20.75    2.15
   8   4   4   19.80    1.79
   8   4   4   22.03    1.81
   8   4   5   31.78    2.38
   8   4   5   33.04    2.53
  -8  -4  -5   33.32    2.08
   8   4   6    6.21    1.38
   8   4   6    7.64    1.17
  -8  -4  -6    3.79    0.94
   8   4   7   23.75    2.53
   8   4   7   18.84    1.81
  -8  -4  -7   20.31    1.54
   8   4   8   85.29    4.66
   8   4   8   85.98    4.29
  -8  -4  -8   78.00    3.25
   8   4   9    2.15    1.18
   8   4   9    2.13    1.12
  -8  -4  -9   -0.01    0.71
   8   4  10   15.94    2.40
   8   4  10   17.14    2.21
   8   4  11    7.82    1.83
  -8  -4 -11    5.07    1.48
   8   4  12   10.08    2.01
  -8  -4 -12   11.37    3.15
   8   4  13   -0.59    1.43
  -8  -4 -13   -3.18    1.86
   8   5 -11    0.44    2.48
  -8  -5  11   -1.23    1.77
   8   5 -10    4.41    2.14
  -8  -5  10    1.69    1.90
   8   5  -9    1.86    1.73
  -8  -5   9    0.61    1.42
   8   5  -8    8.93    2.34
  -8  -5   8    8.09    1.85
   8   5  -7    4.07    1.96
  -8  -5   7    5.92    1.85
   8   5  -6   11.58    2.17
  -8  -5   6    8.73    1.67
   8   5  -5  146.48    8.42
  -8  -5   5  158.34    7.28
   8   5  -4    9.20    1.94
  -8  -5   4   10.25    2.05
   8   5  -3   13.29    2.04
  -8  -5   3   15.93    2.27
   8   5  -2   93.22    4.66
  -8  -5   2   83.27    4.55
   8   5  -1   77.82    2.94
   8   5  -1   97.78    4.95
  -8  -5   1   98.53    4.67
   8   5   0   58.13    3.42
   8   5   0   60.52    2.74
  -8  -5   0   70.42    3.54
   8   5   1    9.98    1.37
   8   5   1    7.63    1.09
  -8  -5  -1    7.28    1.58
   8   5   2   11.12    1.47
   8   5   2   12.33    1.71
   8   5   2   13.10    1.60
   8   5   3   -0.50    0.85
   8   5   3    1.41    0.74
   8   5   3   -0.52    0.83
   8   5   4    4.38    1.28
   8   5   4    6.49    1.02
  -8  -5  -4    3.35    1.01
   8   5   5   59.63    3.39
   8   5   5   53.33    3.17
  -8  -5  -5   50.07    2.87
   8   5   6   29.27    2.94
   8   5   6   25.45    2.17
  -8  -5  -6   28.76    2.02
   8   5   7  113.67    6.00
   8   5   7  102.86    4.56
  -8  -5  -7  107.76    4.25
   8   5   8   17.36    2.16
   8   5   8   18.27    1.99
  -8  -5  -8   17.54    1.66
   8   5   9   10.84    2.39
   8   5   9    9.42    1.59
  -8  -5  -9   10.44    1.42
   8   5  10   33.50    3.43
   8   5  10   30.34    2.54
  -8  -5 -10   23.35    1.97
   8   5  11   40.34    3.79
   8   5  11   35.97    2.71
   8   5  12    3.08    2.04
   8   5  12    1.65    1.42
   8   5  13   24.83    3.24
  -8  -5 -14   -0.07    1.18
   8   6 -11   -1.24    2.15
  -8  -6  11    0.21    1.14
   8   6 -10    1.68    2.70
  -8  -6  10    2.67    1.50
   8   6  -9    0.39    1.79
  -8  -6   9    1.53    1.52
   8   6  -8   11.87    2.55
  -8  -6   8    8.27    2.29
   8   6  -7    4.49    2.31
  -8  -6   7    4.36    1.75
   8   6  -6   32.11    3.35
  -8  -6   6   31.34    2.83
   8   6  -5    1.00    1.12
  -8  -6   5   -0.40    0.91
   8   6  -4   83.24    5.20
  -8  -6   4   90.26    4.90
   8   6  -3   -0.35    1.19
  -8  -6   3   -1.10    1.07
   8   6  -2   60.13    3.96
  -8  -6   2   56.22    3.75
   8   6  -1  127.30    6.03
   8   6  -1  110.35    4.11
  -8  -6   1  118.03    5.45
   8   6   0    5.37    1.41
   8   6   0    4.23    1.04
  -8  -6   0    6.17    1.46
   8   6   1   73.88    4.13
   8   6   1   71.15    3.37
  -8  -6  -1   86.91    4.22
   8   6   2    5.66    1.48
   8   6   2    3.18    1.17
  -8  -6  -2    6.26    1.08
   8   6   3   24.89    2.16
   8   6   3   25.72    2.24
   8   6   3   28.65    2.10
   8   6   4    8.95    1.39
   8   6   4    8.06    1.36
  -8  -6  -4    5.59    1.55
   8   6   5    4.40    1.44
   8   6   5    2.64    1.01
  -8  -6  -5    2.82    1.10
   8   6   6   83.83    4.89
   8   6   6   83.86    3.92
  -8  -6  -6   84.64    3.98
   8   6   7  120.48    6.40
   8   6   7  113.59    4.81
  -8  -6  -7  115.35    4.89
   8   6   8    5.63    1.55
   8   6   8    3.14    1.09
  -8  -6  -8    3.43    1.26
   8   6   9    5.02    1.60
   8   6   9    0.18    1.04
  -8  -6  -9    4.19    1.14
   8   6  10    3.37    2.10
   8   6  10    2.85    1.16
  -8  -6 -10    2.90    1.27
   8   6  11    2.24    1.90
  -8  -6 -11    4.84    1.41
   8   6  12    0.42    1.47
  -8  -6 -12   -0.68    0.89
   8   6  13    3.27    2.47
   8   6  14   -0.01    1.68
   8   7 -10    1.13    1.84
  -8  -7  10    0.33    1.29
   8   7  -9    2.88    2.56
  -8  -7   9    2.87    1.94
   8   7  -8    3.72    2.90
  -8  -7   8   10.11    1.91
   8   7  -7    9.89    2.79
  -8  -7   7    7.63    1.83
   8   7  -6    6.61    2.21
  -8  -7   6   10.35    2.01
   8   7  -5    4.03    1.83
  -8  -7   5    6.75    1.67
   8   7  -4    3.18    1.82
  -8  -7   4    6.88    1.29
   8   7  -3    1.79    1.40
  -8  -7   3    1.32    0.93
   8   7  -2    1.54    1.36
   8   7  -2    0.84    0.78
  -8  -7   2    3.19    1.13
   8   7  -1    6.78    1.87
   8   7  -1    4.80    0.99
  -8  -7   1    6.08    1.14
   8   7   0    4.11    1.83
   8   7   0    7.92    1.28
  -8  -7   0    7.85    1.15
   8   7   1   44.54    3.25
   8   7   1   42.70    2.79
  -8  -7  -1   48.43    2.56
   8   7   2   63.77    3.65
   8   7   2   64.89    3.70
  -8  -7  -2   70.27    3.71
   8   7   3    5.93    1.53
   8   7   3    3.01    1.25
  -8  -7  -3    7.73    1.22
   8   7   4   18.71    2.15
  -8  -7  -4   16.40    1.69
  -8  -7  -4   14.83    2.12
   8   7   5   15.09    2.28
   8   7   5   15.82    1.66
  -8  -7  -5   15.62    2.00
   8   7   6   27.96    2.66
   8   7   6   27.28    2.06
  -8  -7  -6   26.80    2.09
   8   7   7   57.56    3.93
   8   7   7   46.23    2.70
  -8  -7  -7   57.87    3.07
   8   7   8    9.94    2.30
  -8  -7  -8   10.52    1.49
   8   7   9    0.18    1.35
  -8  -7  -9    1.56    0.97
   8   7  10    5.86    1.91
  -8  -7 -10    6.82    1.58
   8   7  11    3.53    2.11
  -8  -7 -11    1.85    1.47
   8   7  12   -2.07    2.04
  -8  -7 -12   -1.07    1.44
   8   7  13    1.29    1.75
  -8  -7 -13    0.80    1.46
   8   8 -10   -1.54    2.14
  -8  -8  10    3.67    1.92
   8   8  -9   16.84    3.26
  -8  -8   9   15.09    2.27
   8   8  -8    5.64    3.03
  -8  -8   8    8.08    2.06
   8   8  -7    4.52    1.94
  -8  -8   7    2.14    1.26
   8   8  -6    8.21    2.64
  -8  -8   6    6.72    1.75
   8   8  -5    7.08    2.09
  -8  -8   5    5.16    1.27
   8   8  -4   14.60    3.00
  -8  -8   4   11.50    1.79
   8   8  -3    3.26    1.50
  -8  -8   3    0.22    1.07
   8   8  -2   -1.27    1.02
   8   8  -2   -0.03    0.59
  -8  -8   2    0.78    0.74
   8   8  -1    0.14    1.15
   8   8  -1    0.20    0.78
  -8  -8   1    1.46    0.90
   8   8   0   -1.19    0.86
   8   8   0    0.92    1.10
  -8  -8   0    2.05    0.84
   8   8   1    1.62    0.81
   8   8   1    2.20    1.30
  -8  -8  -1    1.08    0.67
   8   8   2    7.43    1.52
   8   8   2    6.45    1.73
  -8  -8  -2    7.64    1.13
   8   8   3    0.89    1.15
   8   8   3    1.50    1.08
  -8  -8  -3    0.36    0.71
   8   8   4    5.44    1.34
  -8  -8  -4    5.80    1.07
  -8  -8  -4    4.83    1.48
   8   8   5    2.73    1.40
  -8  -8  -5    6.35    1.57
  -8  -8  -5    4.70    0.97
   8   8   6   14.27    2.32
  -8  -8  -6   12.42    1.99
   8   8   7    3.08    1.47
  -8  -8  -7    3.31    1.18
   8   8   8   39.08    3.39
  -8  -8  -8   37.01    3.31
   8   8   9   -0.77    1.70
  -8  -8  -9    1.70    1.27
   8   8  10   -0.99    1.54
  -8  -8 -10    0.40    0.88
   8   8  11    4.81    1.76
  -8  -8 -11    3.70    1.43
   8   8  12    2.51    1.64
  -8  -8 -12    0.24    1.31
   8   8  13   -0.38    1.46
  -8  -8 -13    0.15    1.12
   8   9  -9    4.60    2.39
  -8  -9   9    2.65    1.95
   8   9  -8    2.53    1.87
  -8  -9   8   -0.11    1.48
   8   9  -7    1.01    1.63
  -8  -9   7    0.22    1.04
   8   9  -6    0.81    2.16
  -8  -9   6    0.86    0.99
   8   9  -5   -0.31    1.66
  -8  -9   5    0.32    0.82
   8   9  -4    0.52    2.29
  -8  -9   4    4.51    1.30
   8   9  -3    2.29    1.75
  -8  -9   3    3.74    1.21
   8   9  -2    0.03    0.97
   8   9  -2    3.68    1.46
  -8  -9   2    3.37    0.82
   8   9  -1    0.27    0.90
   8   9  -1    1.92    1.28
  -8  -9   1    0.62    0.82
   8   9   0    0.56    1.00
   8   9   0    0.91    1.32
  -8  -9   0    1.43    0.77
   8   9   1    4.37    1.26
   8   9   1    4.11    1.43
  -8  -9  -1    3.13    0.88
   8   9   2    8.40    1.36
   8   9   2    5.43    1.66
   8   9   3   -0.12    1.18
  -8  -9  -3   -0.81    0.56
  -8  -9  -3    0.41    1.44
   8   9   4    2.42    1.33
  -8  -9  -4   -0.11    1.16
   8   9   5    6.70    1.64
  -8  -9  -5    8.42    1.85
   8   9   6    0.09    1.27
  -8  -9  -6    2.49    1.35
   8   9   7    4.14    1.96
  -8  -9  -7    5.60    1.67
   8   9   8   19.55    3.20
  -8  -9  -8   21.22    2.45
   8   9   9   -0.62    1.56
  -8  -9  -9    0.41    0.97
   8   9  10    3.35    1.94
  -8  -9 -10    4.67    1.49
   8   9  11    2.89    1.69
  -8  -9 -11    1.00    1.66
   8   9  12   -0.43    2.01
  -8  -9 -12   -1.48    1.68
   8   9  13   -0.89    2.16
  -8  -9 -13    1.63    1.40
   8  10  -8   -0.22    1.82
  -8 -10   8   -0.88    1.19
   8  10  -7   -0.47    1.75
  -8 -10   7    0.10    0.93
   8  10  -6    2.00    1.89
  -8 -10   6    1.42    1.36
   8  10  -5   -0.15    2.04
  -8 -10   5    1.52    1.14
   8  10  -4    1.43    1.85
  -8 -10   4    0.20    0.81
   8  10  -3    4.90    1.64
  -8 -10   3    0.64    0.85
   8  10  -2   -0.85    0.81
   8  10  -2   -0.21    1.53
  -8 -10   2    0.23    0.75
   8  10  -1    1.25    1.07
   8  10  -1    3.70    1.76
  -8 -10   1    0.73    0.85
   8  10   0   -0.71    1.00
   8  10   0    2.38    1.38
  -8 -10   0   -0.31    0.59
   8  10   1    9.74    1.84
   8  10   1    8.39    1.78
  -8 -10  -1    8.42    1.03
   8  10   2    8.68    1.66
  -8 -10  -2    1.53    1.06
   8  10   3   -0.03    0.92
  -8 -10  -3   -0.25    1.12
   8  10   4    1.15    1.49
  -8 -10  -4    1.58    1.28
   8  10   5    6.31    1.60
  -8 -10  -5    3.98    1.56
   8  10   6    0.80    1.16
  -8 -10  -6   -0.08    1.31
   8  10   7   12.93    2.33
  -8 -10  -7   14.36    1.96
   8  10   8    0.97    1.74
  -8 -10  -8    0.84    1.48
   8  10   9    8.13    2.38
  -8 -10  -9    4.83    1.85
   8  10  10    3.38    2.44
  -8 -10 -10    8.12    2.29
   8  10  11   -1.62    1.44
  -8 -10 -11    0.80    1.26
   8  10  12    0.69    1.65
  -8 -10 -12   -0.11    1.58
   8  11  -6    0.67    1.71
  -8 -11   6   -0.59    1.04
   8  11  -5    4.59    1.98
  -8 -11   5    0.65    1.37
   8  11  -4   -1.08    1.71
  -8 -11   4    1.60    0.94
   8  11  -3   -0.23    1.57
  -8 -11   3    1.07    0.81
   8  11  -2    1.08    1.81
  -8 -11   2    0.67    0.91
   8  11  -1    0.50    1.17
   8  11  -1    2.45    1.41
  -8 -11   1    0.40    0.84
   8  11   0   -0.22    1.25
   8  11   0    2.59    1.41
  -8 -11   0    1.76    0.79
   8  11   1   15.32    2.29
   8  11   1   11.74    2.46
   8  11   2   -0.82    1.15
  -8 -11  -2    0.97    1.41
   8  11   3    2.71    1.70
  -8 -11  -3    1.60    1.40
   8  11   4    0.35    1.18
  -8 -11  -4    0.35    1.06
   8  11   5    0.33    1.51
  -8 -11  -5    0.67    1.21
   8  11   6    9.59    2.47
  -8 -11  -6    7.06    1.87
   8  11   7    2.70    2.12
  -8 -11  -7    3.48    1.47
   8  11   8   -0.84    1.87
  -8 -11  -8    1.80    1.35
   8  11   9    1.25    2.14
  -8 -11  -9    1.92    1.43
   8  11  10    5.66    3.01
  -8 -11 -10   11.68    2.67
   8  11  11   26.40    4.66
  -8 -11 -11   21.24    3.79
   8  12  -5    0.68    1.59
  -8 -12   5   -0.13    1.04
   8  12  -4    2.02    2.00
  -8 -12   4    0.96    1.33
   8  12  -3    3.96    1.80
  -8 -12   3    0.96    1.20
   8  12  -2    0.34    1.53
   8  12  -1    2.20    1.52
   8  12  -1    3.99    2.26
   8  12   0   -2.02    1.38
   8  12   0   -0.31    1.57
   8  12   1    0.27    1.43
  -8 -12  -1    2.16    1.59
   8  12   2    0.15    1.11
  -8 -12  -2    0.86    1.58
   8  12   3    0.64    1.40
  -8 -12  -3   -0.13    1.14
   8  12   4    2.02    1.52
  -8 -12  -4    1.87    1.49
   8  12   5    4.03    2.19
  -8 -12  -5    4.54    1.85
   8  12   6   -0.07    1.85
  -8 -12  -6   -1.95    1.75
   8  12   7    1.60    2.07
  -8 -12  -7    3.40    1.53
   8  12   8    2.30    2.86
  -8 -12  -8    9.81    2.17
   8  12   9   -0.38    2.44
  -8 -12  -9   -2.47    1.56
   8  12  10    0.66    1.91
  -8 -12 -10    0.78    1.59
   8  13  -3    2.26    2.37
   8  13  -2   -0.48    1.59
  -8 -13   1    9.78    1.98
   8  13   0   -0.00    1.29
  -8 -13   0   -0.38    1.89
   8  13   1    2.81    1.70
  -8 -13  -1    0.11    2.10
   8  13   2    0.46    1.48
  -8 -13  -2    0.22    1.42
   8  13   3    5.43    2.06
  -8 -13  -3    6.78    1.93
   8  13   4    3.20    1.63
  -8 -13  -4    0.54    1.86
   8  13   5    1.54    1.60
  -8 -13  -5   -0.70    1.21
   8  13   6    2.60    2.70
  -8 -13  -6    7.68    2.12
   8  13   7    5.81    2.63
  -8 -13  -7    1.24    2.24
   8  13   8    0.24    1.97
  -8 -13  -8    0.45    1.40
   8  13   9   -0.53    2.69
  -8 -13  -9    2.25    1.67
  -8 -14   0    0.78    1.81
   8  14   1    1.28    1.51
  -8 -14  -1    0.92    2.31
   8  14   2    9.76    2.30
  -8 -14  -2    9.59    2.67
   8  14   3    3.56    1.98
  -8 -14  -3   -0.53    1.79
   8  14   4   -0.39    1.78
  -8 -14  -4   -2.16    1.72
   8  14   5   -0.43    1.79
  -8 -14  -5    1.67    1.68
   8  14   6    1.57    2.41
  -8 -14  -6   -2.24    1.59
   9  -5  -5    0.62    2.12
   9  -5  -4    4.25    2.80
   9  -5  -3    1.48    2.27
  -9   5   3    1.81    1.51
   9  -5  -2   -0.22    1.62
  -9   5   2    1.57    1.44
   9  -5  -1    2.44    1.61
  -9   5   1   -1.37    1.10
   9  -5   0   10.52    2.59
  -9   5   0    2.46    2.44
   9  -5   1   12.98    3.60
  -9   5  -1    9.63    2.56
   9  -5   2   15.45    4.17
  -9   5  -2   15.49    3.35
   9  -5   3    4.28    2.50
  -9   5  -3    1.16    2.54
   9  -4  -7   19.62    2.94
  -9   4   7   17.65    4.33
   9  -4  -6    3.01    1.75
  -9   4   6    4.12    2.81
   9  -4  -5    2.12    2.37
   9  -4  -4    7.16    2.13
  -9   4   4    3.21    1.55
   9  -4  -3    2.43    2.03
  -9   4   3    0.62    1.19
   9  -4  -2    0.68    1.58
  -9   4   2   -0.40    1.08
   9  -4  -1   -2.62    2.03
  -9   4   1   -0.06    1.47
   9  -4   0   33.58    3.52
  -9   4   0   22.83    2.88
   9  -4   1    8.52    2.19
  -9   4  -1    4.33    1.88
   9  -4   2   -1.02    2.26
  -9   4  -2   -1.34    1.69
   9  -4   3   -0.38    1.69
  -9   4  -3    0.76    1.56
   9  -4   4   17.69    3.34
  -9   4  -4   16.07    3.44
   9  -4   5   16.73    3.13
  -9   4  -5    8.38    2.92
   9  -3  -8   10.16    2.98
  -9   3   8    3.74    3.40
   9  -3  -7    2.93    2.20
  -9   3   7    3.65    2.24
   9  -3  -6   18.56    2.99
  -9   3   6   13.34    3.13
   9  -3  -5    2.28    1.63
   9  -3  -4   10.34    2.03
   9  -3  -4   15.33    2.96
  -9   3   4    8.31    1.69
   9  -3  -3    3.55    1.97
  -9   3   3    0.33    1.09
   9  -3  -2    8.12    2.44
  -9   3   2    4.96    1.42
   9  -3  -1    4.13    2.52
  -9   3   1    4.06    1.67
   9  -3   0    6.43    2.02
  -9   3   0    2.97    1.40
   9  -3   1    4.04    2.20
  -9   3  -1    2.82    1.38
   9  -3   2    3.93    1.87
  -9   3  -2    4.28    1.61
   9  -3   3    0.93    1.45
  -9   3  -3   -0.19    1.46
   9  -3   4   10.39    2.63
  -9   3  -4    8.77    2.44
   9  -3   5    2.45    1.97
  -9   3  -5    0.46    2.13
   9  -3   6    1.95    2.02
  -9   3  -6   -1.12    1.36
   9  -3   7    6.85    3.31
  -9   3  -7    5.24    2.66
   9  -2  -9   12.53    3.01
  -9   2   9   14.65    3.12
   9  -2  -8    9.83    2.93
  -9   2   8    8.91    2.93
   9  -2  -7    0.79    1.52
  -9   2   7    0.49    1.62
   9  -2  -6    2.63    1.73
  -9   2   6    2.22    2.39
   9  -2  -5   27.60    2.72
  -9   2   5   28.04    4.25
   9  -2  -4    1.09    1.42
   9  -2  -4    4.74    1.65
   9  -2  -3    2.26    1.31
   9  -2  -3    1.56    1.60
  -9   2   3    2.49    1.07
   9  -2  -2    7.84    1.60
   9  -2  -2   13.16    2.24
  -9   2   2    8.68    1.71
   9  -2  -1   16.22    2.68
  -9   2   1   14.53    2.01
   9  -2   0    1.47    1.35
  -9   2   0   -0.21    0.92
   9  -2   1    9.82    2.83
  -9   2  -1   12.25    2.46
   9  -2   2    9.12    2.17
  -9   2  -2    7.55    2.48
   9  -2   3   -0.38    1.49
  -9   2  -3    1.55    1.28
   9  -2   4    2.06    1.65
  -9   2  -4    0.44    1.64
   9  -2   5   19.21    3.21
  -9   2  -5   17.34    2.74
   9  -2   6   -0.72    1.83
  -9   2  -6    1.53    1.83
   9  -2   7    1.37    2.43
  -9   2  -7    5.59    2.48
   9  -2   8   11.89    3.49
  -9   2  -8    7.31    2.65
   9  -1 -10    0.48    2.05
  -9   1  10    3.53    1.99
   9  -1  -9    4.14    2.20
  -9   1   9    5.05    2.16
   9  -1  -8   11.18    3.08
  -9   1   8   10.72    2.59
   9  -1  -7    3.86    1.96
  -9   1   7    0.15    1.89
   9  -1  -6    9.19    2.36
  -9   1   6    8.15    2.48
   9  -1  -5    7.02    2.06
  -9   1   5    8.65    2.56
   9  -1  -4    6.72    2.03
   9  -1  -4    6.03    1.76
   9  -1  -3    2.62    1.26
   9  -1  -3    0.01    1.51
  -9   1   3    1.28    0.92
   9  -1  -2    2.60    1.34
   9  -1  -2    4.65    1.73
  -9   1   2    4.16    1.09
   9  -1  -1   28.86    3.12
   9  -1  -1   18.26    1.87
  -9   1   1   16.31    1.89
   9  -1   0   -0.61    1.49
  -9   1   0    0.40    0.98
   9  -1   1   11.18    2.20
  -9   1  -1   10.12    1.82
   9  -1   2    1.88    1.57
  -9   1  -2    3.80    1.51
   9  -1   3    1.98    1.61
  -9   1  -3    6.39    1.55
   9  -1   4   -0.55    1.40
  -9   1  -4    0.40    1.23
   9  -1   5    6.77    2.08
  -9   1  -5    7.93    2.02
   9  -1   6    3.13    1.76
  -9   1  -6    0.83    2.13
   9  -1   7   10.46    2.56
  -9   1  -7   14.39    2.84
   9  -1   8    2.45    1.85
  -9   1  -8    2.46    1.96
   9  -1   9   23.81    3.65
  -9   1  -9   23.27    3.76
   9   0 -10   13.82    3.15
  -9   0  10   13.32    3.25
   9   0  -9    0.09    2.25
  -9   0   9    2.35    2.05
   9   0  -8    4.79    2.01
  -9   0   8    5.48    2.40
   9   0  -7   12.60    2.31
  -9   0   7   12.92    3.23
   9   0  -6    0.03    1.20
  -9   0   6   -1.24    1.84
   9   0  -5    0.11    1.23
  -9   0   5   -0.43    1.29
   9   0  -4    4.88    1.48
  -9   0   4    6.12    1.84
   9   0  -3   -0.20    0.81
   9   0  -3   -1.81    1.49
  -9   0   3    0.23    0.65
   9   0  -2   -0.15    1.31
   9   0  -2    3.71    1.11
  -9   0   2   -0.36    0.74
   9   0  -1    5.25    1.50
   9   0  -1    2.89    1.20
  -9   0   1    2.08    1.15
   9   0   0   16.85    2.38
   9   0   0   13.10    1.56
  -9   0   0   10.94    1.46
   9   0   1   25.03    2.71
  -9   0  -1   30.51    2.79
   9   0   2    1.80    1.27
  -9   0  -2   -0.21    1.25
   9   0   3    7.67    2.29
  -9   0  -3    7.19    1.81
   9   0   4    2.52    1.61
  -9   0  -4    5.93    1.65
   9   0   5    6.81    2.06
  -9   0  -5   14.93    2.63
   9   0   6    0.05    1.47
  -9   0  -6    3.55    1.75
   9   0   7   13.65    2.38
  -9   0  -7   11.97    2.85
   9   0   8   -2.49    1.69
  -9   0  -8    0.88    1.44
   9   0   9    3.21    2.37
  -9   0  -9    3.32    1.88
   9   0  10   22.47    3.31
  -9   0 -10   24.30    3.24
   9   1 -11    6.91    3.57
  -9  -1  11    6.08    2.40
   9   1 -10    0.14    2.36
  -9  -1  10    2.32    1.73
   9   1  -9    0.16    1.54
  -9  -1   9   -0.69    1.67
   9   1  -8    0.64    2.08
  -9  -1   8    2.84    2.09
   9   1  -7   -0.75    1.52
  -9  -1   7    1.05    1.49
   9   1  -6    0.11    1.15
  -9  -1   6    0.07    1.39
   9   1  -5    1.56    1.58
  -9  -1   5    2.10    1.61
   9   1  -4    0.58    1.05
  -9  -1   4   -2.85    1.41
   9   1  -3   -0.21    0.92
  -9  -1   3    0.09    1.11
   9   1  -2   25.00    2.48
   9   1  -2   18.08    2.19
  -9  -1   2   15.63    1.47
   9   1  -1   -0.51    1.07
   9   1  -1   -1.16    0.91
  -9  -1   1    1.09    0.62
   9   1   0    3.90    1.67
   9   1   0    2.99    1.09
  -9  -1   0    3.77    1.18
   9   1   1   -2.14    1.42
   9   1   1    0.41    0.74
  -9  -1  -1    1.16    1.03
   9   1   2   -0.11    0.76
   9   1   2    3.45    1.44
  -9  -1  -2    1.25    1.22
   9   1   3    7.12    2.00
  -9  -1  -3    5.42    1.45
   9   1   4    1.54    1.23
  -9  -1  -4    0.82    1.13
   9   1   5   -0.20    1.15
  -9  -1  -5   -0.54    1.22
   9   1   6   12.31    2.11
  -9  -1  -6   10.38    2.22
   9   1   7    0.01    1.11
  -9  -1  -7    0.29    1.26
   9   1   8    7.86    2.32
  -9  -1  -8    7.31    2.20
   9   1   9    2.00    1.77
  -9  -1  -9    0.62    1.74
   9   1  10    8.92    2.44
  -9  -1 -10    9.72    2.71
   9   1  11    2.33    2.28
  -9  -1 -11    3.44    2.71
   9   2 -11    0.90    2.23
  -9  -2  11   -0.57    1.56
   9   2 -10    5.06    2.86
  -9  -2  10    4.17    1.93
   9   2  -9    0.82    2.14
  -9  -2   9    5.32    1.79
   9   2  -8    3.06    2.11
  -9  -2   8    0.52    2.15
   9   2  -7   11.03    2.94
  -9  -2   7    9.33    2.67
   9   2  -6    3.56    1.59
  -9  -2   6    1.77    1.98
   9   2  -5    2.74    1.38
  -9  -2   5    0.22    1.84
   9   2  -4   29.74    2.80
  -9  -2   4   31.02    3.21
   9   2  -3   16.74    1.99
  -9  -2   3   15.36    2.35
   9   2  -2    3.47    1.40
  -9  -2   2    2.43    0.62
   9   2  -1   17.37    2.19
   9   2  -1   17.47    2.06
  -9  -2   1   18.22    1.59
   9   2   0    5.89    1.61
   9   2   0    7.03    1.38
  -9  -2   0    6.32    1.31
   9   2   1   53.87    3.07
   9   2   1   50.75    3.79
  -9  -2  -1   52.97    2.99
   9   2   2   58.01    3.05
   9   2   2   58.31    4.21
  -9  -2  -2   60.98    3.49
   9   2   3    0.02    0.78
   9   2   3    2.16    1.41
  -9  -2  -3    3.36    1.09
   9   2   4   51.42    3.70
  -9  -2  -4   52.29    3.80
   9   2   5    1.22    1.11
  -9  -2  -5    0.74    1.35
   9   2   6   11.01    1.81
  -9  -2  -6   11.84    2.21
   9   2   7    1.24    1.18
  -9  -2  -7    0.06    1.45
   9   2   8    1.36    1.70
  -9  -2  -8    2.69    1.72
   9   2   9    7.55    1.96
  -9  -2  -9    7.14    2.21
   9   2  10   -0.75    1.44
  -9  -2 -10   -1.21    1.74
   9   2  11    1.65    2.11
  -9  -2 -11    2.50    2.08
   9   2  12    7.38    2.34
  -9  -2 -12    6.70    3.39
   9   3 -11    4.94    3.25
  -9  -3  11    4.13    2.73
   9   3 -10   -1.90    2.46
  -9  -3  10    2.32    1.65
   9   3  -9    3.60    1.82
  -9  -3   9   -0.51    2.01
   9   3  -8    5.14    2.23
  -9  -3   8    4.49    1.93
   9   3  -7    2.61    1.86
  -9  -3   7    6.15    1.77
   9   3  -6    5.79    1.95
  -9  -3   6    5.03    1.75
   9   3  -5    4.40    1.79
  -9  -3   5    9.60    1.79
   9   3  -4   23.46    2.86
  -9  -3   4   18.80    2.80
   9   3  -3    7.77    1.70
  -9  -3   3    5.37    1.76
   9   3  -2   15.98    2.35
  -9  -3   2   17.67    2.73
   9   3  -1    9.33    1.58
   9   3  -1    8.59    1.40
  -9  -3   1    5.15    1.09
   9   3   0    0.22    0.89
   9   3   0   -0.13    0.96
  -9  -3   0   -0.32    0.74
   9   3   1   27.21    2.28
   9   3   1   23.22    2.74
  -9  -3  -1   26.00    2.00
   9   3   2   20.86    1.98
   9   3   2   21.03    2.19
  -9  -3  -2   26.48    2.47
   9   3   3    7.72    1.06
   9   3   3    7.75    1.64
  -9  -3  -3    7.45    1.88
   9   3   4   18.44    2.15
  -9  -3  -4   24.33    2.41
   9   3   5   42.56    3.12
  -9  -3  -5   41.09    3.21
  -9  -3  -5   30.08    2.01
   9   3   6    0.82    0.96
  -9  -3  -6    0.97    1.59
   9   3   7    2.78    1.41
  -9  -3  -7    1.31    1.56
   9   3   8    1.72    1.57
  -9  -3  -8    4.91    2.16
   9   3   9    1.48    1.46
  -9  -3  -9    0.60    2.08
  -9  -3 -10    1.06    1.60
   9   3  11   12.00    2.24
  -9  -3 -11    0.67    2.26
   9   3  12    0.95    1.71
  -9  -3 -12    0.35    1.82
   9   4 -10    1.76    1.66
  -9  -4  10   -1.37    1.44
   9   4  -9    9.80    2.72
  -9  -4   9    1.96    1.82
   9   4  -8    7.78    2.51
  -9  -4   8    8.28    2.45
   9   4  -7    5.39    2.03
  -9  -4   7    3.78    1.87
   9   4  -6   23.60    3.55
  -9  -4   6   20.79    2.68
   9   4  -5   11.45    2.55
  -9  -4   5    8.28    2.32
   9   4  -4   15.21    2.19
  -9  -4   4   10.77    2.49
   9   4  -3   22.54    2.85
  -9  -4   3   22.60    3.20
   9   4  -2   32.15    2.79
  -9  -4   2   32.98    2.93
   9   4  -1    6.26    1.45
  -9  -4   1    8.11    1.57
  -9  -4   1    4.46    1.02
   9   4   0    0.31    1.12
  -9  -4   0    0.44    0.85
   9   4   1    1.10    0.82
   9   4   1   -0.00    0.96
  -9  -4  -1    0.50    0.92
   9   4   2    7.67    1.32
   9   4   2    6.23    1.53
  -9  -4  -2    7.75    1.67
   9   4   3    1.15    1.02
   9   4   3    3.74    1.34
  -9  -4  -3    1.57    1.31
   9   4   4    6.18    1.70
  -9  -4  -4    8.98    1.91
   9   4   5   -0.59    1.24
  -9  -4  -5    3.76    1.20
  -9  -4  -5    0.56    0.80
   9   4   6    8.75    1.85
  -9  -4  -6    8.26    2.18
  -9  -4  -6    8.63    1.15
   9   4   7    2.00    1.11
  -9  -4  -7    5.16    1.80
  -9  -4  -7    1.65    0.87
   9   4   8    1.48    0.86
  -9  -4  -8   -2.26    1.18
   9   4   9    8.61    1.98
  -9  -4  -9    9.42    2.72
   9   4  10   13.42    2.33
  -9  -4 -10   10.74    2.58
   9   4  11    4.95    2.01
  -9  -4 -11    7.02    2.19
   9   4  12   38.98    3.71
  -9  -4 -12   59.54    5.23
   9   5 -10    0.68    1.99
  -9  -5  10    1.58    1.64
   9   5  -9    2.71    2.02
  -9  -5   9    1.25    1.98
   9   5  -8    7.46    2.91
  -9  -5   8    4.78    2.25
   9   5  -7    6.94    2.41
  -9  -5   7   10.71    2.11
   9   5  -6    0.45    1.56
  -9  -5   6    1.99    1.67
   9   5  -5   30.19    3.14
  -9  -5   5   33.71    3.29
   9   5  -4   37.29    3.81
  -9  -5   4   29.88    3.17
   9   5  -3   74.30    4.97
  -9  -5   3   91.69    5.28
   9   5  -2   42.26    3.73
  -9  -5   2   40.28    3.82
   9   5  -1   22.09    2.30
  -9  -5   1   18.62    2.32
  -9  -5   1   13.97    1.55
   9   5   0   25.37    2.82
  -9  -5   0   29.51    2.27
  -9  -5   0   32.97    2.73
   9   5   1    0.22    1.24
  -9  -5  -1    1.86    1.09
   9   5   2    5.91    1.24
   9   5   2    7.87    1.41
   9   5   2    6.06    1.41
   9   5   3   -0.68    0.85
   9   5   3    2.40    1.14
   9   5   3    2.59    0.93
   9   5   4   -0.48    0.99
   9   5   4    0.65    0.91
   9   5   5  102.90    5.45
   9   5   5  108.42    5.34
  -9  -5  -5  105.85    4.76
   9   5   6   -0.01    1.15
   9   5   6   -0.03    0.98
  -9  -5  -6    0.52    0.79
   9   5   7    0.61    1.34
   9   5   7    3.23    1.44
  -9  -5  -7    4.63    1.00
   9   5   8    4.22    1.80
   9   5   8    2.51    1.40
  -9  -5  -8    3.17    1.08
   9   5   9   17.07    2.19
   9   5   9    8.87    1.63
   9   5  10   14.32    2.43
   9   5  10   14.49    2.14
   9   5  11    3.81    1.78
   9   5  11    1.75    1.25
  -9  -5 -12   12.44    2.86
  -9  -5 -13   10.22    2.99
   9   6 -10    4.01    2.31
  -9  -6  10    0.26    1.94
   9   6  -9    1.87    2.68
  -9  -6   9    1.47    1.87
   9   6  -8    3.60    2.11
  -9  -6   8   -0.50    1.69
   9   6  -7    1.58    1.90
  -9  -6   7   -1.38    1.44
   9   6  -6   48.49    4.49
  -9  -6   6   47.82    3.85
   9   6  -5    3.46    2.02
  -9  -6   5    9.06    1.80
   9   6  -4    3.45    1.75
  -9  -6   4    7.34    1.90
   9   6  -3   75.57    5.79
  -9  -6   3   86.69    4.89
   9   6  -2    0.54    1.15
  -9  -6   2   -0.06    0.99
   9   6  -1   11.04    1.75
   9   6  -1    5.98    1.04
  -9  -6   1   10.02    1.54
   9   6   0    6.19    2.00
   9   6   0    5.21    1.22
  -9  -6   0    8.70    1.50
   9   6   1    0.01    0.90
   9   6   1    0.10    0.83
  -9  -6  -1   -0.49    0.82
   9   6   2    2.25    1.17
   9   6   2    2.93    1.16
  -9  -6  -2    1.73    1.28
   9   6   3    2.18    1.38
   9   6   3    2.52    1.29
   9   6   3    2.50    1.29
   9   6   4   28.81    2.81
   9   6   4   27.99    2.51
  -9  -6  -4   29.04    2.33
   9   6   5   16.22    2.52
   9   6   5   16.75    1.96
  -9  -6  -5   16.17    1.96
   9   6   6    7.32    1.89
   9   6   6    2.50    1.25
  -9  -6  -6    3.42    1.01
   9   6   7   -0.73    1.47
   9   6   7   -0.02    1.06
  -9  -6  -7    1.51    0.96
   9   6   8    7.57    1.88
   9   6   8    6.19    1.58
  -9  -6  -8    6.60    1.44
   9   6   9    1.61    1.36
   9   6   9    0.26    1.03
  -9  -6  -9    1.41    1.01
   9   6  10    9.38    2.36
   9   6  10    7.22    1.78
  -9  -6 -10   13.08    1.63
   9   6  11    2.88    2.23
   9   6  12   16.13    2.80
   9   6  13    4.22    2.47
   9   7  -9    0.95    1.96
  -9  -7   9    1.20    1.76
   9   7  -8   -1.04    1.89
  -9  -7   8    1.86    1.37
   9   7  -7   20.09    3.40
  -9  -7   7   10.35    2.24
   9   7  -6   14.96    3.03
  -9  -7   6   17.25    2.35
   9   7  -5    7.61    2.45
  -9  -7   5    5.52    1.69
   9   7  -4   14.21    2.49
  -9  -7   4   10.00    1.90
   9   7  -3   91.81    6.22
  -9  -7   3  104.35    6.02
   9   7  -2    8.82    2.17
  -9  -7   2   14.80    1.83
   9   7  -1   17.89    2.80
   9   7  -1   13.83    1.56
  -9  -7   1   21.66    2.31
   9   7   0    0.34    1.44
   9   7   0    0.40    0.89
  -9  -7   0    2.01    1.16
   9   7   1    4.28    1.86
   9   7   1    4.75    1.28
  -9  -7  -1    4.12    1.28
   9   7   2   -0.33    0.94
   9   7   2   -0.15    0.89
  -9  -7  -2    0.67    0.83
   9   7   3   16.43    1.80
   9   7   3   13.15    1.97
  -9  -7  -3   15.19    2.08
   9   7   4    9.66    1.57
  -9  -7  -4    8.11    1.61
  -9  -7  -4    7.84    2.00
   9   7   5    7.59    1.83
   9   7   5    4.60    1.39
  -9  -7  -5    6.15    1.40
   9   7   6   41.65    3.19
   9   7   6   32.70    2.66
  -9  -7  -6   37.37    2.68
   9   7   7    3.73    1.37
   9   7   7    0.47    1.05
  -9  -7  -7    0.90    1.27
   9   7   8   31.34    3.27
   9   7   8   27.87    2.51
  -9  -7  -8   31.85    2.69
   9   7   9    0.57    1.71
  -9  -7  -9    1.19    1.19
   9   7  10    2.39    2.15
  -9  -7 -10    2.15    1.29
   9   7  11    0.91    1.60
  -9  -7 -11    0.60    1.24
   9   7  12    1.11    2.03
   9   7  13    8.82    2.59
   9   8  -9   -0.18    1.76
  -9  -8   9   -0.07    1.17
   9   8  -8   -0.92    1.92
  -9  -8   8   -1.22    1.41
   9   8  -7    1.32    1.77
  -9  -8   7    1.37    1.59
   9   8  -6   -1.18    2.24
  -9  -8   6    2.85    1.42
   9   8  -5    8.82    3.23
  -9  -8   5   12.03    2.14
   9   8  -4   50.53    5.53
  -9  -8   4   51.29    3.88
   9   8  -3    8.65    2.49
  -9  -8   3   15.61    2.14
   9   8  -2   28.13    3.62
  -9  -8   2   24.01    2.51
   9   8  -1   25.74    2.95
   9   8  -1   17.83    1.85
  -9  -8   1   28.99    2.44
   9   8   0   -0.29    1.45
   9   8   0   -0.31    0.86
  -9  -8   0   -0.33    0.96
   9   8   1   22.39    2.38
   9   8   1   28.22    2.83
  -9  -8  -1   24.93    2.39
   9   8   2   83.89    4.74
   9   8   2   88.13    5.18
  -9  -8  -2   88.00    4.45
   9   8   3    8.38    1.42
   9   8   3    3.36    1.56
  -9  -8  -3    7.26    1.53
   9   8   4    0.78    1.14
  -9  -8  -4   -0.39    1.05
  -9  -8  -4   -0.68    0.91
   9   8   5   17.35    2.37
  -9  -8  -5   21.76    2.06
  -9  -8  -5   19.77    2.19
   9   8   6   18.74    2.30
  -9  -8  -6   13.79    1.98
   9   8   7   20.00    2.55
  -9  -8  -7   21.53    2.51
   9   8   8   67.38    5.34
  -9  -8  -8   76.39    4.40
   9   8   9   -0.13    1.40
  -9  -8  -9   -1.32    1.34
   9   8  10    2.91    2.14
  -9  -8 -10    3.64    1.66
   9   8  11    5.51    2.24
  -9  -8 -11    5.38    1.51
   9   8  12   26.05    3.63
  -9  -8 -12    4.68    2.34
   9   9  -8    4.96    2.48
  -9  -9   8    1.97    1.44
   9   9  -7    0.41    1.83
  -9  -9   7    0.19    1.31
   9   9  -6   16.82    3.87
  -9  -9   6   12.92    1.96
   9   9  -5   -0.54    1.46
  -9  -9   5    0.59    1.10
   9   9  -4   30.02    3.74
  -9  -9   4   25.71    2.88
   9   9  -3    1.55    1.88
  -9  -9   3    0.71    0.92
   9   9  -2    0.59    1.59
  -9  -9   2    1.22    1.08
   9   9  -1    7.37    2.18
  -9  -9   1   11.73    1.66
   9   9   0    6.33    1.45
   9   9   0    7.95    2.23
  -9  -9   0    5.71    1.15
   9   9   1   39.21    2.94
   9   9   1   35.53    3.41
  -9  -9  -1   33.90    2.44
   9   9   2   19.34    2.06
   9   9   2   21.17    2.53
  -9  -9  -2   18.24    1.74
   9   9   3    4.88    1.69
  -9  -9  -3    4.88    1.13
  -9  -9  -3    4.45    1.11
   9   9   4   42.92    3.91
  -9  -9  -4   52.53    4.20
   9   9   5   17.99    2.80
  -9  -9  -5   17.12    2.38
   9   9   6   -0.24    1.41
  -9  -9  -6    1.08    1.09
   9   9   7   58.01    5.01
  -9  -9  -7   58.67    3.83
   9   9   8   11.23    2.38
  -9  -9  -8    7.96    2.09
   9   9   9    1.05    2.01
  -9  -9  -9    1.69    1.55
   9   9  10    0.80    1.73
  -9  -9 -10    2.66    1.63
   9   9  11    0.15    1.70
  -9  -9 -11    1.97    1.63
   9   9  12    0.29    1.63
  -9  -9 -12   -0.52    1.45
   9  10  -7   -1.82    1.86
  -9 -10   7    0.14    1.40
   9  10  -6    2.58    2.17
  -9 -10   6    0.16    1.22
   9  10  -5    2.75    2.10
  -9 -10   5    2.73    1.49
   9  10  -4    0.70    2.09
  -9 -10   4    4.87    1.45
   9  10  -3    0.44    1.45
  -9 -10   3    0.62    1.04
   9  10  -2   -1.88    1.36
  -9 -10   2    0.97    0.84
   9  10  -1   -0.92    1.81
  -9 -10   1   -0.43    0.89
   9  10   0    3.42    1.40
   9  10   0    2.34    2.00
  -9 -10   0    4.48    1.09
   9  10   1    6.28    1.61
   9  10   1    5.97    1.79
  -9 -10  -1    2.79    0.96
   9  10   2    9.58    1.67
   9  10   2    8.87    2.40
   9  10   3    3.74    1.66
  -9 -10  -3    3.18    2.08
   9  10   4   22.21    2.91
  -9 -10  -4   18.12    3.01
   9  10   5   19.59    2.65
  -9 -10  -5   19.48    2.91
   9  10   6    9.28    2.65
  -9 -10  -6   10.79    2.01
   9  10   7   93.16    7.19
  -9 -10  -7  111.76    6.70
   9  10   8   -0.19    1.67
  -9 -10  -8    2.94    1.39
   9  10   9    1.64    1.49
  -9 -10  -9   -0.85    1.59
   9  10  10   16.23    3.44
  -9 -10 -10   18.97    2.57
   9  10  11    0.17    2.08
  -9 -10 -11    0.53    1.60
   9  11  -5    0.64    1.66
  -9 -11   5    0.35    0.98
   9  11  -4    5.83    2.42
  -9 -11   4    4.00    1.55
   9  11  -3    1.24    1.45
  -9 -11   3   -0.17    0.74
   9  11  -2    1.86    1.82
  -9 -11   2    1.07    1.07
   9  11  -1    3.45    1.74
  -9 -11   1    1.99    0.81
   9  11   0    1.43    1.35
   9  11   0    3.19    2.03
   9  11   1    2.83    1.29
   9  11   1    2.77    1.60
   9  11   2   -0.96    1.52
  -9 -11  -2   -1.37    1.53
   9  11   3    3.16    1.95
  -9 -11  -3    3.77    2.21
   9  11   4    3.20    1.50
  -9 -11  -4    2.18    1.90
   9  11   5    3.38    2.07
  -9 -11  -5    2.89    1.59
   9  11   6    2.81    2.27
  -9 -11  -6    5.97    1.79
   9  11   7   -0.11    1.24
  -9 -11  -7    0.13    1.25
   9  11   8    6.60    2.07
  -9 -11  -8    4.17    2.27
   9  11   9    4.29    2.48
  -9 -11  -9    2.55    2.11
   9  11  10    1.33    1.88
  -9 -11 -10   -0.22    1.34
   9  12  -4    3.43    2.78
   9  12  -3   -0.12    1.84
   9  12  -2    3.02    2.09
   9  12  -1    0.07    1.40
   9  12   0    6.88    1.98
   9  12   0    8.13    2.38
   9  12   1    2.90    1.59
  -9 -12  -1    0.68    1.86
   9  12   2    0.75    1.27
  -9 -12  -2   -0.71    1.33
   9  12   3   -1.90    1.55
  -9 -12  -3    2.16    1.39
   9  12   4   -1.30    1.46
  -9 -12  -4    1.07    1.43
   9  12   5    1.41    1.59
  -9 -12  -5    0.88    1.54
   9  12   6    3.42    2.18
  -9 -12  -6    2.74    2.28
   9  12   7    0.12    1.76
  -9 -12  -7    3.56    2.06
   9  12   8    7.50    2.38
  -9 -12  -8    6.13    2.65
   9  12   9   51.77    4.51
  -9 -12  -9    4.39    2.62
   9  13  -2    0.44    1.67
   9  13  -1    2.09    2.46
  -9 -13   0    0.44    1.77
   9  13   1    1.91    1.85
  -9 -13  -1    1.17    1.90
   9  13   2    5.96    2.54
  -9 -13  -2    7.85    2.73
   9  13   3   -0.76    1.53
  -9 -13  -3   -1.10    1.86
   9  13   4    2.48    1.66
  -9 -13  -4    1.71    1.99
   9  13   5    6.09    2.39
  -9 -13  -5    1.79    1.79
   9  13   6    4.06    1.75
  -9 -13  -6   -1.48    2.09
   9  13   7   -0.88    1.74
  -9 -13  -7    0.59    1.38
  10  -4  -1   -0.60    2.29
 -10   4   1    2.78    1.57
  10  -4   0    4.59    3.26
 -10   3   5    0.56    1.94
  10  -3  -4    3.76    2.28
  10  -3  -3   21.75    4.43
  10  -3  -2    2.64    1.90
 -10   3   2    0.57    1.29
  10  -3  -1   -2.16    2.09
 -10   3   1   -0.41    1.53
  10  -3   0    4.49    2.23
 -10   3   0    3.35    1.96
  10  -3   1    0.13    1.82
 -10   3  -1    0.52    1.25
  10  -3   2    1.56    1.79
 -10   3  -2    0.71    1.77
  10  -3   3    0.93    1.59
 -10   3  -3   -0.34    1.73
  10  -3   4    0.36    2.31
 -10   3  -4   -2.17    2.16
  10  -2  -7    1.60    1.86
 -10   2   7    3.62    2.76
  10  -2  -6    0.85    2.02
 -10   2   6    4.77    2.70
  10  -2  -5    0.02    1.53
 -10   2   5    1.28    2.12
  10  -2  -4    5.81    2.93
  10  -2  -3    1.65    1.81
  10  -2  -2    3.95    1.88
 -10   2   2    0.45    1.38
  10  -2  -1   13.28    2.91
 -10   2   1    5.50    1.54
  10  -2   0    4.93    2.15
 -10   2   0    3.72    1.76
  10  -2   1    8.76    3.05
 -10   2  -1    8.91    1.91
  10  -2   2   -0.15    1.97
 -10   2  -2    1.14    1.73
  10  -2   3   55.30    5.63
 -10   2  -3   48.07    4.77
  10  -2   4   32.09    4.13
 -10   2  -4   29.40    3.75
  10  -2   5   -0.38    2.48
 -10   2  -5    2.17    1.92
  10  -2   6    2.76    2.69
 -10   2  -6   15.19    2.91
  10  -1  -8    2.75    2.44
 -10   1   8    1.51    1.96
  10  -1  -7   -1.06    2.22
 -10   1   7    5.51    2.19
  10  -1  -6    7.28    2.15
 -10   1   6    9.57    2.66
  10  -1  -5   -1.39    1.26
 -10   1   5    2.40    2.18
  10  -1  -4    2.14    1.46
 -10   1   4   -0.42    1.81
  10  -1  -3    0.05    1.89
  10  -1  -3    0.96    1.32
  10  -1  -2   -0.32    1.41
 -10   1   2    0.17    0.73
  10  -1  -1    0.36    1.47
 -10   1   1    1.35    1.08
  10  -1   0   14.41    2.98
 -10   1   0    9.57    1.71
  10  -1   1   -1.48    1.58
 -10   1  -1    0.22    1.45
  10  -1   2    3.23    2.47
 -10   1  -2    7.82    1.99
  10  -1   3    2.10    2.16
 -10   1  -3    1.52    1.64
  10  -1   4   13.64    3.76
 -10   1  -4   22.64    3.13
  10  -1   5    7.09    2.30
 -10   1  -5    9.40    2.45
  10  -1   6    2.96    2.64
 -10   1  -6    3.96    2.35
  10  -1   7   -3.03    2.33
 -10   1  -7   -0.64    1.80
  10   0  -8   29.42    3.81
 -10   0   8   26.60    3.85
  10   0  -7    1.35    1.55
 -10   0   7    1.16    2.48
  10   0  -6   47.81    4.59
 -10   0   6   34.19    5.48
  10   0  -5    5.75    1.78
 -10   0   5    4.14    2.77
  10   0  -4    9.76    2.19
 -10   0   4    8.00    3.25
  10   0  -3    9.15    2.66
  10   0  -3    6.59    2.04
  10   0  -2   12.47    2.45
  10   0  -2   12.57    2.02
 -10   0   2    8.69    1.44
  10   0  -1    8.48    2.21
  10   0  -1    8.33    1.58
 -10   0   1    6.42    1.51
  10   0   0    8.59    2.05
 -10   0   0    5.96    1.79
  10   0   1    9.09    2.57
 -10   0  -1    5.72    1.73
  10   0   2    0.70    1.37
 -10   0  -2   -1.27    1.30
  10   0   3    3.81    2.07
 -10   0  -3    9.76    2.19
  10   0   4    9.99    2.27
 -10   0  -4   14.20    2.72
  10   0   5    2.19    1.57
 -10   0  -5    0.55    1.72
  10   0   6    1.91    1.96
 -10   0  -6    0.35    1.65
  10   0   7    2.99    2.78
 -10   0  -7    8.61    2.36
  10   0   8   -0.12    1.41
 -10   0  -8    0.02    1.80
  10   1  -9   27.04    4.62
 -10  -1   9   22.42    4.58
  10   1  -8    1.54    1.92
 -10  -1   8    2.28    2.48
  10   1  -7    0.74    1.43
 -10  -1   7   -0.45    1.45
  10   1  -6    4.09    2.21
 -10  -1   6    3.02    2.17
  10   1  -5   16.94    3.03
 -10  -1   5   18.54    2.99
  10   1  -4    3.71    1.99
 -10  -1   4    3.72    2.12
  10   1  -3    5.39    1.91
 -10  -1   3    4.13    2.05
  10   1  -2    9.16    2.15
  10   1  -2    7.72    1.83
  10   1  -1   13.98    2.53
  10   1  -1   10.54    1.84
 -10  -1   1    8.12    1.64
  10   1   0    2.33    1.73
  10   1   0   -0.70    1.03
 -10  -1   0    1.98    0.99
  10   1   1    2.08    1.40
 -10  -1  -1    1.34    1.31
  10   1   2   18.18    3.13
 -10  -1  -2   20.55    2.79
  10   1   3   -0.26    1.38
 -10  -1  -3    2.12    1.29
  10   1   4   -1.29    1.33
 -10  -1  -4    0.21    1.32
  10   1   5   11.46    2.14
 -10  -1  -5    7.31    2.04
  10   1   6    4.94    1.79
 -10  -1  -6    2.92    2.13
  10   1   7    2.81    2.15
 -10  -1  -7    1.63    1.69
  10   1   8    4.25    2.33
 -10  -1  -8    4.82    2.41
  10   1   9    2.02    2.29
 -10  -1  -9    4.93    2.34
  10   2  -9   20.97    3.57
 -10  -2   9   17.07    3.38
  10   2  -8    3.46    1.87
 -10  -2   8   -3.39    1.99
  10   2  -7   10.52    2.49
 -10  -2   7    7.43    2.32
  10   2  -6    1.80    1.69
 -10  -2   6    1.35    1.70
  10   2  -5    2.09    1.65
 -10  -2   5    1.69    1.93
  10   2  -4   19.20    2.90
 -10  -2   4   16.91    2.95
  10   2  -3   -1.53    1.52
 -10  -2   3   -0.61    1.44
  10   2  -2    2.63    1.53
 -10  -2   2    2.56    1.72
  10   2  -1   26.97    3.22
  10   2  -1   26.12    2.33
 -10  -2   1   23.25    1.91
  10   2   0    0.11    1.89
  10   2   0    2.43    1.37
 -10  -2   0    4.95    1.29
  10   2   1    4.96    1.41
  10   2   1    9.02    2.09
 -10  -2  -1    7.38    1.70
  10   2   2   16.23    1.78
  10   2   2   19.21    2.46
 -10  -2  -2   14.58    2.13
  10   2   3   -0.22    1.35
 -10  -2  -3    0.37    1.13
  10   2   4    7.10    1.71
 -10  -2  -4    0.55    1.95
  10   2   5    7.42    1.89
 -10  -2  -5    8.62    2.42
  10   2   6    2.27    1.47
 -10  -2  -6    2.23    2.02
  10   2   7   -0.55    1.44
 -10  -2  -7    0.84    1.32
  10   2   8    6.32    2.02
 -10  -2  -8    8.74    2.90
  10   2   9    3.98    1.99
 -10  -2  -9    7.99    2.89
  10   2  10    2.66    1.68
 -10  -2 -10    0.51    2.05
  10   3  -9   -0.23    2.28
 -10  -3   9    0.50    1.52
  10   3  -8   -1.76    2.51
 -10  -3   8   -3.39    2.19
  10   3  -7    9.66    2.94
 -10  -3   7    6.26    2.35
  10   3  -6    1.69    1.42
 -10  -3   6   -1.11    1.32
  10   3  -5    1.74    1.47
 -10  -3   5   -0.61    1.79
  10   3  -4    6.43    1.85
 -10  -3   4    6.35    2.67
  10   3  -3    0.18    1.09
 -10  -3   3    0.24    1.26
  10   3  -2   -1.11    1.14
 -10  -3   2    1.14    1.14
  10   3  -1    9.89    1.99
 -10  -3   1   10.93    1.46
  10   3   0    6.62    1.68
  10   3   0    4.94    1.35
 -10  -3   0    5.28    1.26
  10   3   1   39.52    2.98
  10   3   1   32.82    3.34
 -10  -3  -1   42.53    2.85
  10   3   2    6.03    1.42
  10   3   2    9.03    1.72
 -10  -3  -2    6.35    1.78
  10   3   3    4.78    1.29
  10   3   3    9.65    1.99
 -10  -3  -3    5.66    1.88
  10   3   4    0.62    1.13
 -10  -3  -4   -2.08    1.26
  10   3   5   15.06    2.67
 -10  -3  -5   15.21    2.35
  10   3   6    4.03    1.82
 -10  -3  -6    3.34    1.81
  10   3   7   11.55    2.43
 -10  -3  -7   12.52    2.54
  10   3   8    6.17    1.72
 -10  -3  -8    3.58    2.71
  10   3   9   10.59    2.33
 -10  -3  -9   14.67    3.36
  10   3  10    1.74    1.73
 -10  -3 -10    5.44    2.13
  10   3  11    3.59    2.30
 -10  -3 -11    4.93    2.98
  10   4  -9   -2.06    2.60
 -10  -4   9    2.52    1.71
  10   4  -8   -3.32    1.95
 -10  -4   8    1.61    1.28
  10   4  -7    1.37    2.23
 -10  -4   7   -3.32    1.99
  10   4  -6   -1.00    1.45
 -10  -4   6    1.47    1.39
  10   4  -5    0.87    1.45
 -10  -4   5    1.13    1.47
  10   4  -4   -1.03    1.27
 -10  -4   4    0.93    1.55
  10   4  -3    7.10    2.18
 -10  -4   3    5.07    2.49
  10   4  -2   -2.14    1.21
 -10  -4   2    0.85    1.35
  10   4  -1    1.38    1.44
 -10  -4   1    0.41    1.31
  10   4   0    7.13    1.61
 -10  -4   0    0.24    1.13
 -10  -4   0    4.47    1.18
  10   4   1    5.05    1.69
  10   4   1    8.84    1.77
 -10  -4  -1    7.97    1.74
  10   4   2    9.84    1.55
  10   4   2    3.47    1.59
 -10  -4  -2    5.70    1.73
  10   4   3    1.15    1.04
  10   4   3    2.33    1.39
 -10  -4  -3    0.76    1.49
  10   4   4   11.80    2.31
 -10  -4  -4   13.26    2.23
  10   4   5    0.78    1.20
 -10  -4  -5    0.64    1.67
 -10  -4  -5    1.92    0.95
  10   4   6   14.32    1.99
 -10  -4  -6   10.85    2.93
  10   4   7    6.07    1.60
 -10  -4  -7    4.60    2.48
  10   4   8    5.66    1.65
 -10  -4  -8    8.92    2.57
  10   4   9    0.98    1.54
 -10  -4  -9    1.23    1.62
  10   4  10    6.87    2.30
 -10  -4 -10   10.19    3.14
  10   4  11   12.97    2.79
 -10  -4 -11   10.85    3.06
  10   5  -9    0.67    2.40
 -10  -5   9    0.77    1.90
  10   5  -8    2.52    2.66
 -10  -5   8    2.29    2.03
  10   5  -7   15.42    3.42
 -10  -5   7    9.59    2.33
  10   5  -6    7.50    2.37
 -10  -5   6    7.34    2.05
  10   5  -5    9.30    2.04
 -10  -5   5    1.53    1.77
  10   5  -4    9.78    2.16
 -10  -5   4    8.69    2.13
  10   5  -3    7.15    1.88
 -10  -5   3    5.71    1.80
  10   5  -2    6.74    1.79
 -10  -5   2    7.86    2.26
  10   5  -1   10.78    2.43
 -10  -5   1   12.20    2.53
  10   5   0    0.25    1.26
 -10  -5   0    0.33    1.42
 -10  -5   0    0.42    0.91
  10   5   1   10.17    2.20
 -10  -5  -1   14.66    2.12
 -10  -5  -1   10.96    1.95
  10   5   2    4.43    1.60
  10   5   2    6.75    1.54
 -10  -5  -2    5.50    1.73
  10   5   3   19.38    2.18
  10   5   3   19.18    2.23
 -10  -5  -3   19.78    2.63
  10   5   4   47.71    3.37
 -10  -5  -4   46.57    3.52
  10   5   5    0.32    1.08
 -10  -5  -5    0.61    1.35
 -10  -5  -5   -0.20    0.85
  10   5   6   18.35    2.12
 -10  -5  -6   20.87    2.49
 -10  -5  -6   13.47    1.78
  10   5   7    5.13    1.53
 -10  -5  -7    8.22    2.01
  10   5   8   -0.16    0.96
 -10  -5  -8    0.22    1.56
  10   5   9   -0.11    1.19
 -10  -5  -9   -0.04    1.39
  10   5  10    1.69    1.52
 -10  -5 -10    0.11    2.10
 -10  -5 -11   -1.37    2.24
  10   6  -8    9.41    3.23
 -10  -6   8   12.81    3.04
  10   6  -7   -3.44    1.96
 -10  -6   7   -1.42    1.61
  10   6  -6   17.55    3.52
 -10  -6   6   13.08    2.34
  10   6  -5    0.80    1.51
 -10  -6   5    0.41    1.62
  10   6  -4    3.11    2.53
 -10  -6   4    9.51    2.32
  10   6  -3   54.72    4.33
 -10  -6   3   47.99    3.96
  10   6  -2    1.78    1.81
 -10  -6   2    8.68    2.02
  10   6  -1    3.87    1.56
 -10  -6   1    4.57    1.98
  10   6   0   -0.89    1.06
 -10  -6   0    1.62    0.83
 -10  -6   0   -1.00    1.09
  10   6   1    0.33    1.34
 -10  -6  -1    1.00    0.90
 -10  -6  -1    0.49    1.14
  10   6   2    3.75    1.63
  10   6   2    3.66    1.06
 -10  -6  -2    1.98    1.76
  10   6   3   16.61    2.34
  10   6   3   11.92    2.05
  10   6   3   14.27    2.19
  10   6   4    5.11    1.35
  10   6   4    5.55    1.64
 -10  -6  -4    3.91    1.31
  10   6   5   30.28    3.32
  10   6   5   30.06    2.94
 -10  -6  -5   30.55    2.78
  10   6   6    1.99    1.29
  10   6   6   -0.27    1.02
 -10  -6  -6   -0.60    0.89
  10   6   7   13.90    2.10
  10   6   7   10.17    2.16
 -10  -6  -7    9.42    1.67
  10   6   8    8.63    2.31
  10   6   8    6.94    1.76
 -10  -6  -8    5.02    1.52
  10   6   9    3.50    1.75
  10   6   9    2.64    1.56
  10   6  10    0.55    1.48
  10   6  11    3.02    1.91
  10   7  -8    9.58    3.48
 -10  -7   8    8.96    2.81
  10   7  -7    2.12    2.83
 -10  -7   7    5.73    2.38
  10   7  -6   20.30    3.53
 -10  -7   6   23.55    3.30
  10   7  -5    4.19    2.87
 -10  -7   5    6.49    2.25
  10   7  -4   27.52    4.26
 -10  -7   4   27.43    3.59
  10   7  -3   19.00    3.10
 -10  -7   3   20.77    2.62
  10   7  -2    8.29    2.09
 -10  -7   2    7.21    2.32
  10   7  -1    1.13    1.45
 -10  -7   1    1.93    1.61
  10   7   0   14.14    2.10
  10   7   0    9.41    1.66
 -10  -7   0    9.04    2.04
  10   7   1   -2.39    1.59
  10   7   1   -0.23    1.12
 -10  -7  -1   -1.88    1.53
  10   7   2    2.49    1.39
  10   7   2    7.27    1.48
 -10  -7  -2    5.61    1.78
  10   7   3    9.07    1.75
  10   7   3    4.07    1.51
 -10  -7  -3    7.89    1.90
  10   7   4    9.20    2.06
 -10  -7  -4   12.08    2.04
 -10  -7  -4   11.77    1.90
  10   7   5    0.03    1.07
  10   7   5    0.27    1.05
 -10  -7  -5    0.68    1.21
  10   7   6   14.75    2.56
  10   7   6   12.51    2.07
 -10  -7  -6   11.69    2.04
  10   7   7    3.20    1.27
  10   7   7    0.04    0.90
 -10  -7  -7   -0.32    0.94
  10   7   8    0.35    1.46
 -10  -7  -8   -0.35    0.83
  10   7   9    4.00    2.34
 -10  -7  -9    3.26    1.18
  10   7  10    2.28    2.22
  10   7  11   -1.99    2.33
  10   8  -7    4.12    2.43
 -10  -8   7    4.14    1.85
  10   8  -6    3.42    2.49
 -10  -8   6    0.78    1.46
  10   8  -5   38.50    4.64
 -10  -8   5   33.10    4.01
  10   8  -4   24.82    3.64
 -10  -8   4   17.02    3.08
  10   8  -3    1.69    1.55
 -10  -8   3   -1.05    1.27
  10   8  -2    5.48    2.18
 -10  -8   2    7.57    2.03
  10   8  -1    0.38    1.54
 -10  -8   1    1.78    1.41
  10   8   0    6.86    2.32
  10   8   0    5.80    1.42
 -10  -8   0    6.38    1.83
  10   8   1    6.00    2.00
  10   8   1    6.88    1.72
 -10  -8  -1    8.33    1.62
  10   8   2   20.40    2.49
  10   8   2   18.88    2.43
 -10  -8  -2   22.91    2.54
  10   8   3   14.41    2.35
  10   8   3   16.64    2.70
 -10  -8  -3   22.76    2.64
  10   8   4    0.92    1.32
 -10  -8  -4    3.31    1.40
 -10  -8  -4   -1.64    1.27
  10   8   5   40.66    3.50
 -10  -8  -5   39.98    3.38
 -10  -8  -5   37.19    3.65
  10   8   6    1.10    1.95
 -10  -8  -6    3.98    1.61
  10   8   7   -0.49    1.20
 -10  -8  -7    0.26    1.11
  10   8   8    8.05    2.30
 -10  -8  -8    9.07    1.67
  10   8   9   -0.20    1.50
 -10  -8  -9    1.16    1.35
  10   8  10    3.46    2.07
 -10  -8 -10    3.70    1.40
  10   8  11   -0.13    1.76
  10   9  -6   10.38    3.61
 -10  -9   6   15.89    2.44
  10   9  -5    1.84    2.84
 -10  -9   5    4.24    1.89
  10   9  -4   23.04    4.34
 -10  -9   4   24.77    2.72
  10   9  -3   13.97    3.73
 -10  -9   3   14.34    2.48
  10   9  -2   12.67    2.74
 -10  -9   2   14.84    2.33
  10   9  -1    0.82    1.45
 -10  -9   1    0.80    1.01
  10   9   0    1.58    1.43
 -10  -9   0   -0.02    1.15
  10   9   1    0.37    1.20
  10   9   1    2.34    1.72
 -10  -9  -1    0.89    1.16
  10   9   2    1.18    1.22
  10   9   2   -0.14    1.61
 -10  -9  -2    0.64    1.07
  10   9   3    3.81    1.62
 -10  -9  -3    2.43    1.27
  10   9   4    4.66    2.00
 -10  -9  -4    6.73    1.88
  10   9   5    2.37    1.45
 -10  -9  -5    2.37    1.85
  10   9   6   25.67    2.97
 -10  -9  -6   26.62    2.79
  10   9   7    4.52    1.95
 -10  -9  -7    0.50    1.21
  10   9   8   -0.98    1.53
 -10  -9  -8   -1.00    1.45
  10   9   9   11.50    2.31
 -10  -9  -9    8.81    2.40
  10   9  10    0.99    2.09
 -10  -9 -10    0.41    1.49
  10   9  11   -1.99    2.17
 -10  -9 -11    5.17    1.75
  10  10  -5    2.58    2.23
 -10 -10   5    2.16    1.37
  10  10  -4    3.14    2.09
 -10 -10   4    1.97    1.53
  10  10  -3   11.72    3.10
 -10 -10   3   20.02    2.50
  10  10  -2    1.08    2.63
 -10 -10   2    3.98    1.42
  10  10  -1    2.45    1.66
 -10 -10   1    0.70    0.97
  10  10   0    2.46    1.81
 -10 -10   0    3.56    1.22
  10  10   1    8.06    1.88
  10  10   1   17.34    2.37
 -10 -10  -1    7.26    1.61
  10  10   2    9.09    2.08
  10  10   2    9.32    2.62
  10  10   3    3.28    1.65
 -10 -10  -3    0.64    2.07
  10  10   4    1.64    1.35
 -10 -10  -4    0.87    1.76
  10  10   5   12.41    2.85
 -10 -10  -5   14.93    2.82
  10  10   6   19.47    3.42
 -10 -10  -6   23.36    2.89
  10  10   7    4.28    2.27
 -10 -10  -7    2.05    1.95
  10  10   8    3.11    2.18
 -10 -10  -8    5.71    1.75
  10  10   9    0.66    1.75
 -10 -10  -9    2.46    1.87
  10  10  10   -0.52    1.66
 -10 -10 -10    0.18    1.07
  10  11  -4   14.44    3.98
 -10 -11   4   14.12    2.20
  10  11  -3   23.18    4.54
 -10 -11   3   18.30    2.46
  10  11  -2    0.94    2.37
 -10 -11   2    1.78    1.05
  10  11  -1    0.18    1.44
  10  11   0    0.96    1.66
  10  11   1    2.36    1.48
  10  11   1    0.45    1.71
  10  11   2    8.53    1.91
 -10 -11  -2    9.74    1.84
  10  11   3    2.40    1.76
 -10 -11  -3    2.08    2.24
  10  11   4   11.95    2.37
 -10 -11  -4   13.31    3.05
  10  11   5    6.12    1.91
 -10 -11  -5    4.62    1.86
  10  11   6    5.04    2.14
 -10 -11  -6    6.40    1.96
  10  11   7    0.38    1.68
 -10 -11  -7    2.14    1.52
  10  11   8   15.13    3.93
 -10 -11  -8   22.92    3.28
  10  11   9    9.58    2.77
 -10 -11  -9   12.53    2.83
  10  12  -2   -2.41    2.27
  10  12  -1    1.44    1.81
  10  12   0    0.07    1.44
 -10 -12  -1   -0.86    1.18
  10  12   2    1.09    1.56
 -10 -12  -2    0.53    1.73
  10  12   3   -0.45    1.50
 -10 -12  -3    0.09    1.41
  10  12   4   17.21    3.26
 -10 -12  -4   20.10    3.10
  10  12   5   17.58    3.27
 -10 -12  -5   14.01    2.73
  10  12   6    3.27    2.14
 -10 -12  -6    0.14    2.01
  10  12   7    2.98    1.79
 -10 -12  -7   -0.62    1.63
  10  12   8   47.52    6.17
 -10 -12  -8   56.73    5.05
 -10 -13  -1    1.86    2.49
 -10 -13  -2   -0.51    1.74
  10  13   3    1.82    1.87
 -10 -13  -3    0.14    1.71
  10  13   4   -0.18    1.92
 -10 -13  -4    1.92    2.07
  10  13   5    0.79    2.20
 -10 -13  -5    1.40    2.07
  11  -2  -1    4.57    2.47
  11  -2   0    2.54    2.05
 -11   2   0    2.93    1.54
  11  -2   1    3.11    2.26
 -11   2  -1    2.29    2.04
 -11   1   4    3.09    2.40
  11  -1  -3    4.46    2.13
  11  -1  -2    4.06    2.22
  11  -1  -1    2.99    2.54
  11  -1   0    4.75    2.08
 -11   1   0    2.26    1.45
  11  -1   1   -0.95    1.78
 -11   1  -1    1.26    1.39
  11  -1   2    3.61    2.19
 -11   1  -2    2.78    1.79
  11  -1   3    2.24    1.76
 -11   1  -3   -1.18    1.97
  11  -1   4   -1.88    1.97
 -11   1  -4    0.96    1.55
  11   0  -6    2.90    2.39
 -11   0   6    4.08    2.54
  11   0  -5    1.83    2.16
 -11   0   5    3.34    2.76
  11   0  -4   -0.72    1.33
 -11   0   4   -0.73    1.80
 -11   0   3    9.60    2.07
  11   0  -2    4.95    2.66
  11   0  -1    1.89    2.01
  11   0   0    1.09    1.85
 -11   0   0    0.03    1.39
  11   0   1   -1.31    2.11
 -11   0  -1   -1.52    1.70
  11   0   2    1.36    2.05
 -11   0  -2    0.43    1.48
  11   0   3   -0.30    2.43
 -11   0  -3    2.34    1.42
  11   0   4    0.81    1.99
 -11   0  -4    0.19    1.45
  11   0   5    7.29    2.39
 -11   0  -5    6.81    2.96
  11   0   6    0.44    1.75
 -11   0  -6   -0.22    1.40
  11   1  -6    4.88    2.42
 -11  -1   6    0.85    2.21
  11   1  -5    3.42    2.37
 -11  -1   5    5.89    2.82
  11   1  -4    1.22    1.66
 -11  -1   4   -0.01    1.90
  11   1  -3   13.79    2.76
 -11  -1   3   14.78    3.88
  11   1  -2    5.73    2.33
  11   1  -2    6.73    1.93
  11   1  -1    7.74    2.35
  11   1   0    1.42    1.65
 -11  -1   0    0.49    1.22
  11   1   1   -0.10    1.82
 -11  -1  -1   -0.66    1.16
  11   1   2    1.01    1.57
 -11  -1  -2    1.25    1.56
  11   1   3   39.55    4.23
 -11  -1  -3   38.97    3.59
  11   1   4    7.36    2.31
 -11  -1  -4   10.32    2.40
  11   1   5    3.37    2.41
 -11  -1  -5    3.90    2.44
 -11  -1  -6   22.82    4.07
  11   1   7   12.91    2.92
 -11  -1  -7   21.47    3.96
  11   2  -7    1.88    2.32
 -11  -2   7    6.67    2.74
  11   2  -6    2.97    2.23
 -11  -2   6    0.18    1.82
  11   2  -5    2.10    2.19
 -11  -2   5    4.92    2.41
  11   2  -4    4.91    2.26
 -11  -2   4    4.82    2.92
  11   2  -3    4.30    1.87
 -11  -2   3    0.13    1.94
  11   2  -2    5.97    1.81
 -11  -2   2    2.21    2.70
  11   2  -1    0.32    1.54
  11   2  -1    1.28    1.32
  11   2   0    5.49    1.72
  11   2   0    7.55    1.98
 -11  -2   0    5.12    1.34
  11   2   1    1.43    1.68
 -11  -2  -1    2.26    1.41
  11   2   2    0.91    1.99
 -11  -2  -2    3.11    1.69
  11   2   3    4.82    2.15
 -11  -2  -3    1.33    1.52
  11   2   4    9.68    2.92
 -11  -2  -4   10.42    2.16
  11   2   5    4.21    2.18
 -11  -2  -5    0.98    1.97
 -11  -2  -6    1.69    2.05
  11   2   7    0.73    1.61
 -11  -2  -7   -0.54    1.29
  11   2   8   11.59    2.74
 -11  -2  -8   15.46    3.38
  11   3  -7    6.00    2.98
 -11  -3   7    5.54    2.42
  11   3  -6   29.50    3.91
 -11  -3   6   30.33    4.04
  11   3  -5    0.26    1.95
 -11  -3   5    5.76    2.01
  11   3  -4   -1.53    1.50
 -11  -3   4   -0.12    2.22
  11   3  -3   14.86    2.47
 -11  -3   3   14.16    2.98
  11   3  -2   10.86    2.47
 -11  -3   2   15.47    3.08
  11   3  -1   11.41    2.07
 -11  -3   1   11.08    2.61
  11   3   0   -1.42    1.04
  11   3   0    1.72    1.19
  11   3   1   10.63    1.67
  11   3   1   14.20    2.33
 -11  -3  -1   12.45    1.84
  11   3   2    2.08    1.36
  11   3   2    5.33    2.21
 -11  -3  -2    3.80    1.32
  11   3   3    3.43    1.77
 -11  -3  -3    6.51    1.92
  11   3   4    3.86    1.84
 -11  -3  -4    4.01    1.84
  11   3   5   -2.62    1.35
 -11  -3  -5    2.90    1.71
 -11  -3  -6    1.23    2.02
  11   3   7    0.14    1.61
 -11  -3  -7    0.43    1.57
  11   3   8    8.51    2.79
 -11  -3  -8   13.40    2.87
  11   3   9   14.19    2.74
 -11  -3  -9   18.28    3.36
  11   4  -7    1.98    2.08
 -11  -4   7    2.70    2.38
  11   4  -6    5.96    2.71
 -11  -4   6    4.64    2.42
  11   4  -5   13.12    3.23
 -11  -4   5   15.50    3.48
  11   4  -4    3.93    2.31
 -11  -4   4    2.70    1.94
  11   4  -3   13.59    2.81
 -11  -4   3    9.85    3.25
  11   4  -2    3.93    1.96
 -11  -4   2    4.66    2.07
  11   4  -1    6.93    1.87
 -11  -4   1    4.49    2.48
  11   4   0    0.43    1.13
 -11  -4   0   -0.40    1.19
  11   4   1    2.06    1.39
  11   4   1    1.79    1.41
 -11  -4  -1   -0.01    1.11
  11   4   2   27.68    2.38
  11   4   2   10.24    2.45
 -11  -4  -2   10.87    2.51
  11   4   3    3.18    1.51
  11   4   3    8.80    2.19
 -11  -4  -3    7.70    2.02
  11   4   4    0.58    1.37
 -11  -4  -4    2.59    1.78
  11   4   5    2.62    1.50
 -11  -4  -5    0.51    1.98
 -11  -4  -6   10.06    3.05
  11   4   7    0.19    1.95
 -11  -4  -7    4.22    1.99
  11   4   8    1.24    1.51
 -11  -4  -8    1.53    1.79
  11   4   9    7.28    2.32
 -11  -4  -9    1.69    2.50
  11   5  -7    2.17    2.21
 -11  -5   7    3.04    2.06
  11   5  -6    2.14    1.89
 -11  -5   6    1.06    2.11
  11   5  -5   -0.98    1.49
 -11  -5   5    1.74    1.54
  11   5  -4   10.82    2.88
 -11  -5   4    9.53    2.44
  11   5  -3   -0.29    1.40
 -11  -5   3    1.77    1.69
  11   5  -2    1.75    1.65
 -11  -5   2    1.61    1.70
  11   5  -1   11.21    2.56
 -11  -5   1   14.78    3.02
  11   5   0    3.57    1.96
 -11  -5   0    4.54    1.85
  11   5   1   -0.16    1.27
 -11  -5  -1   -0.19    1.10
  11   5   2   15.87    2.39
  11   5   2   13.30    2.33
 -11  -5  -2   16.30    2.53
  11   5   3    2.37    1.33
  11   5   3    1.91    1.82
 -11  -5  -3    1.14    1.74
  11   5   4    0.30    1.30
 -11  -5  -4    0.99    1.02
 -11  -5  -4    1.38    1.38
  11   5   5    3.58    1.37
 -11  -5  -5    0.53    1.67
 -11  -5  -6    4.29    2.45
  11   5   7    1.02    1.30
 -11  -5  -7    1.01    2.04
  11   5   8    7.14    2.28
 -11  -5  -8    9.60    3.17
  11   5   9    3.09    1.59
 -11  -5  -9    0.38    2.55
  11   6  -7    1.14    1.98
 -11  -6   7    1.37    2.23
  11   6  -6    3.26    2.23
 -11  -6   6    3.08    2.38
  11   6  -5   -0.02    1.54
 -11  -6   5   -0.26    1.31
  11   6  -4    1.51    1.99
 -11  -6   4    3.63    1.77
  11   6  -3    0.50    1.96
 -11  -6   3    1.35    1.87
  11   6  -2    3.78    2.27
 -11  -6   2    2.54    2.05
  11   6  -1    7.98    2.32
 -11  -6   1    4.11    1.94
  11   6   0   11.57    2.63
 -11  -6   0   13.40    2.96
  11   6   1    7.98    2.05
 -11  -6  -1    4.53    1.95
 -11  -6  -1    5.81    1.79
  11   6   2   32.99    2.95
 -11  -6  -2   32.99    3.76
 -11  -6  -2   31.41    3.35
  11   6   3    0.85    1.18
  11   6   3    0.64    1.08
 -11  -6  -3   -1.09    1.37
  11   6   4    1.24    1.40
 -11  -6  -4    0.92    1.58
 -11  -6  -4    0.43    1.10
  11   6   5   10.19    2.17
 -11  -6  -5    8.56    2.09
 -11  -6  -5    6.13    1.81
 -11  -6  -6    9.75    2.34
 -11  -6  -6    3.13    1.46
  11   6   7   -0.88    1.33
 -11  -6  -7    3.02    1.88
  11   6   8   13.19    2.50
 -11  -6  -8    9.90    3.20
 -11  -6  -9    3.10    2.14
 -11  -6 -10    3.01    2.69
  11   7  -6   -1.66    1.50
 -11  -7   6    1.71    1.51
  11   7  -5   -1.98    1.89
 -11  -7   5   -0.26    1.85
  11   7  -4    0.61    1.59
 -11  -7   4   -0.13    1.71
  11   7  -3    1.75    1.94
 -11  -7   3   -0.73    1.61
  11   7  -2    3.49    1.78
 -11  -7   2    1.17    1.65
  11   7  -1    4.21    1.89
 -11  -7   1    4.65    1.88
  11   7   0   -1.73    1.63
 -11  -7   0    0.41    1.72
  11   7   1   21.58    3.08
 -11  -7  -1   18.30    3.10
  11   7   2   12.82    2.64
 -11  -7  -2   17.58    2.40
  11   7   3   -0.73    1.31
  11   7   3    0.85    1.30
 -11  -7  -3    2.27    1.49
  11   7   4    2.19    1.26
 -11  -7  -4    0.55    1.63
 -11  -7  -4    1.61    1.63
  11   7   5    2.62    1.63
  11   7   5    1.59    1.29
 -11  -7  -5    1.81    1.54
  11   7   6    1.58    1.70
 -11  -7  -6    0.71    1.38
  11   7   7   22.05    3.34
  11   7   7   19.73    2.85
 -11  -7  -7   21.59    2.65
  11   7   8    3.11    1.77
  11   7   9   -2.13    2.19
  11   7  10    2.74    1.90
  11   8  -6    1.71    2.18
 -11  -8   6   -0.45    1.34
  11   8  -5    9.30    2.99
 -11  -8   5    8.50    2.29
  11   8  -4    9.13    2.75
 -11  -8   4    4.69    2.55
  11   8  -3    1.70    1.85
 -11  -8   3    1.07    1.93
  11   8  -2    4.16    2.23
 -11  -8   2    8.21    2.28
  11   8  -1    1.51    1.78
 -11  -8   1    4.06    2.07
  11   8   0   -0.08    1.55
 -11  -8   0    2.45    1.65
  11   8   1    3.01    2.11
 -11  -8  -1    2.81    1.80
  11   8   2   -0.69    1.46
  11   8   2   -1.81    1.22
 -11  -8  -2    1.06    1.16
  11   8   3    3.43    1.70
  11   8   3    2.26    1.87
 -11  -8  -3    3.02    1.81
  11   8   4    2.12    1.78
 -11  -8  -4    6.01    1.95
 -11  -8  -4    2.47    1.78
  11   8   5    1.84    2.08
 -11  -8  -5    3.89    1.85
 -11  -8  -5    5.97    1.52
  11   8   6   14.65    2.95
 -11  -8  -6    9.01    2.28
  11   8   7    0.63    1.43
 -11  -8  -7    0.49    1.30
  11   8   8    1.07    1.93
 -11  -8  -8    1.01    1.19
  11   8   9    0.76    1.63
  11   9  -5    1.38    2.18
 -11  -9   5    1.42    1.62
  11   9  -4    5.87    2.64
 -11  -9   4    5.45    2.28
  11   9  -3   20.62    3.74
 -11  -9   3   28.32    3.52
  11   9  -2    9.34    3.21
 -11  -9   2    8.52    1.97
  11   9  -1   -0.63    2.04
 -11  -9   1    1.78    1.59
  11   9   0    5.43    2.65
 -11  -9   0    6.11    1.96
  11   9   1    0.42    1.37
 -11  -9  -1    0.75    1.39
  11   9   2    0.43    1.54
  11   9   2    2.32    1.85
 -11  -9  -2    2.08    1.54
  11   9   3    5.80    1.78
 -11  -9  -3    7.72    1.89
  11   9   4    4.63    2.04
 -11  -9  -4    2.55    2.18
  11   9   5   24.95    3.75
 -11  -9  -5   23.30    2.89
  11   9   6   -0.01    1.40
 -11  -9  -6   -1.21    1.50
  11   9   7    3.93    2.75
 -11  -9  -7    7.86    2.07
  11   9   8    3.62    2.42
 -11  -9  -8    3.90    1.95
  11   9   9   -1.65    1.57
 -11  -9  -9    1.05    1.41
  11  10  -4    3.25    2.33
 -11 -10   4    1.67    1.88
  11  10  -3   27.93    4.74
 -11 -10   3   28.39    3.44
  11  10  -2   11.03    3.51
 -11 -10   2    8.40    1.84
  11  10  -1    4.99    2.12
 -11 -10   1    1.97    1.63
  11  10   0    0.87    1.54
 -11 -10   0   -1.20    1.26
  11  10   1    0.62    1.51
  11  10   2    0.65    1.23
  11  10   2   -0.44    1.72
  11  10   3    9.96    2.14
 -11 -10  -3    8.33    2.39
  11  10   4   10.37    2.27
 -11 -10  -4    7.14    2.26
  11  10   5    1.00    1.80
 -11 -10  -5    1.82    1.59
  11  10   6    0.88    1.60
 -11 -10  -6    3.02    1.88
  11  10   7    1.63    1.93
 -11 -10  -7    0.28    1.70
  11  10   8   -0.04    1.79
 -11 -10  -8   -0.17    1.39
  11  11  -2    2.95    2.78
  11  11  -1    1.61    1.86
  11  11   0    1.13    2.03
  11  11   1    2.12    2.20
  11  11   3    1.27    1.28
 -11 -11  -3   -0.63    1.56
  11  11   4    0.16    1.16
 -11 -11  -4   -0.27    1.46
  11  11   5   27.27    4.29
 -11 -11  -5   36.94    4.17
  11  11   6   -0.21    1.52
 -11 -11  -6    1.66    1.78
  11  11   7    1.62    1.69
 -11 -11  -7    0.48    1.94
  11  12   1    0.94    1.78
 -11 -12  -2    0.72    1.82
 -11 -12  -3    1.43    1.81
  11  12   4    6.82    2.62
 -11 -12  -4    6.93    2.86
 -12  -1   2    6.80    2.74
  12   1  -1   17.32    3.26
  12   1   0    2.15    1.99
  12   1   1    3.07    2.16
  12   1   2    2.17    2.11
 -12  -1  -2    2.88    1.88
  12   1   3    2.09    2.05
 -12  -1  -3    2.42    1.52
  12   2  -4    5.62    2.41
 -12  -2   4    6.81    3.32
  12   2  -3    3.18    2.12
 -12  -2   3    5.18    2.43
 -12  -2   2    7.68    2.81
  12   2   0   -0.28    1.49
  12   2   1   -1.22    1.78
  12   2   2    1.30    1.99
 -12  -2  -2    4.06    1.58
  12   2   3    3.60    2.17
 -12  -2  -3    5.50    2.25
  12   2   4    2.57    2.83
 -12  -2  -4   10.19    2.69
 -12  -2  -5    3.51    2.12
  12   3  -4   -2.49    2.18
 -12  -3   4   -1.07    2.09
  12   3  -3    1.55    1.50
 -12  -3   3    1.55    1.98
  12   3  -2   10.06    2.88
 -12  -3   2   15.11    3.93
  12   3  -1   -1.60    1.65
 -12  -3   1   -0.19    1.92
  12   3   0   -0.42    1.54
  12   3   1   -1.20    2.06
  12   3   2    0.70    2.19
 -12  -3  -2    2.86    1.46
  12   3   3   -1.85    1.69
 -12  -3  -3    1.21    1.53
  12   3   4    5.70    2.03
 -12  -3  -4    3.80    2.37
  12   3   5    7.09    2.30
 -12  -3  -5    8.02    2.61
  12   3   6   -1.29    1.77
 -12  -3  -6    0.35    1.44
  12   4  -4    1.90    2.04
 -12  -4   4    0.46    1.89
  12   4  -3    9.44    2.38
 -12  -4   3   11.02    2.94
  12   4  -2    1.71    1.67
 -12  -4   2    1.43    2.40
  12   4  -1    0.05    1.63
 -12  -4   1    1.36    1.65
  12   4   0    2.67    1.74
 -12  -4   0    0.69    1.82
  12   4   1    3.98    1.81
  12   4   1    2.66    1.86
  12   4   2    3.56    2.13
 -12  -4  -2    2.11    1.70
  12   4   3   22.23    3.58
 -12  -4  -3   15.86    2.78
  12   4   4    0.81    1.64
 -12  -4  -4   -0.41    1.59
  12   4   5    2.94    1.74
 -12  -4  -5    1.72    2.22
  12   4   6   12.11    3.15
 -12  -4  -6   11.13    3.32
  12   5  -5   -0.64    2.13
 -12  -5   5    1.97    1.88
  12   5  -4    2.02    2.10
 -12  -5   4   -0.71    2.05
  12   5  -3   18.13    3.11
 -12  -5   3   17.55    3.77
  12   5  -2   19.30    3.12
 -12  -5   2   21.81    3.68
  12   5  -1   -0.04    1.88
 -12  -5   1    3.22    1.79
  12   5   0    3.08    1.98
 -12  -5   0    3.49    2.54
  12   5   1   -0.03    1.36
 -12  -5  -1    1.24    1.79
  12   5   2    0.13    1.26
  12   5   2    0.79    1.32
  12   5   3    7.29    2.02
 -12  -5  -3    5.60    2.28
  12   5   4    9.43    2.15
 -12  -5  -4    9.39    2.80
  12   5   5    4.50    2.43
 -12  -5  -5    8.14    2.68
  12   5   6    3.50    2.04
 -12  -5  -6    2.93    2.64
  12   5   7    1.44    1.50
 -12  -5  -7   -0.15    2.43
  12   6  -4    1.60    2.20
 -12  -6   4    4.03    2.47
  12   6  -3    4.52    3.13
 -12  -6   3   11.83    2.66
  12   6  -2    3.82    2.06
 -12  -6   2    3.40    1.94
  12   6  -1    5.67    2.45
 -12  -6   1    5.08    2.35
  12   6   0    7.15    1.93
 -12  -6   0    3.54    2.76
  12   6   1   13.39    2.51
 -12  -6  -1   19.86    3.64
  12   6   2    6.86    2.12
 -12  -6  -2    8.32    2.65
  12   6   3    1.42    1.41
 -12  -6  -3    0.72    1.50
 -12  -6  -3    0.01    1.67
  12   6   4    0.01    1.70
 -12  -6  -4    2.05    1.96
  12   6   5    4.46    2.10
 -12  -6  -5    1.59    2.41
  12   6   6    1.01    1.79
 -12  -6  -6    1.59    1.86
  12   6   7   -0.23    1.59
 -12  -6  -7   -0.88    2.05
  12   7  -4    0.35    2.40
 -12  -7   4    1.67    2.05
  12   7  -3    5.90    2.46
 -12  -7   3    8.69    2.90
  12   7  -2    1.58    1.99
 -12  -7   2   -0.14    1.88
  12   7  -1   -1.98    1.88
 -12  -7   1    0.63    1.86
  12   7   0    1.36    1.64
 -12  -7   0    1.77    2.23
  12   7   1    1.79    1.55
 -12  -7  -1   -1.67    1.35
  12   7   2    0.79    1.66
 -12  -7  -2    1.20    1.49
  12   7   3    5.57    2.31
 -12  -7  -3    8.87    2.18
 -12  -7  -3   10.25    2.52
 -12  -7  -4   -0.29    1.49
 -12  -7  -4    1.76    1.40
 -12  -7  -4    0.10    1.69
  12   7   5   -0.82    1.18
 -12  -7  -5    1.68    1.58
 -12  -7  -5    0.04    1.27
  12   7   6   -1.83    1.75
 -12  -7  -6   -1.79    2.08
 -12  -7  -7    0.50    1.64
  12   8  -3    1.08    2.24
 -12  -8   3    0.54    1.62
  12   8  -2    0.86    1.93
 -12  -8   2    2.25    1.60
  12   8  -1    3.24    2.23
 -12  -8   1    6.28    2.52
  12   8   0    2.67    2.08
 -12  -8   0    5.69    2.29
  12   8   1    0.37    1.49
 -12  -8  -1   -0.25    1.41
  12   8   2    2.30    2.08
 -12  -8  -2    5.22    2.30
  12   8   3    4.80    2.08
 -12  -8  -3    3.55    2.32
  12   8   4    0.24    1.32
 -12  -8  -4    0.55    1.30
 -12  -8  -4    0.29    1.63
  12   8   5   -0.57    1.11
 -12  -8  -5    0.78    1.35
  12   8   6    0.95    1.59
 -12  -8  -6   -0.12    1.42
  12   8   7   -0.56    1.74
  12   9  -2    1.39    2.48
 -12  -9   2    1.61    2.03
  12   9  -1    0.15    1.72
 -12  -9   1    1.01    1.72
  12   9   0    0.96    2.20
 -12  -9   0    4.00    1.78
  12   9   1   -0.84    1.85
 -12  -9  -1   -0.12    1.67
  12   9   2    6.57    2.14
 -12  -9  -2    8.71    2.47
 -12  -9  -3    0.27    0.94
  12   9   4    0.16    1.54
 -12  -9  -4    0.79    1.47
  12   9   5    2.48    1.90
 -12  -9  -5    0.33    1.86
  12   9   6    2.84    1.90
 -12  -9  -6   -0.52    1.77
  12  10   0    1.19    2.23
  12  10   1    2.08    2.38
  12  10   2   17.91    3.59
 -12 -10  -3    1.94    2.20
  12  10   4    1.16    2.01
 -12 -10  -4    2.17    1.74
  12  10   5    1.23    1.73
 -12 -10  -5    1.59    1.61
   0   0   0    0.00    0.00
;
_shelx_hkl_checksum              93295
loop_
_space_group_symop_operation_xyz
'x, y, z'
'-x, -y, -z'
loop_
_atom_site_label
_atom_site_type_symbol
_atom_site_fract_x
_atom_site_fract_y
_atom_site_fract_z
_atom_site_U_iso_or_equiv
_atom_site_adp_type
_atom_site_occupancy
_atom_site_site_symmetry_order
_atom_site_calc_flag
_atom_site_refinement_flags_posn
_atom_site_refinement_flags_adp
_atom_site_refinement_flags_occupancy
H1O H 0.712(4) 0.313(3) 0.086(3) 0.050(10) Uiso 1 1 d . . .
H4O H 0.109(4) 0.473(3) 0.571(3) 0.044(10) Uiso 1 1 d . . .
H5O H 0.557(4) 0.328(4) 0.945(3) 0.070(12) Uiso 1 1 d . . .
H6O H 0.881(6) 0.194(5) 0.879(4) 0.13(2) Uiso 1 1 d . . .
H2O H 0.085(4) 0.496(4) 0.260(3) 0.061(11) Uiso 1 1 d . . .
C1 C 0.4774(3) 0.3761(3) 0.33473(19) 0.0199(6) Uani 1 1 d . . .
C2 C 0.5785(3) 0.3469(3) 0.2549(2) 0.0226(6) Uani 1 1 d . . .
H2 H 0.6806 0.3123 0.2684 0.027 Uiso 1 1 calc R U .
C3 C 0.5260(3) 0.3701(3) 0.15367(19) 0.0213(6) Uani 1 1 d . . .
C4 C 0.3762(3) 0.4196(3) 0.1337(2) 0.0236(6) Uani 1 1 d . . .
H4 H 0.3427 0.4340 0.0643 0.028 Uiso 1 1 calc R U .
C5 C 0.2778(3) 0.4473(3) 0.2141(2) 0.0223(6) Uani 1 1 d . . .
C6 C 0.3267(3) 0.4258(3) 0.3185(2) 0.0219(6) Uani 1 1 d . . .
C7 C 0.2291(3) 0.4530(3) 0.4049(2) 0.0238(6) Uani 1 1 d . . .
C8 C 0.2934(3) 0.4220(3) 0.5070(2) 0.0235(6) Uani 1 1 d . . .
C9 C 0.4425(3) 0.3712(3) 0.51919(19) 0.0206(6) Uani 1 1 d . . .
C10 C 0.5284(3) 0.3322(3) 0.61538(19) 0.0199(6) Uani 1 1 d . . .
C11 C 0.4652(3) 0.3526(3) 0.71366(19) 0.0204(6) Uani 1 1 d . . .
H11 H 0.3618 0.3930 0.7199 0.024 Uiso 1 1 calc R U .
C12 C 0.5514(3) 0.3144(3) 0.80186(19) 0.0208(6) Uani 1 1 d . . .
C13 C 0.7039(3) 0.2561(3) 0.7941(2) 0.0221(6) Uani 1 1 d . . .
C14 C 0.7663(3) 0.2359(3) 0.6967(2) 0.0255(6) Uani 1 1 d . . .
H14 H 0.8698 0.1961 0.6905 0.031 Uiso 1 1 calc R U .
C15 C 0.6815(3) 0.2725(3) 0.6087(2) 0.0236(6) Uani 1 1 d . . .
H15 H 0.7268 0.2572 0.5427 0.028 Uiso 1 1 calc R U .
C16 C 0.9790(3) 0.1592(3) 0.1788(2) 0.0353(7) Uani 1 1 d . . .
H16 H 0.9278 0.1183 0.2277 0.042 Uiso 1 1 calc R U .
C17 C 1.1291(3) 0.1087(3) 0.1839(2) 0.0333(7) Uani 1 1 d . . .
H17 H 1.1791 0.0345 0.2351 0.040 Uiso 1 1 calc R U .
C18 C 1.2080(3) 0.1670(3) 0.1135(2) 0.0277(6) Uani 1 1 d . . .
C19 C 1.1259(3) 0.2757(3) 0.0413(2) 0.0313(7) Uani 1 1 d . . .
H19 H 1.1737 0.3198 -0.0077 0.038 Uiso 1 1 calc R U .
C20 C 0.9752(3) 0.3194(3) 0.0409(2) 0.0337(7) Uani 1 1 d . . .
H20 H 0.9220 0.3928 -0.0099 0.040 Uiso 1 1 calc R U .
C21 C 1.3686(3) 0.1183(3) 0.1088(2) 0.0304(7) Uani 1 1 d . . .
C22 C 1.4586(3) 0.0130(3) 0.1713(2) 0.0326(7) Uani 1 1 d . . .
C23 C 1.6187(3) -0.0339(3) 0.1638(2) 0.0299(7) Uani 1 1 d . . .
C24 C 1.7060(3) -0.1393(3) 0.2362(3) 0.0354(7) Uani 1 1 d . . .
H24 H 1.6621 -0.1804 0.2912 0.042 Uiso 1 1 calc R U .
C25 C 1.8567(3) -0.1840(3) 0.2278(3) 0.0369(8) Uani 1 1 d . . .
H25 H 1.9139 -0.2564 0.2778 0.044 Uiso 1 1 calc R U .
C26 C 1.8417(3) -0.0278(3) 0.0841(2) 0.0325(7) Uani 1 1 d . . .
H26 H 1.8883 0.0129 0.0310 0.039 Uiso 1 1 calc R U .
C27 C 1.6912(3) 0.0216(3) 0.0865(2) 0.0316(7) Uani 1 1 d . . .
H27 H 1.6369 0.0938 0.0352 0.038 Uiso 1 1 calc R U .
C30 C 0.7069(11) -0.0486(10) 0.5021(8) 0.0415(19) Uani 0.5401 1 d . . P
C33 C 0.4539(10) 0.0066(12) 0.5048(10) 0.057(3) Uani 0.4599 1 d . . P
C34 C 0.9438(14) -0.0565(13) 0.4740(9) 0.099(5) Uani 0.4634 1 d . . P
H34 H 1.0294 -0.0396 0.4556 0.119 Uiso 1 1 calc R U .
C37 C 0.712(3) -0.010(2) 0.4487(15) 0.128(7) Uani 0.5366 1 d . . P
C35 C 0.9457(14) -0.1689(11) 0.5499(9) 0.134(5) Uani 0.5845 1 d . . P
H35 H 1.0330 -0.2339 0.5820 0.161 Uiso 1 1 calc R U .
C36 C 0.697(2) -0.110(2) 0.5691(18) 0.085(5) Uani 0.4154 1 d . . P
N1 N 0.9008(2) 0.2633(3) 0.10840(19) 0.0327(6) Uani 1 1 d . . .
N2 N 1.9261(3) -0.1305(2) 0.1528(2) 0.0325(6) Uani 1 1 d . . .
O1 O 0.6167(2) 0.3440(2) 0.07124(14) 0.0275(5) Uani 1 1 d . . .
O2 O 0.1328(2) 0.4950(2) 0.19468(15) 0.0311(5) Uani 1 1 d . . .
O3 O 0.09158(19) 0.5001(2) 0.39559(14) 0.0332(5) Uani 1 1 d . . .
O4 O 0.2019(2) 0.4424(2) 0.59092(15) 0.0338(5) Uani 1 1 d . . .
O5 O 0.4853(2) 0.3343(2) 0.89651(14) 0.0292(5) Uani 1 1 d . . .
O6 O 0.7819(2) 0.2234(2) 0.88296(14) 0.0278(5) Uani 1 1 d . . .
O7 O 0.53126(18) 0.35232(18) 0.43261(13) 0.0220(4) Uani 1 1 d . . .
S1A S 0.8023(9) -0.1739(7) 0.5728(5) 0.090(3) Uani 0.264(6) 1 d . . P
S1B S 0.7971(5) 0.0316(4) 0.4265(3) 0.0550(16) Uani 0.287(5) 1 d . . P
S1C S 0.5490(11) 0.0598(6) 0.4205(4) 0.060(3) Uani 0.257(9) 1 d . . P
S1D S 0.4404(15) 0.0932(7) 0.4086(5) 0.062(4) Uani 0.195(9) 1 d . . P
loop_
_atom_site_aniso_label
_atom_site_aniso_U_11
_atom_site_aniso_U_22
_atom_site_aniso_U_33
_atom_site_aniso_U_23
_atom_site_aniso_U_13
_atom_site_aniso_U_12
C1 0.0197(13) 0.0257(14) 0.0137(12) -0.0032(10) -0.0031(10) -0.0081(11)
C2 0.0136(12) 0.0285(14) 0.0222(13) -0.0064(11) -0.0007(11) -0.0036(11)
C3 0.0193(13) 0.0266(14) 0.0171(12) -0.0061(11) 0.0029(10) -0.0078(11)
C4 0.0213(14) 0.0306(15) 0.0178(13) -0.0051(11) -0.0035(11) -0.0079(12)
C5 0.0153(13) 0.0277(14) 0.0194(13) -0.0019(11) -0.0037(10) -0.0043(11)
C6 0.0170(13) 0.0281(14) 0.0176(13) -0.0026(11) 0.0008(10) -0.0067(11)
C7 0.0162(13) 0.0307(15) 0.0203(13) -0.0022(11) -0.0024(11) -0.0056(11)
C8 0.0181(13) 0.0339(15) 0.0160(12) -0.0042(11) 0.0014(11) -0.0080(12)
C9 0.0197(13) 0.0273(14) 0.0144(12) -0.0041(11) 0.0014(10) -0.0088(11)
C10 0.0178(13) 0.0257(14) 0.0161(12) -0.0025(11) -0.0031(10) -0.0082(11)
C11 0.0149(12) 0.0272(14) 0.0186(12) -0.0047(11) -0.0014(10) -0.0072(11)
C12 0.0193(13) 0.0276(14) 0.0157(12) -0.0044(11) 0.0039(10) -0.0098(11)
C13 0.0199(13) 0.0271(14) 0.0172(13) -0.0025(11) -0.0028(11) -0.0071(11)
C14 0.0138(13) 0.0340(16) 0.0235(14) -0.0069(12) 0.0017(11) -0.0034(11)
C15 0.0174(13) 0.0341(15) 0.0163(12) -0.0059(11) -0.0001(10) -0.0063(12)
C16 0.0224(15) 0.0472(19) 0.0335(17) -0.0048(15) 0.0015(13) -0.0124(14)
C17 0.0217(15) 0.0363(17) 0.0351(17) 0.0005(14) -0.0039(13) -0.0070(13)
C18 0.0195(14) 0.0289(15) 0.0337(16) -0.0096(13) -0.0020(12) -0.0062(12)
C19 0.0227(15) 0.0348(17) 0.0321(16) -0.0017(13) -0.0017(12) -0.0086(13)
C20 0.0236(15) 0.0391(17) 0.0302(16) -0.0046(14) -0.0043(13) -0.0038(13)
C21 0.0189(14) 0.0318(16) 0.0409(17) -0.0099(13) -0.0012(13) -0.0084(12)
C22 0.0188(14) 0.0331(16) 0.0437(18) -0.0082(14) -0.0041(13) -0.0064(13)
C23 0.0189(14) 0.0270(15) 0.0429(17) -0.0068(13) -0.0033(13) -0.0073(12)
C24 0.0211(15) 0.0318(16) 0.0474(19) 0.0034(14) -0.0029(14) -0.0087(13)
C25 0.0216(15) 0.0309(16) 0.052(2) -0.0023(15) -0.0091(14) -0.0042(13)
C26 0.0211(15) 0.0447(18) 0.0306(16) -0.0063(14) -0.0005(12) -0.0119(13)
C27 0.0213(15) 0.0352(17) 0.0334(16) -0.0045(13) -0.0047(13) -0.0060(13)
C30 0.052(5) 0.053(5) 0.032(4) -0.024(4) 0.017(4) -0.028(4)
C33 0.074(9) 0.060(5) 0.060(6) -0.051(5) 0.011(8) -0.035(8)
C34 0.120(11) 0.129(11) 0.094(9) -0.076(8) 0.077(8) -0.086(10)
C37 0.20(2) 0.136(14) 0.100(13) -0.074(11) 0.047(13) -0.102(15)
C35 0.124(10) 0.096(8) 0.124(10) -0.063(8) -0.050(8) 0.046(7)
C36 0.067(11) 0.096(12) 0.116(15) -0.080(12) -0.002(10) -0.027(10)
N1 0.0175(12) 0.0491(16) 0.0267(13) -0.0112(12) 0.0012(10) -0.0063(11)
N2 0.0194(12) 0.0384(15) 0.0355(14) -0.0073(12) -0.0033(11) -0.0063(11)
O1 0.0150(10) 0.0455(12) 0.0165(9) -0.0091(9) 0.0005(8) -0.0049(9)
O2 0.0132(9) 0.0531(14) 0.0192(10) -0.0049(9) -0.0013(8) -0.0055(9)
O3 0.0131(10) 0.0573(14) 0.0205(10) -0.0030(9) -0.0002(8) -0.0068(9)
O4 0.0141(10) 0.0610(15) 0.0171(10) -0.0052(9) 0.0005(8) -0.0062(10)
O5 0.0205(10) 0.0492(13) 0.0160(9) -0.0079(9) 0.0005(8) -0.0108(9)
O6 0.0186(10) 0.0411(12) 0.0170(9) -0.0035(8) -0.0051(8) -0.0047(9)
O7 0.0161(9) 0.0324(10) 0.0141(9) -0.0037(8) 0.0000(7) -0.0061(8)
S1A 0.077(5) 0.097(5) 0.101(4) -0.013(3) -0.016(4) -0.038(4)
S1B 0.054(3) 0.045(2) 0.059(2) -0.0149(18) 0.0056(18) -0.0094(17)
S1C 0.079(7) 0.063(3) 0.049(3) -0.008(2) 0.009(3) -0.042(4)
S1D 0.092(12) 0.051(4) 0.051(3) -0.008(3) -0.009(4) -0.035(5)
loop_
_atom_type_symbol
_atom_type_description
_atom_type_scat_dispersion_real
_atom_type_scat_dispersion_imag
_atom_type_scat_source
C C 0.0033 0.0016 'International Tables Vol C Tables 4.2.6.8 and 6.1.1.4'
H H 0.0000 0.0000 'International Tables Vol C Tables 4.2.6.8 and 6.1.1.4'
N N 0.0061 0.0033 'International Tables Vol C Tables 4.2.6.8 and 6.1.1.4'
O O 0.0106 0.0060 'International Tables Vol C Tables 4.2.6.8 and 6.1.1.4'
S S 0.1246 0.1234 'International Tables Vol C Tables 4.2.6.8 and 6.1.1.4'
loop_
_geom_angle_atom_site_label_1
_geom_angle_atom_site_label_2
_geom_angle_atom_site_label_3
_geom_angle
_geom_angle_site_symmetry_1
_geom_angle_site_symmetry_3
O7 C1 C2 116.6(2) . .
O7 C1 C6 120.4(2) . .
C2 C1 C6 123.0(2) . .
C1 C2 C3 117.7(2) . .
C1 C2 H2 121.1 . .
C3 C2 H2 121.1 . .
O1 C3 C2 121.8(2) . .
O1 C3 C4 117.0(2) . .
C2 C3 C4 121.3(2) . .
C5 C4 C3 120.0(2) . .
C5 C4 H4 120.0 . .
C3 C4 H4 120.0 . .
O2 C5 C4 120.0(2) . .
O2 C5 C6 119.5(2) . .
C4 C5 C6 120.5(2) . .
C1 C6 C7 119.7(2) . .
C1 C6 C5 117.5(2) . .
C7 C6 C5 122.8(2) . .
O3 C7 C6 123.0(2) . .
O3 C7 C8 119.9(2) . .
C6 C7 C8 117.1(2) . .
O4 C8 C9 121.1(2) . .
O4 C8 C7 117.8(2) . .
C9 C8 C7 121.0(2) . .
O7 C9 C8 119.4(2) . .
O7 C9 C10 111.3(2) . .
C8 C9 C10 129.3(2) . .
C11 C10 C15 118.3(2) . .
C11 C10 C9 123.1(2) . .
C15 C10 C9 118.7(2) . .
C12 C11 C10 120.7(2) . .
C12 C11 H11 119.6 . .
C10 C11 H11 119.6 . .
O5 C12 C11 118.9(2) . .
O5 C12 C13 120.6(2) . .
C11 C12 C13 120.5(2) . .
O6 C13 C14 123.8(2) . .
O6 C13 C12 117.5(2) . .
C14 C13 C12 118.7(2) . .
C15 C14 C13 121.2(2) . .
C15 C14 H14 119.4 . .
C13 C14 H14 119.4 . .
C14 C15 C10 120.6(2) . .
C14 C15 H15 119.7 . .
C10 C15 H15 119.7 . .
N1 C16 C17 123.5(3) . .
N1 C16 H16 118.2 . .
C17 C16 H16 118.2 . .
C16 C17 C18 119.8(3) . .
C16 C17 H17 120.1 . .
C18 C17 H17 120.1 . .
C19 C18 C17 116.3(2) . .
C19 C18 C21 119.2(3) . .
C17 C18 C21 124.5(3) . .
C20 C19 C18 120.2(3) . .
C20 C19 H19 119.9 . .
C18 C19 H19 119.9 . .
N1 C20 C19 123.1(3) . .
N1 C20 H20 118.4 . .
C19 C20 H20 118.4 . .
C22 C21 C18 124.6(3) . .
C21 C22 C23 123.2(3) . .
C27 C23 C24 116.6(3) . .
C27 C23 C22 123.3(3) . .
C24 C23 C22 120.1(3) . .
C25 C24 C23 119.8(3) . .
C25 C24 H24 120.1 . .
C23 C24 H24 120.1 . .
N2 C25 C24 123.4(3) . .
N2 C25 H25 118.3 . .
C24 C25 H25 118.3 . .
N2 C26 C27 123.5(3) . .
N2 C26 H26 118.2 . .
C27 C26 H26 118.2 . .
C26 C27 C23 120.1(3) . .
C26 C27 H27 119.9 . .
C23 C27 H27 119.9 . .
C37 C30 C36 171.9(19) . .
C37 C30 C33 94(2) . 2_656
C36 C30 C33 84.2(15) . 2_656
C37 C30 S1A 138(2) . .
C36 C30 S1A 40.9(10) . .
C33 C30 S1A 122.3(11) 2_656 .
C37 C30 S1B 33.6(19) . .
C36 C30 S1B 151.7(13) . .
C33 C30 S1B 122.2(9) 2_656 .
S1A C30 S1B 115.3(7) . .
C37 C30 S1C 56(2) . .
C36 C30 S1C 121.7(14) . .
C33 C30 S1C 37.5(6) 2_656 .
S1A C30 S1C 156.1(7) . .
S1B C30 S1C 85.4(6) . .
C37 C30 S1D 139(2) . 2_656
C36 C30 S1D 38.5(12) . 2_656
C33 C30 S1D 45.8(7) 2_656 2_656
S1A C30 S1D 78.4(7) . 2_656
S1B C30 S1D 163.8(7) . 2_656
S1C C30 S1D 83.4(5) . 2_656
C33 C33 S1C 105(2) 2_656 2_656
C33 C33 S1D 82(2) 2_656 .
S1C C33 S1D 173.3(9) 2_656 .
C33 C33 C30 167(3) 2_656 2_656
S1C C33 C30 88.1(9) 2_656 2_656
S1D C33 C30 85.2(11) . 2_656
C33 C33 S1D 64.3(18) 2_656 2_656
S1C C33 S1D 40.5(6) 2_656 2_656
S1D C33 S1D 146.2(6) . 2_656
C30 C33 S1D 128.6(11) 2_656 2_656
C33 C33 S1C 42.9(16) 2_656 .
S1C C33 S1C 147.7(9) 2_656 .
S1D C33 S1C 38.9(5) . .
C30 C33 S1C 124.1(12) 2_656 .
S1D C33 S1C 107.3(6) 2_656 .
C33 C33 C37 167(3) 2_656 2_656
S1C C33 C37 62.0(11) 2_656 2_656
S1D C33 C37 111.4(13) . 2_656
C30 C33 C37 26.3(7) 2_656 2_656
S1D C33 C37 102.4(12) 2_656 2_656
S1C C33 C37 150.2(13) . 2_656
C33 C33 C36 131(2) 2_656 2_656
S1C C33 C36 124.7(12) 2_656 2_656
S1D C33 C36 48.7(11) . 2_656
C30 C33 C36 36.6(7) 2_656 2_656
S1D C33 C36 165.1(12) 2_656 2_656
S1C C33 C36 87.6(12) . 2_656
C37 C33 C36 62.7(9) 2_656 2_656
C35 C34 S1B 115.4(9) . .
C35 C34 H34 122.3 . .
S1B C34 H34 122.3 . .
C30 C37 S1B 124(3) . .
C30 C37 S1C 100(2) . .
S1B C37 S1C 125.7(18) . .
C30 C37 C33 60.2(19) . 2_656
S1B C37 C33 154.9(15) . 2_656
S1C C37 C33 39.7(8) . 2_656
C30 C37 C36 4.7(11) . .
S1B C37 C36 127.6(18) . .
S1C C37 C36 98.6(15) . .
C33 C37 C36 59.0(12) 2_656 .
C30 C37 S1A 28.6(17) . .
S1B C37 S1A 107.2(16) . .
S1C C37 S1A 124.8(14) . .
C33 C37 S1A 85.5(11) 2_656 .
C36 C37 S1A 27.8(6) . .
C34 C35 S1A 114.3(9) . .
C34 C35 H35 122.8 . .
S1A C35 H35 122.8 . .
S1A C36 C30 97.0(18) . .
S1A C36 S1D 146(2) . 2_656
C30 C36 S1D 112(2) . 2_656
S1A C36 C33 149.4(19) . 2_656
C30 C36 C33 59.2(14) . 2_656
S1D C36 C33 53.4(9) 2_656 2_656
S1A C36 C37 96.7(18) . .
C30 C36 C37 3.4(8) . .
S1D C36 C37 111.7(18) 2_656 .
C33 C36 C37 58.3(12) 2_656 .
S1A C36 S1C 152.6(17) . 2_656
C30 C36 S1C 102.9(16) . 2_656
S1D C36 S1C 9.8(6) 2_656 2_656
C33 C36 S1C 43.7(6) 2_656 2_656
C37 C36 S1C 102.0(14) . 2_656
C20 N1 C16 117.1(2) . .
C25 N2 C26 116.6(2) . .
C3 O1 H1O 115(2) . .
C5 O2 H2O 107(2) . .
C8 O4 H4O 111(2) . .
C12 O5 H5O 109(2) . .
C13 O6 H6O 119(3) . .
C1 O7 C9 122.27(19) . .
C36 S1A C35 137.1(14) . .
C36 S1A C30 42.1(13) . .
C35 S1A C30 100.1(7) . .
C36 S1A C37 55.6(15) . .
C35 S1A C37 88.9(8) . .
C30 S1A C37 13.7(7) . .
C36 S1A S1D 19.2(14) . 2_656
C35 S1A S1D 156.1(6) . 2_656
C30 S1A S1D 59.5(6) . 2_656
C37 S1A S1D 72.3(7) . 2_656
C37 S1B C34 112.6(13) . .
C37 S1B C30 22.1(11) . .
C34 S1B C30 94.6(6) . .
C37 S1B S1C 31.8(12) . .
C34 S1B S1C 144.2(5) . .
C30 S1B S1C 50.2(4) . .
S1D S1C C33 93.7(8) . 2_656
S1D S1C C37 171.3(10) . .
C33 S1C C37 78.3(11) 2_656 .
S1D S1C C33 61.5(6) . .
C33 S1C C33 32.3(9) 2_656 .
C37 S1C C33 110.6(11) . .
S1D S1C C30 148.1(7) . .
C33 S1C C30 54.3(8) 2_656 .
C37 S1C C30 24.1(7) . .
C33 S1C C30 86.6(7) . .
S1D S1C C36 12.9(8) . 2_656
C33 S1C C36 81.0(10) 2_656 2_656
C37 S1C C36 159.3(8) . 2_656
C33 S1C C36 48.7(9) . 2_656
C30 S1C C36 135.3(6) . 2_656
S1D S1C S1B 166.3(6) . .
C33 S1C S1B 98.2(8) 2_656 .
C37 S1C S1B 22.4(8) . .
C33 S1C S1B 130.0(7) . .
C30 S1C S1B 44.4(4) . .
C36 S1C S1B 171.1(4) 2_656 .
S1D S1C S1D 97.5(6) . 2_656
C33 S1C S1D 3.8(5) 2_656 2_656
C37 S1C S1D 74.7(10) . 2_656
C33 S1C S1D 36.0(5) . 2_656
C30 S1C S1D 50.6(6) . 2_656
C36 S1C S1D 84.7(9) 2_656 2_656
S1B S1C S1D 94.4(6) . 2_656
S1C S1D C36 157.3(13) . 2_656
S1C S1D C33 79.6(7) . .
C36 S1D C33 77.9(13) 2_656 .
S1C S1D C33 45.8(5) . 2_656
C36 S1D C33 111.7(13) 2_656 2_656
C33 S1D C33 33.8(6) . 2_656
S1C S1D C30 128.5(6) . 2_656
C36 S1D C30 29.0(11) 2_656 2_656
C33 S1D C30 48.9(5) . 2_656
C33 S1D C30 82.8(5) 2_656 2_656
S1C S1D S1A 164.4(6) . 2_656
C36 S1D S1A 14.6(10) 2_656 2_656
C33 S1D S1A 89.9(7) . 2_656
C33 S1D S1A 123.1(6) 2_656 2_656
C30 S1D S1A 42.1(4) 2_656 2_656
S1C S1D S1C 82.5(6) . 2_656
C36 S1D S1C 75.0(13) 2_656 2_656
C33 S1D S1C 3.0(4) . 2_656
C33 S1D S1C 36.8(4) 2_656 2_656
C30 S1D S1C 46.0(4) 2_656 2_656
S1A S1D S1C 87.1(5) 2_656 2_656
loop_
_geom_bond_atom_site_label_1
_geom_bond_atom_site_label_2
_geom_bond_distance
_geom_bond_site_symmetry_2
C1 O7 1.357(3) .
C1 C2 1.379(4) .
C1 C6 1.396(3) .
C2 C3 1.395(3) .
C2 H2 0.9500 .
C3 O1 1.344(3) .
C3 C4 1.395(4) .
C4 C5 1.367(4) .
C4 H4 0.9500 .
C5 O2 1.351(3) .
C5 C6 1.422(3) .
C6 C7 1.422(4) .
C7 O3 1.263(3) .
C7 C8 1.439(3) .
C8 O4 1.358(3) .
C8 C9 1.373(4) .
C9 O7 1.370(3) .
C9 C10 1.466(3) .
C10 C11 1.398(3) .
C10 C15 1.404(3) .
C11 C12 1.382(3) .
C11 H11 0.9500 .
C12 O5 1.363(3) .
C12 C13 1.399(4) .
C13 O6 1.352(3) .
C13 C14 1.384(4) .
C14 C15 1.374(3) .
C14 H14 0.9500 .
C15 H15 0.9500 .
C16 N1 1.343(4) .
C16 C17 1.374(4) .
C16 H16 0.9500 .
C17 C18 1.400(4) .
C17 H17 0.9500 .
C18 C19 1.393(4) .
C18 C21 1.470(4) .
C19 C20 1.381(4) .
C19 H19 0.9500 .
C20 N1 1.335(4) .
C20 H20 0.9500 .
C21 C22 1.335(4) .
C22 C23 1.469(4) .
C23 C27 1.388(4) .
C23 C24 1.393(4) .
C24 C25 1.383(4) .
C24 H24 0.9500 .
C25 N2 1.340(4) .
C25 H25 0.9500 .
C26 N2 1.340(4) .
C26 C27 1.376(4) .
C26 H26 0.9500 .
C27 H27 0.9500 .
C30 C37 0.757(16) .
C30 C36 1.03(2) .
C30 C33 1.484(13) 2_656
C30 S1A 1.526(12) .
C30 S1B 1.664(11) .
C30 S1C 1.826(14) .
C30 S1D 1.961(17) 2_656
C33 C33 0.872(16) 2_656
C33 S1C 1.113(15) 2_656
C33 S1D 1.411(15) .
C33 C30 1.484(13) 2_656
C33 S1D 1.550(18) 2_656
C33 S1C 1.580(14) .
C33 C37 1.71(2) 2_656
C33 C36 1.72(3) 2_656
C34 C35 1.450(15) .
C34 S1B 1.503(15) .
C34 H34 0.9500 .
C37 S1B 1.11(2) .
C37 S1C 1.54(3) .
C37 C33 1.71(2) 2_656
C37 C36 1.78(2) .
C37 S1A 2.15(2) .
C35 S1A 1.458(16) .
C35 H35 0.9500 .
C36 S1A 1.007(16) .
C36 S1D 1.32(2) 2_656
C36 C33 1.72(3) 2_656
C36 S1C 2.28(2) 2_656
O1 H1O 0.90(4) .
O2 H2O 0.94(4) .
O4 H4O 0.89(3) .
O5 H5O 0.97(4) .
O6 H6O 0.91(5) .
S1A S1D 2.229(16) 2_656
S1B S1C 2.370(11) .
S1C S1D 1.008(9) .
S1C C33 1.113(15) 2_656
S1C C36 2.28(2) 2_656
S1C S1D 2.520(7) 2_656
S1D C36 1.32(2) 2_656
S1D C33 1.550(18) 2_656
S1D C30 1.961(17) 2_656
S1D S1A 2.229(16) 2_656
S1D S1C 2.520(7) 2_656
loop_
_geom_hbond_atom_site_label_D
_geom_hbond_atom_site_label_H
_geom_hbond_atom_site_label_A
_geom_hbond_distance_DH
_geom_hbond_distance_HA
_geom_hbond_distance_DA
_geom_hbond_angle_DHA
_geom_hbond_site_symmetry_A
C11 H11 O4 0.95 2.24 2.896(3) 125.2 .
C16 H16 S1B 0.95 2.97 3.882(6) 161.5 .
C20 H20 O2 0.95 2.48 3.343(4) 151.1 2_665
C26 H26 O6 0.95 2.66 3.367(4) 131.8 1_654
