#------------------------------------------------------------------------------
#$Date: 2016-03-04 14:10:11 +0200 (Fri, 04 Mar 2016) $
#$Revision: 177545 $
#$URL: svn://www.crystallography.net/cod/cif/1/54/24/1542496.cif $
#------------------------------------------------------------------------------
#
# This file is available in the Crystallography Open Database (COD),
# http://www.crystallography.net/
#
# All data on this site have been placed in the public domain by the
# contributors.
#
data_1542496
loop_
_publ_author_name
'Jamaludin, Nazzatush Shimar'
'Halim, Siti Nadiah Abdul'
'Tiekink, Edward R. T.'
_publ_section_title
;
 3-(2-Hydroxyethyl)-3-methyl-1-(4-methylbenzoyl)thiourea
;
_journal_coeditor_code           VM4002
_journal_issue                   1
_journal_name_full               IUCrData
_journal_page_first              x152457
_journal_paper_doi               10.1107/S2414314615024578
_journal_volume                  1
_journal_year                    2016
_chemical_formula_iupac          'C12 H16 N2 O2 S'
_chemical_formula_moiety         'C12 H16 N2 O2 S'
_chemical_formula_sum            'C12 H16 N2 O2 S'
_chemical_formula_weight         252.33
_chemical_name_systematic
;
3-(2-Hydroxyethyl)-3-methyl-1-(4-methylbenzoyl)thiourea
;
_space_group_crystal_system      orthorhombic
_space_group_IT_number           19
_space_group_name_Hall           'P 2ac 2ab'
_space_group_name_H-M_alt        'P 21 21 21'
_symmetry_space_group_name_Hall  'P 2ac 2ab'
_symmetry_space_group_name_H-M   'P 21 21 21'
_atom_sites_solution_hydrogens   mixed
_audit_creation_method           SHELXL-2014/7
_cell_angle_alpha                90
_cell_angle_beta                 90
_cell_angle_gamma                90
_cell_formula_units_Z            4
_cell_length_a                   7.351(3)
_cell_length_b                   12.452(4)
_cell_length_c                   13.423(5)
_cell_measurement_reflns_used    2964
_cell_measurement_temperature    296(2)
_cell_measurement_theta_max      29.93
_cell_measurement_theta_min      2.23
_cell_volume                     1228.7(8)
_computing_cell_refinement
;
SMART (Bruker, 2009)
;
_computing_data_collection
;
SMART (Bruker, 2009)
;
_computing_data_reduction
;
SAINT (Bruker, 2009)
;
_computing_molecular_graphics
;
ORTEP-3 for Windows (Farrugia, 2012) and
DIAMOND (Brandenburg, 2006)
;
_computing_publication_material
;
publCIF (Westrip, 2010)
;
_computing_structure_refinement
;
SHELXL2014 (Sheldrick, 2015)
;
_computing_structure_solution
;
SHELXS97 (Sheldrick, 2008)
;
_diffrn_ambient_temperature      296(2)
_diffrn_measured_fraction_theta_full 0.990
_diffrn_measured_fraction_theta_max 0.990
_diffrn_measurement_device_type  'Bruker SMART APEX'
_diffrn_measurement_method       '\f and \w scans'
_diffrn_radiation_monochromator  graphite
_diffrn_radiation_source         'fine-focus sealed tube'
_diffrn_radiation_type           MoK\a
_diffrn_radiation_wavelength     0.71073
_diffrn_reflns_av_R_equivalents  0.0305
_diffrn_reflns_limit_h_max       9
_diffrn_reflns_limit_h_min       -9
_diffrn_reflns_limit_k_max       16
_diffrn_reflns_limit_k_min       -16
_diffrn_reflns_limit_l_max       10
_diffrn_reflns_limit_l_min       -17
_diffrn_reflns_number            7036
_diffrn_reflns_theta_full        27.489
_diffrn_reflns_theta_max         27.489
_diffrn_reflns_theta_min         2.231
_diffrn_standards_decay_%        0
_diffrn_standards_interval_count 0
_diffrn_standards_interval_time  0
_diffrn_standards_number         0
_exptl_absorpt_coefficient_mu    0.255
_exptl_absorpt_correction_T_max  0.9627
_exptl_absorpt_correction_T_min  0.9507
_exptl_absorpt_correction_type   multi-scan
_exptl_absorpt_process_details
;
(SADABS; Sheldrick, 1996)
;
_exptl_crystal_colour            yellow
_exptl_crystal_density_diffrn    1.364
_exptl_crystal_description       block
_exptl_crystal_F_000             536
_exptl_crystal_size_max          0.200
_exptl_crystal_size_mid          0.160
_exptl_crystal_size_min          0.150
_refine_diff_density_max         0.182
_refine_diff_density_min         -0.247
_refine_ls_abs_structure_details
;
Flack <i>x</i> determined using 1054 quotients [(I+)-(I-)]/[(I+)+(I-)]
(Parsons <i>et al.</i>,  2013)
;
_refine_ls_abs_structure_Flack   0.10(4)
_refine_ls_extinction_method     none
_refine_ls_goodness_of_fit_ref   1.017
_refine_ls_matrix_type           full
_refine_ls_number_parameters     162
_refine_ls_number_reflns         2790
_refine_ls_number_restraints     2
_refine_ls_restrained_S_all      1.017
_refine_ls_R_factor_all          0.0337
_refine_ls_R_factor_gt           0.0309
_refine_ls_shift/su_max          0.001
_refine_ls_shift/su_mean         0.000
_refine_ls_structure_factor_coef Fsqd
_refine_ls_weighting_details
'w=1/[\s^2^(Fo^2^)+(0.0336P)^2^+0.2556P] where P=(Fo^2^+2Fc^2^)/3'
_refine_ls_weighting_scheme      calc
_refine_ls_wR_factor_gt          0.0715
_refine_ls_wR_factor_ref         0.0733
_reflns_number_gt                2637
_reflns_number_total             2790
_reflns_threshold_expression     'I > 2\s(I)'
_cod_data_source_file            vm4002sup1.cif
_cod_data_source_block           I
_cod_depositor_comments          'Adding full bibliography for 1542496.cif.'
_cod_original_cell_volume        1228.8(7)
_cod_database_code               1542496
_cod_database_fobs_code          1542496
_shelx_space_group_comment
;
The symmetry employed for this shelxl refinement is uniquely defined
by the following loop, which should always be used as a source of
symmetry information in preference to the above space-group names.
They are only intended as comments.
;
_shelx_estimated_absorpt_t_min   0.951
_shelx_estimated_absorpt_t_max   0.963
_shelx_hkl_file
;
  -1   0   0   -0.64    0.05
  -2   0   0 1000.00   33.38
   2   0   0  970.08   36.65
   3   0   0   -0.01    0.04
  -3   0   0   -0.02    0.03
  -4   0   0   18.79    0.71
   4   0   0   18.96    0.79
   5   0   0   -0.11    0.05
  -5   0   0    0.03    0.04
   6   0   0    3.31    0.25
  -6   0   0    3.02    0.20
  -7   0   0   -0.07    0.06
   7   0   0    0.09    0.10
   9   0   0   -0.10    0.10
  10   0   0    0.03    0.14
   0  -1   0   -0.04    0.01
   0   1   0   -0.06    0.01
  -1  -1   0    6.62    0.24
   1  -1   0    6.59    0.23
   1   1   0    6.42    0.27
  -1   1   0    6.53    0.25
  -2   1   0  169.63    5.82
  -2  -1   0  169.80    5.81
   2   1   0  174.59    6.38
   3   1   0    3.46    0.20
  -3  -1   0    3.82    0.17
  -3   1   0    3.28    0.17
  -4  -1   0   21.55    0.81
  -4   1   0   22.05    0.82
   4  -1   0   21.24    0.90
   4   1   0   22.42    0.90
  -5  -1   0    0.72    0.10
  -5   1   0    1.00    0.12
   5  -1   0    0.98    0.14
   5   1   0    1.10    0.15
  -6  -1   0    0.21    0.08
   6  -1   0    0.30    0.11
  -6   1   0    0.17    0.07
   6   1   0    0.23    0.10
   7  -1   0    3.93    0.31
   7   1   0    4.42    0.31
  -7   1   0    4.43    0.27
   8   1   0    0.00    0.10
   8  -1   0   -0.04    0.09
   9   1   0    3.26    0.36
   9  -1   0    3.65    0.38
  10   1   0    0.21    0.15
  10  -1   0    0.42    0.17
   0  -2   0   77.46    2.53
   0   2   0   76.99    2.88
   1  -2   0   98.91    3.21
  -1   2   0   98.46    3.35
   1   2   0   97.76    3.66
  -2   2   0    5.46    0.24
   2  -2   0    5.36    0.20
  -2  -2   0    5.24    0.22
   2   2   0    5.33    0.24
  -3  -2   0   81.47    2.84
  -3   2   0   83.10    2.85
   3   2   0   83.10    3.12
  -4  -2   0   23.55    0.85
  -4   2   0   21.11    0.86
   4   2   0   24.32    0.95
  -5  -2   0   20.67    0.80
   5   2   0   21.32    0.91
   5  -2   0   22.23    0.91
  -5   2   0   20.50    0.82
   6   2   0    0.46    0.13
   6  -2   0    0.54    0.13
  -6   2   0    0.39    0.10
  -6  -2   0    0.58    0.10
   7   2   0    0.53    0.13
  -7   2   0    0.81    0.14
   7  -2   0    0.68    0.15
   8   2   0    0.86    0.19
   8  -2   0    0.80    0.17
   9   2   0    0.08    0.12
   9  -2   0    0.08    0.11
  10  -2   0    0.01    0.13
  10   2   0    0.06    0.14
   0   3   0   -0.09    0.02
   0  -3   0   -0.12    0.04
  -1   3   0    1.38    0.10
   1   3   0    1.37    0.08
   1  -3   0    1.33    0.08
  -1  -3   0    1.49    0.11
   2  -3   0   13.81    0.48
  -2   3   0   14.09    0.54
   2   3   0   13.78    0.56
  -3   3   0    1.48    0.12
   3   3   0    1.24    0.12
  -4   3   0    0.55    0.09
   4   3   0    0.64    0.10
  -4  -3   0    0.32    0.07
   5  -3   0   -0.09    0.06
  -5   3   0    0.13    0.07
  -5  -3   0    0.06    0.05
   5   3   0    0.10    0.08
   6  -3   0    0.51    0.13
   6   3   0    0.56    0.13
  -6  -3   0    0.61    0.11
  -6   3   0    0.67    0.12
  -7   3   0    0.24    0.09
   7   3   0    0.09    0.10
   7  -3   0    0.07    0.10
   8  -3   0    4.64    0.35
   8   3   0    3.82    0.33
   9   3   0    0.24    0.14
   9  -3   0    0.03    0.11
  10   3   0    2.23    0.31
   0  -4   0    7.79    0.31
  -1  -4   0  116.50    3.83
   1   4   0  115.59    4.33
   1  -4   0  116.38    3.81
   2  -4   0    2.73    0.13
  -2  -4   0    2.75    0.17
  -2   4   0    2.80    0.16
   2   4   0    2.89    0.16
   3   4   0    3.80    0.21
  -3   4   0    3.68    0.21
   3  -4   0    3.90    0.17
   4   4   0    0.13    0.07
  -4   4   0    0.17    0.06
   5   4   0   -0.01    0.07
  -5   4   0   -0.03    0.06
   6   4   0    0.18    0.10
   6  -4   0    0.14    0.10
  -6   4   0    0.18    0.09
  -7   4   0    2.74    0.25
   7  -4   0    2.59    0.28
   7   4   0    2.31    0.26
   8   4   0    0.81    0.18
   8  -4   0    1.00    0.20
  -8   4   0    1.16    0.18
  -8  -4   0    1.09    0.21
   9   4   0    2.63    0.32
   9  -4   0    2.38    0.30
  10   4   0    2.50    0.34
   0  -5   0   -0.05    0.04
   1   5   0    0.79    0.07
  -1  -5   0    0.82    0.10
   1  -5   0    0.79    0.08
   2  -5   0    7.51    0.29
  -2  -5   0    7.30    0.33
   2   5   0    7.47    0.33
  -2   5   0    7.58    0.34
  -3  -5   0    0.01    0.06
   3  -5   0    0.03    0.04
   3   5   0    0.02    0.05
  -3   5   0   -0.03    0.05
  -4   5   0    8.26    0.39
  -4  -5   0    7.39    0.38
   4   5   0    7.98    0.39
   5   5   0    5.23    0.32
  -5   5   0    5.85    0.32
  -6   5   0    2.14    0.22
   6  -5   0    2.39    0.25
  -6  -5   0    2.30    0.24
   6   5   0    1.99    0.22
  -7  -5   0    9.09    0.48
   7   5   0    7.98    0.48
   7  -5   0    8.29    0.49
  -7   5   0    8.88    0.46
   8   5   0    0.12    0.12
   8  -5   0    0.13    0.12
  -8  -5   0    0.07    0.14
  -8   5   0    0.20    0.11
   9   5   0    0.98    0.20
  -9  -5   0    1.10    0.23
   9  -5   0    1.81    0.27
   0  -6   0  109.39    3.63
  -1  -6   0   30.90    1.10
   1   6   0   31.28    1.20
   1  -6   0   31.28    1.08
  -2  -6   0    3.54    0.21
   2  -6   0    3.55    0.17
  -2   6   0    3.34    0.21
   2   6   0    3.49    0.19
   3   6   0    5.99    0.30
  -3   6   0    6.32    0.32
  -3  -6   0    5.73    0.30
   3  -6   0    6.02    0.26
   4  -6   0   26.60    0.95
  -4  -6   0   28.42    1.04
   4   6   0   26.33    1.11
  -4   6   0   28.39    1.07
   5   6   0    2.91    0.22
  -5   6   0    3.27    0.23
  -5  -6   0    2.48    0.25
  -6  -6   0   22.41    0.92
  -6   6   0   22.96    0.94
   6   6   0   22.06    0.98
   7  -6   0    7.20    0.45
   7   6   0    6.92    0.43
  -7  -6   0    6.48    0.41
  -7   6   0    6.73    0.40
  -8   6   0    6.55    0.41
   8  -6   0    7.66    0.48
   8   6   0    6.11    0.44
  -8  -6   0    6.45    0.43
   9  -6   0   11.18    0.67
   9   6   0   10.39    0.64
  -9  -6   0   12.76    0.64
   0  -7   0   -0.01    0.05
   1  -7   0    8.25    0.35
  -1  -7   0    8.14    0.37
   1   7   0    8.64    0.37
   2  -7   0   13.85    0.54
  -2  -7   0   14.44    0.58
  -2   7   0   14.81    0.60
   2   7   0   14.28    0.60
   3   7   0   17.99    0.73
  -3   7   0   16.98    0.72
   3  -7   0   17.66    0.64
  -3  -7   0   17.36    0.70
   4   7   0   14.02    0.64
   4  -7   0   14.60    0.55
  -4   7   0   15.09    0.65
  -4  -7   0   15.22    0.63
  -5  -7   0    2.25    0.24
   5   7   0    2.78    0.21
  -5   7   0    2.90    0.26
  -6  -7   0   11.03    0.54
  -6   7   0   10.70    0.53
   6   7   0   10.17    0.54
   7  -7   0    0.15    0.13
   7   7   0    0.29    0.12
  -7   7   0    0.05    0.10
  -7  -7   0    0.18    0.14
   8  -7   0    7.57    0.49
  -8   7   0    6.62    0.43
  -8  -7   0    6.87    0.45
   8   7   0    5.92    0.43
  -9  -7   0    0.30    0.17
   9  -7   0    0.06    0.15
   9   7   0    0.25    0.15
   0  -8   0    5.23    0.27
   1   8   0    0.79    0.09
   1  -8   0    0.76    0.10
  -1  -8   0    0.99    0.13
   2  -8   0    0.06    0.05
  -2  -8   0    0.14    0.08
  -2   8   0    0.05    0.06
   2   8   0    0.28    0.06
   3  -8   0    0.81    0.10
   3   8   0    0.89    0.11
  -3  -8   0    0.95    0.15
  -3   8   0    0.69    0.12
  -4   8   0    2.39    0.23
   4  -8   0    2.26    0.15
   4   8   0    2.10    0.18
  -4  -8   0    2.03    0.22
   5   8   0    0.50    0.11
  -5   8   0    0.70    0.14
  -5  -8   0    0.43    0.14
   6   8   0   -0.06    0.07
  -6   8   0    0.01    0.09
  -6  -8   0   -0.02    0.11
  -7   8   0    8.55    0.48
  -7  -8   0    7.66    0.47
   7  -8   0    8.39    0.50
   7   8   0    7.12    0.45
  -8   8   0    0.22    0.13
   8  -8   0    0.05    0.12
   8   8   0    0.09    0.11
  -8  -8   0   -0.03    0.14
   9  -8   0    4.08    0.44
  -9  -8   0    3.77    0.40
   0  -9   0   -0.02    0.07
  -1  -9   0    0.02    0.08
   1   9   0    0.00    0.04
   1  -9   0   -0.03    0.05
   2  -9   0    1.28    0.14
  -2  -9   0    1.27    0.17
   2   9   0    1.50    0.13
  -2   9   0    1.39    0.17
   3   9   0    0.78    0.11
  -3  -9   0    0.78    0.15
  -3   9   0    0.79    0.14
   3  -9   0    0.91    0.11
  -4  -9   0    2.53    0.25
   4   9   0    2.77    0.20
  -4   9   0    2.84    0.27
   4  -9   0    2.48    0.17
  -5   9   0    3.52    0.28
  -5  -9   0    3.92    0.30
   5   9   0    4.21    0.27
   6   9   0    6.40    0.38
  -6  -9   0    6.32    0.40
  -6   9   0    6.10    0.39
   7  -9   0    1.33    0.23
  -7   9   0    1.71    0.24
  -7  -9   0    1.10    0.22
   8  -9   0    0.42    0.19
  -8   9   0    0.63    0.18
  -9  -9   0    0.79    0.24
   9  -9   0    0.69    0.22
   0 -10   0    7.71    0.38
   1 -10   0    0.32    0.09
  -1 -10   0    0.56    0.12
  -1  10   0    0.50    0.11
  -2  10   0    2.82    0.22
   2 -10   0    2.51    0.18
  -2 -10   0    2.91    0.25
   3 -10   0   16.87    0.64
  -3 -10   0   16.29    0.70
  -3  10   0   15.63    0.72
  -4 -10   0    0.71    0.16
  -4  10   0    0.65    0.14
  -5 -10   0   16.03    0.73
  -5  10   0   15.61    0.74
  -6 -10   0    2.12    0.27
  -6  10   0    2.47    0.28
  -7 -10   0    1.67    0.26
  -7  10   0    1.24    0.22
   7 -10   0    1.05    0.22
  -8 -10   0    1.87    0.29
  -8  10   0    1.90    0.28
   8 -10   0    1.86    0.30
   0 -11   0   -0.08    0.06
  -1  11   0    2.39    0.24
   1 -11   0    1.99    0.20
  -1 -11   0    3.01    0.23
  -2  11   0    7.84    0.42
   2 -11   0    7.76    0.36
  -2 -11   0    6.83    0.40
  -3 -11   0    1.76    0.22
   3 -11   0    1.92    0.18
  -3  11   0    1.75    0.22
  -4 -11   0    0.30    0.13
  -4  11   0    0.20    0.11
  -5  11   0    1.90    0.25
  -5 -11   0    1.81    0.25
  -6  11   0    2.60    0.30
  -6 -11   0    2.11    0.28
   7 -11   0    0.71    0.20
  -7 -11   0    0.73    0.20
  -7  11   0    0.37    0.16
  -8  11   0    0.06    0.13
   0 -12   0    0.46    0.12
  -1 -12   0   10.25    0.51
   1 -12   0   10.83    0.49
  -1  12   0   10.93    0.54
   2 -12   0    0.80    0.13
  -2  12   0    1.08    0.17
  -2 -12   0    0.95    0.17
  -3 -12   0   17.75    0.79
  -3  12   0   18.16    0.82
  -4  12   0    1.43    0.22
  -4 -12   0    1.22    0.20
  -5 -12   0    4.03    0.37
  -5  12   0    4.22    0.34
  -6  12   0    0.12    0.12
  -6 -12   0    0.24    0.16
  -7  12   0    0.48    0.17
  -7 -12   0    0.38    0.18
   0 -13   0   -0.03    0.07
  -1 -13   0    1.33    0.18
   1 -13   0    1.25    0.17
  -1  13   0    1.26    0.20
  -2 -13   0    2.56    0.27
  -2  13   0    2.90    0.29
   2 -13   0    2.42    0.22
  -3  13   0    0.63    0.15
  -3 -13   0    0.51    0.15
  -4 -13   0    0.77    0.18
  -5 -13   0    2.29    0.30
  -5  13   0    2.90    0.33
  -6  13   0    0.15    0.13
  -6 -13   0    0.13    0.15
   0  14   0    2.41    0.27
   0 -14   0    2.31    0.24
  -1  14   0    5.34    0.37
   1 -14   0    5.53    0.33
  -1 -14   0    5.59    0.36
  -2  14   0    1.98    0.26
   2 -14   0    2.02    0.21
  -2 -14   0    2.20    0.26
  -3  14   0    2.93    0.32
  -3 -14   0    3.82    0.34
  -4  14   0    1.75    0.25
  -4 -14   0    1.47    0.24
  -5 -14   0    2.48    0.31
  -5  14   0    3.19    0.35
  -6  14   0    0.10    0.13
   0  15   0   -0.03    0.09
   0 -15   0   -0.02    0.09
  -1  15   0    0.29    0.13
  -1 -15   0    0.14    0.11
   1 -15   0    0.14    0.10
  -2  15   0    0.93    0.19
  -2 -15   0    0.95    0.19
  -3  15   0    0.00    0.11
  -3 -15   0    0.02    0.12
  -4 -15   0    0.38    0.16
  -4  15   0    0.27    0.14
   0 -16   0   11.82    0.59
   0  16   0   11.47    0.63
  -1  16   0    1.13    0.22
   1  16   0    1.19    0.22
   1 -16   0    1.35    0.20
  -1 -16   0    0.92    0.19
  -2  16   0   12.05    0.66
  -2 -16   0   11.35    0.61
  -3  16   0    0.42    0.16
  -3 -16   0    0.57    0.17
   0 -17   0    0.12    0.12
   0  17   0    0.15    0.14
   1  17   0    0.45    0.17
  -1  17   0    0.16    0.14
  -1 -17   0    0.34    0.15
   2  17   0    4.55    0.42
  -2 -17   0    3.95    0.38
   0   0  -1   -0.17    0.01
   0   0  -1   -0.17    0.01
   0   0  -1   -0.16    0.01
  -1   0  -1    3.10    0.12
  -1   0   1    2.99    0.12
  -1   0  -1    2.95    0.14
   1   0  -1    2.88    0.15
  -2   0  -1    0.70    0.07
  -2   0   1    0.69    0.06
   2   0  -1    0.79    0.08
  -3   0  -1   18.95    0.70
  -3   0   1   18.72    0.67
   3   0  -1   18.13    0.76
  -4   0   1    0.21    0.05
   4   0  -1    0.14    0.07
   4   0   1    0.15    0.07
  -4   0  -1    0.26    0.06
  -5   0   1    4.20    0.22
  -5   0  -1    4.17    0.24
   5   0  -1    4.40    0.27
   5   0   1    4.16    0.28
   6   0   1    3.26    0.26
  -6   0  -1    3.66    0.23
   6   0  -1    3.93    0.27
  -6   0   1    3.98    0.22
   7   0   1    0.34    0.12
  -7   0  -1    0.57    0.12
   7   0  -1    0.19    0.11
   8   0   1    4.42    0.35
   8   0  -1    4.60    0.35
   9   0   1    0.21    0.13
   9   0  -1    0.08    0.13
  10   0   1    0.17    0.14
  10   0  -1    0.27    0.16
   0   1  -1  102.02    3.69
   0   1  -1  113.76    4.06
  -1  -1  -1   11.51    0.39
  -1  -1  -1   11.37    0.41
   1   1  -1   11.21    0.39
   1   1  -1   11.12    0.44
   1  -1  -1   10.78    0.44
  -1   1  -1   11.20    0.41
   1  -1  -1   10.84    0.39
  -2  -1  -1  122.37    4.16
  -2   1   1  128.81    4.15
   2   1  -1  124.63    4.56
  -2   1  -1  112.57    4.16
   2  -1  -1  124.79    4.55
  -2  -1   1  118.33    4.13
  -3  -1  -1   12.63    0.48
  -3   1   1   11.66    0.47
   3   1  -1   12.67    0.53
   3   1   1   12.72    0.53
  -3  -1   1   12.37    0.46
  -3   1  -1   11.59    0.48
   3  -1  -1   12.57    0.53
  -4   1   1   32.23    1.12
   4   1  -1   31.74    1.25
  -4  -1  -1   31.38    1.13
  -4   1  -1   29.15    1.13
   4   1   1   29.88    1.24
  -4  -1   1   30.44    1.10
   4  -1  -1   32.25    1.25
  -5   1   1    9.61    0.41
  -5  -1  -1   10.03    0.43
   5   1  -1    9.63    0.48
   5  -1   1    8.75    0.47
  -5  -1   1    9.92    0.41
   5   1   1    9.69    0.48
   5  -1  -1   10.30    0.49
  -5   1  -1   10.03    0.44
   6  -1   1    8.69    0.48
  -6  -1  -1    9.35    0.43
   6   1  -1    9.08    0.48
  -6   1   1    8.48    0.41
  -6  -1   1    9.41    0.40
   6   1   1    9.38    0.48
  -6   1  -1    9.27    0.43
   6  -1  -1    8.88    0.47
   7  -1   1    7.13    0.43
  -7   1   1    6.71    0.35
   7   1  -1    6.54    0.41
  -7  -1  -1    7.00    0.37
   7   1   1    6.84    0.42
  -7   1  -1    7.35    0.38
   7  -1  -1    7.31    0.43
   8  -1   1    2.53    0.28
   8   1   1    1.90    0.25
   8  -1  -1    2.26    0.28
   9   1  -1    0.83    0.20
   9  -1   1    0.97    0.20
   9  -1  -1    0.99    0.21
  10  -1   1    1.87    0.29
  10   1  -1    1.57    0.27
  10   1   1    1.68    0.28
  10  -1  -1    1.47    0.26
   0   2  -1    3.24    0.14
   0  -2  -1    3.09    0.13
   1   2  -1   23.50    0.89
   1  -2   1   23.46    0.77
  -1  -2  -1   22.99    0.79
  -1   2  -1   23.10    0.83
   1  -2  -1   23.14    0.78
   1   2   1   23.02    0.88
   2   2  -1   17.69    0.70
  -2  -2  -1   16.85    0.62
  -2  -2  -1   17.63    0.65
  -2   2   1   16.05    0.64
   2   2   1   17.67    0.69
   2  -2  -1   18.47    0.61
  -2   2  -1   18.32    0.65
  -3  -2  -1    9.79    0.40
   3   2  -1    9.96    0.44
  -3   2   1    9.85    0.40
   3   2   1    9.95    0.43
  -3  -2   1    9.91    0.38
   3  -2  -1    9.21    0.43
  -3   2  -1    9.98    0.41
   4   2  -1   12.56    0.56
  -4  -2  -1   12.74    0.51
  -4   2   1   12.25    0.50
   4   2   1   12.38    0.55
  -4   2  -1   13.04    0.52
   4  -2  -1   11.93    0.55
  -4  -2   1   12.34    0.48
   5   2  -1    6.09    0.34
  -5   2   1    5.53    0.29
  -5  -2  -1    5.51    0.29
   5  -2  -1    6.10    0.34
  -5   2  -1    6.06    0.31
   5   2   1    5.98    0.33
  -5  -2   1    5.76    0.27
   6   2  -1    4.72    0.32
  -6  -2  -1    4.38    0.27
  -6   2   1    5.24    0.28
   6  -2   1    4.95    0.32
  -6  -2   1    4.74    0.25
   6  -2  -1    5.08    0.32
  -6   2  -1    4.62    0.28
   6   2   1    4.55    0.31
   7   2  -1    3.10    0.26
   7  -2   1    3.15    0.27
  -7  -2  -1    2.79    0.22
  -7   2   1    2.83    0.21
  -7   2  -1    3.14    0.23
   7  -2  -1    2.48    0.27
   7   2   1    3.35    0.27
   8   2  -1    3.67    0.32
   8  -2   1    3.42    0.34
  -8   2  -1    4.25    0.29
   8   2   1    3.70    0.31
   8  -2  -1    3.73    0.32
   9  -2   1    0.86    0.19
   9   2  -1    0.94    0.21
   9  -2  -1    0.63    0.18
   9   2   1    0.49    0.16
  10  -2   1    1.81    0.28
  10   2  -1    1.48    0.26
  10  -2  -1    1.66    0.28
  10   2   1    1.33    0.26
   0  -3   1   17.65    0.60
   0  -3  -1   17.03    0.61
   1  -3   1    0.66    0.05
   1   3  -1    0.57    0.06
  -1  -3  -1    0.65    0.07
   1  -3  -1    0.54    0.06
   1   3   1    0.61    0.05
  -1   3  -1    0.62    0.07
   2   3  -1   73.68    2.87
   2  -3   1   75.56    2.49
  -2   3   1   74.98    2.63
  -2  -3  -1   75.83    2.54
   2   3   1   77.63    2.86
  -2   3  -1   78.91    2.64
   2  -3  -1   76.23    2.51
   3   3  -1   12.46    0.54
  -3   3   1   13.63    0.51
  -3  -3  -1   11.48    0.49
  -3  -3  -1   12.49    0.50
   3   3   1   12.70    0.53
  -3   3  -1   12.57    0.51
   4   3  -1   14.64    0.64
  -4  -3  -1   14.78    0.59
  -4   3   1   15.65    0.59
   4  -3  -1   14.12    0.63
   4   3   1   14.34    0.63
  -4   3  -1   13.85    0.59
  -5  -3  -1    7.36    0.35
  -5   3   1    6.80    0.34
   5   3  -1    7.37    0.39
   5   3   1    7.39    0.38
   5  -3  -1    7.37    0.39
  -5   3  -1    6.89    0.35
  -5  -3   1    7.25    0.32
   6  -3   1   10.89    0.55
   6   3  -1   11.08    0.56
  -6   3   1   10.71    0.49
  -6  -3  -1   11.80    0.50
  -6   3  -1   10.71    0.50
   6  -3  -1   10.61    0.55
   6   3   1   10.17    0.54
   7  -3   1    1.12    0.19
   7   3  -1    0.86    0.17
  -7   3   1    1.09    0.15
   7   3   1    0.76    0.16
  -7   3  -1    0.91    0.15
   7  -3  -1    0.89    0.17
  -8  -3  -1    1.71    0.22
   8   3  -1    1.18    0.21
   8  -3   1    1.11    0.20
   8   3   1    1.12    0.21
   8  -3  -1    0.97    0.20
  -8   3  -1    1.28    0.19
   9  -3   1    0.37    0.15
   9   3  -1    0.19    0.13
   9   3   1    0.22    0.14
   9  -3  -1    0.23    0.13
  10   3  -1    0.57    0.20
  10   3   1    0.48    0.18
   0  -4  -1   10.09    0.37
   0   4  -1    9.07    0.40
   0  -4   1   10.05    0.37
   1   4  -1   18.84    0.73
   1  -4   1   18.78    0.64
  -1  -4  -1   18.54    0.67
  -1  -4   1   17.65    0.66
  -1   4  -1   18.61    0.69
   1   4   1   18.31    0.71
   1  -4  -1   18.07    0.65
   2  -4   1    2.51    0.11
  -2  -4  -1    2.42    0.16
  -2   4   1    2.66    0.16
   2   4  -1    2.44    0.15
   2   4   1    2.39    0.14
  -2   4  -1    2.42    0.15
   2  -4  -1    2.38    0.13
   3  -4   1   13.79    0.48
  -3   4   1   13.19    0.55
   3   4  -1   14.52    0.59
  -3  -4  -1   11.90    0.53
   3   4   1   14.02    0.57
  -3   4  -1   13.52    0.55
   3  -4  -1   13.99    0.50
  -4  -4  -1    2.46    0.19
  -4   4   1    2.91    0.19
   4   4  -1    2.81    0.20
   4   4   1    2.73    0.19
  -4   4  -1    3.34    0.20
   5   4  -1   13.19    0.61
  -5   4   1   13.64    0.57
  -5  -4  -1   13.51    0.56
   5   4   1   13.73    0.61
   5  -4  -1   12.57    0.61
  -5   4  -1   12.35    0.57
  -6  -4  -1    0.27    0.11
  -6   4   1    0.15    0.08
   6   4  -1    0.07    0.09
   6  -4  -1    0.03    0.09
   6   4   1    0.13    0.09
  -6   4  -1    0.15    0.08
   7   4  -1    4.17    0.33
  -7   4   1    5.07    0.30
   7  -4   1    4.29    0.33
  -7  -4  -1    5.06    0.32
   7  -4  -1    4.62    0.34
   7   4   1    4.62    0.34
  -7   4  -1    4.98    0.32
   8  -4   1    1.57    0.24
  -8  -4  -1    1.89    0.24
   8   4  -1    1.37    0.22
   8   4   1    1.61    0.23
  -8   4  -1    1.79    0.23
   8  -4  -1    1.63    0.24
   9  -4   1    1.35    0.23
   9   4  -1    1.27    0.24
   9  -4  -1    1.04    0.21
   9   4   1    1.28    0.22
  10   4  -1    3.41    0.39
  10   4   1    3.73    0.41
   0  -5  -1    1.74    0.12
   0   5  -1    1.55    0.11
   0  -5   1    1.63    0.11
   1   5  -1   77.87    2.92
  -1  -5  -1   77.64    2.60
   1  -5   1   80.06    2.57
  -1  -5   1   76.97    2.60
   1  -5  -1   77.25    2.58
   1   5   1   78.18    2.90
  -1   5  -1   76.01    2.70
  -2  -5  -1   24.29    0.87
  -2   5   1   23.27    0.90
   2   5  -1   24.62    0.95
   2  -5   1   25.26    0.82
  -2  -5   1   23.19    0.87
   2   5   1   23.44    0.93
  -2   5  -1   23.58    0.90
   2  -5  -1   23.75    0.84
  -3  -5  -1   45.43    1.59
   3  -5   1   45.20    1.52
  -3   5   1   45.64    1.65
   3   5  -1   46.92    1.77
  -3   5  -1   47.24    1.65
   3   5   1   45.04    1.76
   3  -5  -1   44.28    1.54
  -4  -5  -1    4.76    0.28
   4   5  -1    4.84    0.28
  -4   5   1    5.29    0.28
  -4   5  -1    5.25    0.29
   4   5   1    5.25    0.28
   4  -5  -1    5.01    0.24
   5   5  -1   11.46    0.55
  -5   5   1   10.16    0.50
  -5  -5  -1   11.16    0.51
  -5   5  -1   11.15    0.52
   5   5   1   11.72    0.54
   5  -5  -1   11.62    0.55
  -6   5   1    7.22    0.42
  -6  -5  -1    8.40    0.43
   6   5   1    8.56    0.46
  -6   5  -1    9.25    0.45
   6  -5  -1    9.32    0.48
  -7   5   1    1.49    0.19
   7  -5   1    1.16    0.20
  -7  -5  -1    1.70    0.22
   7   5  -1    0.86    0.17
  -7   5  -1    1.16    0.18
   7  -5  -1    1.11    0.19
   7   5   1    1.25    0.19
  -8  -5  -1    3.45    0.33
   8  -5   1    4.16    0.35
   8   5  -1    3.67    0.37
   8   5   1    3.00    0.33
   8  -5  -1    4.15    0.34
  -8   5  -1    4.44    0.32
   9   5  -1    0.66    0.19
   9  -5   1    0.58    0.19
   9   5   1    0.29    0.15
   9  -5  -1    0.39    0.17
  -9  -5   1    0.34    0.19
  10   5   1    1.72    0.30
   0  -6  -1   15.49    0.60
   0  -6   1   16.51    0.60
  -1  -6  -1    0.56    0.09
   1  -6   1    0.71    0.08
   1   6  -1    0.61    0.08
  -1   6  -1    0.61    0.09
   1  -6  -1    0.55    0.08
  -1  -6   1    0.53    0.09
   1   6   1    0.76    0.07
  -2   6   1    1.03    0.12
  -2  -6  -1    1.19    0.13
   2   6  -1    1.14    0.11
   2  -6   1    0.95    0.09
   2  -6  -1    1.03    0.10
  -2   6  -1    1.07    0.12
  -2  -6   1    1.09    0.13
   2   6   1    1.07    0.10
  -3  -6  -1    0.44    0.10
   3  -6   1    0.34    0.06
  -3   6   1    0.29    0.08
   3   6  -1    0.48    0.09
   3  -6  -1    0.43    0.07
  -3   6  -1    0.37    0.09
  -3  -6   1    0.36    0.10
   3   6   1    0.68    0.09
  -4  -6  -1    4.22    0.27
  -4   6   1    4.19    0.27
   4  -6   1    4.17    0.20
   4   6  -1    4.72    0.27
  -4   6  -1    4.53    0.27
   4  -6  -1    4.61    0.22
   4   6   1    4.37    0.26
   5   6  -1    0.15    0.08
  -5   6   1    0.30    0.10
  -5  -6  -1    0.15    0.11
   5   6   1    0.18    0.09
  -5   6  -1    0.37    0.10
   6   6  -1    9.00    0.48
  -6   6   1    8.51    0.45
  -6  -6  -1    8.62    0.45
   6   6   1    8.70    0.47
   6  -6  -1    9.34    0.49
  -6   6  -1    8.43    0.46
  -7  -6  -1    0.33    0.14
   7  -6   1    0.69    0.17
   7   6  -1    0.47    0.14
  -7   6   1    0.35    0.12
   7  -6  -1    0.34    0.13
  -7   6  -1    0.50    0.13
   7   6   1    0.32    0.13
  -7  -6   1    0.35    0.15
   8   6  -1    9.13    0.56
  -8   6   1    9.79    0.52
   8  -6   1    9.81    0.58
  -8  -6  -1    9.07    0.51
   8   6   1    8.47    0.54
   8  -6  -1   10.40    0.58
  -8   6  -1    9.73    0.53
  -8  -6   1    9.58    0.54
   9   6  -1    0.14    0.15
   9  -6   1    0.25    0.15
  -9  -6   1    0.25    0.18
   9  -6  -1    0.23    0.16
   9   6   1    0.29    0.16
   0  -7   1    0.04    0.06
   0  -7  -1   -0.07    0.05
   1   7  -1   18.07    0.76
  -1  -7  -1   18.39    0.72
   1  -7   1   18.25    0.69
  -1   7  -1   19.50    0.74
   1   7   1   18.70    0.74
   1  -7  -1   19.53    0.70
  -1  -7   1   19.21    0.72
  -2   7   1    2.20    0.17
   2   7  -1    2.15    0.15
  -2  -7  -1    2.04    0.19
   2  -7   1    2.18    0.13
   2   7   1    2.33    0.14
   2  -7  -1    2.10    0.14
  -2  -7   1    2.60    0.19
  -2   7  -1    2.32    0.17
  -3   7   1    5.71    0.31
  -3  -7  -1    5.28    0.30
   3  -7   1    5.23    0.24
   3   7  -1    5.26    0.29
   3   7   1    5.30    0.27
   3  -7  -1    5.21    0.25
  -3  -7   1    5.77    0.31
  -3   7  -1    5.72    0.31
  -4  -7  -1    5.66    0.34
   4   7  -1    5.88    0.33
   4  -7   1    6.58    0.27
  -4   7   1    5.49    0.33
  -4  -7   1    7.16    0.37
   4   7   1    6.33    0.33
  -4   7  -1    6.21    0.35
   4  -7  -1    6.59    0.29
   5   7  -1    1.78    0.20
  -5  -7  -1    2.02    0.22
  -5   7   1    1.91    0.21
   5   7   1    1.48    0.18
  -5   7  -1    1.79    0.21
  -5  -7   1    1.59    0.21
   6   7  -1    0.68    0.14
  -6  -7  -1    0.67    0.16
  -6   7   1    0.68    0.15
   6   7   1    0.76    0.15
   6  -7  -1    0.80    0.16
  -6   7  -1    0.63    0.14
  -6  -7   1    0.79    0.17
   7   7  -1    2.20    0.26
  -7   7   1    2.64    0.28
  -7  -7  -1    2.45    0.28
   7   7   1    2.09    0.25
  -7  -7   1    2.12    0.27
  -7   7  -1    2.61    0.28
   7  -7  -1    2.99    0.31
  -8  -7  -1    0.78    0.20
  -8   7   1    1.07    0.19
   8  -7   1    0.67    0.19
   8   7  -1    0.50    0.16
  -8   7  -1    0.98    0.19
  -8  -7   1    0.62    0.19
   8   7   1    0.90    0.19
   8  -7  -1    0.87    0.21
   9  -7   1    0.57    0.19
   9   7  -1    1.00    0.22
  -9  -7  -1    0.50    0.21
  -9   7  -1    0.92    0.21
   9  -7  -1    0.86    0.22
  -9  -7   1    0.62    0.22
   9   7   1    1.07    0.22
   0  -8  -1    3.13    0.20
   0  -8   1    2.87    0.19
   1   8  -1    3.05    0.19
  -1  -8  -1    3.13    0.21
   1  -8   1    3.20    0.19
   1  -8  -1    3.40    0.19
  -1   8  -1    3.13    0.21
  -1  -8   1    3.41    0.21
   1   8   1    3.01    0.16
  -2  -8  -1   11.23    0.50
   2  -8   1   10.71    0.44
  -2   8   1   11.53    0.51
   2   8  -1   10.41    0.49
   2   8   1   11.42    0.47
  -2  -8   1   11.75    0.50
   2  -8  -1   11.78    0.46
  -2   8  -1   10.99    0.50
  -3  -8  -1    3.73    0.26
  -3   8   1    4.03    0.26
   3   8  -1    3.73    0.23
   3  -8   1    4.01    0.20
  -3  -8   1    4.30    0.27
   3  -8  -1    3.96    0.21
  -3   8  -1    4.32    0.26
   3   8   1    3.66    0.22
  -4  -8  -1   17.68    0.72
  -4   8   1   17.36    0.74
   4   8  -1   16.63    0.74
   4  -8  -1   17.92    0.65
   4   8   1   17.08    0.73
  -4  -8   1   16.73    0.72
  -4   8  -1   15.77    0.73
  -5  -8  -1    6.30    0.38
  -5   8   1    6.86    0.39
   5   8  -1    6.90    0.38
   5   8   1    6.45    0.36
  -5   8  -1    6.42    0.39
  -5  -8   1    6.65    0.39
  -6  -8  -1    1.29    0.20
  -6   8   1    1.40    0.20
   6   8  -1    1.21    0.19
   6   8   1    1.65    0.20
   6  -8  -1    1.40    0.21
  -6  -8   1    1.08    0.20
  -6   8  -1    0.84    0.17
  -7   8   1    3.70    0.34
  -7  -8  -1    3.69    0.34
   7   8  -1    3.70    0.31
   7   8   1    3.17    0.31
   7  -8  -1    3.86    0.32
  -7   8  -1    3.56    0.34
  -7  -8   1    3.98    0.36
   8   8  -1    0.40    0.15
   8  -8   1    0.83    0.21
  -8  -8  -1    0.87    0.20
  -8   8   1    0.73    0.19
  -8   8  -1    0.94    0.20
   8  -8  -1    0.95    0.22
  -8  -8   1    1.02    0.24
   9   8  -1    2.53    0.33
  -9  -8  -1    2.75    0.33
   9  -8   1    2.66    0.36
  -9  -8   1    3.15    0.37
  -9   8  -1    2.55    0.32
   9  -8  -1    2.68    0.35
   0  -9  -1    8.68    0.41
   0  -9   1    9.04    0.40
  -1  -9  -1    1.53    0.17
   1  -9   1    1.51    0.15
   1   9  -1    1.59    0.14
  -1  -9   1    1.31    0.16
   1  -9  -1    1.65    0.16
  -1   9  -1    1.72    0.18
  -2   9   1    8.24    0.42
  -2  -9  -1    8.73    0.42
   2  -9   1    8.74    0.37
   2   9  -1    8.54    0.40
  -2  -9   1    8.24    0.41
   2  -9  -1    8.79    0.38
   2   9   1    8.63    0.38
  -2   9  -1    8.03    0.42
  -3   9   1    3.02    0.23
   3   9  -1    2.87    0.20
   3  -9   1    2.85    0.17
  -3  -9  -1    2.91    0.26
  -3  -9   1    2.87    0.26
  -3   9  -1    3.00    0.23
   3   9   1    3.05    0.19
   3  -9  -1    2.68    0.18
   4   9  -1    7.39    0.40
  -4   9   1    8.04    0.43
  -4  -9  -1    7.90    0.42
  -4   9  -1    8.00    0.43
   4   9   1    7.79    0.38
   4  -9  -1    7.56    0.34
  -4  -9   1    6.64    0.40
  -5  -9  -1    0.62    0.15
  -5   9   1    0.76    0.15
   5   9  -1    0.80    0.14
  -5  -9   1    1.08    0.19
  -5   9  -1    1.03    0.17
  -6   9   1    9.31    0.50
   6   9  -1    7.75    0.47
  -6  -9  -1    8.73    0.48
   6  -9  -1    9.49    0.51
  -6  -9   1    8.44    0.49
  -6   9  -1    8.42    0.48
   7   9  -1    1.30    0.21
  -7   9   1    1.37    0.22
  -7  -9  -1    1.91    0.26
  -7  -9   1    1.40    0.24
   7  -9  -1    1.71    0.25
  -7   9  -1    1.79    0.25
   8  -9   1    3.93    0.42
  -8   9   1    4.04    0.39
  -8  -9  -1    4.24    0.40
   8  -9  -1    4.75    0.39
  -8  -9   1    4.51    0.43
  -8   9  -1    3.75    0.38
  -9  -9  -1    0.10    0.16
  -9   9  -1    0.34    0.17
   9  -9  -1    0.46    0.20
   0 -10   1    0.82    0.13
   0 -10  -1    0.69    0.12
   1 -10   1    9.26    0.43
  -1 -10  -1   10.66    0.47
   1  10  -1    9.93    0.45
  -1  10  -1    9.92    0.48
  -1 -10   1   10.24    0.47
   1 -10  -1    9.83    0.44
  -2  10   1    4.61    0.28
   2 -10   1    4.05    0.23
  -2 -10  -1    3.67    0.26
   2  10  -1    3.60    0.23
  -2 -10   1    4.19    0.27
  -2  10  -1    4.14    0.27
   2 -10  -1    3.61    0.23
  -3 -10  -1    0.32    0.11
   3  10  -1    0.62    0.11
  -3  10   1    0.59    0.13
   3 -10   1    0.56    0.09
   3 -10  -1    0.40    0.10
  -3 -10   1    0.39    0.13
  -3  10  -1    0.58    0.13
   4  10  -1   11.68    0.55
  -4  10   1   10.90    0.56
  -4 -10  -1   12.73    0.57
   4 -10  -1   11.69    0.49
  -4 -10   1   11.94    0.57
  -4  10  -1   10.55    0.56
  -5 -10  -1    0.30    0.14
  -5  10   1    0.31    0.12
  -5  10  -1    0.26    0.12
  -5 -10   1    0.30    0.14
  -6 -10  -1    5.88    0.39
  -6  10   1    5.49    0.38
  -6 -10   1    5.32    0.38
   6 -10  -1    6.37    0.41
  -6  10  -1    5.16    0.38
  -7 -10  -1    0.50    0.18
  -7  10   1    0.45    0.15
  -7 -10   1    0.35    0.18
  -7  10  -1    0.60    0.17
   7 -10  -1    0.35    0.16
   8 -10   1    0.29    0.17
  -8  10   1    0.06    0.12
  -8 -10  -1    0.01    0.16
  -8 -10   1    0.22    0.19
   8 -10  -1    0.18    0.16
  -8  10  -1    0.04    0.12
   0 -11  -1    1.32    0.16
   0  11  -1    1.18    0.16
   0 -11   1    1.17    0.16
  -1 -11  -1   15.84    0.68
   1 -11   1   16.12    0.65
   1 -11  -1   15.43    0.65
  -1 -11   1   16.28    0.68
  -1  11  -1   15.57    0.69
  -2 -11  -1    0.08    0.08
  -2  11   1   -0.05    0.07
   2 -11   1   -0.02    0.06
   2 -11  -1   -0.06    0.05
  -2  11  -1   -0.09    0.06
  -2 -11   1    0.02    0.08
  -3  11   1   15.81    0.74
  -3 -11  -1   16.01    0.72
  -3  11  -1   16.60    0.75
   3 -11  -1   16.88    0.66
  -3 -11   1   17.10    0.73
  -4  11   1    4.33    0.32
  -4 -11  -1    4.81    0.33
  -4 -11   1    4.28    0.32
  -4  11  -1    4.24    0.31
  -5  11   1   10.37    0.56
  -5 -11  -1    9.55    0.54
  -5  11  -1   10.01    0.55
  -5 -11   1   10.83    0.56
  -6 -11  -1    7.31    0.47
  -6  11   1    8.01    0.48
  -6  11  -1    8.08    0.49
  -6 -11   1    8.34    0.50
  -7 -11  -1    5.78    0.42
  -7  11   1    5.57    0.41
  -7  11  -1    5.68    0.42
  -7 -11   1    5.99    0.43
   8 -11   1    2.62    0.36
  -8  11   1    2.13    0.30
  -8 -11  -1    2.14    0.31
  -8  11  -1    2.02    0.29
   0 -12  -1    0.04    0.08
   0  12  -1    0.14    0.09
   0 -12   1    0.05    0.08
   1 -12   1    0.47    0.11
  -1 -12  -1    0.67    0.14
  -1  12  -1    0.46    0.13
  -1 -12   1    0.53    0.12
   1 -12  -1    0.39    0.10
  -2 -12  -1    0.43    0.13
   2 -12   1    0.29    0.09
  -2  12   1    0.31    0.11
  -2 -12   1    0.42    0.13
   2 -12  -1    0.55    0.11
  -2  12  -1    0.45    0.12
  -3 -12  -1    1.33    0.20
  -3  12   1    1.35    0.20
  -3  12  -1    1.35    0.20
   3 -12  -1    1.27    0.16
  -4 -12  -1    1.03    0.19
  -4  12   1    1.10    0.19
  -4 -12   1    1.58    0.23
  -4  12  -1    1.17    0.20
  -5  12   1    0.89    0.19
  -5 -12  -1    0.61    0.17
  -5 -12   1    0.59    0.17
  -5  12  -1    0.66    0.16
  -6 -12  -1    4.45    0.40
  -6  12   1    3.85    0.38
  -6 -12   1    4.69    0.41
  -6  12  -1    4.27    0.40
  -7  12   1   -0.02    0.12
  -7 -12  -1    0.08    0.15
  -7 -12   1   -0.08    0.16
  -7  12  -1    0.03    0.12
   0 -13   1    4.58    0.30
   0  13  -1    4.57    0.32
   0 -13  -1    5.01    0.32
  -1  13   1    2.40    0.26
   1 -13   1    2.14    0.22
  -1 -13  -1    2.17    0.24
   1 -13  -1    1.99    0.22
  -1 -13   1    2.50    0.25
  -1  13  -1    2.42    0.26
   2 -13   1    4.22    0.27
  -2  13   1    4.88    0.34
  -2 -13  -1    4.51    0.32
  -2 -13   1    4.36    0.31
   2 -13  -1    4.13    0.27
  -2  13  -1    4.20    0.32
  -3 -13  -1    0.58    0.16
  -3  13   1    0.34    0.12
  -3  13  -1    0.52    0.15
  -3 -13   1    0.42    0.15
  -4 -13  -1    4.21    0.37
  -4  13   1    4.16    0.33
  -4  13  -1    3.90    0.37
  -4 -13   1    4.45    0.34
  -5  13   1    2.00    0.27
  -5 -13  -1    1.79    0.27
  -5  13  -1    2.21    0.28
  -5 -13   1    2.16    0.29
  -6  13   1    4.49    0.43
  -6 -13  -1    4.90    0.44
  -6 -13   1    5.51    0.47
  -6  13  -1    4.63    0.43
   0 -14  -1    6.84    0.39
   0  14  -1    6.63    0.41
   0 -14   1    5.94    0.37
  -1 -14  -1    1.38    0.20
  -1  14   1    0.92    0.18
   1 -14   1    1.33    0.18
   1  14  -1    0.84    0.17
  -1 -14   1    0.80    0.16
  -1  14  -1    0.97    0.18
   1 -14  -1    1.51    0.19
  -2 -14  -1    2.49    0.27
  -2  14   1    2.16    0.27
  -2 -14   1    2.30    0.26
   2 -14  -1    2.14    0.23
  -2  14  -1    2.79    0.29
  -3 -14  -1    0.60    0.16
  -3  14   1    0.47    0.15
  -3 -14   1    0.57    0.15
  -3  14  -1    0.73    0.17
  -4 -14  -1    0.74    0.18
  -4  14   1    0.63    0.17
  -4 -14   1    0.45    0.16
  -4  14  -1    0.32    0.15
  -5 -14  -1    1.79    0.27
  -5  14   1    1.26    0.24
  -5 -14   1    1.99    0.28
  -5  14  -1    2.07    0.28
  -6  14   1    0.68    0.19
   0  15  -1    8.60    0.49
   0  15   1    8.13    0.49
   0 -15  -1    7.69    0.45
   0 -15   1    8.20    0.45
  -1  15   1    6.45    0.42
   1  15  -1    6.27    0.40
  -1 -15  -1    6.38    0.39
   1 -15   1    5.48    0.35
  -1  15  -1    6.23    0.41
  -1 -15   1    5.62    0.37
   1 -15  -1    5.71    0.36
  -2  15   1    3.65    0.37
  -2 -15  -1    4.38    0.33
   2  15  -1    4.37    0.33
   2 -15  -1    4.24    0.30
  -2  15  -1    4.20    0.39
  -2 -15   1    4.00    0.36
  -3 -15  -1    5.18    0.38
  -3  15   1    5.34    0.40
  -3  15  -1    5.42    0.40
  -3 -15   1    5.10    0.38
  -4 -15  -1    1.55    0.25
  -4  15   1    1.15    0.23
  -4 -15   1    1.13    0.22
  -4  15  -1    1.37    0.24
   0  16  -1    0.29    0.15
   0 -16   1    0.32    0.14
   0  16   1    0.37    0.15
   0 -16  -1    0.63    0.15
   1  16  -1    0.06    0.11
  -1 -16  -1   -0.12    0.09
  -1  16   1    0.21    0.13
  -1  16  -1    0.07    0.12
  -1 -16   1    0.01    0.11
   1 -16  -1    0.30    0.13
  -2 -16  -1    2.38    0.29
  -2  16   1    2.08    0.28
   2  16  -1    2.23    0.28
  -2  16  -1    1.82    0.27
  -2 -16   1    2.20    0.28
  -3  16   1    4.36    0.42
  -3 -16  -1    4.56    0.41
  -3 -16   1    4.42    0.40
  -3  16  -1    3.79    0.39
   0  17   1   12.73    0.72
   0 -17   1   13.35    0.66
   0  17  -1   14.45    0.73
   0 -17  -1   14.28    0.68
  -1  17   1    0.81    0.21
   1  17  -1    1.03    0.22
  -1 -17  -1    0.81    0.18
  -1  17  -1    1.30    0.24
   1  17   1    0.67    0.19
  -1 -17   1    1.23    0.20
  -2 -17  -1    8.69    0.52
  -2 -17   1    7.77    0.49
  -2  17  -1    7.92    0.53
   0   0  -2  122.66    4.29
   0   0  -2  132.03    4.70
   0   0  -2  123.37    4.10
   1   0  -2    0.04    0.03
  -1   0  -2    0.03    0.02
  -1   0  -2    0.02    0.03
   2   0  -2  115.62    4.42
  -2   0   2  118.98    4.00
  -2   0  -2  118.87    4.04
  -2   0  -2  118.81    3.86
   3   0  -2    0.18    0.06
  -3   0   2    0.16    0.04
  -3   0  -2    0.13    0.05
  -4   0  -2   23.25    0.89
  -4   0   2   23.55    0.85
   4   0  -2   24.18    0.98
   5   0  -2    5.60    0.34
  -5   0   2    5.96    0.27
  -5   0  -2    6.29    0.31
  -6   0   2    0.24    0.07
   6   0   2    0.09    0.09
   6   0  -2    0.18    0.09
  -6   0  -2    0.13    0.08
   7   0   2    2.66    0.28
  -7   0  -2    2.26    0.23
   7   0  -2    2.66    0.28
   8   0   2    1.48    0.22
  -8   0  -2    1.32    0.19
   8   0  -2    1.13    0.21
   9   0  -2    0.12    0.13
   9   0   2    0.15    0.13
  10   0   2   -0.14    0.12
  10   0  -2   -0.10    0.10
   0   1  -2   54.58    2.23
   0  -1  -2   63.52    1.96
   0  -1  -2   59.72    2.22
   0   1  -2   60.73    2.03
  -1  -1  -2   19.61    0.67
  -1  -1  -2   19.70    0.71
   1   1  -2   20.01    0.77
   1  -1  -2   20.16    0.67
  -1   1  -2   19.30    0.70
   1  -1  -2   18.95    0.76
  -2   1   2   63.08    2.10
   2   1  -2   62.29    2.31
  -2  -1  -2   59.49    2.12
  -2  -1  -2   58.01    2.02
   2  -1  -2   61.99    2.31
  -2   1  -2   61.55    2.12
  -2  -1   2   60.60    2.07
  -3   1   2    3.56    0.17
   3   1  -2    3.69    0.21
  -3  -1  -2    3.89    0.19
  -3  -1  -2    2.98    0.17
  -3  -1   2    3.49    0.15
  -3   1  -2    3.40    0.19
   3  -1  -2    3.24    0.20
   4   1  -2   27.51    1.16
  -4   1   2   28.81    1.03
  -4  -1  -2   29.15    1.06
  -4  -1   2   28.72    1.01
  -4   1  -2   29.07    1.07
   4  -1  -2   28.05    1.15
  -5  -1  -2    3.85    0.23
  -5   1   2    3.45    0.19
   5   1  -2    3.39    0.25
  -5   1  -2    3.52    0.23
   5  -1  -2    3.48    0.24
  -5  -1   2    3.53    0.18
   5   1   2    3.37    0.25
  -6  -1  -2    3.47    0.23
   6   1  -2    4.00    0.28
  -6   1   2    3.16    0.20
   6  -1   2    3.82    0.27
  -6   1  -2    3.61    0.24
   6   1   2    3.12    0.25
   6  -1  -2    3.44    0.26
   7   1  -2    2.14    0.25
   7  -1   2    2.34    0.26
  -7  -1  -2    2.51    0.23
   7  -1  -2    2.45    0.26
  -7   1  -2    2.53    0.24
   7   1   2    1.88    0.23
   8  -1   2    2.88    0.31
   8   1  -2    2.92    0.31
  -8   1  -2    3.93    0.28
   8   1   2    2.61    0.29
   8  -1  -2    2.21    0.28
   9  -1   2    1.16    0.22
   9   1  -2    1.66    0.26
   9   1   2    1.31    0.23
   9  -1  -2    1.77    0.26
  10   1  -2    1.24    0.25
  10  -1   2    1.65    0.27
  10   1   2    1.77    0.29
  10  -1  -2    1.59    0.27
   0   2   2   19.69    0.76
   0  -2  -2   20.10    0.76
   0   2  -2   20.70    0.79
   0   2  -2   20.52    0.71
   0  -2  -2   20.23    0.69
   1   2  -2   39.75    1.34
   1   2  -2   39.07    1.50
   1  -2   2   39.57    1.28
  -1  -2  -2   38.93    1.32
  -1   2  -2   39.18    1.37
   1  -2  -2   39.27    1.48
   1  -2  -2   38.60    1.31
  -2  -2  -2   63.87    2.25
   2   2  -2   65.25    2.45
  -2   2   2   66.96    2.23
  -2  -2  -2   61.99    2.15
   2  -2  -2   63.69    2.44
   2  -2  -2   63.79    2.14
  -2   2  -2   66.61    2.25
  -3   2   2    1.77    0.12
  -3  -2  -2    1.56    0.12
   3   2  -2    1.60    0.13
  -3  -2  -2    1.84    0.13
  -3   2  -2    2.02    0.14
   3  -2  -2    1.69    0.13
   3   2   2    1.80    0.14
  -4  -2  -2   21.30    0.83
   4   2  -2   21.92    0.90
  -4  -2  -2   22.02    0.79
  -4   2   2   20.39    0.80
   4   2   2   21.86    0.89
   4  -2  -2   21.53    0.89
  -4   2  -2   22.12    0.83
  -4  -2   2   21.20    0.77
  -5  -2  -2    3.31    0.20
  -5  -2  -2    2.94    0.19
  -5   2   2    2.20    0.16
   5   2  -2    3.05    0.22
  -5  -2   2    2.89    0.16
   5  -2  -2    2.26    0.20
  -5   2  -2    2.48    0.19
   5   2   2    2.33    0.23
  -6  -2  -2    5.19    0.29
  -6   2   2    4.50    0.26
   6   2  -2    5.17    0.32
  -6  -2  -2    4.60    0.27
  -6   2  -2    4.98    0.30
   6  -2  -2    4.46    0.31
   6   2   2    4.94    0.31
  -7  -2  -2    0.20    0.11
   7   2  -2    0.43    0.13
  -7  -2  -2    0.57    0.12
   7  -2   2    0.16    0.11
   7  -2  -2    0.46    0.13
  -7   2  -2    0.43    0.12
   7   2   2    0.57    0.14
   8   2  -2    3.56    0.32
   8  -2   2    3.99    0.33
  -8   2  -2    4.78    0.32
   8  -2  -2    4.22    0.34
   8   2   2    3.54    0.31
   9   2  -2    1.38    0.24
   9  -2   2    0.71    0.17
   9   2   2    1.00    0.21
   9  -2  -2    1.54    0.25
  10   2  -2    1.15    0.24
  10   2   2    0.77    0.20
   0  -3  -2    0.41    0.06
   0   3  -2    0.52    0.06
   0   3  -2    0.54    0.06
  -1  -3  -2   21.80    0.76
   1   3  -2   21.97    0.85
   1  -3   2   22.18    0.73
   1  -3  -2   21.59    0.75
  -1   3  -2   21.10    0.79
   1  -3  -2   21.28    0.83
   1   3   2   21.75    0.82
  -2  -3  -2    2.12    0.14
   2   3  -2    2.27    0.14
   2  -3   2    2.32    0.09
   2   3   2    2.34    0.13
  -2   3  -2    2.07    0.14
   2  -3  -2    2.28    0.12
   2  -3  -2    2.23    0.13
  -3  -3  -2    8.07    0.35
  -3   3   2    7.68    0.34
  -3  -3  -2    7.49    0.33
   3   3  -2    7.56    0.37
   3  -3  -2    7.77    0.36
  -3   3  -2    8.07    0.35
   3  -3  -2    7.54    0.31
   3   3   2    7.45    0.35
   4   3  -2    4.02    0.25
  -4  -3  -2    4.27    0.23
  -4  -3  -2    4.04    0.24
  -4   3   2    4.42    0.23
  -4   3  -2    4.49    0.25
   4  -3  -2    4.09    0.25
   4   3   2    4.42    0.25
  -5  -3  -2    4.93    0.28
  -5   3   2    6.02    0.29
  -5  -3  -2    5.40    0.30
   5   3  -2    5.69    0.33
  -5   3  -2    5.50    0.30
   5   3   2    5.55    0.32
   5  -3  -2    5.32    0.32
  -6  -3  -2    5.77    0.31
  -6   3   2    5.69    0.30
  -6  -3  -2    5.47    0.32
   6   3  -2    5.40    0.35
   6  -3  -2    5.75    0.35
   6   3   2    4.82    0.34
  -6   3  -2    5.88    0.33
   7  -3   2    3.31    0.32
  -7   3   2    2.99    0.21
  -7  -3  -2    2.76    0.25
  -7  -3  -2    3.14    0.24
   7   3  -2    2.70    0.29
  -7   3  -2    3.08    0.25
   7   3   2    2.75    0.28
   7  -3  -2    3.09    0.27
   8   3  -2    2.36    0.28
   8  -3   2    2.32    0.28
  -8   3  -2    2.81    0.28
   8  -3  -2    2.77    0.31
   8   3   2    2.19    0.28
   9   3  -2    0.99    0.21
   9  -3   2    0.55    0.17
   9  -3  -2    1.42    0.25
   9   3   2    0.95    0.21
  10   3   2    1.37    0.26
   0   4  -2   19.71    0.72
   0  -4   2   19.82    0.70
   0  -4  -2   20.06    0.71
   1   4  -2    1.03    0.09
   1  -4   2    1.14    0.08
  -1  -4  -2    1.02    0.10
   1   4   2    1.02    0.06
   1  -4  -2    1.04    0.09
  -1   4  -2    1.06    0.10
  -2  -4  -2   33.42    1.19
   2  -4   2   33.70    1.13
   2   4  -2   33.78    1.33
  -2   4  -2   35.11    1.24
   2  -4  -2   33.42    1.16
   2   4   2   35.23    1.30
   3   4  -2    2.55    0.17
  -3   4   2    2.58    0.17
  -3  -4  -2    2.28    0.16
  -3   4  -2    2.38    0.17
   3  -4  -2    2.33    0.17
   3  -4  -2    2.59    0.14
   3   4   2    2.68    0.16
  -4  -4  -2    1.72    0.16
  -4   4   2    1.62    0.16
   4   4  -2    1.61    0.17
   4   4   2    1.88    0.15
  -4   4  -2    1.48    0.16
   4  -4  -2    1.67    0.15
   5   4  -2    7.38    0.40
  -5  -4  -2    7.18    0.37
  -5   4   2    7.41    0.37
  -5  -4  -2    7.66    0.37
  -5   4  -2    7.74    0.39
   5   4   2    7.40    0.39
   5  -4  -2    7.56    0.40
   6   4  -2    3.41    0.27
  -6   4   2    3.75    0.24
  -6  -4  -2    3.37    0.24
  -6  -4  -2    3.63    0.24
  -6   4  -2    3.34    0.25
   6   4   2    3.43    0.25
   6  -4  -2    3.51    0.26
  -7  -4  -2    2.28    0.23
  -7  -4  -2    2.73    0.25
  -7   4   2    2.33    0.23
   7   4  -2    2.47    0.28
   7   4   2    2.78    0.28
  -7   4  -2    2.50    0.26
   7  -4  -2    2.32    0.26
   8  -4   2    0.98    0.20
   8   4  -2    1.15    0.21
  -8  -4  -2    1.06    0.19
  -8   4  -2    1.32    0.21
   8   4   2    0.80    0.18
   8  -4  -2    1.18    0.21
   9   4  -2    0.05    0.12
   9  -4   2    0.04    0.11
   9  -4  -2    0.13    0.14
   9   4   2   -0.11    0.11
  10   4   2    1.03    0.24
   0   5  -2   89.85    3.11
   0  -5  -2   89.97    3.00
   0  -5   2   91.03    2.99
   1  -5   2   10.55    0.40
   1   5  -2   10.55    0.46
  -1  -5  -2   10.56    0.43
   1  -5  -2   10.52    0.41
  -1   5  -2   10.41    0.44
   1   5   2   11.11    0.42
   2  -5   2   54.52    1.80
   2   5  -2   55.22    2.08
  -2  -5  -2   52.92    1.86
  -2   5  -2   53.95    1.93
   2   5   2   54.21    2.05
   2  -5  -2   55.03    1.83
  -3   5   2    5.90    0.30
  -3  -5  -2    5.94    0.29
   3   5  -2    6.07    0.31
   3  -5   2    5.90    0.23
   3   5   2    6.27    0.29
   3  -5  -2    5.59    0.26
  -3   5  -2    5.84    0.30
   4   5  -2    7.75    0.39
  -4  -5  -2    7.16    0.36
  -4   5   2    6.95    0.36
   4  -5  -2    7.56    0.38
   4   5   2    7.99    0.38
   4  -5  -2    7.91    0.33
  -4   5  -2    7.51    0.38
   5   5  -2    7.00    0.38
  -5   5   2    6.80    0.35
  -5  -5  -2    7.09    0.36
   5  -5  -2    6.57    0.37
  -5   5  -2    6.68    0.37
   5   5   2    6.45    0.36
  -6   5   2    7.14    0.38
  -6  -5  -2    7.10    0.38
   6   5  -2    7.18    0.41
   6   5   2    6.95    0.40
  -6   5  -2    7.06    0.39
   6  -5  -2    6.33    0.40
  -7  -5  -2    4.87    0.32
  -7   5   2    4.13    0.29
   7   5  -2    4.09    0.33
   7  -5  -2    4.69    0.33
   7   5   2    4.00    0.31
  -7   5  -2    4.82    0.32
   8  -5   2    1.54    0.24
  -8  -5  -2    1.59    0.23
   8   5  -2    1.60    0.24
  -8   5  -2    1.43    0.22
   8  -5  -2    1.72    0.25
   8   5   2    0.94    0.19
   9  -5   2    2.22    0.31
   9   5  -2    2.13    0.30
   9  -5  -2    2.35    0.31
   9   5   2    1.92    0.27
  -9   5  -2    2.06    0.28
  10   5   2    0.30    0.17
   0   6  -2    0.38    0.07
   0   6  -2    0.38    0.07
   0  -6  -2    0.29    0.07
   0  -6   2    0.51    0.08
  -1  -6  -2   21.30    0.79
   1  -6   2   20.79    0.75
   1   6  -2   21.51    0.86
  -1   6  -2   21.30    0.81
   1   6   2   21.63    0.81
   1  -6  -2   21.13    0.77
  -1  -6   2   22.08    0.79
   2  -6   2    1.68    0.10
  -2  -6  -2    1.48    0.15
   2   6  -2    1.58    0.13
  -2   6  -2    1.47    0.15
   2   6   2    1.50    0.10
   2  -6  -2    1.55    0.12
   3   6  -2    3.62    0.23
   3  -6   2    3.76    0.16
  -3  -6  -2    4.05    0.24
  -3   6   2    3.83    0.23
   3   6   2    3.72    0.20
   3  -6  -2    3.45    0.19
  -3   6  -2    3.60    0.23
  -4  -6  -2    1.94    0.20
   4   6  -2    2.33    0.19
  -4   6   2    2.27    0.21
   4  -6  -2    2.15    0.18
   4   6   2    2.20    0.17
   4  -6  -2    2.16    0.15
  -4   6  -2    2.19    0.21
  -5   6   2    0.10    0.07
   5   6  -2    0.09    0.07
  -5  -6  -2    0.05    0.09
   5  -6  -2   -0.01    0.08
   5   6   2    0.08    0.07
  -5   6  -2    0.01    0.06
   6   6  -2    2.05    0.23
  -6   6   2    2.03    0.22
  -6  -6  -2    2.53    0.25
   6   6   2    2.17    0.23
   6  -6  -2    2.25    0.24
  -6   6  -2    2.25    0.24
  -7  -6  -2    1.85    0.24
  -7   6   2    1.87    0.22
   7   6  -2    1.84    0.24
   7  -6  -2    2.11    0.26
  -7   6  -2    1.97    0.24
   7   6   2    2.04    0.24
  -8  -6  -2    4.37    0.32
   8   6  -2    3.83    0.34
   8  -6   2    4.39    0.37
  -8   6  -2    4.13    0.33
   8   6   2    3.77    0.33
   8  -6  -2    4.33    0.36
   9   6  -2    3.27    0.38
   9  -6   2    4.12    0.43
  -9  -6   2    4.38    0.43
   9  -6  -2    4.28    0.37
  -9   6  -2    3.80    0.38
   0   7  -2   21.18    0.81
   0  -7  -2   20.77    0.79
   0  -7   2   21.77    0.78
  -1  -7  -2   33.88    1.17
   1   7  -2   33.69    1.29
   1  -7   2   32.48    1.14
  -1   7  -2   34.32    1.22
   1  -7  -2   33.16    1.16
  -1  -7   2   33.34    1.17
   1   7   2   29.15    1.23
  -2  -7  -2   32.48    1.18
   2  -7   2   32.17    1.12
   2   7  -2   32.83    1.29
  -2  -7   2   32.59    1.18
  -2   7  -2   32.05    1.22
   2  -7  -2   32.75    1.15
   2   7   2   33.37    1.25
  -3   7   2   20.18    0.78
   3  -7   2   18.25    0.67
   3   7  -2   19.78    0.81
  -3  -7  -2   19.08    0.75
   3   7   2   18.96    0.77
  -3  -7   2   18.78    0.76
   3  -7  -2   18.53    0.70
  -3   7  -2   18.47    0.77
  -4   7   2   25.00    0.98
   4   7  -2   24.65    1.03
  -4  -7  -2   25.12    0.95
   4   7   2   23.79    0.99
   4  -7  -2   24.06    1.01
   4  -7  -2   25.10    0.89
  -4   7  -2   23.29    0.98
  -5   7   2    3.49    0.25
  -5  -7  -2    2.88    0.26
   5   7  -2    2.68    0.23
   5  -7  -2    2.74    0.23
   5   7   2    2.78    0.21
  -5   7  -2    2.44    0.25
  -6   7   2    5.82    0.36
  -6  -7  -2    6.18    0.37
   6   7  -2    5.35    0.37
   6  -7  -2    6.59    0.39
  -6   7  -2    6.36    0.38
   6   7   2    5.69    0.35
   7   7  -2    1.73    0.23
  -7   7   2    1.52    0.21
  -7  -7  -2    1.68    0.23
   7   7   2    1.58    0.22
   7  -7  -2    1.84    0.25
  -7   7  -2    1.63    0.23
  -7  -7   2    2.33    0.29
   8   7  -2    2.21    0.29
   8  -7   2    1.97    0.29
  -8  -7  -2    2.55    0.29
  -8  -7   2    2.11    0.30
   8   7   2    2.41    0.29
  -8   7  -2    2.50    0.29
   8  -7  -2    2.34    0.31
   9   7  -2    0.81    0.20
   9  -7   2    0.78    0.22
  -9   7  -2    1.22    0.23
   9  -7  -2    0.83    0.22
  -9  -7   2    1.56    0.29
   0  -8  -2    0.93    0.12
   0  -8   2    0.84    0.12
   0   8  -2    0.91    0.12
  -1  -8  -2    1.70    0.17
   1   8  -2    1.73    0.14
   1  -8   2    1.87    0.14
  -1  -8   2    1.68    0.17
  -1   8  -2    1.57    0.16
   1  -8  -2    1.88    0.16
   2   8  -2    5.73    0.30
  -2  -8  -2    6.03    0.32
   2  -8   2    6.33    0.27
  -2  -8   2    6.24    0.32
  -2   8  -2    5.83    0.32
   2   8   2    6.01    0.27
   2  -8  -2    5.91    0.29
   3   8  -2   16.86    0.70
  -3  -8  -2   16.46    0.67
   3  -8   2   15.22    0.58
  -3   8   2   16.59    0.69
  -3   8  -2   14.70    0.68
   3   8   2   16.44    0.66
   3  -8  -2   16.03    0.62
  -3  -8   2   16.25    0.68
  -4  -8  -2    9.31    0.44
   4   8  -2    8.22    0.43
  -4   8   2    9.09    0.45
   4   8   2    8.13    0.40
   4  -8  -2    8.85    0.38
  -4   8  -2    7.92    0.44
  -4  -8   2    8.36    0.44
   5   8  -2   13.07    0.63
  -5   8   2   13.78    0.62
  -5  -8  -2   12.77    0.60
   5   8   2   12.92    0.60
  -5   8  -2   12.94    0.62
   5  -8  -2   13.85    0.63
  -5  -8   2   13.70    0.63
   5  -8  -2   12.38    0.53
  -6  -8  -2    2.08    0.25
  -6   8   2    2.69    0.27
   6   8  -2    2.30    0.25
  -6  -8   2    2.06    0.26
  -6   8  -2    2.12    0.25
   6   8   2    2.28    0.24
   6  -8  -2    2.19    0.25
  -7   8   2    1.61    0.22
  -7  -8  -2    1.45    0.22
   7   8  -2    1.67    0.24
  -7   8  -2    1.56    0.23
   7  -8  -2    1.59    0.24
  -7  -8   2    1.93    0.28
  -8  -8  -2    1.78    0.25
  -8   8   2    2.12    0.27
   8   8  -2    1.91    0.28
   8  -8   2    2.07    0.29
  -8  -8   2    1.64    0.28
  -8   8  -2    1.93    0.27
   8  -8  -2    2.48    0.32
   9  -8   2    1.02    0.24
  -9  -8  -2    0.65    0.20
   9   8  -2    0.52    0.19
  -9  -8   2    0.76    0.24
   9  -8  -2    0.54    0.19
  -9   8  -2    0.52    0.18
   0  -9   2    7.11    0.34
   0  -9  -2    7.30    0.35
   0   9  -2    7.03    0.36
  -1  -9  -2   21.52    0.84
   1  -9   2   20.79    0.80
   1  -9  -2   22.03    0.83
  -1   9  -2   22.35    0.87
  -1  -9   2   22.13    0.84
   2  -9   2   11.65    0.47
  -2  -9  -2   12.04    0.53
   2   9  -2   11.56    0.53
  -2   9  -2   11.38    0.54
   2  -9  -2   11.53    0.49
  -2  -9   2   12.33    0.53
   3   9  -2    8.51    0.43
   3  -9   2    8.72    0.37
  -3  -9  -2    8.89    0.45
  -3   9   2    9.42    0.46
  -3  -9   2    8.70    0.45
  -3   9  -2    9.25    0.46
   3  -9  -2    9.49    0.40
   4   9  -2    6.19    0.35
  -4  -9  -2    5.89    0.35
  -4   9   2    6.12    0.36
   4  -9  -2    6.22    0.30
  -4  -9   2    5.81    0.36
  -4   9  -2    5.77    0.36
  -5  -9  -2    4.63    0.32
  -5   9   2    4.54    0.31
   5   9  -2    4.41    0.30
   5  -9  -2    4.70    0.31
  -5  -9   2    4.32    0.32
  -5   9  -2    4.19    0.31
   6   9  -2    0.13    0.10
  -6   9   2    0.10    0.10
  -6  -9  -2    0.14    0.12
  -6   9  -2    0.17    0.11
  -6  -9   2    0.05    0.13
   6  -9  -2    0.10    0.11
  -7   9   2    7.44    0.44
   7   9  -2    5.72    0.41
  -7  -9  -2    6.10    0.41
  -7  -9   2    6.32    0.44
   7  -9  -2    6.73    0.44
  -7   9  -2    6.21    0.43
   8  -9   2    0.29    0.17
  -8  -9  -2    0.43    0.17
  -8   9   2    0.46    0.16
   8   9  -2    0.52    0.16
  -8   9  -2    0.27    0.14
  -8  -9   2    0.68    0.22
   8  -9  -2    0.60    0.18
  -9  -9  -2    2.39    0.32
  -9   9  -2    2.65    0.34
   9  -9  -2    3.39    0.40
   0 -10   2   19.10    0.74
   0  10  -2   18.89    0.77
   0 -10  -2   17.96    0.74
  -1 -10  -2    7.97    0.40
   1  10  -2    7.82    0.38
   1 -10   2    7.67    0.36
  -1  10  -2    7.43    0.40
  -1 -10   2    7.74    0.39
   1 -10  -2    7.93    0.38
   2  10  -2   15.12    0.67
  -2 -10  -2   15.98    0.66
   2 -10   2   15.64    0.60
  -2 -10   2   14.40    0.64
   2 -10  -2   14.79    0.61
  -2  10  -2   15.14    0.67
   3  10  -2    3.64    0.24
  -3 -10  -2    3.15    0.28
  -3  10   2    3.49    0.27
  -3  10  -2    3.59    0.26
  -3 -10   2    3.46    0.30
   3 -10  -2    3.97    0.23
  -4  10   2    5.30    0.34
  -4 -10  -2    5.08    0.34
   4  10  -2    4.86    0.31
   4 -10  -2    5.66    0.29
  -4  10  -2    5.56    0.35
  -4 -10   2    5.36    0.35
  -5  10   2    3.23    0.31
  -5 -10  -2    3.41    0.31
   5  10  -2    3.46    0.27
  -5 -10   2    3.68    0.34
  -5  10  -2    3.19    0.31
   5 -10  -2    3.08    0.27
  -6  10   2    0.88    0.18
  -6 -10  -2    0.74    0.18
   6  10  -2    1.18    0.19
  -6 -10   2    0.97    0.21
  -6  10  -2    0.90    0.18
   6 -10  -2    1.06    0.19
  -7  10   2    2.49    0.30
  -7 -10  -2    2.82    0.31
  -7  10  -2    2.80    0.32
  -7 -10   2    2.38    0.31
   7 -10  -2    2.69    0.31
  -8 -10  -2    1.02    0.22
   8 -10   2    0.87    0.23
  -8  10   2    0.71    0.19
  -8  10  -2    1.18    0.23
  -8 -10   2    0.67    0.22
   0 -11   2   23.00    0.89
   0 -11  -2   23.39    0.91
   0  11  -2   22.98    0.93
  -1 -11  -2    0.08    0.09
   1  11  -2    0.16    0.08
   1 -11   2    0.17    0.08
  -1  11  -2    0.10    0.08
   1 -11  -2    0.07    0.08
  -1 -11   2    0.00    0.09
  -2 -11  -2   22.33    0.89
   2 -11   2   21.32    0.82
  -2 -11   2   21.45    0.88
   2 -11  -2   21.48    0.84
  -2  11  -2   22.59    0.92
  -3  11   2    0.40    0.13
  -3 -11  -2    0.24    0.11
   3  11  -2    0.52    0.11
  -3 -11   2    0.55    0.14
  -3  11  -2    0.36    0.12
   3 -11  -2    0.54    0.11
  -4 -11  -2   12.75    0.63
  -4  11   2   12.79    0.64
  -4 -11   2   13.47    0.63
  -4  11  -2   12.81    0.64
   4 -11  -2   13.65    0.56
  -5  11   2    0.21    0.11
  -5 -11  -2    0.41    0.15
  -5  11  -2    0.38    0.13
  -5 -11   2    0.38    0.16
  -6  11   2    5.55    0.39
  -6 -11  -2    5.36    0.39
  -6 -11   2    5.40    0.40
  -6  11  -2    5.48    0.39
  -7 -11  -2    1.75    0.27
  -7  11   2    1.54    0.25
  -7  11  -2    1.68    0.26
  -7 -11   2    0.81    0.22
  -8 -11  -2    0.83    0.21
   8 -11   2    0.71    0.23
  -8  11   2    0.72    0.20
   0  12  -2    0.01    0.07
   0 -12   2    0.05    0.08
   0 -12  -2    0.10    0.09
  -1 -12  -2    3.61    0.27
   1  12  -2    3.91    0.27
   1 -12   2    3.79    0.24
  -1  12  -2    3.85    0.28
  -1 -12   2    3.56    0.26
   1 -12  -2    4.01    0.26
  -2  12   2    0.98    0.18
   2 -12   2    0.65    0.12
  -2 -12  -2    0.90    0.16
  -2 -12   2    0.78    0.15
  -2  12  -2    0.67    0.14
   2 -12  -2    0.85    0.14
  -3  12   2    1.26    0.19
  -3 -12  -2    1.03    0.19
   3 -12  -2    1.01    0.15
  -3  12  -2    1.45    0.21
  -3 -12   2    1.00    0.18
  -4  12   2    2.33    0.28
  -4 -12  -2    2.70    0.29
  -4 -12   2    2.66    0.29
  -4  12  -2    2.67    0.29
  -5  12   2    1.01    0.20
  -5 -12  -2    1.33    0.22
  -5  12  -2    1.15    0.20
  -5 -12   2    1.40    0.23
  -6 -12  -2    1.03    0.21
  -6  12   2    1.32    0.22
  -6  12  -2    1.19    0.21
  -6 -12   2    0.94    0.22
  -7 -12  -2    1.17    0.24
  -7  12   2    1.22    0.24
  -7 -12   2    1.01    0.24
  -7  12  -2    0.87    0.21
   0  13  -2    3.71    0.28
   0 -13   2    3.50    0.26
   0 -13  -2    3.13    0.28
  -1 -13  -2    7.90    0.43
   1 -13   2    8.21    0.40
   1  13  -2    8.26    0.44
  -1  13  -2    8.16    0.45
   1 -13  -2    6.73    0.40
  -1 -13   2    7.75    0.42
   2  13  -2    1.87    0.22
  -2 -13  -2    1.66    0.22
  -2  13   2    1.69    0.22
   2 -13  -2    1.83    0.20
  -2  13  -2    1.91    0.24
  -2 -13   2    1.74    0.22
  -3  13   2    4.59    0.35
  -3 -13  -2    4.67    0.34
  -3  13  -2    5.19    0.36
   3 -13  -2    5.34    0.31
  -3 -13   2    5.29    0.36
  -4  13   2    1.31    0.22
  -4 -13  -2    1.03    0.20
  -4  13  -2    1.04    0.20
  -4 -13   2    0.92    0.19
  -5  13   2    4.09    0.39
  -5 -13  -2    4.59    0.35
  -5  13  -2    3.83    0.38
  -5 -13   2    4.27    0.39
  -6  13   2    0.89    0.21
  -6 -13  -2    1.52    0.26
  -6 -13   2    2.02    0.29
  -6  13  -2    1.23    0.23
   0 -14  -2    0.63    0.15
   0  14  -2    0.53    0.15
   0 -14   2    0.52    0.13
  -1 -14  -2    6.49    0.40
   1  14  -2    6.66    0.40
   1 -14   2    6.99    0.38
  -1 -14   2    6.47    0.39
   1 -14  -2    7.32    0.40
  -1  14  -2    6.82    0.42
   2  14  -2    0.93    0.17
  -2 -14  -2    0.84    0.18
  -2  14   2    0.70    0.17
  -2  14  -2    0.90    0.18
   2 -14  -2    0.81    0.15
  -2 -14   2    0.89    0.18
  -3 -14  -2    4.09    0.37
  -3  14   2    3.97    0.37
  -3  14  -2    4.14    0.34
  -3 -14   2    4.61    0.34
  -4 -14  -2    0.74    0.18
  -4  14   2    1.15    0.21
  -4 -14   2    0.74    0.19
  -4  14  -2    0.68    0.17
  -5 -14  -2    3.66    0.37
  -5  14   2    3.12    0.36
  -5 -14   2    3.71    0.38
  -5  14  -2    3.52    0.37
  -6  14   2    0.95    0.22
   0 -15  -2    1.14    0.19
   0  15  -2    1.31    0.21
   0 -15   2    1.33    0.19
  -1 -15  -2    0.83    0.17
  -1  15   2    0.96    0.20
   1  15  -2    0.65    0.16
  -1  15  -2    1.01    0.20
  -1 -15   2    0.61    0.15
   1 -15  -2    0.69    0.16
   2  15  -2    0.58    0.15
  -2  15   2    0.51    0.15
  -2 -15  -2    0.46    0.15
  -2 -15   2    0.58    0.16
   2 -15  -2    0.62    0.14
  -2  15  -2    0.49    0.15
  -3 -15  -2    3.66    0.36
  -3  15   2    3.69    0.37
  -3 -15   2    4.25    0.38
  -3  15  -2    3.66    0.37
  -4  15   2    0.44    0.15
  -4 -15  -2    0.24    0.16
  -4 -15   2   -0.04    0.13
  -4  15  -2    0.15    0.13
   0 -16  -2   -0.02    0.09
   0  16  -2    0.03    0.12
   0 -16   2    0.00    0.11
   1  16  -2    2.23    0.28
  -1 -16  -2    1.71    0.25
  -1  16   2    2.07    0.28
  -1  16  -2    2.37    0.29
   1 -16  -2    2.12    0.25
  -1 -16   2    1.91    0.25
  -2 -16  -2    1.75    0.25
  -2  16   2    1.71    0.26
  -2 -16   2    1.88    0.26
  -2  16  -2    1.72    0.26
  -3  16   2    0.43    0.17
  -3 -16  -2    0.50    0.17
  -3 -16   2    0.71    0.18
  -3  16  -2    0.66    0.19
   0 -17  -2    0.08    0.13
   0  17   2    0.41    0.17
   0  17  -2    0.37    0.16
  -1  17   2    2.23    0.31
  -1 -17  -2    2.44    0.29
   1  17  -2    2.74    0.32
  -1  17  -2    3.20    0.35
   1 -17  -2    1.99    0.26
  -1 -17   2    2.84    0.30
  -2 -17   2    0.43    0.16
   0   0  -3    0.01    0.02
   0   0  -3   -0.01    0.02
   0   0  -3    0.02    0.02
  -1   0  -3  235.55    7.81
   1   0  -3  250.07    8.92
  -1   0  -3  230.56    8.15
  -2   0   3   66.51    2.45
  -2   0  -3   75.11    2.36
   2   0  -3   74.76    2.72
  -2   0  -3   71.77    2.50
  -3   0  -3   34.72    1.29
  -3   0  -3   35.83    1.20
   3   0  -3   35.31    1.40
  -3   0   3   36.62    1.23
  -4   0  -3    5.61    0.29
  -4   0  -3    6.02    0.24
   4   0  -3    5.02    0.30
  -4   0   3    5.21    0.23
  -5   0  -3   10.27    0.47
  -5   0   3    9.78    0.40
  -5   0  -3    9.61    0.40
   5   0  -3   10.62    0.50
  -6   0  -3   -0.09    0.07
  -6   0  -3    0.00    0.07
   6   0   3    0.01    0.08
   6   0  -3    0.05    0.09
   7   0   3    9.38    0.53
  -7   0  -3    9.68    0.49
  -8   0  -3    0.04    0.09
   8   0  -3    0.02    0.09
   8   0   3    0.00    0.10
   9   0  -3    4.14    0.36
   9   0   3    4.15    0.35
  10   0   3   -0.02    0.12
   0  -1  -3   25.17    0.85
   0   1  -3   24.75    0.88
   0   1  -3   24.98    0.97
   0  -1  -3   25.22    0.95
  -1  -1  -3    3.37    0.16
   1   1  -3    3.07    0.12
  -1  -1  -3    3.24    0.14
   1   1  -3    3.34    0.17
   1  -1  -3    3.32    0.15
  -1   1  -3    3.24    0.12
  -1   1  -3    3.08    0.16
   1  -1  -3    2.92    0.15
  -2  -1  -3   57.57    1.87
   2   1  -3   56.88    2.15
  -2  -1  -3   55.11    1.98
   2  -1  -3   56.10    2.15
  -2   1  -3   55.84    1.98
  -2   1  -3   57.58    1.85
   3   1  -3    0.23    0.07
  -3  -1  -3    0.28    0.07
  -3  -1  -3    0.28    0.06
  -3   1   3    0.21    0.05
  -3   1  -3    0.16    0.06
  -3  -1   3    0.28    0.03
   3  -1  -3    0.25    0.06
  -3   1  -3    0.35    0.04
  -4  -1  -3   87.59    2.92
  -4  -1  -3   89.62    3.08
   4   1  -3   89.31    3.36
  -4   1   3   85.00    3.02
  -4  -1   3   86.66    3.00
   4  -1  -3   88.43    3.36
  -4   1  -3   89.91    2.90
  -4   1  -3   87.71    3.08
  -5  -1  -3    1.89    0.18
  -5   1   3    1.80    0.13
  -5  -1  -3    1.93    0.16
   5   1  -3    1.81    0.19
   5  -1  -3    1.58    0.19
  -5  -1   3    1.67    0.11
  -5   1  -3    1.90    0.19
  -6  -1  -3   15.69    0.61
  -6  -1  -3   15.44    0.67
   6   1  -3   15.88    0.73
   6   1   3   15.72    0.73
   6  -1  -3   15.01    0.72
  -6   1  -3   14.97    0.67
  -7  -1  -3    3.64    0.27
   7  -1   3    3.36    0.28
   7   1  -3    3.40    0.29
   7  -1  -3    3.42    0.29
  -7   1  -3    3.19    0.25
   7   1   3    3.33    0.28
  -8  -1  -3    3.50    0.28
   8   1  -3    3.64    0.32
   8  -1   3    3.51    0.35
  -8   1  -3    3.71    0.29
   8   1   3    3.10    0.32
   8  -1  -3    3.93    0.33
   9   1  -3    1.66    0.26
   9  -1   3    1.76    0.26
   9   1   3    1.50    0.25
   9  -1  -3    1.75    0.26
  10  -1   3    1.02    0.23
  10   1   3    1.30    0.26
   0  -2  -3    9.25    0.34
   0   2  -3    9.37    0.35
   0  -2  -3    9.01    0.36
   0   2  -3    9.07    0.39
   1   2  -3   25.30    0.98
   1   2  -3   25.35    0.86
  -1  -2  -3   24.80    0.86
   1  -2  -3   23.91    0.85
   1  -2  -3   24.46    0.95
  -1   2  -3   25.80    0.90
  -2  -2  -3    3.29    0.16
  -2  -2  -3    3.36    0.19
   2   2  -3    3.41    0.19
   2  -2  -3    3.24    0.16
  -2   2  -3    3.31    0.18
   2  -2  -3    3.37    0.18
  -3  -2  -3   36.25    1.26
  -3   2   3   37.90    1.30
  -3  -2  -3   35.79    1.33
   3   2  -3   37.61    1.45
  -3   2  -3   37.68    1.34
   3  -2  -3   35.12    1.43
  -4   2   3   44.45    1.71
  -4  -2  -3   50.65    1.76
  -4  -2  -3   47.40    1.66
   4   2  -3   51.11    1.91
  -4   2  -3   50.18    1.76
   4  -2  -3   48.65    1.90
  -5   2   3   14.67    0.58
  -5  -2  -3   14.29    0.57
   5   2  -3   14.88    0.67
  -5  -2  -3   14.66    0.62
   5   2   3   15.36    0.67
  -5   2  -3   14.32    0.63
   5  -2  -3   14.17    0.66
  -6   2   3   28.48    1.07
   6   2  -3   29.48    1.22
  -6  -2  -3   28.77    1.04
  -6  -2  -3   28.25    1.12
  -6   2  -3   26.90    1.12
   6  -2  -3   29.10    1.21
   6   2   3   28.87    1.21
  -7  -2  -3    0.96    0.17
   7   2  -3    1.58    0.22
  -7   2  -3    1.60    0.20
   7  -2  -3    1.37    0.20
   7   2   3    1.18    0.18
   8   2  -3    3.35    0.35
   8  -2   3    3.23    0.35
  -8  -2  -3    3.83    0.29
   8   2   3    3.65    0.31
  -8   2  -3    3.69    0.29
   8  -2  -3    3.90    0.33
   9   2  -3   -0.01    0.12
   9  -2   3    0.02    0.11
   9  -2  -3    0.05    0.12
   9   2   3    0.19    0.13
  10   2   3    0.29    0.17
   0   3  -3    0.04    0.03
   0  -3  -3    0.05    0.02
   0   3  -3    0.03    0.04
   0  -3  -3    0.00    0.04
   1   3  -3   35.65    1.36
  -1  -3  -3   35.23    1.20
   1   3  -3   35.53    1.21
   1  -3  -3   35.52    1.20
  -1   3  -3   34.21    1.25
   1  -3  -3   34.34    1.33
   2   3  -3    6.29    0.31
   2   3  -3    6.11    0.23
  -2  -3  -3    6.64    0.27
   2  -3  -3    6.34    0.29
  -2   3  -3    6.56    0.29
   2  -3  -3    6.25    0.27
  -3  -3  -3   10.72    0.44
  -3  -3  -3   11.28    0.48
  -3   3   3   12.08    0.46
   3   3  -3   11.53    0.51
   3  -3  -3   11.20    0.44
   3  -3  -3   10.58    0.49
  -3   3  -3   11.97    0.49
   3   3   3   11.80    0.49
  -4   3   3    1.48    0.14
  -4  -3  -3    1.51    0.14
   4   3  -3    1.67    0.18
  -4  -3  -3    1.68    0.17
  -4   3  -3    1.33    0.15
   4   3   3    1.45    0.16
   4  -3  -3    1.51    0.16
  -5  -3  -3    1.98    0.20
  -5   3   3    1.67    0.16
   5   3  -3    1.80    0.20
  -5  -3  -3    1.74    0.17
  -5   3  -3    2.26    0.21
   5  -3  -3    1.74    0.19
   5   3   3    2.07    0.20
   6   3  -3    1.62    0.21
  -6  -3  -3    1.80    0.18
  -6   3   3    2.11    0.19
  -6  -3  -3    1.77    0.20
  -6   3  -3    1.74    0.20
   6   3   3    1.92    0.22
   6  -3  -3    1.64    0.20
  -7  -3  -3    2.52    0.23
   7   3  -3    1.78    0.24
  -7  -3  -3    1.96    0.23
   7  -3  -3    2.26    0.26
  -7   3  -3    2.68    0.26
   7   3   3    2.04    0.24
   8   3  -3    0.86    0.19
   8  -3   3    0.76    0.17
   8  -3  -3    1.11    0.21
  -8   3  -3    0.75    0.17
   8   3   3    1.08    0.20
   9  -3   3    1.88    0.28
   9   3  -3    1.85    0.28
  -9   3  -3    1.44    0.24
   9  -3  -3    1.94    0.28
   9   3   3    1.63    0.26
  10   3   3    0.14    0.16
   0   4  -3   60.23    2.27
   0  -4  -3   59.78    2.00
   0   4  -3   58.52    2.06
   1   4  -3    4.90    0.20
   1  -4   3    4.91    0.19
  -1  -4  -3    4.56    0.22
   1   4  -3    4.73    0.24
   1  -4  -3    4.50    0.20
  -1   4  -3    4.83    0.23
   1  -4  -3    4.63    0.21
   1   4   3    4.70    0.19
  -2  -4  -3   21.80    0.78
   2   4  -3   20.90    0.87
   2  -4   3   22.05    0.71
   2  -4  -3   21.95    0.76
  -2   4  -3   21.13    0.81
   2   4   3   21.20    0.83
   2  -4  -3   20.68    0.84
  -3   4   3    3.40    0.20
  -3  -4  -3    3.39    0.20
   3   4  -3    3.48    0.22
   3  -4  -3    3.09    0.18
  -3   4  -3    3.59    0.21
   3  -4  -3    3.43    0.20
   3   4   3    3.70    0.20
  -4  -4  -3    0.45    0.10
   4   4  -3    0.39    0.09
  -4   4   3    0.50    0.09
  -4   4  -3    0.73    0.11
   4  -4  -3    0.64    0.10
   4   4   3    0.45    0.09
  -5  -4  -3    2.31    0.20
  -5  -4  -3    2.56    0.20
   5   4  -3    2.56    0.21
  -5   4   3    2.09    0.17
  -5   4  -3    2.69    0.21
   5  -4  -3    2.56    0.20
   5   4   3    3.03    0.22
  -6  -4  -3    0.46    0.12
   6   4  -3    0.56    0.13
  -6  -4  -3    0.50    0.12
  -6   4   3    0.56    0.11
  -6   4  -3    0.49    0.12
   6  -4  -3    0.57    0.14
   6   4   3    0.65    0.14
  -7  -4  -3    1.08    0.17
  -7  -4  -3    1.22    0.18
   7   4  -3    1.41    0.21
   7   4   3    1.14    0.19
   7  -4  -3    1.14    0.19
  -7   4  -3    1.67    0.21
   8   4  -3    2.25    0.29
   8  -4   3    2.23    0.28
  -8   4  -3    2.31    0.27
   8   4   3    1.80    0.25
   8  -4  -3    2.14    0.28
   9   4  -3    0.50    0.18
   9  -4   3    0.59    0.19
  -9   4  -3    0.55    0.17
   9  -4  -3    0.75    0.20
   9   4   3    0.26    0.15
  10   4   3    0.80    0.22
   0   5  -3    6.52    0.29
   0  -5  -3    6.76    0.29
   0  -5   3    6.57    0.28
   1  -5   3    2.00    0.12
  -1  -5  -3    1.81    0.13
   1   5  -3    1.98    0.12
   1   5  -3    2.05    0.14
  -1   5  -3    2.08    0.14
   1  -5  -3    1.85    0.10
   1  -5  -3    2.09    0.13
  -2  -5  -3    0.60    0.10
   2  -5   3    0.44    0.05
   2   5  -3    0.60    0.09
  -2   5  -3    0.43    0.08
   2  -5  -3    0.54    0.07
   2   5   3    0.57    0.06
   2  -5  -3    0.50    0.08
   3   5  -3   12.93    0.56
  -3   5   3   10.68    0.50
  -3  -5  -3   12.41    0.50
   3  -5   3   11.49    0.42
   3  -5  -3   12.61    0.48
  -3   5  -3   12.44    0.53
   3  -5  -3   12.42    0.53
   3   5   3   12.98    0.52
  -4  -5  -3    9.60    0.44
   4   5  -3   10.42    0.50
  -4   5   3   10.48    0.46
   4   5   3   10.55    0.47
  -4   5  -3   10.39    0.48
   4  -5  -3    9.56    0.47
   4  -5  -3   10.38    0.42
   5   5  -3    9.02    0.47
  -5  -5  -3    8.89    0.42
  -5   5   3    8.08    0.42
   5  -5  -3    9.46    0.46
  -5   5  -3    8.92    0.45
   5   5   3    8.96    0.45
   6   5  -3    5.08    0.34
  -6  -5  -3    4.68    0.30
  -6   5   3    4.69    0.30
   6  -5  -3    5.21    0.34
  -6   5  -3    5.77    0.35
   6   5   3    6.09    0.34
   7   5  -3    1.06    0.19
  -7   5   3    1.47    0.19
  -7  -5  -3    1.23    0.18
   7  -5  -3    1.38    0.20
   7   5   3    1.17    0.19
  -7   5  -3    1.24    0.20
   8  -5   3    1.65    0.25
   8   5  -3    0.99    0.20
   8  -5  -3    1.60    0.24
  -8   5  -3    1.32    0.22
   8   5   3    1.22    0.21
   9  -5   3    0.39    0.16
   9   5  -3    0.23    0.15
   9  -5  -3    0.45    0.18
  -9   5  -3    0.40    0.17
   9   5   3    0.32    0.16
  10   5   3    0.48    0.19
   0  -6  -3    2.77    0.17
   0   6  -3    2.82    0.17
   0  -6   3    2.76    0.16
   0   6  -3    2.57    0.17
   1  -6   3   14.89    0.55
   1   6  -3   14.79    0.57
  -1  -6  -3   15.12    0.58
   1   6  -3   14.98    0.63
  -1   6  -3   14.72    0.60
   1  -6  -3   14.61    0.58
   1  -6  -3   15.46    0.57
  -2  -6  -3    5.94    0.30
   2  -6   3    6.51    0.25
   2   6  -3    6.08    0.31
   2  -6  -3    6.18    0.28
  -2   6  -3    6.09    0.31
   2   6   3    6.20    0.27
   2  -6  -3    6.07    0.28
   3  -6   3   26.27    0.86
  -3  -6  -3   24.90    0.95
  -3   6   3   21.07    0.96
   3   6  -3   25.71    1.05
  -3   6  -3   25.34    0.99
   3   6   3   27.22    1.01
   3  -6  -3   25.61    1.02
   3  -6  -3   26.62    0.92
  -4   6   3    9.81    0.45
   4   6  -3    9.44    0.47
  -4  -6  -3    9.46    0.44
  -4   6  -3    9.12    0.46
   4  -6  -3    9.32    0.45
   4   6   3    9.24    0.44
   4  -6  -3    9.47    0.40
  -5  -6  -3   23.53    0.91
   5   6  -3   23.16    1.01
  -5   6   3   22.30    0.93
  -5   6  -3   23.65    0.96
   5   6   3   23.52    0.97
   5  -6  -3   22.79    0.98
  -6  -6  -3    7.71    0.41
  -6   6   3    8.38    0.43
   6   6  -3    8.02    0.46
   6  -6  -3    7.72    0.44
  -6   6  -3    7.79    0.44
   6   6   3    7.76    0.43
  -7  -6  -3   11.68    0.57
   7   6  -3   11.44    0.64
  -7   6   3   13.13    0.61
   7   6   3   12.62    0.63
   7  -6  -3   13.77    0.66
  -7   6  -3   12.81    0.64
   8   6  -3    4.32    0.37
  -8  -6  -3    5.93    0.36
  -8   6  -3    5.40    0.38
   8   6   3    4.75    0.37
   8  -6  -3    5.43    0.40
   9   6  -3    1.90    0.28
   9  -6   3    1.71    0.28
   9  -6  -3    1.73    0.28
  -9   6  -3    2.48    0.31
   9   6   3    1.88    0.27
   0   7  -3    6.26    0.31
   0   7  -3    5.94    0.29
   0  -7  -3    6.45    0.30
   0  -7   3    5.92    0.28
   1   7  -3    4.05    0.22
   1  -7   3    3.44    0.19
  -1  -7  -3    3.96    0.22
   1   7  -3    3.40    0.19
  -1  -7   3    3.93    0.23
   1  -7  -3    3.60    0.21
  -1   7  -3    3.49    0.21
   1  -7  -3    3.39    0.17
   2  -7   3    0.92    0.09
  -2  -7  -3    0.86    0.13
   2   7  -3    1.08    0.13
  -2   7  -3    1.01    0.13
   2   7   3    1.02    0.08
   2  -7  -3    1.16    0.10
   2  -7  -3    0.63    0.10
   3  -7   3    5.38    0.23
   3   7  -3    5.31    0.31
  -3   7   3    5.56    0.31
  -3  -7  -3    5.85    0.32
   3  -7  -3    5.97    0.28
   3  -7  -3    5.62    0.29
  -3   7  -3    5.49    0.31
   3   7   3    6.54    0.28
  -4   7   3    4.33    0.27
   4   7  -3    3.61    0.25
  -4  -7  -3    3.34    0.25
  -4   7  -3    3.65    0.25
   4  -7  -3    3.81    0.22
   4  -7  -3    3.57    0.24
   4   7   3    3.93    0.23
   5   7  -3    5.36    0.35
  -5   7   3    6.03    0.34
  -5  -7  -3    5.59    0.33
   5   7   3    5.80    0.32
   5  -7  -3    5.55    0.34
  -5   7  -3    5.65    0.35
  -6   7   3    0.62    0.14
  -6  -7  -3    1.10    0.18
   6   7  -3    0.72    0.15
   6  -7  -3    0.76    0.16
   6   7   3    0.57    0.13
  -6   7  -3    0.83    0.16
  -7  -7  -3    4.48    0.32
   7   7  -3    4.46    0.34
  -7   7   3    4.68    0.32
   7  -7  -3    4.27    0.34
   7   7   3    3.97    0.31
  -7   7  -3    5.04    0.35
   8   7  -3    0.78    0.19
  -8  -7  -3    0.74    0.17
   8  -7  -3    0.64    0.18
  -8   7  -3    0.26    0.14
   9  -7   3    0.99    0.23
   9   7  -3    0.54    0.20
   9  -7  -3    0.42    0.17
  -9   7  -3    0.51    0.18
  -9  -7   3    0.52    0.24
   0  -8   3   70.04    2.36
   0  -8  -3   70.34    2.38
   0   8  -3   68.46    2.46
   1  -8   3    5.00    0.25
  -1  -8  -3    4.98    0.28
   1   8  -3    4.96    0.28
   1   8  -3    5.55    0.27
  -1   8  -3    4.91    0.28
   1  -8  -3    5.51    0.28
  -1  -8   3    5.27    0.28
   2  -8   3   36.56    1.22
  -2  -8  -3   34.98    1.28
   2   8  -3   34.71    1.40
   2  -8  -3   35.01    1.25
   2  -8  -3   34.44    1.36
  -2   8  -3   36.75    1.33
  -2  -8   3   34.54    1.28
  -3   8   3    6.29    0.34
  -3  -8  -3    5.82    0.33
   3   8  -3    5.87    0.33
   3  -8  -3    5.72    0.30
  -3   8  -3    5.92    0.34
  -3  -8   3    5.99    0.34
   3  -8  -3    5.71    0.29
  -4  -8  -3   11.15    0.53
  -4   8   3   11.71    0.55
   4   8  -3   11.88    0.56
  -4   8  -3   11.04    0.55
  -4  -8   3   12.97    0.57
   4  -8  -3   11.16    0.49
   4  -8  -3   12.02    0.54
   5   8  -3    6.72    0.40
  -5   8   3    6.28    0.38
  -5  -8  -3    7.32    0.40
  -5   8  -3    7.46    0.42
   5  -8  -3    7.08    0.39
   5  -8  -3    7.09    0.34
  -6  -8  -3    5.56    0.35
   6   8  -3    5.48    0.36
  -6   8   3    4.96    0.34
  -6   8  -3    5.09    0.36
   6  -8  -3    5.03    0.35
  -7  -8  -3    1.28    0.21
   7   8  -3    1.30    0.22
  -7   8   3    1.53    0.22
  -7   8  -3    1.83    0.25
   7  -8  -3    1.62    0.23
  -7  -8   3    1.37    0.25
   8   8  -3    0.17    0.14
  -8  -8  -3    0.70    0.19
  -8  -8   3    0.29    0.18
  -8   8  -3    0.60    0.17
   8  -8  -3    0.63    0.18
   9   8  -3    0.44    0.18
  -9   8  -3    0.74    0.21
  -9  -8   3    0.34    0.21
   9  -8  -3    0.43    0.18
   0   9  -3    0.65    0.11
   0  -9  -3    0.45    0.11
   0  -9   3    0.54    0.11
   1   9  -3   14.04    0.60
   1  -9   3   14.31    0.57
  -1  -9  -3   15.12    0.62
  -1   9  -3   15.09    0.63
  -1  -9   3   14.55    0.60
   1  -9  -3   13.98    0.59
   2  -9   3    2.76    0.17
   2   9  -3    2.58    0.19
  -2  -9  -3    2.54    0.23
  -2   9  -3    2.76    0.21
  -2  -9   3    2.42    0.23
   2  -9  -3    2.27    0.18
   3   9  -3    2.19    0.19
  -3   9   3    2.39    0.24
  -3  -9  -3    2.64    0.24
  -3   9  -3    3.17    0.23
  -3  -9   3    2.27    0.24
   3  -9  -3    2.64    0.19
   3  -9  -3    2.25    0.17
   4   9  -3    0.60    0.13
  -4   9   3    0.97    0.16
  -4  -9  -3    0.88    0.16
   4  -9  -3    0.81    0.13
  -4  -9   3    1.06    0.18
  -4   9  -3    1.24    0.18
   4  -9  -3    1.06    0.15
  -5   9   3    1.77    0.22
  -5  -9  -3    2.05    0.24
   5   9  -3    1.66    0.21
   5  -9  -3    1.88    0.21
   5  -9  -3    1.74    0.18
  -5   9  -3    1.90    0.23
  -5  -9   3    1.91    0.25
  -6  -9  -3    0.57    0.16
   6   9  -3    0.71    0.16
  -6   9   3    0.92    0.17
  -6   9  -3    0.93    0.18
  -6  -9   3    0.76    0.19
   6  -9  -3    1.01    0.18
   7   9  -3    3.60    0.32
  -7  -9  -3    3.95    0.36
  -7   9   3    4.27    0.33
  -7  -9   3    4.43    0.41
  -7   9  -3    3.73    0.37
   7  -9  -3    4.63    0.35
  -8  -9  -3    1.34    0.24
   8   9  -3    1.00    0.22
   8  -9  -3    1.00    0.21
  -8  -9   3    1.17    0.26
  -8   9  -3    0.96    0.21
   9   9  -3    2.37    0.33
   9  -9  -3    3.44    0.40
   0 -10  -3    5.59    0.31
   0 -10   3    5.29    0.30
   0  10  -3    5.65    0.31
   1  10  -3   12.68    0.58
  -1 -10  -3   13.25    0.57
   1  10  -3   13.38    0.56
   1 -10   3   12.53    0.52
   1 -10  -3   12.35    0.54
  -1 -10   3   12.68    0.55
  -1  10  -3   12.34    0.57
   2  10  -3   13.09    0.60
  -2 -10  -3   12.42    0.58
   2 -10   3   13.60    0.53
   2  10  -3   13.07    0.56
   2 -10  -3   13.58    0.56
  -2  10  -3   12.87    0.60
  -2 -10   3   13.46    0.59
  -3 -10  -3   12.12    0.57
   3  10  -3   12.32    0.57
  -3  10   3   12.97    0.59
  -3 -10   3   11.34    0.56
  -3  10  -3   11.29    0.57
   3 -10  -3   12.36    0.52
   4  10  -3    8.71    0.45
  -4 -10  -3    8.37    0.45
  -4  10   3    8.13    0.46
  -4 -10   3    8.83    0.47
  -4  10  -3    7.88    0.46
   4 -10  -3    9.10    0.41
  -5 -10  -3    3.01    0.30
  -5  10   3    3.71    0.29
   5  10  -3    3.51    0.27
  -5 -10   3    2.74    0.30
   5 -10  -3    2.98    0.22
  -5  10  -3    3.16    0.31
  -6  10   3    4.61    0.34
   6  10  -3    4.74    0.34
  -6 -10  -3    4.95    0.35
  -6  10  -3    4.14    0.34
  -6 -10   3    5.09    0.38
  -7  10   3    2.18    0.28
  -7 -10  -3    2.85    0.32
   7  10  -3    2.99    0.32
  -7  10  -3    2.79    0.32
  -7 -10   3    1.88    0.29
  -8 -10  -3    0.25    0.16
  -8 -10   3    0.44    0.21
  -8  10  -3    0.40    0.17
   0 -11   3    0.02    0.08
   0 -11  -3   -0.01    0.07
   0  11  -3    0.00    0.07
  -1 -11  -3    7.69    0.40
   1  11  -3    8.28    0.40
   1 -11   3    7.52    0.36
  -1  11  -3    7.07    0.40
   1 -11  -3    7.68    0.39
  -1 -11   3    7.49    0.39
   2  11  -3    0.56    0.11
  -2 -11  -3    0.47    0.13
   2 -11   3    0.35    0.08
   2  11  -3    0.43    0.10
  -2  11  -3    0.33    0.11
   2 -11  -3    0.29    0.10
  -2 -11   3    0.23    0.11
  -3 -11  -3    0.76    0.16
  -3  11   3    0.70    0.15
   3  11  -3    0.63    0.13
   3 -11  -3    0.46    0.11
  -3 -11   3    0.51    0.14
  -3  11  -3    0.71    0.14
  -4 -11  -3    1.14    0.19
   4  11  -3    1.35    0.17
  -4  11   3    1.17    0.19
   4 -11  -3    1.59    0.18
  -4 -11   3    1.30    0.21
  -4  11  -3    1.23    0.19
   5  11  -3    1.18    0.19
  -5 -11  -3    1.14    0.20
  -5  11   3    1.06    0.19
  -5  11  -3    1.12    0.19
  -5 -11   3    0.91    0.20
  -6  11   3    0.14    0.12
  -6 -11  -3    0.14    0.14
  -6  11  -3    0.15    0.12
  -6 -11   3    0.09    0.14
  -7 -11  -3    1.47    0.25
  -7  11   3    1.12    0.22
  -7  11  -3    1.36    0.24
  -7 -11   3    1.17    0.24
   0 -12  -3    9.40    0.47
   0  12  -3    9.72    0.47
   0 -12   3    8.72    0.44
  -1 -12  -3    6.07    0.36
   1  12  -3    6.43    0.36
   1 -12   3    6.02    0.33
   1 -12  -3    6.39    0.35
  -1  12  -3    5.78    0.36
  -1 -12   3    6.35    0.36
  -2 -12  -3   12.10    0.58
   2  12  -3   12.11    0.56
   2 -12  -3   11.61    0.54
  -2 -12   3   11.93    0.57
  -2  12  -3   12.80    0.60
  -3 -12  -3    3.76    0.33
  -3  12   3    3.77    0.30
  -3 -12   3    3.39    0.31
   3 -12  -3    3.78    0.25
  -3  12  -3    3.28    0.32
  -4 -12  -3    4.03    0.31
  -4  12   3    3.77    0.35
   4 -12  -3    3.78    0.26
  -4  12  -3    4.05    0.31
  -4 -12   3    3.52    0.34
  -5 -12  -3    3.55    0.34
  -5  12   3    3.52    0.35
  -5  12  -3    3.00    0.32
  -5 -12   3    3.38    0.35
  -6 -12  -3    0.63    0.19
  -6  12   3    0.76    0.19
  -6  12  -3    1.03    0.21
  -6 -12   3    1.20    0.24
  -7 -12  -3    0.92    0.21
  -7  12   3    1.50    0.25
  -7 -12   3    1.52    0.27
  -7  12  -3    1.17    0.24
   0 -13  -3    0.07    0.09
   0 -13   3    0.04    0.08
   0  13  -3    0.02    0.08
   1 -13   3    0.18    0.09
  -1 -13  -3    0.15    0.10
   1  13  -3    0.15    0.10
  -1 -13   3    0.15    0.10
  -1  13  -3    0.18    0.10
   1 -13  -3    0.20    0.10
  -2 -13  -3    0.28    0.12
   2  13  -3    0.32    0.11
  -2  13   3    0.10    0.09
  -2  13  -3    0.31    0.12
   2 -13  -3    0.32    0.11
  -2 -13   3    0.14    0.11
  -3 -13  -3    0.81    0.17
  -3  13   3    0.94    0.18
   3 -13  -3    0.75    0.15
  -3 -13   3    1.13    0.19
  -3  13  -3    0.56    0.15
  -4 -13  -3    1.22    0.21
  -4  13   3    1.05    0.20
  -4 -13   3    0.85    0.19
  -4  13  -3    0.96    0.19
  -5 -13  -3    0.31    0.15
  -5  13   3    0.60    0.17
  -5 -13   3    0.73    0.20
  -5  13  -3    0.25    0.13
  -6 -13  -3    1.89    0.28
  -6  13   3    1.73    0.27
  -6 -13   3    1.43    0.26
  -6  13  -3    1.81    0.27
   0  14  -3    1.17    0.20
   0 -14  -3    1.34    0.20
   0 -14   3    1.48    0.20
   1  14  -3    3.67    0.29
  -1 -14  -3    4.16    0.31
   1 -14  -3    4.25    0.29
  -1  14  -3    4.15    0.31
  -1 -14   3    3.94    0.30
  -2  14   3    1.12    0.19
  -2 -14  -3    1.32    0.21
  -2  14  -3    0.83    0.18
  -2 -14   3    0.83    0.17
   2 -14  -3    1.15    0.17
  -3  14   3    3.20    0.33
  -3 -14  -3    3.08    0.33
  -3  14  -3    3.26    0.33
   3 -14  -3    3.33    0.26
  -3 -14   3    2.98    0.31
  -4  14   3    1.23    0.23
  -4 -14  -3    1.53    0.24
  -4  14  -3    1.08    0.21
  -4 -14   3    1.16    0.23
  -5  14   3    0.44    0.16
  -5 -14  -3    0.40    0.16
  -5  14  -3    0.25    0.14
  -5 -14   3    0.22    0.16
   0 -15  -3    0.43    0.14
   0 -15   3    0.26    0.12
   0  15  -3    0.44    0.15
  -1 -15  -3    0.90    0.19
   1  15  -3    1.30    0.21
   1 -15  -3    1.36    0.20
  -1 -15   3    1.36    0.20
  -1  15  -3    1.39    0.22
  -2  15   3    0.63    0.18
  -2 -15  -3    0.19    0.12
  -2 -15   3    0.30    0.13
  -2  15  -3    0.38    0.14
   2 -15  -3    0.38    0.13
  -3  15   3    2.09    0.29
  -3 -15  -3    1.60    0.25
  -3 -15   3    1.71    0.25
  -3  15  -3    1.47    0.24
  -4 -15  -3    0.94    0.21
  -4  15   3    0.86    0.20
  -4  15  -3    0.61    0.18
  -4 -15   3    0.72    0.20
   0 -16  -3    0.12    0.12
   0  16  -3    0.17    0.12
  -1 -16  -3    6.72    0.43
  -1  16   3    5.84    0.44
   1  16  -3    6.54    0.43
  -1 -16   3    6.34    0.41
  -1  16  -3    6.75    0.44
   1 -16  -3    6.44    0.41
  -2 -16  -3    0.97    0.20
  -2  16   3    0.80    0.19
  -2  16  -3    1.14    0.22
   2 -16  -3    0.82    0.18
  -3  16   3    5.97    0.45
  -3 -16  -3    6.05    0.44
  -3  16  -3    7.02    0.47
  -3 -16   3    6.80    0.45
   0 -17  -3    0.58    0.17
   0  17  -3    0.32    0.15
  -1 -17  -3    0.53    0.17
  -1  17  -3    0.56    0.18
   1 -17  -3    0.49    0.16
  -1 -17   3    0.61    0.17
  -2 -17   3    1.84    0.26
   0   0  -4    5.24    0.23
   0   0  -4    5.05    0.22
   0   0  -4    4.85    0.20
   1   0  -4   14.62    0.60
  -1   0  -4   15.05    0.57
  -1   0  -4   15.06    0.51
  -2   0  -4    0.29    0.04
  -2   0  -4    0.21    0.06
   2   0  -4    0.25    0.06
  -3   0  -4   33.00    1.20
  -3   0  -4   32.30    1.08
  -3   0   4   31.95    1.12
   3   0  -4   32.08    1.28
  -4   0   4    0.40    0.05
  -4   0  -4    0.34    0.09
   4   0  -4    0.52    0.10
  -4   0  -4    0.44    0.06
  -5   0  -4    3.65    0.24
  -5   0   4    3.25    0.17
  -5   0  -4    3.32    0.18
   5   0  -4    4.45    0.27
   6   0  -4    0.03    0.08
  -6   0  -4    0.09    0.08
   7   0  -4   -0.01    0.09
  -7   0  -4   -0.02    0.08
   7   0   4   -0.03    0.09
   8   0   4    0.05    0.11
  -8   0  -4    0.07    0.10
   8   0  -4   -0.01    0.09
   9   0   4    0.44    0.17
   9   0  -4    0.54    0.18
   0  -1  -4   46.18    1.50
   0  -1  -4   37.77    1.69
   0   1  -4   49.85    1.72
   0   1  -4   46.23    1.56
  -1  -1  -4   16.25    0.64
  -1  -1  -4   17.05    0.59
   1   1  -4   17.52    0.68
   1   1  -4   16.85    0.60
  -1   1  -4   16.83    0.63
  -1   1  -4   17.25    0.57
   1  -1  -4   16.16    0.60
   1  -1  -4   16.73    0.67
  -2  -1  -4   27.41    0.99
   2   1  -4   25.67    1.05
  -2  -1  -4   26.64    0.91
   2  -1  -4   26.10    1.05
  -2   1  -4   26.76    0.98
  -2   1  -4   26.82    0.88
  -3  -1  -4    9.42    0.40
   3   1  -4    9.54    0.42
  -3  -1  -4    8.98    0.34
  -3   1   4    8.23    0.35
   3  -1  -4    8.70    0.41
  -3   1  -4    8.72    0.40
  -3   1  -4    8.89    0.31
  -4   1   4    9.44    0.37
  -4  -1  -4    9.44    0.43
  -4  -1  -4    9.03    0.36
   4   1  -4    9.00    0.44
  -4   1  -4    9.37    0.43
  -4   1  -4    8.99    0.33
  -4  -1   4    8.86    0.33
   4  -1  -4    8.84    0.44
  -5   1   4    6.67    0.29
   5   1  -4    5.97    0.36
  -5  -1  -4    7.51    0.37
  -5  -1  -4    6.67    0.29
  -5   1  -4    6.41    0.35
  -5   1  -4    6.54    0.27
   5  -1  -4    6.47    0.37
   6   1  -4    8.91    0.47
  -6  -1  -4    8.21    0.44
  -6  -1  -4    8.64    0.37
   6  -1  -4    7.81    0.46
  -6   1  -4    8.58    0.44
  -7  -1  -4    4.38    0.31
   7   1  -4    4.19    0.32
  -7   1  -4    4.76    0.32
   7   1   4    4.97    0.35
   7  -1  -4    4.73    0.34
  -8  -1  -4    3.01    0.30
   8  -1   4    2.56    0.31
   8   1  -4    2.81    0.31
   8  -1  -4    2.98    0.33
   8   1   4    3.04    0.32
  -8   1  -4    3.28    0.32
   9   1  -4    0.63    0.18
   9  -1   4    0.82    0.19
   9  -1  -4    0.66    0.18
   9   1   4    0.84    0.20
  -9   1  -4    1.16    0.21
  10   1   4    1.19    0.25
   0  -2  -4   25.89    1.15
   0   2  -4   31.16    1.07
   0  -2  -4   32.55    1.04
   0   2  -4   32.34    1.19
   1   2  -4   15.43    0.54
  -1  -2  -4   15.59    0.55
  -1  -2  -4   15.97    0.60
   1   2  -4   16.24    0.63
   1  -2  -4   15.30    0.55
  -1   2  -4   15.71    0.58
   1  -2  -4   13.11    0.60
   2   2  -4   42.88    1.64
  -2  -2  -4   42.19    1.52
  -2  -2  -4   42.45    1.43
   2  -2  -4   41.95    1.62
  -2   2  -4   41.90    1.51
   2  -2  -4   41.73    1.43
   3   2  -4   33.10    1.25
  -3  -2  -4   31.36    1.08
  -3   2   4   28.58    1.11
  -3  -2  -4   32.58    1.17
   3  -2  -4   30.97    1.24
  -3   2  -4   31.36    1.16
  -4  -2  -4   36.30    1.38
   4   2  -4   37.34    1.49
  -4   2   4   34.55    1.32
  -4  -2  -4   37.18    1.28
   4  -2  -4   37.94    1.47
  -4   2  -4   38.68    1.38
   5   2  -4    7.70    0.41
  -5  -2  -4    7.52    0.39
  -5   2   4    7.20    0.32
  -5  -2  -4    6.73    0.32
  -5   2  -4    7.16    0.38
   5  -2  -4    7.20    0.39
  -6  -2  -4   30.72    1.23
   6   2  -4   31.33    1.33
  -6  -2  -4   32.39    1.13
   6  -2  -4   32.80    1.33
  -6   2  -4   30.98    1.24
   6   2   4   30.46    1.31
   7   2  -4    1.08    0.19
  -7  -2  -4    1.59    0.20
   7   2   4    1.50    0.21
   7  -2  -4    1.12    0.20
  -7   2  -4    1.24    0.19
  -8  -2  -4    5.79    0.38
   8   2  -4    5.76    0.41
   8  -2   4    4.81    0.38
  -8   2  -4    5.33    0.37
   8  -2  -4    6.13    0.41
   8   2   4    4.67    0.37
   9   2  -4    0.31    0.15
   9  -2   4    0.25    0.15
   9   2   4    0.36    0.15
   9  -2  -4    0.34    0.16
  -9   2  -4    0.54    0.16
  10   2   4    0.04    0.13
   0   3  -4    0.85    0.09
   0   3  -4    0.72    0.07
   0  -3  -4    0.74    0.05
   0  -3  -4    0.63    0.07
   1   3  -4  136.60    5.12
  -1  -3  -4  136.31    4.50
   1   3  -4  136.71    4.64
   1  -3  -4  137.34    4.50
  -1   3  -4  133.92    4.68
   1  -3  -4  139.36    5.09
   2   3  -4    4.10    0.22
   2   3  -4    3.83    0.15
  -2  -3  -4    3.95    0.19
  -2   3  -4    3.64    0.21
   2  -3  -4    3.93    0.19
   2  -3  -4    3.48    0.19
   3   3  -4   55.03    2.09
  -3  -3  -4   53.01    1.82
  -3  -3  -4   54.75    1.93
  -3   3  -4   53.99    1.92
   3  -3  -4   51.94    2.06
  -4  -3  -4    1.00    0.12
   4   3  -4    1.16    0.15
  -4   3   4    1.31    0.13
  -4  -3  -4    0.95    0.14
   4  -3  -4    1.27    0.14
  -4   3  -4    1.09    0.14
  -5  -3  -4   14.38    0.63
   5   3  -4   14.07    0.67
  -5   3   4   14.87    0.58
  -5  -3  -4   14.38    0.57
   5  -3  -4   14.19    0.65
  -5   3  -4   13.65    0.63
   5   3   4   13.89    0.65
  -6   3   4   13.34    0.53
   6   3  -4   11.70    0.61
  -6  -3  -4   12.35    0.51
  -6  -3  -4   12.33    0.58
   6   3   4   11.06    0.59
  -6   3  -4   11.39    0.58
   6  -3  -4   12.46    0.60
   7   3  -4    3.52    0.30
  -7  -3  -4    3.68    0.28
   7  -3  -4    3.72    0.29
   7   3   4    2.99    0.30
  -7   3  -4    4.06    0.30
   8   3  -4    8.36    0.52
  -8  -3  -4    8.69    0.49
   8  -3   4    8.21    0.52
   8   3   4    8.57    0.51
  -8   3  -4    8.11    0.49
   8  -3  -4    8.22    0.51
   9  -3   4    2.54    0.32
   9   3  -4    2.92    0.35
   9  -3  -4    2.96    0.35
  -9   3  -4    2.89    0.33
   9   3   4    2.53    0.32
  10   3   4    1.90    0.30
   0  -4  -4   16.36    0.62
   0   4  -4   17.23    0.64
   0   4  -4   17.23    0.70
   1   4  -4    5.33    0.27
  -1  -4  -4    4.76    0.24
   1   4  -4    4.96    0.22
   1  -4  -4    5.26    0.22
  -1   4  -4    5.38    0.25
   1  -4  -4    5.33    0.24
  -2  -4  -4   48.98    1.66
   2   4  -4   48.63    1.66
   2  -4   4   50.64    1.59
   2   4  -4   47.85    1.88
   2  -4  -4   46.50    1.65
   2  -4  -4   46.90    1.84
  -2   4  -4   49.46    1.74
  -3  -4  -4    3.41    0.20
   3   4  -4    3.27    0.21
   3  -4  -4    3.24    0.20
   3   4   4    3.52    0.19
   3  -4  -4    3.12    0.18
  -3   4  -4    3.27    0.21
  -4  -4  -4    9.14    0.45
  -4  -4  -4    9.43    0.41
  -4   4   4    9.88    0.42
   4   4  -4    9.52    0.46
  -4   4  -4    8.77    0.43
   4  -4  -4    8.91    0.44
   4   4   4    9.01    0.43
  -5  -4  -4    0.14    0.08
   5   4  -4    0.06    0.07
  -5   4   4    0.18    0.07
  -5  -4  -4    0.16    0.08
   5   4   4    0.10    0.08
   5  -4  -4    0.03    0.07
  -5   4  -4    0.17    0.08
  -6  -4  -4    4.65    0.27
  -6   4   4    4.89    0.28
   6   4  -4    4.64    0.32
  -6  -4  -4    4.61    0.31
   6   4   4    4.76    0.31
  -6   4  -4    4.45    0.31
   6  -4  -4    4.46    0.31
  -7  -4  -4    1.00    0.17
   7   4  -4    1.07    0.19
  -7  -4  -4    1.40    0.18
   7   4   4    1.13    0.19
   7  -4  -4    1.47    0.21
  -7   4  -4    1.67    0.22
   8   4  -4    0.61    0.17
  -8   4  -4    0.43    0.15
   8   4   4    0.69    0.17
   8  -4  -4    0.54    0.16
   9   4  -4    2.26    0.31
   9  -4   4    2.18    0.30
   9   4   4    2.21    0.29
   9  -4  -4    2.47    0.32
  -9   4  -4    2.45    0.30
  10   4   4    4.76    0.42
   0   5  -4    4.70    0.23
   0   5  -4    4.78    0.26
   0  -5  -4    4.88    0.24
   1  -5   4    7.16    0.27
  -1  -5  -4    6.31    0.30
   1   5  -4    6.70    0.29
   1   5  -4    6.36    0.33
   1  -5  -4    7.05    0.30
   1  -5  -4    6.70    0.28
  -1   5  -4    7.26    0.32
  -2  -5  -4   30.30    1.08
   2   5  -4   30.74    1.22
   2   5  -4   30.41    1.07
   2  -5   4   31.08    1.02
   2  -5  -4   30.08    1.07
  -2   5  -4   30.34    1.13
   2  -5  -4   29.40    1.18
   2   5   4   30.90    1.16
   3   5  -4    5.52    0.31
   3   5  -4    6.04    0.23
  -3  -5  -4    5.86    0.29
   3   5   4    5.74    0.27
  -3   5  -4    5.49    0.30
   3  -5  -4    5.38    0.27
   3  -5  -4    5.45    0.28
  -4  -5  -4   31.80    1.15
   4   5  -4   32.72    1.31
  -4   5   4   29.40    1.18
   4  -5  -4   31.03    1.27
   4   5   4   32.58    1.26
  -4   5  -4   31.95    1.22
   4  -5  -4   32.43    1.14
  -5  -5  -4    3.29    0.23
  -5   5   4    3.22    0.22
   5   5  -4    3.65    0.27
  -5   5  -4    3.41    0.25
   5   5   4    3.74    0.25
   5  -5  -4    3.18    0.24
   6   5  -4    4.94    0.33
  -6  -5  -4    4.86    0.29
  -6   5   4    4.54    0.28
   6   5   4    4.47    0.31
   6  -5  -4    4.89    0.32
  -6   5  -4    4.73    0.32
  -7  -5  -4    0.31    0.12
   7   5  -4    0.40    0.14
   7   5   4    0.43    0.13
  -7   5  -4    0.45    0.13
   7  -5  -4    0.30    0.13
   8   5  -4    0.48    0.16
  -8   5  -4    0.77    0.19
   8   5   4    0.60    0.17
   8  -5  -4    0.80    0.19
   9  -5   4    0.39    0.17
   9   5  -4    0.27    0.16
  -9   5  -4    0.35    0.16
   9   5   4    0.13    0.13
   9  -5  -4    0.15    0.15
   0   6  -4    2.49    0.17
   0  -6  -4    2.12    0.15
   0  -6   4    2.26    0.16
   0   6  -4    2.59    0.16
  -1  -6  -4    7.29    0.34
   1  -6   4    7.12    0.30
   1   6  -4    7.24    0.36
   1   6  -4    7.57    0.32
   1  -6  -4    7.07    0.33
  -1   6  -4    7.54    0.34
   1  -6  -4    7.54    0.30
  -2  -6  -4    7.28    0.34
   2   6  -4    6.92    0.36
   2   6  -4    7.33    0.30
   2  -6   4    7.15    0.28
  -2   6  -4    7.22    0.35
   2  -6  -4    7.35    0.33
   2  -6  -4    6.86    0.32
   2   6   4    7.29    0.30
   3   6  -4    5.57    0.24
  -3  -6  -4    5.77    0.30
   3   6  -4    5.27    0.31
   3   6   4    5.46    0.27
  -3   6  -4    5.71    0.31
   3  -6  -4    5.78    0.28
   3  -6  -4    5.35    0.28
   4   6  -4    1.24    0.16
  -4   6   4    1.06    0.15
  -4  -6  -4    1.12    0.15
  -4   6  -4    0.98    0.15
   4   6   4    1.27    0.14
   4  -6  -4    1.10    0.14
   4  -6  -4    1.36    0.14
  -5  -6  -4    3.39    0.25
   5   6  -4    3.89    0.28
  -5   6   4    3.94    0.26
  -5   6  -4    3.82    0.27
   5   6   4    3.87    0.25
   5  -6  -4    3.90    0.27
   6   6  -4    0.83    0.16
  -6   6   4    0.54    0.13
  -6  -6  -4    0.56    0.14
   6   6   4    0.68    0.14
   6  -6  -4    0.64    0.14
  -6   6  -4    0.75    0.15
   7   6  -4    5.09    0.38
  -7  -6  -4    5.42    0.34
  -7   6  -4    6.38    0.40
   7   6   4    5.20    0.37
   7  -6  -4    5.89    0.39
   8   6  -4    0.00    0.11
   8   6   4    0.11    0.12
   8  -6  -4   -0.02    0.10
  -8   6  -4    0.11    0.12
   9   6  -4    0.65    0.21
   9  -6   4    0.40    0.18
   9  -6  -4    0.73    0.21
  -9   6  -4    0.76    0.20
   0   7  -4   33.29    1.35
   0  -7  -4   35.12    1.22
   0  -7   4   33.52    1.19
   0   7  -4   33.98    1.24
   1   7  -4   10.38    0.47
   1  -7   4    9.82    0.39
   1   7  -4    9.24    0.41
  -1  -7  -4    9.63    0.43
   1  -7  -4    9.98    0.39
  -1   7  -4    9.99    0.44
   1  -7  -4    9.64    0.42
   2   7  -4   10.46    0.50
   2   7  -4   10.17    0.43
  -2  -7  -4   10.29    0.46
   2  -7   4   10.65    0.40
   2  -7  -4   11.19    0.45
   2  -7  -4   10.64    0.45
  -2   7  -4   10.48    0.48
   2   7   4   11.17    0.42
   3   7  -4    2.77    0.16
  -3  -7  -4    2.75    0.21
   3   7  -4    2.80    0.21
   3  -7  -4    3.15    0.19
  -3   7  -4    2.87    0.21
   3  -7  -4    2.78    0.18
   3   7   4    3.08    0.17
   4   7  -4    0.86    0.15
  -4  -7  -4    0.67    0.13
  -4   7   4    0.73    0.13
   4  -7  -4    0.84    0.12
  -4   7  -4    0.79    0.14
   4  -7  -4    0.78    0.12
   4   7   4    0.71    0.11
   5   7  -4    1.41    0.19
  -5  -7  -4    1.76    0.20
  -5   7   4    1.51    0.19
   5   7   4    1.69    0.18
   5  -7  -4    1.56    0.17
  -5   7  -4    1.40    0.19
   5  -7  -4    2.12    0.21
   6   7  -4    2.37    0.26
  -6   7   4    2.51    0.25
  -6  -7  -4    2.60    0.25
  -6   7  -4    2.00    0.25
   6  -7  -4    2.14    0.24
   7   7  -4    1.17    0.20
  -7  -7  -4    1.04    0.18
  -7   7   4    1.42    0.20
  -7   7  -4    1.56    0.23
   7  -7  -4    1.24    0.20
   8   7  -4    1.13    0.22
  -8  -7  -4    1.42    0.22
  -8   7  -4    1.72    0.25
   8  -7  -4    1.57    0.25
   9  -7   4    1.05    0.25
   9   7  -4    0.78    0.21
  -9   7  -4    0.94    0.23
   9  -7  -4    0.62    0.20
   0   8  -4    0.73    0.11
   0  -8  -4    0.74    0.12
   0  -8   4    0.97    0.13
  -1  -8  -4    7.35    0.36
   1  -8   4    7.16    0.32
   1   8  -4    7.35    0.34
   1   8  -4    7.21    0.37
  -1   8  -4    6.91    0.36
   1  -8  -4    7.22    0.35
  -1  -8   4    7.61    0.36
  -2  -8  -4    0.45    0.11
   2   8  -4    0.51    0.08
   2  -8   4    0.67    0.09
   2   8  -4    0.70    0.11
  -2   8  -4    0.50    0.11
   2  -8  -4    0.55    0.10
  -2  -8   4    0.67    0.13
   2  -8  -4    0.69    0.08
  -3  -8  -4   11.56    0.54
   3   8  -4   12.53    0.50
   3   8  -4   12.13    0.58
  -3   8  -4   12.94    0.58
   3  -8  -4   13.09    0.55
   3  -8  -4   12.75    0.53
   4   8  -4    4.25    0.29
  -4   8   4    4.16    0.28
  -4  -8  -4    4.73    0.29
   4  -8  -4    4.59    0.27
   4  -8  -4    3.87    0.25
  -4   8  -4    3.96    0.28
   5   8  -4    4.12    0.30
  -5  -8  -4    4.09    0.29
  -5   8   4    4.85    0.31
   5  -8  -4    4.29    0.29
   5  -8  -4    4.48    0.27
  -5   8  -4    4.18    0.30
  -6  -8  -4    0.80    0.16
  -6   8   4    0.72    0.16
   6   8  -4    0.44    0.14
  -6   8  -4    0.54    0.15
   6  -8  -4    0.57    0.14
  -7   8   4    2.32    0.26
   7   8  -4    1.55    0.24
  -7  -8  -4    2.08    0.25
  -7   8  -4    1.69    0.24
   7  -8  -4    1.91    0.25
   8   8  -4    0.23    0.16
  -8  -8  -4    0.24    0.14
  -8   8  -4    0.12    0.13
   8  -8  -4    0.37    0.16
   9   8  -4    0.60    0.20
   9  -8  -4    0.20    0.16
  -9   8  -4    0.31    0.17
   0   9  -4   29.64    1.16
   0  -9  -4   30.60    1.14
   0  -9   4   31.98    1.12
   1   9  -4    5.98    0.34
  -1  -9  -4    6.33    0.34
   1  -9   4    6.62    0.31
   1   9  -4    6.22    0.31
  -1   9  -4    6.06    0.33
   1  -9  -4    6.40    0.32
  -1  -9   4    6.10    0.33
   2  -9   4   11.80    0.45
   2   9  -4   11.11    0.54
  -2  -9  -4   11.87    0.53
   2   9  -4   11.39    0.48
  -2   9  -4   11.21    0.53
  -2  -9   4   11.08    0.52
   2  -9  -4   10.90    0.49
   3   9  -4    0.82    0.11
   3   9  -4    1.13    0.15
  -3  -9  -4    0.89    0.15
  -3   9  -4    0.73    0.14
  -3  -9   4    1.32    0.18
   3  -9  -4    0.80    0.13
   4   9  -4    1.00    0.16
  -4  -9  -4    1.08    0.17
  -4   9   4    1.19    0.18
  -4  -9   4    1.18    0.19
  -4   9  -4    0.85    0.15
   4  -9  -4    0.91    0.14
  -5  -9  -4    6.12    0.38
   5   9  -4    6.75    0.40
  -5   9   4    6.51    0.39
   5  -9  -4    6.57    0.34
  -5  -9   4    6.35    0.41
  -5   9  -4    6.13    0.40
  -6  -9  -4    3.61    0.33
   6   9  -4    4.27    0.32
  -6   9   4    3.83    0.31
  -6  -9   4    3.98    0.38
  -6   9  -4    4.17    0.32
   7   9  -4    2.25    0.28
  -7   9   4    2.96    0.31
  -7  -9  -4    2.33    0.28
  -7   9  -4    1.99    0.27
  -7  -9   4    2.55    0.33
   8   9  -4    1.75    0.27
  -8  -9  -4    1.83    0.27
  -8  -9   4    2.10    0.33
  -8   9  -4    1.97    0.28
   0 -10   4    1.16    0.15
   0  10  -4    1.45    0.16
   0 -10  -4    1.46    0.17
   1  10  -4    5.63    0.30
  -1 -10  -4    5.07    0.32
   1 -10   4    5.77    0.29
   1  10  -4    5.87    0.33
   1 -10  -4    6.04    0.32
  -1 -10   4    6.02    0.32
  -1  10  -4    5.47    0.32
   2  10  -4    1.94    0.18
  -2 -10  -4    1.83    0.21
   2  10  -4    1.66    0.18
  -2 -10   4    1.64    0.20
   2 -10  -4    1.81    0.18
  -2  10  -4    1.93    0.21
   3  10  -4    7.27    0.40
  -3 -10  -4    7.38    0.41
  -3 -10   4    7.43    0.41
   3 -10  -4    7.10    0.37
  -3  10  -4    7.59    0.41
  -4  10   4    0.84    0.16
  -4 -10  -4    0.71    0.15
   4  10  -4    1.05    0.16
   4 -10  -4    0.68    0.13
  -4  10  -4    0.93    0.17
  -4 -10   4    0.78    0.18
   5  10  -4    8.53    0.46
  -5  10   4    7.24    0.44
  -5 -10  -4    8.36    0.45
  -5 -10   4    7.56    0.46
  -5  10  -4    7.65    0.46
   5 -10  -4    7.66    0.40
  -6 -10  -4    1.89    0.24
  -6  10   4    1.48    0.23
   6  10  -4    1.70    0.23
  -6 -10   4    2.18    0.29
  -6  10  -4    2.16    0.27
  -7 -10  -4    2.82    0.31
   7  10  -4    2.19    0.29
  -7  10   4    3.39    0.34
  -7  10  -4    2.89    0.33
  -7 -10   4    2.88    0.35
   8  10  -4    2.87    0.35
  -8 -10  -4    2.94    0.33
  -8  10  -4    2.58    0.33
   0  11  -4    8.26    0.42
   0 -11  -4    8.12    0.42
   0 -11   4    8.12    0.40
   1  11  -4    0.91    0.14
   1 -11   4    0.75    0.12
   1  11  -4    0.80    0.13
  -1 -11  -4    0.35    0.11
  -1  11  -4    0.99    0.16
  -1 -11   4    0.62    0.13
   1 -11  -4    0.64    0.12
  -2 -11  -4    8.32    0.44
   2  11  -4    7.74    0.40
   2  11  -4    8.29    0.43
  -2 -11   4    8.08    0.43
  -2  11  -4    8.13    0.44
   2 -11  -4    8.42    0.41
   3  11  -4    4.53    0.30
  -3 -11  -4    4.29    0.31
  -3  11   4    4.77    0.33
  -3  11  -4    4.79    0.32
   3 -11  -4    4.83    0.29
  -3 -11   4    4.40    0.32
  -4  11   4    5.37    0.37
  -4 -11  -4    5.53    0.37
   4  11  -4    6.22    0.37
  -4  11  -4    6.20    0.39
  -4 -11   4    5.47    0.38
   4 -11  -4    6.21    0.34
  -5 -11  -4    4.91    0.35
   5  11  -4    5.04    0.35
  -5  11   4    5.50    0.37
   5 -11  -4    5.05    0.31
  -5  11  -4    4.85    0.36
  -5 -11   4    5.47    0.38
  -6 -11  -4    2.32    0.28
   6  11  -4    2.32    0.27
  -6  11   4    2.05    0.27
  -6  11  -4    2.71    0.31
  -6 -11   4    2.04    0.29
  -7  11   4    1.82    0.26
  -7 -11  -4    1.52    0.25
  -7 -11   4    1.94    0.31
  -7  11  -4    1.95    0.28
   0 -12  -4    0.02    0.08
   0 -12   4   -0.06    0.07
   0  12  -4   -0.07    0.06
   1  12  -4    4.38    0.29
   1 -12   4    4.60    0.27
  -1 -12  -4    3.95    0.29
  -1  12  -4    4.44    0.30
   1 -12  -4    4.41    0.29
  -1 -12   4    3.91    0.28
   2  12  -4   -0.08    0.07
   2  12  -4    0.03    0.08
  -2 -12  -4    0.12    0.10
   2 -12  -4    0.07    0.09
  -2 -12   4    0.14    0.10
  -2  12  -4    0.15    0.09
   3  12  -4    1.27    0.18
  -3  12   4    1.40    0.21
  -3 -12  -4    1.64    0.22
  -3 -12   4    1.10    0.19
  -3  12  -4    1.58    0.21
   3 -12  -4    1.06    0.16
  -4 -12  -4    0.69    0.16
  -4  12   4    0.34    0.13
   4 -12  -4    0.30    0.12
  -4  12  -4    0.19    0.11
  -4 -12   4    0.53    0.16
  -5  12   4    0.21    0.13
  -5 -12  -4    0.30    0.14
  -5  12  -4   -0.02    0.09
  -5 -12   4    0.22    0.15
  -6 -12  -4    1.41    0.23
  -6  12   4    1.50    0.25
  -6 -12   4    1.17    0.24
  -6  12  -4    1.37    0.24
  -7  12   4    0.53    0.17
  -7 -12  -4    0.52    0.19
   0 -13  -4    0.90    0.16
   0  13  -4    1.11    0.18
   0 -13   4    0.72    0.14
   1  13  -4    6.49    0.37
  -1 -13  -4    6.07    0.38
  -1  13  -4    6.34    0.39
  -1 -13   4    5.93    0.37
   1 -13  -4    6.83    0.38
  -2 -13  -4    0.30    0.13
  -2  13  -4    0.33    0.12
   2 -13  -4    0.53    0.13
  -2 -13   4    0.60    0.15
  -3  13   4    6.92    0.44
  -3 -13  -4    7.43    0.44
   3 -13  -4    6.48    0.38
  -3 -13   4    7.80    0.45
  -3  13  -4    7.99    0.46
  -4  13   4    6.46    0.44
  -4 -13  -4    6.54    0.42
   4 -13  -4    6.37    0.37
  -4  13  -4    6.70    0.43
  -4 -13   4    6.26    0.42
  -5  13   4    2.75    0.32
  -5 -13  -4    2.40    0.29
  -5 -13   4    2.33    0.31
  -5  13  -4    2.43    0.30
  -6  13   4    4.65    0.43
  -6 -13  -4    4.16    0.40
  -6 -13   4    4.83    0.45
  -6  13  -4    3.94    0.41
   0 -14   4    0.52    0.13
   0  14  -4    0.70    0.16
   0 -14  -4    0.53    0.14
  -1 -14  -4    4.04    0.31
   1  14  -4    3.87    0.30
  -1 -14   4    4.07    0.29
   1 -14  -4    4.04    0.30
  -1  14  -4    4.00    0.31
  -2 -14  -4    0.84    0.18
  -2 -14   4    0.84    0.18
   2 -14  -4    0.58    0.14
  -2  14  -4    1.05    0.19
  -3 -14  -4    1.89    0.25
  -3  14   4    1.52    0.24
  -3 -14   4    2.21    0.27
   3 -14  -4    1.73    0.22
  -3  14  -4    1.68    0.25
  -4 -14  -4    1.47    0.24
  -4  14   4    1.23    0.22
  -4 -14   4    1.44    0.24
  -4  14  -4    1.52    0.23
  -5 -14  -4    0.45    0.16
  -5  14   4    0.07    0.13
  -5 -14   4    0.03    0.14
  -5  14  -4    0.05    0.12
   0  15  -4    0.10    0.11
   0 -15  -4    0.04    0.11
   1  15  -4   14.73    0.71
  -1 -15  -4   14.67    0.72
   1 -15  -4   15.58    0.71
  -1 -15   4   15.40    0.70
  -1  15  -4   15.45    0.74
  -2  15   4    0.99    0.21
  -2 -15  -4    0.96    0.20
  -2 -15   4    0.86    0.18
   2 -15  -4    1.03    0.18
  -2  15  -4    1.47    0.23
  -3  15   4    0.96    0.21
  -3  15  -4    1.60    0.24
  -3 -15   4    1.26    0.23
   3 -15  -4    1.16    0.19
  -4  15   4    2.91    0.34
  -4 -15  -4    3.60    0.36
  -4  15  -4    3.41    0.37
  -4 -15   4    3.31    0.36
   0 -16  -4    2.47    0.29
   0  16  -4    2.87    0.31
  -1 -16  -4    1.03    0.20
  -1 -16   4    0.92    0.18
   1 -16  -4    1.18    0.21
  -1  16  -4    1.16    0.22
  -2 -16  -4    2.66    0.31
  -2  16   4    2.04    0.28
   2 -16  -4    2.07    0.25
  -2 -16   4    2.92    0.31
  -2  16  -4    2.47    0.31
  -3  16  -4    0.80    0.19
  -3 -16   4    0.73    0.19
   0 -17  -4    3.53    0.35
   0  17  -4    4.15    0.39
   1 -17  -4    6.79    0.43
  -1  17  -4    6.73    0.46
  -2 -17   4    3.22    0.33
   2 -17  -4    3.00    0.32
   0   0  -5    0.04    0.04
   0   0  -5    0.02    0.03
   0   0  -5   -0.02    0.03
   1   0  -5    3.25    0.19
  -1   0  -5    3.59    0.15
  -1   0  -5    3.77    0.19
  -2   0  -5    3.16    0.14
   2   0  -5    3.11    0.19
  -2   0  -5    3.01    0.18
  -3   0  -5    5.16    0.28
  -3   0   5    5.08    0.21
  -3   0  -5    5.45    0.21
   3   0  -5    5.42    0.29
  -4   0  -5    1.28    0.16
  -4   0   5    1.21    0.08
   4   0  -5    1.21    0.15
  -4   0  -5    1.23    0.09
   5   0  -5    0.74    0.13
  -5   0  -5    0.75    0.08
  -5   0  -5    0.59    0.12
   6   0  -5    2.62    0.23
  -6   0  -5    2.36    0.25
  -7   0  -5    0.59    0.15
   7   0  -5    0.44    0.13
   8   0  -5    8.09    0.49
  -8   0  -5    6.90    0.45
   8   0   5    7.12    0.47
   9   0   5   -0.08    0.11
   9   0  -5    0.00    0.12
  -9   0  -5    0.19    0.15
   0   1  -5    8.14    0.35
   0  -1  -5    6.51    0.32
   0  -1  -5    7.78    0.32
   0   1  -5    7.56    0.31
   0  -1  -5    8.02    0.30
  -1  -1  -5   53.76    1.97
   1   1  -5   56.71    2.14
  -1  -1  -5   57.52    1.87
   1   1  -5   55.99    1.93
  -1   1  -5   55.43    1.96
  -1   1  -5   57.07    1.85
   1  -1  -5   55.38    1.88
  -2  -1  -5    3.68    0.17
  -2  -1  -5    3.86    0.21
   2   1  -5    3.21    0.20
  -2   1  -5    3.60    0.14
  -2   1  -5    3.34    0.20
   2  -1  -5    3.60    0.20
   3   1  -5    4.15    0.24
  -3  -1  -5    3.92    0.18
  -3  -1  -5    3.93    0.24
   3  -1  -5    3.88    0.23
  -3   1  -5    4.07    0.24
  -3   1  -5    4.27    0.16
  -4  -1  -5    7.24    0.38
   4   1  -5    7.76    0.40
  -4   1   5    8.40    0.32
  -4  -1  -5    7.68    0.32
   4  -1  -5    8.24    0.40
  -4   1  -5    7.33    0.39
  -4   1  -5    7.94    0.29
  -5  -1  -5    2.13    0.14
  -5  -1  -5    2.09    0.22
   5   1  -5    2.14    0.22
   5  -1  -5    2.07    0.21
  -5   1  -5    2.18    0.22
   6   1  -5    0.14    0.09
  -6  -1  -5    0.11    0.09
  -6   1  -5    0.24    0.11
   6  -1  -5    0.04    0.08
  -7  -1  -5   -0.02    0.09
   7   1  -5    0.06    0.10
   7   1   5   -0.03    0.09
   7  -1  -5    0.15    0.10
  -7   1  -5    0.19    0.11
  -8  -1  -5    0.67    0.17
   8   1  -5    0.32    0.14
   8  -1   5    0.48    0.15
  -8   1  -5    0.71    0.18
   8  -1  -5    0.79    0.19
   8   1   5    0.51    0.16
   9   1  -5    1.93    0.29
   9  -1   5    2.21    0.30
   9  -1  -5    1.86    0.28
   9   1   5    2.32    0.30
  -9   1  -5    2.11    0.29
   0  -2  -5    3.12    0.15
   0   2  -5    2.94    0.15
   0   2  -5    2.52    0.17
   0  -2  -5    3.11    0.15
  -1  -2  -5   18.08    0.65
   1   2  -5   17.78    0.74
  -1  -2  -5   17.85    0.70
   1   2  -5   17.63    0.65
   1  -2  -5   18.47    0.66
   1  -2  -5   18.84    0.72
  -1   2  -5   18.41    0.69
  -2  -2  -5    9.70    0.43
   2   2  -5   10.46    0.45
  -2  -2  -5    9.74    0.38
   2  -2  -5    9.41    0.39
  -2   2  -5   10.06    0.43
   2  -2  -5    9.54    0.43
  -3  -2  -5   11.03    0.43
  -3  -2  -5   11.13    0.50
   3   2  -5   11.79    0.52
   3  -2  -5   10.43    0.49
  -3   2  -5   11.61    0.50
  -4  -2  -5    2.40    0.15
  -4  -2  -5    2.50    0.20
   4   2  -5    2.25    0.19
  -4   2   5    2.16    0.15
  -4   2  -5    2.80    0.21
   4  -2  -5    2.53    0.19
  -5  -2  -5   10.84    0.52
   5   2  -5   11.86    0.55
  -5   2   5    9.85    0.44
  -5  -2  -5   10.79    0.44
   5  -2  -5   11.09    0.53
  -5   2  -5   10.90    0.52
   6   2  -5    2.13    0.25
  -6  -2  -5    2.46    0.25
  -6  -2  -5    2.54    0.18
  -6   2  -5    2.56    0.26
   6  -2  -5    2.57    0.23
   6   2   5    2.94    0.25
   7   2  -5   10.76    0.60
  -7  -2  -5   11.07    0.58
   7  -2  -5   12.27    0.61
   7   2   5   11.02    0.60
  -7   2  -5   11.74    0.59
   8   2  -5    1.92    0.26
  -8  -2  -5    1.32    0.22
   8   2   5    1.83    0.25
  -8   2  -5    1.94    0.26
   8  -2  -5    1.85    0.26
   9  -2   5    4.85    0.40
   9   2  -5    4.61    0.39
   9   2   5    4.25    0.38
  -9   2  -5    5.46    0.41
   9  -2  -5    5.07    0.41
   0  -3  -5  138.48    5.16
   0   3  -5  135.36    4.73
   0   3  -5  141.09    5.20
   0  -3  -5  139.66    4.57
   1   3  -5    6.34    0.25
  -1  -3  -5    6.83    0.28
   1   3  -5    6.80    0.31
  -1   3  -5    6.50    0.29
   1  -3  -5    6.38    0.28
   1  -3  -5    5.38    0.27
   2   3  -5   48.76    1.67
  -2  -3  -5   48.63    1.66
   2   3  -5   51.24    1.91
  -2  -3  -5   49.30    1.77
  -2   3  -5   48.42    1.75
   2  -3  -5   47.09    1.67
   2  -3  -5   49.22    1.87
  -3  -3  -5    0.34    0.07
  -3  -3  -5    0.41    0.09
   3   3  -5    0.31    0.09
   3  -3  -5    0.33    0.08
   3  -3  -5    0.38    0.08
  -3   3  -5    0.43    0.09
  -4  -3  -5    6.84    0.31
  -4   3   5    6.94    0.32
  -4  -3  -5    7.06    0.37
   4   3  -5    6.12    0.36
  -4   3  -5    7.02    0.36
   4  -3  -5    6.69    0.35
  -5   3   5    1.32    0.14
  -5  -3  -5    1.15    0.17
  -5  -3  -5    1.37    0.14
   5   3  -5    1.08    0.16
  -5   3  -5    1.01    0.16
   5  -3  -5    1.34    0.17
   6   3  -5    5.12    0.34
  -6  -3  -5    4.99    0.27
  -6  -3  -5    4.50    0.32
   6  -3  -5    4.61    0.32
  -6   3  -5    5.06    0.33
   6   3   5    5.00    0.33
   7   3  -5    1.38    0.21
  -7  -3  -5    0.90    0.18
  -7   3  -5    1.34    0.21
   7  -3  -5    1.02    0.18
   7   3   5    0.84    0.17
  -8  -3  -5    1.20    0.21
   8   3  -5    1.05    0.20
  -8   3  -5    0.87    0.19
   8  -3  -5    1.06    0.20
   8   3   5    0.92    0.20
   9  -3   5    5.00    0.41
   9   3  -5    5.00    0.41
  -9   3  -5    5.86    0.43
   9  -3  -5    5.39    0.42
   9   3   5    4.82    0.40
   0   4  -5    0.08    0.04
   0   4  -5    0.10    0.05
   0  -4  -5    0.03    0.04
  -1  -4  -5   13.06    0.51
   1   4  -5   12.86    0.57
   1   4  -5   12.89    0.49
   1  -4  -5   12.85    0.51
  -1   4  -5   13.56    0.53
   1  -4  -5   13.43    0.53
   2   4  -5   21.66    0.89
   2   4  -5   21.17    0.75
  -2  -4  -5   21.13    0.78
   2  -4  -5   22.07    0.78
  -2   4  -5   20.08    0.82
   2  -4  -5   21.40    0.85
   3   4  -5    9.43    0.45
  -3  -4  -5    8.94    0.39
  -3   4  -5    9.84    0.44
   3  -4  -5    9.17    0.42
   3  -4  -5    9.15    0.39
  -4   4   5    8.23    0.40
  -4  -4  -5    9.15    0.40
  -4  -4  -5    9.24    0.45
   4   4  -5    8.91    0.46
   4   4   5    9.41    0.43
   4  -4  -5    8.93    0.43
  -4   4  -5    8.87    0.44
  -5   4   5    1.41    0.15
   5   4  -5    1.08    0.17
  -5  -4  -5    1.08    0.14
  -5  -4  -5    1.36    0.18
   5   4   5    1.59    0.18
  -5   4  -5    1.27    0.17
   5  -4  -5    1.08    0.16
  -6  -4  -5    3.59    0.28
  -6  -4  -5    4.27    0.25
   6   4  -5    3.49    0.29
   6   4   5    3.88    0.28
  -6   4  -5    4.05    0.30
   6  -4  -5    4.14    0.29
  -7  -4  -5    0.59    0.15
   7   4  -5    0.62    0.16
   7   4   5    0.38    0.13
  -7   4  -5    0.63    0.16
   7  -4  -5    0.65    0.16
  -8  -4  -5    2.31    0.28
   8   4  -5    1.55    0.24
  -8   4  -5    1.84    0.26
   8   4   5    1.62    0.24
   8  -4  -5    1.94    0.27
   9  -4   5    0.57    0.18
   9   4  -5    0.28    0.16
  -9   4  -5    0.42    0.17
   9   4   5    0.54    0.17
   9  -4  -5    0.28    0.15
   0   5  -5    1.19    0.11
   0  -5  -5    0.95    0.11
   0   5  -5    1.18    0.13
  -1  -5  -5    7.40    0.34
   1   5  -5    8.01    0.33
   1   5  -5    7.91    0.38
   1  -5  -5    7.79    0.33
  -1   5  -5    8.19    0.36
   1  -5  -5    7.81    0.34
   2   5  -5    9.65    0.36
   2  -5   5    9.33    0.33
   2   5  -5    8.86    0.44
  -2  -5  -5   10.12    0.41
   2   5   5    9.57    0.39
   2  -5  -5    9.45    0.40
  -2   5  -5    9.07    0.42
   2  -5  -5    9.00    0.40
  -3  -5  -5    4.51    0.24
   3   5  -5    4.31    0.27
   3   5  -5    4.57    0.18
   3   5   5    4.53    0.23
   3  -5  -5    4.51    0.24
  -3   5  -5    4.19    0.26
   3  -5  -5    4.08    0.24
  -4   5   5    2.49    0.18
  -4  -5  -5    2.13    0.19
   4   5  -5    1.98    0.21
   4  -5  -5    2.53    0.17
   4   5   5    2.16    0.17
   4  -5  -5    2.21    0.18
  -4   5  -5    1.86    0.20
  -5  -5  -5    5.01    0.28
  -5   5   5    5.35    0.30
   5   5  -5    5.36    0.34
   5   5   5    4.97    0.30
  -5   5  -5    5.24    0.33
   5  -5  -5    4.95    0.31
   6   5  -5    1.52    0.21
  -6  -5  -5    1.32    0.17
  -6   5   5    1.72    0.18
   6  -5  -5    1.53    0.19
  -6   5  -5    1.22    0.19
   6   5   5    1.38    0.18
  -7  -5  -5    3.47    0.25
   7   5  -5    2.81    0.31
  -7   5  -5    3.01    0.31
   7   5   5    3.03    0.30
   7  -5  -5    3.01    0.31
   8   5  -5    3.07    0.34
   8   5   5    2.81    0.31
   8  -5  -5    2.83    0.32
  -8   5  -5    2.98    0.33
   9  -5   5    1.09    0.24
   9   5  -5    1.69    0.28
  -9   5  -5    1.79    0.28
   9   5   5    1.56    0.25
   9  -5  -5    1.48    0.27
   0  -6  -5    2.94    0.18
   0   6  -5    2.72    0.19
   0   6  -5    2.61    0.17
  -1  -6  -5    6.68    0.31
   1   6  -5    6.54    0.29
   1   6  -5    7.09    0.34
   1  -6   5    6.21    0.27
   1  -6  -5    6.51    0.27
   1  -6  -5    6.05    0.30
  -1   6  -5    6.18    0.31
  -2  -6  -5    9.10    0.41
   2   6  -5    8.90    0.45
   2   6  -5    9.48    0.37
   2  -6   5    9.33    0.35
   2  -6  -5    9.44    0.41
   2  -6  -5    9.58    0.40
   2   6   5    9.42    0.38
  -2   6  -5    9.19    0.43
   3   6  -5    1.73    0.18
   3   6  -5    1.76    0.10
  -3  -6  -5    1.87    0.18
   3   6   5    1.75    0.13
   3  -6  -5    2.02    0.17
  -3   6  -5    1.60    0.18
   3  -6  -5    1.56    0.14
  -4   6   5    4.59    0.28
  -4  -6  -5    4.70    0.28
   4   6  -5    5.26    0.32
   4  -6  -5    5.25    0.28
   4  -6  -5    4.86    0.28
  -4   6  -5    5.36    0.31
   4   6   5    5.03    0.27
  -5  -6  -5    4.11    0.27
   5   6  -5    4.30    0.31
  -5   6   5    5.33    0.30
   5   6   5    4.49    0.28
   5  -6  -5    4.62    0.29
  -5   6  -5    4.02    0.30
  -6   6   5    0.61    0.13
  -6  -6  -5    0.46    0.13
   6   6  -5    0.39    0.13
   6  -6  -5    0.56    0.14
  -6   6  -5    0.30    0.11
   6   6   5    0.39    0.12
   7   6  -5    3.24    0.35
  -7  -6  -5    4.45    0.29
   7   6   5    3.82    0.30
   7  -6  -5    3.86    0.31
  -7   6  -5    4.43    0.34
   8   6  -5    0.33    0.15
  -8   6  -5    0.31    0.15
   8  -6  -5    0.24    0.14
   9   6  -5    0.72    0.21
  -9   6  -5    0.79    0.20
   0   7  -5   22.11    0.87
   0   7  -5   23.62    0.96
   0  -7   5   23.13    0.84
   0  -7  -5   22.62    0.86
  -1  -7  -5    0.36    0.09
   1  -7   5    0.18    0.07
   1   7  -5    0.38    0.07
   1   7  -5    0.23    0.08
  -1   7  -5    0.32    0.08
   1  -7  -5    0.32    0.09
   2  -7   5    7.02    0.27
   2   7  -5    6.23    0.29
  -2  -7  -5    6.68    0.34
   2   7  -5    6.65    0.35
  -2   7  -5    6.79    0.35
   2  -7  -5    6.57    0.30
   2  -7  -5    6.43    0.32
   3   7  -5   14.57    0.67
  -3  -7  -5   15.79    0.63
  -3   7  -5   14.55    0.65
   3  -7  -5   14.59    0.60
   3  -7  -5   14.79    0.63
  -4  -7  -5    0.08    0.09
  -4   7   5    0.09    0.08
   4   7  -5    0.13    0.09
   4  -7  -5    0.26    0.09
   4  -7  -5    0.15    0.08
  -4   7  -5    0.03    0.07
  -5  -7  -5   17.84    0.75
  -5   7   5   18.86    0.78
   5   7  -5   18.47    0.84
   5  -7  -5   18.58    0.80
  -5   7  -5   17.04    0.80
   5  -7  -5   18.22    0.73
   6   7  -5    0.78    0.17
  -6   7   5    0.91    0.16
  -6  -7  -5    0.99    0.16
   6  -7  -5    0.77    0.16
  -6   7  -5    0.86    0.17
   7   7  -5    3.39    0.35
  -7  -7  -5    3.65    0.28
   7  -7  -5    3.76    0.31
  -7   7  -5    3.42    0.34
   8   7  -5    2.31    0.31
  -8   7  -5    2.44    0.31
   8  -7  -5    2.05    0.28
   9   7  -5    0.41    0.19
   9  -7  -5    0.43    0.18
  -9   7  -5    0.24    0.17
   0  -8  -5   35.25    1.26
   0   8  -5   33.77    1.39
   0   8  -5   33.94    1.27
   0  -8   5   35.07    1.22
   1  -8   5    3.25    0.19
   1   8  -5    3.52    0.20
  -1  -8  -5    3.63    0.23
   1   8  -5    3.40    0.23
   1  -8  -5    3.43    0.22
  -1  -8   5    3.64    0.24
  -1   8  -5    2.97    0.21
   2   8  -5   33.06    1.39
   2   8  -5   34.73    1.24
   2  -8   5   34.51    1.17
  -2  -8  -5   35.37    1.26
   2  -8  -5   32.91    1.23
  -2   8  -5   34.42    1.30
   3   8  -5    3.76    0.26
  -3  -8  -5    3.77    0.26
  -3   8  -5    3.83    0.26
   3  -8  -5    4.19    0.24
   4   8  -5   21.72    0.96
  -4  -8  -5   21.95    0.88
  -4   8   5   23.97    0.92
   4  -8  -5   21.70    0.85
  -4   8  -5   20.53    0.91
   4  -8  -5   21.98    0.92
  -5   8   5    0.42    0.12
   5   8  -5    0.33    0.12
  -5  -8  -5    0.32    0.11
  -5   8  -5    0.55    0.13
   5  -8  -5    0.47    0.12
   5  -8  -5    0.32    0.11
  -6   8   5    8.51    0.46
  -6  -8  -5    8.10    0.44
   6   8  -5    7.97    0.48
  -6   8  -5    8.01    0.48
   6  -8  -5    7.67    0.45
  -7  -8  -5    0.54    0.15
   7   8  -5    0.60    0.16
  -7   8  -5    0.76    0.18
   7  -8  -5    0.46    0.14
   8   8  -5    1.79    0.28
  -8   8  -5    1.84    0.27
   8  -8  -5    2.05    0.29
   0  -9  -5   12.69    0.55
   0   9  -5   12.64    0.55
   0  -9   5   12.73    0.53
   1  -9   5    9.72    0.40
  -1  -9  -5    9.35    0.45
   1   9  -5    9.04    0.42
  -1   9  -5    9.58    0.45
   1  -9  -5    9.21    0.43
  -1  -9   5    9.17    0.44
   2   9  -5    3.43    0.24
   2   9  -5    3.23    0.20
  -2  -9  -5    3.05    0.23
  -2  -9   5    3.37    0.25
  -2   9  -5    2.92    0.22
   2  -9  -5    3.00    0.21
   3   9  -5   17.57    0.78
  -3  -9  -5   16.56    0.72
   3  -9  -5   17.66    0.70
  -3   9  -5   16.76    0.75
  -4   9   5    1.79    0.22
  -4  -9  -5    1.93    0.21
   4   9  -5    1.71    0.21
  -4   9  -5    1.86    0.22
   4  -9  -5    1.46    0.17
  -5   9   5    7.49    0.43
  -5  -9  -5    7.65    0.43
   5   9  -5    7.61    0.45
  -5   9  -5    7.59    0.45
   5  -9  -5    8.26    0.40
  -6   9   5    4.10    0.32
  -6  -9  -5    4.36    0.32
   6   9  -5    4.90    0.35
  -6   9  -5    4.59    0.35
  -7  -9  -5    6.00    0.39
   7   9  -5    5.51    0.42
  -7   9  -5    7.07    0.46
  -8  -9  -5    2.17    0.28
   8   9  -5    2.69    0.34
  -8  -9   5    2.99    0.38
  -8   9  -5    2.84    0.34
   0  10  -5    6.13    0.32
   0 -10   5    5.49    0.30
   0 -10  -5    5.86    0.33
  -1 -10  -5    3.98    0.27
   1  10  -5    4.05    0.28
   1 -10   5    4.29    0.24
   1  10  -5    4.08    0.25
   1 -10  -5    4.33    0.27
  -1  10  -5    4.04    0.27
  -1 -10   5    4.37    0.27
   2  10  -5   13.83    0.65
  -2 -10  -5   13.91    0.62
   2  10  -5   14.79    0.59
  -2  10  -5   14.06    0.63
  -2 -10   5   13.11    0.61
   2 -10  -5   13.78    0.60
  -3 -10  -5   10.48    0.50
   3  10  -5    9.38    0.50
   3 -10  -5   10.29    0.47
  -3  10  -5    9.35    0.50
  -3 -10   5    9.33    0.49
  -4  10   5    7.16    0.43
  -4 -10  -5    7.74    0.42
   4  10  -5    6.89    0.42
  -4 -10   5    7.74    0.45
   4 -10  -5    7.48    0.39
  -4  10  -5    7.44    0.43
   5  10  -5    7.50    0.46
  -5 -10  -5    7.43    0.44
  -5  10   5    8.49    0.47
  -5 -10   5    8.02    0.48
   5 -10  -5    8.60    0.42
  -5  10  -5    7.59    0.46
  -6 -10  -5    1.05    0.19
  -6  10   5    1.15    0.20
   6  10  -5    1.29    0.21
  -6 -10   5    1.13    0.23
  -6  10  -5    0.95    0.19
  -7  10   5    2.68    0.30
  -7 -10  -5    2.02    0.26
   7  10  -5    2.22    0.29
  -7  10  -5    2.09    0.28
  -7 -10   5    2.30    0.32
   8  10  -5    0.67    0.20
  -8 -10  -5    0.67    0.19
   0  11  -5    0.10    0.08
   0 -11   5    0.15    0.09
   0 -11  -5    0.22    0.10
  -1 -11  -5    2.51    0.25
   1  11  -5    2.50    0.22
   1  11  -5    2.60    0.23
   1 -11   5    2.44    0.19
  -1 -11   5    2.71    0.24
   1 -11  -5    2.77    0.25
  -1  11  -5    2.81    0.25
   2  11  -5    0.05    0.07
  -2 -11  -5    0.17    0.10
   2 -11  -5   -0.07    0.07
  -2 -11   5    0.16    0.11
  -2  11  -5    0.01    0.08
  -3 -11  -5    0.66    0.15
   3  11  -5    0.58    0.13
  -3 -11   5    0.99    0.18
  -3  11  -5    1.03    0.17
   3 -11  -5    0.74    0.14
   4  11  -5    1.46    0.20
  -4  11   5    1.39    0.21
  -4 -11  -5    1.80    0.23
   4 -11  -5    1.45    0.19
  -4  11  -5    1.51    0.21
  -4 -11   5    1.69    0.23
  -5  11   5    1.88    0.25
  -5 -11  -5    1.64    0.24
   5  11  -5    2.34    0.26
  -5 -11   5    2.13    0.28
  -5  11  -5    1.69    0.24
   5 -11  -5    2.13    0.23
  -6 -11  -5    3.30    0.33
   6  11  -5    2.84    0.32
  -6  11   5    3.59    0.36
  -6 -11   5    3.01    0.35
  -6  11  -5    3.25    0.35
  -7 -11  -5    3.33    0.34
  -7  11   5    3.74    0.37
   7  11  -5    2.37    0.31
  -7  11  -5    2.82    0.34
  -7 -11   5    3.31    0.39
   0 -12   5    2.00    0.20
   0  12  -5    1.74    0.20
   0 -12  -5    1.64    0.21
  -1 -12  -5    1.39    0.19
   1  12  -5    1.57    0.19
  -1 -12   5    1.24    0.18
   1 -12  -5    1.34    0.18
  -1  12  -5    1.54    0.19
  -2 -12  -5    1.51    0.21
   2  12  -5    1.15    0.17
  -2  12  -5    1.12    0.18
  -2 -12   5    1.39    0.20
   2 -12  -5    1.05    0.17
  -3 -12  -5    1.16    0.18
   3  12  -5    1.08    0.18
  -3  12  -5    0.99    0.18
   3 -12  -5    1.03    0.16
  -3 -12   5    1.39    0.21
  -4 -12  -5    0.39    0.14
   4  12  -5    0.08    0.10
  -4  12   5    0.10    0.11
  -4  12  -5    0.23    0.11
   4 -12  -5    0.29    0.12
  -4 -12   5    0.19    0.14
  -5 -12  -5    2.40    0.28
  -5  12   5    2.03    0.27
  -5  12  -5    1.95    0.26
  -5 -12   5    2.43    0.30
  -6 -12  -5    1.08    0.21
  -6  12   5    1.42    0.24
  -6  12  -5    0.88    0.20
  -6 -12   5    0.86    0.22
  -7 -12  -5    1.60    0.25
  -7  12   5    2.18    0.30
   0 -13  -5    3.99    0.29
   0  13  -5    4.00    0.29
   0 -13   5    3.96    0.27
   1  13  -5    1.40    0.19
  -1 -13  -5    1.12    0.18
   1 -13  -5    1.23    0.18
  -1  13  -5    1.18    0.18
  -1 -13   5    1.07    0.18
  -2 -13  -5    4.25    0.32
  -2 -13   5    4.81    0.33
  -2  13  -5    4.82    0.34
   2 -13  -5    4.51    0.31
  -3 -13  -5    1.48    0.22
  -3  13   5    1.19    0.20
   3 -13  -5    1.15    0.18
  -3 -13   5    0.98    0.19
  -3  13  -5    0.97    0.19
  -4 -13  -5    5.05    0.38
  -4  13   5    5.56    0.40
  -4  13  -5    5.44    0.39
  -4 -13   5    5.83    0.40
   4 -13  -5    5.51    0.34
  -5 -13  -5    0.39    0.16
  -5  13   5    0.08    0.12
  -5  13  -5    0.31    0.14
  -5 -13   5    0.41    0.19
  -6  13   5    5.21    0.47
  -6 -13  -5    4.78    0.43
  -6 -13   5    5.03    0.46
  -6  13  -5    5.18    0.42
   0  14  -5    1.93    0.23
   0 -14  -5    2.06    0.24
   1  14  -5    2.56    0.26
  -1 -14  -5    2.27    0.26
  -1  14  -5    1.85    0.24
   1 -14  -5    1.47    0.21
  -1 -14   5    1.79    0.23
  -2 -14  -5    3.01    0.31
  -2 -14   5    3.63    0.33
   2 -14  -5    3.08    0.29
  -2  14  -5    2.99    0.31
  -3  14   5    4.87    0.38
  -3 -14  -5    4.80    0.36
   3 -14  -5    5.00    0.33
  -3  14  -5    4.63    0.36
  -3 -14   5    5.29    0.37
  -4  14   5    5.38    0.40
  -4 -14  -5    4.82    0.38
  -4  14  -5    5.76    0.41
  -4 -14   5    4.83    0.43
   4 -14  -5    5.11    0.34
  -5  14   5    2.11    0.30
  -5 -14  -5    1.08    0.23
  -5  14  -5    2.05    0.29
  -5 -14   5    1.54    0.27
   0  15  -5    3.64    0.34
   0 -15  -5    3.52    0.34
  -1 -15  -5    0.20    0.12
  -1 -15   5    0.39    0.14
  -1  15  -5    0.29    0.13
   1 -15  -5    0.23    0.12
  -2 -15  -5    4.14    0.39
  -2 -15   5    5.27    0.37
   2 -15  -5    4.72    0.34
  -2  15  -5    5.40    0.38
  -3 -15  -5    0.21    0.14
  -3  15   5    0.14    0.14
  -3  15  -5   -0.06    0.10
   3 -15  -5    0.31    0.13
  -3 -15   5    0.33    0.16
  -4  15   5    1.89    0.28
  -4 -15   5    2.74    0.33
  -4  15  -5    2.18    0.30
   0  16  -5    1.13    0.21
   0 -16  -5    1.05    0.21
  -1 -16  -5    6.77    0.45
  -1  16  -5    7.44    0.47
   1 -16  -5    7.40    0.45
  -2 -16  -5    0.76    0.19
  -2  16   5    0.75    0.19
  -2 -16   5    1.06    0.20
   2 -16  -5    0.55    0.15
  -2  16  -5    0.88    0.20
  -3  16  -5    4.08    0.40
  -3 -16   5    4.67    0.42
   3 -16  -5    3.27    0.32
  -1  17  -5    5.01    0.39
  -2 -17   5    0.34    0.16
   0   0  -6    0.56    0.08
   0   0  -6    0.56    0.07
   0   0  -6    0.53    0.08
  -1   0  -6    0.14    0.04
  -1   0  -6    0.29    0.07
   1   0  -6    0.23    0.06
  -2   0  -6   11.43    0.41
   2   0  -6   11.39    0.50
  -2   0  -6   10.66    0.48
   3   0  -6    3.46    0.22
  -3   0  -6    3.35    0.22
  -3   0  -6    3.59    0.16
  -4   0  -6   20.51    0.70
  -4   0  -6   19.95    0.83
   4   0  -6   19.83    0.86
   5   0  -6    0.41    0.11
  -5   0  -6    0.32    0.11
   6   0  -6    1.84    0.23
  -6   0  -6    1.59    0.21
  -7   0  -6    0.96    0.18
   7   0  -6    0.97    0.19
   8   0   6    0.05    0.11
  -8   0  -6    0.00    0.11
   8   0  -6    0.14    0.12
  -9   0  -6    1.68    0.28
   9   0  -6    1.81    0.28
   9   0   6    1.87    0.28
   0   1  -6   49.81    1.78
   0   1  -6   46.00    1.62
   0  -1  -6   48.23    1.64
   0  -1  -6   39.41    1.75
   0  -1  -6   46.81    1.55
  -1  -1  -6    3.35    0.16
   1   1  -6    3.42    0.17
   1   1  -6    3.59    0.20
  -1  -1  -6    3.62    0.21
   1  -1  -6    3.23    0.17
  -1   1  -6    3.24    0.15
   1  -1  -6    3.35    0.19
  -1   1  -6    3.18    0.19
   2   1  -6   14.17    0.61
  -2  -1  -6   13.85    0.51
  -2  -1  -6   13.29    0.58
  -2   1  -6   14.54    0.48
  -2   1  -6   13.41    0.57
   2  -1  -6   13.66    0.59
   3   1  -6   16.95    0.75
  -3  -1  -6   17.64    0.72
  -3  -1  -6   17.87    0.62
   3  -1  -6   17.46    0.74
  -3   1  -6   17.46    0.59
  -3   1  -6   17.10    0.71
  -4   1   6    0.45    0.07
  -4  -1  -6    0.38    0.10
  -4  -1  -6    0.50    0.07
   4   1  -6    0.43    0.10
   4  -1  -6    0.34    0.10
  -4   1  -6    0.30    0.09
  -4   1  -6    0.45    0.05
  -5  -1  -6    7.33    0.39
   5   1  -6    6.52    0.38
  -5  -1  -6    6.56    0.29
  -5   1  -6    6.37    0.38
   5  -1  -6    6.27    0.37
   6   1  -6    0.26    0.11
  -6  -1  -6    0.16    0.10
   6  -1  -6    0.26    0.11
  -6   1  -6    0.32    0.12
   7   1  -6    1.58    0.23
  -7  -1  -6    1.77    0.24
   7  -1  -6    1.36    0.21
  -7   1  -6    1.58    0.23
   8   1  -6    4.31    0.36
  -8  -1  -6    4.58    0.37
  -8   1  -6    5.21    0.38
   8   1   6    4.64    0.37
   8  -1  -6    4.96    0.38
  -9  -1  -6    1.08    0.23
   9   1  -6    0.95    0.21
   9  -1   6    0.97    0.21
  -9   1  -6    1.40    0.25
   9   1   6    0.91    0.21
   9  -1  -6    1.06    0.22
   0  -2  -6    3.14    0.17
   0   2  -6    3.45    0.20
   0  -2  -6    3.42    0.17
   0   2  -6    3.52    0.18
   1   2  -6    5.84    0.25
  -1  -2  -6    6.28    0.30
   1   2  -6    6.61    0.30
  -1  -2  -6    6.37    0.26
   1  -2  -6    4.69    0.26
  -1   2  -6    5.40    0.27
   1  -2  -6    5.93    0.26
   2   2  -6    0.53    0.09
  -2  -2  -6    0.35    0.07
  -2  -2  -6    0.57    0.10
  -2   2  -6    0.22    0.07
   2  -2  -6    0.52    0.08
   2  -2  -6    0.33    0.07
  -3  -2  -6    4.33    0.26
   3   2  -6    3.85    0.24
  -3  -2  -6    3.81    0.19
   3  -2  -6    3.16    0.21
  -3   2  -6    3.57    0.23
  -4  -2  -6    0.39    0.08
  -4   2   6    0.45    0.08
   4   2  -6    0.39    0.11
  -4  -2  -6    0.36    0.10
   4  -2  -6    0.43    0.10
  -4   2  -6    0.56    0.11
  -5  -2  -6    2.02    0.15
   5   2  -6    2.13    0.23
  -5  -2  -6    2.65    0.25
   5  -2  -6    1.78    0.20
  -5   2  -6    2.05    0.22
   6   2  -6    8.71    0.49
  -6  -2  -6    8.53    0.48
   6  -2  -6    9.03    0.48
  -6   2  -6    8.20    0.47
   7   2  -6    1.74    0.24
  -7  -2  -6    1.97    0.26
   7   2   6    1.76    0.23
  -7   2  -6    2.04    0.25
   7  -2  -6    2.26    0.27
   8   2  -6    6.73    0.45
  -8  -2  -6    6.08    0.44
  -8   2  -6    7.20    0.46
   8   2   6    5.90    0.43
   8  -2  -6    7.10    0.46
   9  -2   6    0.96    0.21
  -9  -2  -6    1.06    0.23
   9   2  -6    1.17    0.23
   9  -2  -6    0.66    0.19
   9   2   6    0.49    0.18
  -9   2  -6    1.07    0.24
   0  -3  -6    7.59    0.36
   0  -3  -6    9.24    0.36
   0   3  -6    8.90    0.36
   0   3  -6    9.08    0.41
   1   3  -6   36.35    1.39
   1   3  -6   35.07    1.23
  -1  -3  -6   36.27    1.22
   1  -3  -6   32.50    1.35
  -1   3  -6   35.48    1.27
   1  -3  -6   34.90    1.22
  -2  -3  -6    0.11    0.05
   2   3  -6    0.05    0.03
   2   3  -6    0.05    0.06
  -2  -3  -6    0.02    0.06
   2  -3  -6    0.10    0.05
   2  -3  -6    0.05    0.04
  -2   3  -6    0.07    0.05
  -3  -3  -6    3.48    0.24
   3   3  -6    3.11    0.22
  -3  -3  -6    3.41    0.19
  -3   3  -6    3.66    0.23
   3  -3  -6    3.38    0.21
   3  -3  -6    3.31    0.20
  -4   3   6    4.97    0.26
  -4  -3  -6    5.02    0.26
   4   3  -6    5.57    0.32
  -4  -3  -6    6.01    0.34
  -4   3  -6    5.17    0.31
   4  -3  -6    5.37    0.30
  -5   3   6    0.59    0.10
  -5  -3  -6    0.64    0.10
  -5  -3  -6    0.69    0.15
   5   3  -6    0.52    0.14
  -5   3  -6    0.44    0.12
   5  -3  -6    0.67    0.13
  -6  -3  -6    0.45    0.14
   6   3  -6    0.41    0.13
   6  -3  -6    0.51    0.13
  -6   3  -6    0.39    0.12
   6   3   6    0.29    0.11
  -7  -3  -6    0.65    0.17
   7   3  -6    1.10    0.19
   7  -3  -6    0.88    0.18
   7   3   6    1.02    0.18
  -7   3  -6    0.62    0.16
  -8  -3  -6    1.85    0.27
   8   3  -6    2.24    0.29
  -8   3  -6    2.58    0.31
   8   3   6    2.16    0.28
   8  -3  -6    2.63    0.31
   9   3  -6    0.16    0.15
   9  -3   6   -0.09    0.12
   9  -3  -6    0.03    0.13
  -9   3  -6   -0.12    0.12
   9   3   6    0.23    0.15
   0   4  -6   15.00    0.59
   0  -4  -6   14.85    0.58
   0  -4  -6   15.31    0.60
   0   4  -6   15.98    0.67
   1   4  -6    4.52    0.26
  -1  -4  -6    4.45    0.23
   1   4  -6    4.43    0.21
   1  -4  -6    4.26    0.21
  -1   4  -6    4.71    0.24
   1  -4  -6    4.74    0.23
   2   4  -6    7.54    0.30
  -2  -4  -6    8.53    0.35
   2   4  -6    7.93    0.39
   2  -4  -6    7.72    0.35
   2  -4  -6    8.09    0.36
  -2   4  -6    7.72    0.37
   3   4  -6    8.80    0.44
  -3  -4  -6    8.38    0.37
   3  -4  -6    8.90    0.41
   3  -4  -6    8.63    0.39
  -3   4  -6    8.70    0.42
  -4  -4  -6    3.09    0.24
   4   4  -6    2.85    0.22
  -4   4   6    3.47    0.21
  -4  -4  -6    2.46    0.18
  -4   4  -6    3.22    0.23
   4  -4  -6    2.76    0.21
   5   4  -6    5.76    0.36
  -5   4   6    5.52    0.30
  -5  -4  -6    5.58    0.29
  -5  -4  -6    5.36    0.35
   5   4   6    5.56    0.32
  -5   4  -6    5.47    0.34
   5  -4  -6    5.82    0.34
  -6  -4  -6    0.14    0.08
  -6  -4  -6    0.03    0.09
   6   4  -6    0.04    0.09
   6   4   6    0.00    0.08
  -6   4  -6    0.02    0.08
   6  -4  -6   -0.07    0.06
  -7  -4  -6    5.28    0.37
   7   4  -6    4.20    0.35
  -7   4  -6    5.22    0.37
   7  -4  -6    5.20    0.36
   7   4   6    3.99    0.32
   8   4  -6    2.27    0.31
  -8  -4  -6    2.17    0.29
   8  -4  -6    2.95    0.33
  -8   4  -6    2.79    0.32
   8   4   6    2.34    0.28
   9   4  -6    1.86    0.29
   9  -4  -6    1.84    0.28
   9   4   6    1.32    0.25
  -9   4  -6    1.69    0.28
   0   5  -6    0.34    0.07
   0  -5  -6    0.32    0.08
   0   5  -6    0.26    0.07
   1   5  -6    6.09    0.32
  -1  -5  -6    5.50    0.28
   1   5  -6    6.16    0.27
   1  -5  -6    5.98    0.26
  -1   5  -6    5.88    0.29
   1  -5  -6    6.07    0.29
   2   5  -6    5.25    0.23
  -2  -5  -6    5.46    0.27
   2  -5   6    5.40    0.21
   2   5  -6    5.78    0.31
   2  -5  -6    5.07    0.26
   2  -5  -6    5.67    0.28
  -2   5  -6    5.24    0.29
  -3  -5  -6    3.61    0.21
   3   5  -6    3.45    0.24
   3  -5  -6    3.25    0.21
  -3   5  -6    3.44    0.23
   3  -5  -6    3.38    0.21
  -4   5   6    5.73    0.31
  -4  -5  -6    5.72    0.30
   4   5  -6    5.56    0.34
  -4   5  -6    5.45    0.33
   4  -5  -6    5.80    0.30
   4  -5  -6    5.17    0.31
   4   5   6    5.83    0.30
   5   5  -6    2.85    0.24
  -5   5   6    2.08    0.20
  -5  -5  -6    2.25    0.20
   5  -5  -6    2.52    0.21
   5   5   6    2.47    0.21
  -5   5  -6    2.19    0.23
  -6  -5  -6    2.32    0.21
   6   5  -6    2.45    0.28
  -6   5  -6    2.27    0.26
   6   5   6    2.32    0.23
   6  -5  -6    2.38    0.25
   7   5  -6    1.36    0.22
   7  -5  -6    1.51    0.22
   7   5   6    1.45    0.21
  -7   5  -6    1.41    0.22
   8   5  -6    0.18    0.13
   8   5   6    0.23    0.13
  -8   5  -6    0.23    0.13
   8  -5  -6    0.27    0.14
   9   5  -6    1.31    0.26
  -9   5  -6    1.28    0.25
   9  -5  -6    1.92    0.30
   0   6  -6   31.08    1.16
   0  -6  -6   31.53    1.14
   0   6  -6   32.31    1.29
   1   6  -6    4.89    0.24
   1   6  -6    4.98    0.29
  -1  -6  -6    4.51    0.26
   1  -6  -6    4.95    0.22
   1  -6  -6    4.78    0.26
  -1   6  -6    4.85    0.27
   2   6  -6   23.28    0.99
   2   6  -6   24.24    0.85
  -2  -6  -6   22.93    0.88
   2  -6   6   23.35    0.80
   2  -6  -6   22.49    0.87
  -2   6  -6   23.44    0.92
   2  -6  -6   23.93    0.93
  -3  -6  -6    7.21    0.36
   3   6  -6    7.61    0.41
  -3   6  -6    8.14    0.40
   3  -6  -6    7.35    0.36
   3   6   6    7.68    0.34
   3  -6  -6    6.88    0.35
  -4  -6  -6   12.29    0.54
   4   6  -6   12.87    0.62
  -4   6   6   13.21    0.57
  -4   6  -6   12.13    0.58
   4  -6  -6   12.78    0.57
   4   6   6   12.55    0.55
   4  -6  -6   12.38    0.54
  -5  -6  -6    2.99    0.22
   5   6  -6    2.92    0.25
  -5   6   6    2.76    0.22
  -5   6  -6    2.87    0.28
   5  -6  -6    2.56    0.22
  -6  -6  -6   11.24    0.51
   6   6  -6   11.30    0.60
   6  -6  -6   11.17    0.57
  -6   6  -6   10.68    0.58
   7   6  -6    0.64    0.17
  -7   6  -6    0.79    0.18
   7  -6  -6    0.93    0.18
   8   6  -6    4.75    0.40
   8  -6  -6    6.30    0.43
  -8   6  -6    5.88    0.44
   9   6  -6   -0.06    0.14
  -9   6  -6    0.01    0.13
   9  -6  -6   -0.08    0.13
   0   7  -6    6.27    0.32
   0  -7  -6    6.73    0.33
   0   7  -6    7.09    0.37
   1  -7   6    4.29    0.22
   1   7  -6    4.23    0.27
  -1  -7  -6    4.54    0.26
   1   7  -6    4.50    0.23
   1  -7  -6    4.45    0.25
  -1   7  -6    4.60    0.26
   2   7  -6    2.08    0.19
   2   7  -6    2.18    0.14
  -2  -7  -6    2.09    0.20
   2  -7  -6    2.08    0.19
  -2   7  -6    2.37    0.19
   3   7  -6    2.28    0.23
  -3  -7  -6    2.21    0.21
   3  -7  -6    1.98    0.15
   3  -7  -6    1.89    0.18
  -3   7  -6    1.47    0.18
   4   7  -6    5.95    0.36
  -4  -7  -6    5.44    0.32
  -4   7   6    6.34    0.34
   4  -7  -6    5.57    0.31
   4  -7  -6    5.46    0.31
  -4   7  -6    5.00    0.33
  -5  -7  -6    0.95    0.15
  -5   7   6    1.33    0.18
   5   7  -6    1.07    0.18
  -5   7  -6    1.11    0.18
   5  -7  -6    1.33    0.17
  -6   7   6    2.05    0.23
   6   7  -6    1.92    0.25
  -6  -7  -6    1.93    0.21
  -6   7  -6    2.29    0.26
   6  -7  -6    2.15    0.24
  -7  -7  -6    0.62    0.14
   7   7  -6    0.46    0.15
   7  -7  -6    0.65    0.16
  -7   7  -6    0.86    0.19
   8   7  -6   -0.02    0.11
   8  -7  -6    0.02    0.11
  -8   7  -6    0.12    0.13
   9  -7  -6    1.67    0.28
   0   8  -6    0.03    0.05
   0   8  -6    0.05    0.07
   0  -8  -6    0.07    0.08
   0  -8   6    0.01    0.07
   1   8  -6   47.26    1.71
   1  -8   6   48.58    1.64
  -1  -8  -6   47.56    1.69
   1   8  -6   46.67    1.90
  -1   8  -6   48.85    1.74
   1  -8  -6   47.36    1.69
   2   8  -6    0.15    0.08
  -2  -8  -6    0.02    0.08
   2   8  -6    0.09    0.06
   2  -8  -6    0.11    0.08
  -2   8  -6    0.13    0.07
   3   8  -6   47.22    1.92
  -3  -8  -6   48.26    1.72
   3  -8  -6   47.77    1.70
  -3   8  -6   48.73    1.80
  -4   8   6    0.04    0.09
  -4  -8  -6    0.05    0.09
   4   8  -6    0.16    0.09
   4  -8  -6    0.18    0.09
  -4   8  -6    0.21    0.09
  -5  -8  -6   15.00    0.66
   5   8  -6   15.65    0.74
  -5   8   6   13.89    0.68
   5  -8  -6   15.60    0.65
  -5   8  -6   15.21    0.72
  -6  -8  -6    2.34    0.25
   6   8  -6    2.25    0.28
  -6   8   6    2.53    0.26
  -6   8  -6    2.35    0.27
  -7  -8  -6    0.96    0.17
   7   8  -6    1.16    0.22
  -7   8  -6    0.61    0.17
   8   8  -6    0.84    0.21
  -8   8  -6    1.10    0.23
   0   9  -6    0.13    0.07
   0  -9  -6    0.08    0.08
   0  -9   6    0.29    0.09
  -1  -9  -6   12.25    0.53
   1   9  -6   11.79    0.50
   1   9  -6   11.72    0.57
   1  -9   6   11.91    0.48
   1  -9  -6   11.18    0.51
  -1   9  -6   11.24    0.53
  -1  -9   6   11.84    0.52
   2   9  -6    3.11    0.19
   2   9  -6    3.25    0.25
  -2  -9  -6    2.97    0.23
   2  -9  -6    3.20    0.22
  -2   9  -6    2.90    0.23
  -3  -9  -6    0.80    0.15
   3   9  -6    0.67    0.14
  -3   9  -6    0.85    0.15
   3  -9  -6    0.62    0.13
  -4  -9  -6    5.18    0.33
   4   9  -6    5.18    0.34
  -4   9   6    5.36    0.34
   4  -9  -6    5.17    0.31
  -4   9  -6    5.08    0.34
  -5   9   6    0.76    0.16
   5   9  -6    0.97    0.18
  -5  -9  -6    1.03    0.17
   5  -9  -6    0.76    0.15
  -5   9  -6    0.73    0.16
  -6   9   6    4.23    0.31
  -6  -9  -6    3.61    0.32
   6   9  -6    3.49    0.31
  -6   9  -6    3.18    0.33
   7   9  -6    0.86    0.19
  -7  -9  -6    0.83    0.18
  -7   9  -6    1.14    0.22
   8   9  -6    5.65    0.45
  -8   9  -6    6.20    0.46
   0 -10   6    0.69    0.12
   0 -10  -6    0.78    0.14
   0  10  -6    0.83    0.13
   1  10  -6   29.81    1.21
   1  10  -6   28.11    1.08
  -1 -10  -6   28.94    1.09
  -1  10  -6   27.82    1.11
   1 -10  -6   27.54    1.07
  -1 -10   6   27.54    1.06
  -2 -10  -6    2.98    0.27
   2  10  -6    2.92    0.24
  -2  10  -6    3.14    0.24
   2 -10  -6    2.93    0.23
  -2 -10   6    3.32    0.28
   3  10  -6    9.20    0.50
  -3 -10  -6    9.65    0.48
  -3 -10   6    8.62    0.48
  -3  10  -6    9.07    0.49
   3 -10  -6    9.91    0.46
  -4 -10  -6    5.97    0.37
  -4  10   6    6.36    0.39
   4  10  -6    5.95    0.38
  -4  10  -6    5.75    0.38
   4 -10  -6    6.22    0.35
   5  10  -6    1.08    0.19
  -5  10   6    0.92    0.19
  -5 -10  -6    0.97    0.18
  -5  10  -6    0.56    0.15
   5 -10  -6    0.71    0.14
  -6 -10  -6    2.28    0.27
   6  10  -6    2.11    0.28
  -6  10   6    2.74    0.30
  -6  10  -6    2.63    0.30
   7  10  -6    1.40    0.24
  -7 -10  -6    1.44    0.23
  -7  10  -6    1.35    0.24
  -7 -10   6    1.66    0.29
   8  10  -6    1.22    0.25
   0 -11  -6    0.15    0.09
   0 -11   6    0.22    0.09
   0  11  -6    0.14    0.08
  -1 -11  -6    0.91    0.16
   1  11  -6    0.88    0.13
   1  11  -6    0.85    0.15
  -1  11  -6    1.03    0.16
  -1 -11   6    0.96    0.16
   1 -11  -6    0.64    0.13
  -2 -11  -6    3.93    0.28
   2  11  -6    3.47    0.27
   2 -11  -6    3.44    0.26
  -2  11  -6    3.64    0.27
  -2 -11   6    3.59    0.27
  -3 -11  -6    0.46    0.14
   3  11  -6    0.52    0.13
  -3 -11   6    0.65    0.16
  -3  11  -6    0.37    0.11
   3 -11  -6    0.22    0.10
  -4  11   6    1.33    0.21
   4  11  -6    1.28    0.20
  -4 -11  -6    1.16    0.19
   4 -11  -6    1.25    0.18
  -4 -11   6    1.13    0.21
  -4  11  -6    0.89    0.17
   5  11  -6    3.37    0.30
  -5 -11  -6    3.37    0.33
  -5  11   6    3.96    0.36
   5 -11  -6    3.60    0.27
  -5 -11   6    4.02    0.38
  -5  11  -6    3.94    0.36
  -6 -11  -6    0.91    0.19
  -6  11   6    1.00    0.20
   6  11  -6    0.79    0.18
  -6 -11   6    1.15    0.24
  -6  11  -6    0.64    0.18
  -7 -11  -6    2.83    0.31
   7  11  -6    2.38    0.32
  -7  11  -6    2.26    0.31
  -7 -11   6    3.11    0.38
   0  12  -6   13.52    0.63
   0 -12   6   14.29    0.60
   0 -12  -6   13.82    0.64
  -1 -12  -6    3.59    0.28
   1  12  -6    3.44    0.25
  -1  12  -6    3.65    0.27
   1 -12  -6    3.27    0.26
  -1 -12   6    3.38    0.26
  -2 -12  -6    7.99    0.46
   2  12  -6    8.74    0.48
  -2  12  -6    8.93    0.48
  -2 -12   6    9.11    0.47
   2 -12  -6    8.80    0.45
   3  12  -6    1.59    0.21
  -3 -12  -6    1.53    0.22
  -3  12  -6    1.32    0.20
   3 -12  -6    1.52    0.20
  -3 -12   6    1.21    0.21
  -4 -12  -6    4.14    0.32
   4  12  -6    4.64    0.33
  -4  12   6    4.19    0.38
   4 -12  -6    4.26    0.30
  -4  12  -6    3.73    0.35
  -4 -12   6    4.06    0.37
   5  12  -6    3.26    0.33
  -5  12   6    3.56    0.35
  -5 -12  -6    3.11    0.32
  -5 -12   6    3.23    0.35
   5 -12  -6    3.02    0.29
  -5  12  -6    3.18    0.34
  -6 -12  -6    3.54    0.36
  -6  12   6    4.37    0.41
   6  12  -6    3.56    0.36
  -6 -12   6    3.78    0.40
  -6  12  -6    3.69    0.38
   0 -13  -6    0.08    0.11
   0  13  -6    0.19    0.10
  -1 -13  -6    0.41    0.14
  -1 -13   6    0.55    0.14
  -1  13  -6    0.31    0.12
   1 -13  -6    0.29    0.12
  -2 -13  -6    0.49    0.15
   2  13  -6    0.33    0.12
  -2 -13   6    0.40    0.14
  -2  13  -6    0.53    0.14
   2 -13  -6    0.44    0.13
   3  13  -6    1.05    0.18
  -3 -13  -6    1.19    0.21
   3 -13  -6    0.86    0.17
  -3 -13   6    0.87    0.19
  -3  13  -6    1.05    0.19
  -4 -13  -6    1.48    0.23
  -4  13   6    0.98    0.20
  -4 -13   6    1.05    0.22
  -4  13  -6    1.08    0.21
   4 -13  -6    0.80    0.17
  -5 -13  -6    0.85    0.20
  -5  13   6    1.05    0.21
  -5  13  -6    0.84    0.19
  -5 -13   6    1.01    0.23
  -6 -13  -6    1.28    0.24
  -6  13   6    1.41    0.25
   0 -14  -6    1.00    0.19
   0  14  -6    1.09    0.18
  -1 -14  -6    0.72    0.17
  -1  14  -6    1.02    0.18
  -1 -14   6    0.89    0.18
   1 -14  -6    0.85    0.17
  -2 -14  -6    2.50    0.29
   2 -14  -6    3.31    0.31
  -2  14  -6    2.92    0.31
  -2 -14   6    3.04    0.30
  -3 -14  -6    1.51    0.23
  -3  14   6    1.31    0.23
  -3 -14   6    0.62    0.18
  -3  14  -6    0.64    0.17
   3 -14  -6    0.83    0.17
  -4  14   6    2.22    0.30
  -4 -14  -6    1.91    0.27
   4 -14  -6    2.27    0.26
  -4 -14   6    2.31    0.30
  -4  14  -6    2.54    0.31
  -5  14   6    1.61    0.27
  -5 -14   6    1.25    0.25
   0  15  -6    0.03    0.10
   0 -15  -6    0.08    0.12
  -1 -15  -6    3.05    0.32
   1 -15  -6    3.13    0.32
  -1  15  -6    2.88    0.31
  -2 -15  -6    0.24    0.13
  -2 -15   6    0.18    0.13
   2 -15  -6    0.15    0.13
  -2  15  -6    0.12    0.12
  -3  15   6    2.34    0.30
  -3 -15  -6    2.39    0.30
  -3 -15   6    1.95    0.28
  -3  15  -6    2.65    0.31
   3 -15  -6    2.56    0.29
  -4  15  -6   -0.06    0.11
  -4 -15   6    0.08    0.15
   0 -16  -6    4.89    0.38
  -1 -16  -6    0.50    0.17
   1 -16  -6    0.46    0.17
  -1  16  -6    0.36    0.15
  -2  16  -6    3.95    0.39
   2 -16  -6    5.17    0.37
  -2 -16   6    4.17    0.38
   3 -16  -6    1.32    0.22
  -3 -16   6    0.92    0.21
  -1  17  -6   -0.12    0.11
   0   0  -7    0.00    0.04
   0   0  -7    0.06    0.04
   0   0  -7    0.00    0.04
   1   0  -7    0.02    0.05
  -1   0  -7   -0.02    0.03
  -1   0  -7   -0.07    0.04
  -2   0  -7   27.16    0.90
  -2   0  -7   27.86    1.01
   2   0  -7   23.64    1.05
  -3   0  -7    3.23    0.23
  -3   0  -7    3.08    0.15
   3   0  -7    2.94    0.21
  -4   0  -7   11.33    0.56
  -4   0  -7   12.42    0.44
   4   0  -7   11.91    0.57
  -5   0  -7    0.71    0.15
   5   0  -7    0.77    0.15
   6   0  -7    3.39    0.27
  -6   0  -7    3.12    0.30
  -7   0  -7    0.05    0.10
   7   0  -7    0.00    0.09
   8   0  -7    4.82    0.37
  -8   0  -7    4.67    0.38
   9   0  -7   -0.01    0.12
   9   0   7    0.15    0.15
  -9   0  -7    0.01    0.13
   0  -1  -7    0.04    0.04
   0  -1  -7   -0.04    0.04
   0  -1  -7   -0.01    0.03
   0   1  -7    0.00    0.04
   0   1  -7    0.01    0.04
   1   1  -7   13.19    0.55
   1   1  -7   12.42    0.49
  -1  -1  -7   12.36    0.47
  -1  -1  -7   12.06    0.53
  -1   1  -7   12.40    0.52
   1  -1  -7   12.74    0.54
   1  -1  -7   11.95    0.48
   2   1  -7    3.52    0.23
  -2  -1  -7    3.49    0.18
  -2  -1  -7    3.83    0.24
  -2   1  -7    4.00    0.24
  -2   1  -7    4.03    0.16
   2  -1  -7    3.52    0.22
   3   1  -7    5.70    0.32
  -3  -1  -7    5.70    0.25
  -3  -1  -7    6.08    0.33
  -3   1  -7    6.00    0.23
  -3   1  -7    5.86    0.33
   3  -1  -7    5.82    0.32
   4   1  -7    2.28    0.20
  -4  -1  -7    2.24    0.14
  -4  -1  -7    2.56    0.24
  -4   1  -7    2.71    0.21
   4  -1  -7    2.18    0.19
   5   1  -7    3.20    0.25
  -5  -1  -7    2.60    0.26
  -5   1  -7    2.78    0.27
   5  -1  -7    2.59    0.26
   6   1  -7    1.37    0.21
  -6  -1  -7    1.55    0.22
   6  -1  -7    1.82    0.23
  -6   1  -7    1.67    0.23
   7   1  -7    3.85    0.31
  -7  -1  -7    4.45    0.34
   7  -1  -7    3.80    0.32
  -7   1  -7    3.24    0.34
   8   1  -7    1.24    0.22
  -8  -1  -7    0.69    0.18
   8  -1  -7    1.33    0.23
   8   1   7    0.98    0.20
  -8   1  -7    1.15    0.23
  -9  -1  -7    1.48    0.27
   9   1  -7    1.71    0.28
   9  -1   7    2.55    0.33
   9  -1  -7    2.59    0.33
  -9   1  -7    1.96    0.30
   9   1   7    1.30    0.25
   0   2  -7    1.25    0.13
   0  -2  -7    0.99    0.10
   0   2  -7    1.03    0.11
   0  -2  -7    1.08    0.11
  -1  -2  -7    3.32    0.17
   1   2  -7    3.12    0.20
   1   2  -7    3.19    0.17
  -1  -2  -7    2.97    0.20
  -1   2  -7    3.26    0.20
   1  -2  -7    3.55    0.19
   1  -2  -7    2.89    0.17
  -2  -2  -7    9.22    0.36
  -2  -2  -7    8.81    0.42
   2   2  -7    8.00    0.42
   2  -2  -7    7.93    0.40
   2  -2  -7    9.26    0.38
  -2   2  -7    8.86    0.41
   3   2  -7    1.14    0.15
  -3  -2  -7    1.25    0.17
  -3  -2  -7    1.72    0.12
   3  -2  -7    1.62    0.16
  -3   2  -7    1.49    0.17
  -4  -2  -7    1.10    0.12
  -4  -2  -7    1.55    0.19
   4   2  -7    1.18    0.16
  -4   2   7    1.34    0.12
  -4   2  -7    1.31    0.17
   4  -2  -7    1.00    0.14
   5   2  -7   19.86    0.88
  -5  -2  -7   19.03    0.85
  -5  -2  -7   19.25    0.72
  -5   2  -7   19.40    0.84
   5  -2  -7   19.26    0.86
   6   2  -7    1.72    0.23
  -6  -2  -7    1.59    0.22
  -6   2  -7    2.35    0.26
   6  -2  -7    2.33    0.25
  -7  -2  -7   16.05    0.78
   7   2  -7   15.51    0.80
  -7   2  -7   15.89    0.78
   7  -2  -7   16.56    0.79
  -8  -2  -7    1.20    0.23
   8   2  -7    1.08    0.21
   8  -2  -7    1.38    0.23
  -8   2  -7    1.13    0.22
   8   2   7    1.25    0.22
  -9  -2  -7    1.80    0.30
   9  -2   7    1.68    0.28
   9   2  -7    1.38    0.25
  -9   2  -7    1.71    0.29
   9  -2  -7    1.41    0.26
   9   2   7    1.48    0.25
   0   3  -7  109.58    4.76
   0   3  -7  127.51    4.34
   0  -3  -7  138.00    4.73
   0  -3  -7  129.68    4.19
   1   3  -7    1.11    0.10
   1   3  -7    0.83    0.12
  -1  -3  -7    1.10    0.11
  -1   3  -7    0.94    0.12
   1  -3  -7    1.43    0.13
  -2  -3  -7   67.15    2.25
  -2  -3  -7   65.89    2.40
   2   3  -7   66.01    2.58
   2  -3  -7   69.97    2.55
  -2   3  -7   66.26    2.38
   2  -3  -7   64.63    2.27
   3   3  -7    0.15    0.07
  -3  -3  -7    0.15    0.09
  -3  -3  -7    0.16    0.06
   3  -3  -7    0.09    0.06
   3  -3  -7    0.14    0.07
  -3   3  -7    0.10    0.07
  -4  -3  -7   16.36    0.75
  -4  -3  -7   16.43    0.65
   4   3  -7   18.29    0.79
   4  -3  -7   16.96    0.75
  -4   3  -7   17.76    0.75
  -5  -3  -7    3.55    0.28
  -5  -3  -7    3.03    0.19
   5   3  -7    3.53    0.27
   5  -3  -7    3.04    0.24
  -5   3  -7    3.01    0.29
  -6  -3  -7    9.07    0.50
   6   3  -7    7.69    0.48
   6  -3  -7    7.95    0.46
  -6   3  -7    8.96    0.49
   7   3  -7    9.86    0.58
  -7  -3  -7   10.34    0.58
   7   3   7    9.16    0.54
  -7   3  -7    9.57    0.56
   7  -3  -7   11.60    0.58
  -8  -3  -7    3.33    0.37
   8   3  -7    3.11    0.35
   8   3   7    3.41    0.34
   8  -3  -7    2.86    0.33
  -8   3  -7    2.95    0.34
   9   3  -7    5.46    0.45
  -9  -3  -7    5.44    0.50
  -9   3  -7    5.56    0.51
   9   3   7    5.57    0.43
   9  -3  -7    6.26    0.46
   0  -4  -7    0.05    0.03
   0   4  -7   -0.04    0.04
   0   4  -7    0.00    0.05
   0  -4  -7    0.03    0.05
   1   4  -7    9.21    0.38
   1   4  -7    9.34    0.45
  -1  -4  -7    9.05    0.39
  -1   4  -7    9.85    0.42
   1  -4  -7    8.96    0.40
   1  -4  -7    9.92    0.41
   2   4  -7    0.15    0.07
  -2  -4  -7    0.13    0.07
   2   4  -7    0.21    0.04
  -2   4  -7    0.22    0.07
   2  -4  -7    0.21    0.06
   2  -4  -7    0.17    0.07
   3   4  -7    7.23    0.40
  -3  -4  -7    7.60    0.34
   3  -4  -7    7.34    0.36
   3  -4  -7    8.20    0.38
  -3   4  -7    7.32    0.39
   4   4  -7    0.11    0.08
  -4  -4  -7   -0.02    0.08
  -4  -4  -7    0.06    0.07
   4  -4  -7    0.17    0.08
  -4   4  -7   -0.04    0.06
  -5  -4  -7    0.30    0.12
   5   4  -7    0.16    0.09
  -5  -4  -7    0.23    0.08
   5  -4  -7    0.12    0.08
  -5   4  -7    0.15    0.10
   6   4  -7    0.82    0.17
  -6  -4  -7    0.95    0.19
   6  -4  -7    0.93    0.17
   6   4   7    0.79    0.16
  -6   4  -7    0.79    0.17
  -7  -4  -7    0.52    0.17
   7   4  -7    0.49    0.15
   7  -4  -7    0.56    0.15
  -7   4  -7    0.58    0.16
   7   4   7    0.61    0.15
  -8  -4  -7    1.20    0.23
   8   4  -7    0.84    0.20
  -8   4  -7    1.21    0.23
   8   4   7    1.17    0.21
   8  -4  -7    1.24    0.23
   9   4  -7    5.05    0.44
  -9   4  -7    6.10    0.47
   9  -4  -7    6.34    0.46
   0   5  -7   -0.06    0.05
   0  -5  -7   -0.03    0.05
   0   5  -7   -0.01    0.04
   1   5  -7   14.69    0.59
   1   5  -7   15.95    0.69
  -1  -5  -7   15.07    0.61
   1  -5  -7   15.99    0.61
   1  -5  -7   15.82    0.62
  -1   5  -7   15.16    0.63
   2   5  -7    5.50    0.24
  -2  -5  -7    5.61    0.28
   2   5  -7    5.48    0.32
  -2   5  -7    5.64    0.31
   2  -5  -7    5.79    0.28
   2  -5  -7    5.39    0.29
   3   5  -7   25.06    1.07
  -3  -5  -7   24.59    0.93
   3  -5  -7   26.19    1.03
   3  -5  -7   25.59    0.95
  -3   5  -7   24.54    1.00
   4   5  -7    1.16    0.17
  -4  -5  -7    1.23    0.15
   4  -5  -7    1.16    0.15
   4  -5  -7    1.42    0.16
  -4   5  -7    1.11    0.16
  -5  -5  -7    8.69    0.42
   5   5  -7    8.72    0.50
  -5   5   7    8.96    0.44
   5   5   7    9.76    0.46
   5  -5  -7    9.76    0.48
  -5   5  -7    8.91    0.49
   6   5  -7    0.77    0.16
  -6  -5  -7    0.88    0.14
   6   5   7    0.49    0.13
  -6   5  -7    0.73    0.16
   6  -5  -7    0.87    0.16
   7   5  -7    1.10    0.21
   7  -5  -7    1.62    0.23
  -7   5  -7    1.30    0.22
   8   5  -7    0.45    0.17
   8  -5  -7    0.44    0.16
  -8   5  -7    0.44    0.17
  -9   5  -7    0.84    0.23
   9  -5  -7    1.34    0.25
   0  -6  -7    7.27    0.35
   0   6  -7    7.54    0.34
   0   6  -7    6.93    0.38
   1   6  -7    1.30    0.16
   1   6  -7    1.35    0.13
  -1  -6  -7    1.21    0.15
  -1   6  -7    1.41    0.15
   1  -6  -7    1.22    0.14
   1  -6  -7    1.51    0.10
   2   6  -7    5.00    0.23
   2   6  -7    4.99    0.30
  -2  -6  -7    4.84    0.27
  -2   6  -7    5.08    0.29
   2  -6  -7    4.76    0.27
   2  -6  -7    4.88    0.25
  -3  -6  -7    0.53    0.11
   3   6  -7    0.54    0.12
  -3   6  -7    0.56    0.12
   3  -6  -7    0.37    0.10
   3  -6  -7    0.37    0.08
   4   6  -7    0.57    0.12
  -4  -6  -7    0.63    0.12
   4  -6  -7    0.91    0.14
  -4   6  -7    0.55    0.13
   4  -6  -7    0.63    0.11
   5   6  -7    0.53    0.14
  -5   6   7    0.59    0.12
  -5  -6  -7    0.61    0.13
  -5   6  -7    0.60    0.14
   5  -6  -7    0.69    0.13
  -6  -6  -7    5.56    0.31
   6   6  -7    4.72    0.36
  -6   6  -7    5.34    0.37
   6  -6  -7    4.75    0.34
   7   6  -7    0.14    0.13
  -7   6  -7    0.03    0.11
   7  -6  -7    0.02    0.10
   8   6  -7    0.91    0.22
  -8   6  -7    1.21    0.24
   8  -6  -7    1.40    0.24
   9  -6  -7    0.23    0.16
   0   7  -7   22.99    0.99
   0   7  -7   23.92    0.90
   0  -7  -7   22.90    0.88
  -1  -7  -7   18.63    0.73
   1   7  -7   18.19    0.81
   1   7  -7   17.77    0.71
   1  -7   7   18.74    0.68
  -1   7  -7   18.24    0.75
   2   7  -7   10.16    0.52
   2   7  -7   11.01    0.43
  -2  -7  -7   10.30    0.47
   2  -7  -7   10.48    0.47
  -2   7  -7   10.48    0.49
   3   7  -7    0.91    0.15
  -3  -7  -7    0.81    0.13
   3  -7  -7    1.11    0.15
  -3   7  -7    1.26    0.17
   4   7  -7    1.17    0.18
  -4  -7  -7    0.91    0.14
   4  -7  -7    1.22    0.15
   4  -7  -7    0.83    0.14
  -4   7  -7    1.07    0.17
   5   7  -7    2.22    0.26
  -5   7   7    2.59    0.25
  -5  -7  -7    2.55    0.24
  -5   7  -7    2.62    0.27
   5  -7  -7    2.96    0.24
   6   7  -7    0.76    0.18
  -6  -7  -7    1.02    0.16
  -6   7  -7    1.03    0.19
   6  -7  -7    1.32    0.18
   7   7  -7    3.96    0.35
   7  -7  -7    4.15    0.33
  -7   7  -7    4.08    0.39
   8   7  -7    0.93    0.22
   8  -7  -7    1.09    0.22
  -8   7  -7    1.37    0.25
   0   8  -7   14.31    0.59
   0   8  -7   14.13    0.66
   0  -8  -7   13.66    0.59
  -1  -8  -7    2.02    0.20
   1   8  -7    2.29    0.23
   1   8  -7    2.30    0.17
   1  -8   7    2.20    0.16
  -1   8  -7    2.30    0.21
   1  -8  -7    2.11    0.20
  -2  -8  -7   18.42    0.76
   2   8  -7   18.89    0.84
   2  -8  -7   18.08    0.75
  -2   8  -7   19.94    0.80
   3   8  -7    4.34    0.30
  -3  -8  -7    4.47    0.29
  -3   8  -7    4.33    0.29
   3  -8  -7    4.55    0.28
  -4  -8  -7    6.70    0.37
   4   8  -7    6.31    0.39
   4  -8  -7    6.62    0.36
  -4   8  -7    6.99    0.40
   5   8  -7    3.12    0.32
  -5   8   7    3.43    0.31
  -5  -8  -7    2.99    0.27
   5  -8  -7    3.18    0.28
  -5   8  -7    4.13    0.31
   6   8  -7    0.15    0.11
  -6  -8  -7    0.13    0.11
  -6   8  -7    0.48    0.15
  -7  -8  -7    0.86    0.18
   7   8  -7    1.44    0.24
  -7   8  -7    1.34    0.23
   8   8  -7    0.40    0.17
  -8   8  -7    0.59    0.20
   0  -9  -7   11.27    0.53
   0   9  -7   11.90    0.52
   0  -9   7   12.32    0.51
   1   9  -7   34.87    1.26
   1   9  -7   33.86    1.41
  -1  -9  -7   33.47    1.26
  -1   9  -7   32.96    1.29
   1  -9  -7   33.90    1.26
   2   9  -7    1.22    0.17
  -2  -9  -7    1.00    0.16
   2  -9  -7    1.02    0.15
  -2   9  -7    0.88    0.15
  -3  -9  -7    8.68    0.44
   3   9  -7    8.67    0.47
   3  -9  -7    8.47    0.43
  -3   9  -7    8.62    0.46
   4   9  -7    5.70    0.38
  -4  -9  -7    5.84    0.35
  -4   9  -7    6.25    0.38
   4  -9  -7    6.23    0.35
  -5   9   7    0.77    0.17
   5   9  -7    0.88    0.18
  -5  -9  -7    0.60    0.14
  -5   9  -7    0.54    0.15
   5  -9  -7    0.74    0.15
  -6   9   7    4.65    0.34
   6   9  -7    4.65    0.37
  -6  -9  -7    4.58    0.33
  -6   9  -7    4.61    0.36
   7   9  -7    0.17    0.14
  -7  -9  -7    0.19    0.13
  -7   9  -7    0.20    0.14
   8   9  -7    0.68    0.21
   0  10  -7    0.02    0.06
   0 -10  -7   -0.09    0.07
   0 -10   7   -0.01    0.07
   1  10  -7    3.30    0.22
  -1 -10  -7    3.19    0.25
   1  10  -7    3.42    0.27
  -1  10  -7    3.33    0.24
  -1 -10   7    3.26    0.24
   1 -10  -7    3.78    0.25
  -2 -10  -7    2.85    0.27
   2  10  -7    3.05    0.25
  -2  10  -7    3.17    0.28
   2 -10  -7    3.39    0.24
  -2 -10   7    2.54    0.27
  -3 -10  -7    3.55    0.27
   3  10  -7    3.21    0.27
  -3  10  -7    2.89    0.28
   3 -10  -7    3.34    0.25
  -4 -10  -7    4.98    0.33
   4  10  -7    4.62    0.34
   4 -10  -7    4.67    0.31
  -4  10  -7    5.26    0.35
   5  10  -7    1.93    0.25
  -5 -10  -7    2.29    0.26
  -5  10   7    2.12    0.26
   5 -10  -7    2.38    0.25
  -5  10  -7    2.25    0.27
  -6 -10  -7    2.13    0.25
  -6  10   7    1.82    0.25
   6  10  -7    1.46    0.24
  -6  10  -7    1.42    0.24
  -7 -10  -7    0.26    0.14
   7  10  -7    0.20    0.15
  -7  10  -7    0.31    0.16
   0 -11  -7    0.47    0.13
   0 -11   7    0.76    0.14
   0  11  -7    0.67    0.13
   1  11  -7    8.16    0.40
   1  11  -7    7.06    0.43
  -1 -11  -7    7.21    0.41
   1 -11  -7    8.18    0.42
  -1  11  -7    7.92    0.42
  -1 -11   7    7.67    0.41
  -2 -11  -7    0.56    0.14
   2  11  -7    0.41    0.13
   2 -11  -7    0.49    0.13
  -2 -11   7    0.67    0.15
  -2  11  -7    0.54    0.13
  -3 -11  -7    4.91    0.34
   3  11  -7    5.76    0.37
  -3 -11   7    5.37    0.36
  -3  11  -7    4.92    0.34
   3 -11  -7    4.62    0.31
  -4  11   7    2.04    0.26
  -4 -11  -7    2.17    0.25
   4  11  -7    1.99    0.25
  -4 -11   7    1.74    0.26
  -4  11  -7    1.95    0.25
   4 -11  -7    2.35    0.25
   5  11  -7    1.90    0.25
  -5 -11  -7    1.82    0.24
  -5  11   7    1.91    0.26
  -5 -11   7    1.58    0.26
  -5  11  -7    1.72    0.25
   5 -11  -7    2.03    0.24
   6  11  -7    0.72    0.18
  -6 -11  -7    0.72    0.17
  -6  11   7    1.08    0.21
  -6 -11   7    0.65    0.22
  -6  11  -7    1.16    0.22
  -7 -11  -7    1.55    0.24
   7  11  -7    1.65    0.27
   0 -12  -7    2.83    0.27
   0  12  -7    2.64    0.25
  -1 -12  -7    0.41    0.13
   1 -12  -7    0.35    0.13
  -1 -12   7    0.47    0.13
  -1  12  -7    0.52    0.13
  -2 -12  -7    1.42    0.20
   2  12  -7    1.11    0.19
   2 -12  -7    1.09    0.17
  -2  12  -7    1.21    0.19
  -2 -12   7    1.26    0.20
   3  12  -7    0.50    0.15
  -3 -12  -7    0.69    0.16
  -3  12  -7    0.61    0.15
  -3 -12   7    0.54    0.16
   3 -12  -7    0.53    0.14
  -4  12   7    0.00    0.11
   4  12  -7    0.01    0.10
  -4 -12  -7    0.19    0.12
  -4  12  -7    0.09    0.11
   4 -12  -7    0.34    0.13
  -4 -12   7    0.36    0.16
  -5 -12  -7    1.97    0.26
   5  12  -7    1.67    0.24
  -5  12   7    1.40    0.24
  -5  12  -7    2.13    0.28
  -5 -12   7    2.11    0.30
   5 -12  -7    1.62    0.23
  -6  12   7    1.37    0.24
   6  12  -7    1.15    0.22
  -6 -12  -7    1.24    0.22
  -6  12  -7    1.26    0.23
  -6 -12   7    1.04    0.26
   0  13  -7    6.10    0.35
   0 -13  -7    4.83    0.35
  -1 -13  -7    0.34    0.13
   1 -13  -7    0.20    0.12
  -1 -13   7    0.39    0.13
  -1  13  -7    0.16    0.10
  -2 -13  -7    7.03    0.43
   2  13  -7    6.63    0.43
  -2 -13   7    6.58    0.41
   2 -13  -7    7.48    0.42
  -2  13  -7    6.98    0.42
  -3 -13  -7    6.35    0.41
  -3 -13   7    6.92    0.43
  -3  13  -7    6.31    0.41
   3 -13  -7    5.85    0.38
  -4  13   7    5.32    0.40
  -4 -13  -7    6.35    0.41
   4  13  -7    6.11    0.40
   4 -13  -7    4.75    0.35
  -4  13  -7    5.08    0.39
  -4 -13   7    5.73    0.41
  -5  13   7    9.15    0.55
  -5 -13  -7    9.28    0.54
   5 -13  -7    8.31    0.48
  -5  13  -7    8.42    0.54
  -5 -13   7    8.12    0.54
  -6  13   7    1.56    0.27
   0 -14  -7    0.02    0.10
   0  14  -7    0.04    0.09
  -1 -14  -7    0.69    0.17
   1 -14  -7    0.72    0.17
  -1  14  -7    0.70    0.16
  -2 -14  -7    3.46    0.35
   2 -14  -7    3.33    0.32
  -2  14  -7    3.56    0.34
  -2 -14   7    3.47    0.33
  -3 -14  -7    3.05    0.32
  -3 -14   7    3.15    0.33
   3 -14  -7    2.47    0.28
  -3  14  -7    2.71    0.31
  -4  14   7    3.79    0.39
  -4 -14  -7    4.94    0.43
   4 -14  -7    4.43    0.33
  -4 -14   7    4.01    0.39
  -4  14  -7    4.67    0.37
  -5  14   7    0.54    0.18
   0 -15  -7   14.86    0.72
  -1 -15  -7    0.54    0.16
   1 -15  -7    0.98    0.19
  -1  15  -7    0.87    0.18
  -2 -15  -7    6.03    0.42
  -2  15  -7    6.11    0.41
  -2 -15   7    5.61    0.40
   2 -15  -7    5.71    0.39
  -3  15   7    0.36    0.15
  -3 -15  -7    0.46    0.16
   3 -15  -7    0.67    0.17
  -3  15  -7    0.49    0.16
  -3 -15   7    0.41    0.16
   4 -15  -7    0.24    0.16
   0 -16  -7    1.44    0.24
  -1  16  -7    0.17    0.13
   1 -16  -7    0.12    0.13
  -2  16  -7    1.90    0.26
   0   0  -8   11.82    0.51
   0   0  -8   10.77    0.48
   0   0  -8   11.02    0.44
   1   0  -8    3.59    0.22
  -1   0  -8    3.31    0.17
  -1   0  -8    3.21    0.21
  -2   0  -8    0.23    0.09
   2   0  -8    0.27    0.08
  -2   0  -8    0.37    0.06
   3   0  -8    6.28    0.35
  -3   0  -8    6.21    0.26
  -3   0  -8    6.59    0.36
   4   0  -8    0.44    0.12
  -4   0  -8    0.34    0.11
  -5   0  -8   -0.07    0.08
   5   0  -8    0.00    0.08
   6   0  -8    1.04    0.18
  -6   0  -8    1.29    0.21
  -7   0  -8    0.03    0.11
   7   0  -8    0.08    0.10
   8   0  -8    2.73    0.32
  -8   0  -8    2.37    0.32
   9   0  -8    0.08    0.13
   9   0   8    0.01    0.13
  -9   0  -8   -0.10    0.13
   0  -1  -8    9.48    0.42
   0   1  -8    9.08    0.39
   0   1  -8    7.30    0.41
   0  -1  -8    9.52    0.37
  -1  -1  -8    2.59    0.19
   1   1  -8    2.77    0.17
  -1  -1  -8    2.79    0.16
   1   1  -8    2.64    0.19
  -1   1  -8    2.90    0.19
   1  -1  -8    2.59    0.18
   1  -1  -8    2.64    0.17
  -2  -1  -8    6.88    0.29
   2   1  -8    6.92    0.36
  -2  -1  -8    5.91    0.35
  -2   1  -8    6.95    0.27
   2  -1  -8    7.19    0.35
  -2   1  -8    6.65    0.35
  -3  -1  -8   33.24    1.12
   3   1  -8   31.17    1.32
  -3  -1  -8   31.46    1.25
  -3   1  -8   32.79    1.09
  -3   1  -8   32.67    1.25
   3  -1  -8   31.69    1.31
   4   1  -8    6.59    0.38
  -4  -1  -8    6.64    0.39
  -4  -1  -8    6.57    0.28
   4  -1  -8    6.53    0.37
  -4   1  -8    5.83    0.37
   5   1  -8   26.83    1.16
  -5  -1  -8   26.56    1.12
   5  -1  -8   26.59    1.15
  -5   1  -8   27.11    1.12
  -6  -1  -8    5.83    0.40
   6   1  -8    6.23    0.40
  -6   1  -8    6.28    0.41
   6  -1  -8    6.26    0.39
  -7  -1  -8    4.39    0.41
   7   1  -8    4.01    0.33
  -7   1  -8    3.93    0.38
   7  -1  -8    5.13    0.36
  -8  -1  -8    2.71    0.34
   8   1  -8    2.21    0.30
   8   1   8    2.16    0.29
   8  -1  -8    2.34    0.29
  -8   1  -8    2.70    0.34
   9  -1   8    0.83    0.21
   9   1  -8    0.56    0.18
  -9  -1  -8    0.58    0.20
  -9   1  -8    0.64    0.21
   9   1   8    0.76    0.21
   9  -1  -8    0.77    0.20
   0   2  -8    0.16    0.05
   0  -2  -8    0.14    0.06
   0   2  -8    0.01    0.05
   0  -2  -8    0.08    0.04
  -1  -2  -8    0.91    0.13
  -1  -2  -8    0.86    0.10
   1   2  -8    0.88    0.10
   1   2  -8    1.01    0.13
  -1   2  -8    1.10    0.13
   1  -2  -8    0.98    0.11
   1  -2  -8    0.97    0.11
  -2  -2  -8   12.97    0.50
  -2  -2  -8   13.86    0.59
   2   2  -8   12.43    0.59
   2  -2  -8   13.21    0.58
   2  -2  -8   12.12    0.52
  -2   2  -8   13.42    0.57
  -3  -2  -8    5.58    0.33
  -3  -2  -8    5.23    0.25
   3   2  -8    5.06    0.31
  -3   2  -8    5.13    0.31
   3  -2  -8    5.15    0.30
   4   2  -8   27.92    1.20
  -4  -2  -8   29.23    1.01
  -4  -2  -8   28.18    1.16
   4  -2  -8   28.37    1.19
  -4   2  -8   28.84    1.15
   5   2  -8   18.16    0.83
  -5  -2  -8   18.14    0.82
  -5   2  -8   17.11    0.80
   5  -2  -8   17.26    0.80
   6   2  -8   10.61    0.58
  -6  -2  -8   10.40    0.58
  -6   2  -8   10.76    0.58
   6  -2  -8   10.33    0.56
  -7  -2  -8    6.36    0.45
   7   2  -8    5.69    0.42
   7  -2  -8    7.41    0.44
  -7   2  -8    6.60    0.45
  -8  -2  -8    2.05    0.31
   8   2  -8    2.22    0.30
  -8   2  -8    2.23    0.32
   8  -2  -8    1.93    0.26
   8   2   8    2.16    0.28
   9   2  -8   -0.07    0.13
  -9  -2  -8    0.18    0.17
   9   2   8    0.20    0.15
   9  -2  -8    0.23    0.15
  -9   2  -8    0.11    0.15
   0   3  -8    2.48    0.19
   0  -3  -8    2.47    0.16
   0   3  -8    2.63    0.17
   0  -3  -8    2.28    0.15
   1   3  -8   13.81    0.64
  -1  -3  -8   14.25    0.56
  -1   3  -8   14.51    0.60
   1  -3  -8   14.71    0.61
   1  -3  -8   14.44    0.57
  -2  -3  -8    8.60    0.37
   2   3  -8    8.12    0.34
   2   3  -8    8.76    0.44
   2  -3  -8    8.39    0.38
  -2   3  -8    9.12    0.42
   2  -3  -8    8.84    0.41
  -3  -3  -8    7.35    0.40
  -3  -3  -8    6.46    0.31
   3   3  -8    7.22    0.39
   3  -3  -8    7.06    0.36
  -3   3  -8    7.03    0.38
   4   3  -8    2.89    0.24
  -4  -3  -8    2.75    0.18
  -4  -3  -8    2.67    0.28
  -4   3  -8    3.23    0.24
   4  -3  -8    2.93    0.22
   5   3  -8    3.92    0.30
  -5  -3  -8    4.18    0.23
  -5  -3  -8    3.84    0.31
   5  -3  -8    3.64    0.27
  -5   3  -8    4.06    0.30
  -6  -3  -8    2.72    0.31
   6   3  -8    2.39    0.28
   6  -3  -8    2.70    0.27
  -6   3  -8    2.14    0.26
  -7  -3  -8    2.10    0.30
   7   3  -8    2.77    0.32
   7   3   8    2.45    0.28
   7  -3  -8    2.63    0.30
  -7   3  -8    2.42    0.30
   8   3  -8    5.33    0.41
  -8  -3  -8    5.25    0.42
   8  -3  -8    5.68    0.41
  -8   3  -8    4.82    0.46
   8   3   8    4.71    0.38
  -9  -3  -8    1.34    0.26
   9   3   8    0.95    0.23
   9  -3  -8    1.39    0.25
  -9   3  -8    1.01    0.24
   0   4  -8   11.51    0.54
   0  -4  -8   11.89    0.48
   0   4  -8   11.15    0.48
  -1  -4  -8    1.37    0.14
   1   4  -8    1.30    0.12
   1   4  -8    1.22    0.15
  -1   4  -8    1.24    0.14
   1  -4  -8    1.24    0.12
   1  -4  -8    1.00    0.13
  -2  -4  -8   15.05    0.60
   2   4  -8   14.82    0.69
  -2   4  -8   15.41    0.65
   2  -4  -8   14.81    0.61
   2  -4  -8   15.50    0.65
  -3  -4  -8    0.50    0.10
   3   4  -8    0.47    0.12
  -3   4  -8    0.42    0.11
   3  -4  -8    0.44    0.09
   3  -4  -8    0.28    0.10
  -4  -4  -8   10.30    0.44
  -4  -4  -8   10.08    0.54
   4   4  -8   10.35    0.53
   4  -4  -8   10.54    0.51
  -4   4  -8   10.27    0.52
  -5  -4  -8    0.13    0.08
  -5  -4  -8    0.10    0.10
   5   4  -8    0.05    0.08
   5  -4  -8    0.15    0.09
  -5   4  -8    0.05    0.08
   6   4  -8    1.96    0.26
  -6  -4  -8    2.50    0.29
   6  -4  -8    2.11    0.24
   6   4   8    2.16    0.24
  -6   4  -8    2.49    0.28
  -7  -4  -8    0.14    0.13
   7   4  -8   -0.07    0.10
   7  -4  -8    0.15    0.11
  -7   4  -8    0.07    0.11
   7   4   8   -0.06    0.10
  -8  -4  -8    1.01    0.23
   8   4  -8    0.98    0.21
  -8   4  -8    0.82    0.21
   8  -4  -8    0.88    0.19
   9  -4  -8    0.99    0.22
  -9   4  -8    1.08    0.24
   0  -5  -8    0.37    0.09
   0   5  -8    0.37    0.10
   0   5  -8    0.43    0.08
   1   5  -8    7.19    0.32
   1   5  -8    6.77    0.38
  -1  -5  -8    7.17    0.34
  -1   5  -8    6.58    0.35
   1  -5  -8    7.57    0.33
   1  -5  -8    7.17    0.34
   2   5  -8    6.41    0.38
  -2  -5  -8    7.14    0.34
  -2   5  -8    7.43    0.38
   2  -5  -8    7.24    0.36
   2  -5  -8    7.83    0.35
  -3  -5  -8    2.06    0.19
   3   5  -8    2.21    0.22
   3  -5  -8    2.14    0.17
  -3   5  -8    1.76    0.21
   3  -5  -8    2.09    0.20
  -4  -5  -8   12.87    0.56
   4   5  -8   13.66    0.66
  -4   5  -8   12.40    0.62
   4  -5  -8   14.03    0.59
   4  -5  -8   14.13    0.62
   5   5  -8    0.67    0.15
  -5  -5  -8    0.63    0.12
  -5   5  -8    0.57    0.14
   5  -5  -8    0.64    0.13
   6   5  -8    4.49    0.36
  -6   5  -8    5.43    0.38
   6  -5  -8    5.53    0.35
   7   5  -8    0.36    0.14
   7  -5  -8    0.65    0.16
  -7   5  -8    0.49    0.15
   8   5  -8    0.43    0.18
  -8   5  -8    0.14    0.14
   8  -5  -8   -0.02    0.12
   9  -5  -8    1.30    0.25
   0  -6  -8    1.63    0.17
   0   6  -8    2.11    0.21
   0   6  -8    1.81    0.17
   1   6  -8    0.62    0.12
   1   6  -8    0.77    0.10
  -1  -6  -8    0.83    0.12
   1  -6  -8    0.53    0.11
  -1   6  -8    0.61    0.11
   2   6  -8    7.17    0.42
  -2  -6  -8    7.94    0.37
  -2   6  -8    7.74    0.40
   2  -6  -8    8.11    0.38
  -3  -6  -8    2.13    0.19
   3   6  -8    1.41    0.19
  -3   6  -8    2.30    0.23
   3  -6  -8    2.24    0.17
   3  -6  -8    1.86    0.19
  -4  -6  -8    6.18    0.34
   4   6  -8    7.29    0.42
   4  -6  -8    6.75    0.37
  -4   6  -8    7.42    0.41
   4  -6  -8    7.11    0.37
  -5   6   8    2.76    0.25
   5   6  -8    2.57    0.27
  -5  -6  -8    2.45    0.23
  -5   6  -8    2.39    0.27
   5  -6  -8    2.77    0.22
  -6  -6  -8    3.70    0.25
   6   6  -8    3.59    0.32
  -6   6  -8    3.22    0.34
   6  -6  -8    3.82    0.29
   7   6  -8    0.88    0.20
  -7   6  -8    0.67    0.18
   7  -6  -8    0.95    0.19
   8   6  -8    0.04    0.13
  -8   6  -8    0.03    0.13
   8  -6  -8    0.09    0.14
   9  -6  -8    1.21    0.26
   0   7  -8    3.35    0.25
   0   7  -8    3.90    0.23
   0  -7  -8    3.27    0.23
   1   7  -8    2.50    0.17
  -1  -7  -8    1.98    0.20
   1   7  -8    2.42    0.21
   1  -7  -8    1.88    0.19
  -1   7  -8    2.34    0.19
  -2  -7  -8    1.21    0.16
   2   7  -8    1.01    0.16
  -2   7  -8    0.79    0.14
   2  -7  -8    0.94    0.14
  -3  -7  -8    2.28    0.21
   3   7  -8    2.20    0.24
   3  -7  -8    2.45    0.23
  -3   7  -8    2.42    0.24
  -4  -7  -8    1.17    0.16
   4   7  -8    1.11    0.18
   4  -7  -8    1.04    0.17
  -4   7  -8    1.08    0.18
   5   7  -8    0.96    0.18
  -5  -7  -8    1.03    0.16
  -5   7   8    0.89    0.16
  -5   7  -8    0.77    0.16
   6   7  -8    1.10    0.21
  -6  -7  -8    1.24    0.18
  -6   7  -8    1.07    0.20
   7   7  -8    2.03    0.28
  -7   7  -8    1.59    0.26
   8   7  -8    0.64    0.20
  -8   7  -8    0.59    0.19
   0   8  -8   10.51    0.52
   0   8  -8   10.03    0.46
   0  -8  -8    9.56    0.46
   1   8  -8   68.94    2.40
   1   8  -8   68.46    2.68
  -1  -8  -8   66.92    2.36
  -1   8  -8   67.56    2.44
  -2  -8  -8    3.81    0.25
   2   8  -8    3.55    0.27
   2  -8  -8    3.49    0.24
  -2   8  -8    3.69    0.26
  -3  -8  -8   18.99    0.78
   3   8  -8   19.37    0.88
  -3   8  -8   19.36    0.83
   4   8  -8    1.35    0.20
  -4  -8  -8    1.20    0.17
   4  -8  -8    1.33    0.18
  -4   8  -8    1.10    0.18
   5   8  -8    7.67    0.47
  -5   8   8    8.22    0.45
  -5  -8  -8    7.39    0.41
   5  -8  -8    7.97    0.43
  -5   8  -8    7.53    0.46
   6   8  -8    1.08    0.21
  -6  -8  -8    1.68    0.21
  -6   8  -8    1.37    0.22
   7   8  -8    4.25    0.36
  -7   8  -8    3.04    0.36
   0   9  -8    0.54    0.11
   0  -9   8    0.67    0.12
   0  -9  -8    0.62    0.13
  -1  -9  -8    0.23    0.10
   1   9  -8    0.22    0.11
   1   9  -8    0.32    0.09
  -1   9  -8    0.36    0.10
   1  -9  -8    0.33    0.11
   2   9  -8    2.38    0.25
  -2  -9  -8    2.41    0.24
  -2   9  -8    2.86    0.23
   2  -9  -8    2.33    0.23
  -3  -9  -8    0.64    0.14
   3   9  -8    0.65    0.14
   3  -9  -8    0.40    0.12
  -3   9  -8    0.84    0.15
   4   9  -8    1.85    0.23
  -4  -9  -8    1.42    0.20
   4  -9  -8    1.96    0.22
  -4   9  -8    1.62    0.22
   5   9  -8    0.24    0.12
  -5  -9  -8    0.11    0.10
  -5   9   8    0.20    0.11
   5  -9  -8    0.10    0.11
  -5   9  -8    0.13    0.10
   6   9  -8    2.56    0.31
  -6  -9  -8    2.85    0.28
  -6   9  -8    2.83    0.32
   7   9  -8    0.90    0.21
  -7   9  -8    0.86    0.20
   0  10  -8    5.34    0.30
   0 -10   8    4.98    0.28
   0 -10  -8    3.87    0.28
   1  10  -8    2.76    0.24
  -1 -10  -8    2.29    0.24
  -1  10  -8    2.78    0.25
  -1 -10   8    2.66    0.25
   1 -10  -8    2.77    0.25
   2  10  -8    5.14    0.35
  -2 -10  -8    4.66    0.32
   2 -10  -8    4.97    0.31
  -2  10  -8    5.16    0.33
  -3 -10  -8    4.39    0.30
   3  10  -8    4.48    0.32
   3 -10  -8    3.57    0.27
  -3  10  -8    4.16    0.30
  -4 -10  -8    1.84    0.23
   4  10  -8    2.29    0.27
   4 -10  -8    2.28    0.25
  -4  10  -8    2.46    0.27
   5  10  -8    0.18    0.11
  -5  10   8    0.15    0.12
  -5 -10  -8    0.09    0.11
  -5  10  -8    0.21    0.11
   5 -10  -8    0.13    0.11
  -6 -10  -8    0.63    0.17
   6  10  -8    0.78    0.19
  -6  10  -8    0.85    0.19
   7  10  -8    0.54    0.18
  -7 -10  -8    0.62    0.17
   0  11  -8    7.17    0.39
   0 -11  -8    7.46    0.41
   1  11  -8    0.13    0.11
  -1 -11  -8    0.21    0.11
   1 -11  -8    0.15    0.10
  -1  11  -8    0.14    0.10
  -1 -11   8    0.18    0.11
   2  11  -8    2.20    0.26
  -2 -11  -8    2.40    0.26
  -2 -11   8    2.80    0.28
  -2  11  -8    3.05    0.28
   2 -11  -8    2.56    0.25
  -3 -11  -8    0.68    0.15
   3  11  -8    0.79    0.17
   3 -11  -8    0.62    0.16
  -3 -11   8    0.84    0.19
  -3  11  -8    0.83    0.16
   4  11  -8    0.65    0.16
  -4 -11  -8    0.11    0.12
  -4  11  -8    0.65    0.16
   4 -11  -8    0.63    0.15
  -4 -11   8    0.33    0.16
   5  11  -8    0.73    0.18
  -5 -11  -8    0.64    0.17
  -5  11   8    0.46    0.16
   5 -11  -8    0.94    0.18
  -5  11  -8    0.88    0.18
  -6 -11  -8    1.95    0.26
   6  11  -8    2.34    0.30
  -6  11  -8    1.97    0.28
  -7 -11  -8    0.86    0.20
   0 -12  -8    4.40    0.31
   0  12  -8    4.23    0.29
  -1 -12  -8    0.64    0.15
  -1 -12   8    0.53    0.14
  -1  12  -8    0.74    0.15
   1 -12  -8    0.84    0.16
   2  12  -8    4.59    0.34
  -2 -12  -8    3.97    0.31
   2 -12  -8    4.38    0.31
  -2 -12   8    4.66    0.33
  -2  12  -8    3.68    0.30
   3  12  -8    0.39    0.14
  -3 -12  -8    0.74    0.17
  -3  12  -8    0.49    0.14
  -3 -12   8    0.68    0.19
   3 -12  -8    0.73    0.16
  -4 -12  -8    0.61    0.16
   4  12  -8    0.76    0.18
  -4  12   8    0.67    0.17
  -4 -12   8    1.00    0.21
   4 -12  -8    0.53    0.16
  -4  12  -8    1.09    0.20
   5  12  -8    0.32    0.15
  -5  12   8    0.46    0.16
  -5 -12  -8    0.34    0.15
  -5  12  -8    0.15    0.13
   5 -12  -8    0.26    0.14
  -5 -12   8    0.00    0.15
   6  12  -8    0.76    0.19
  -6 -12  -8    0.52    0.18
  -6  12   8    1.16    0.23
   0 -13  -8    1.76    0.23
  -1 -13  -8    1.77    0.24
  -1  13  -8    2.37    0.25
   1 -13  -8    1.30    0.21
   2  13  -8    1.28    0.21
  -2 -13  -8    1.04    0.20
  -2 -13   8    1.41    0.22
  -2  13  -8    1.58    0.22
  -3 -13  -8    1.93    0.26
   3  13  -8    1.59    0.24
  -3  13  -8    1.54    0.23
   3 -13  -8    1.27    0.20
  -3 -13   8    1.42    0.24
   4  13  -8    0.26    0.13
  -4  13   8    0.29    0.15
  -4 -13  -8    0.18    0.14
  -4  13  -8    0.39    0.15
  -4 -13   8    0.35    0.17
   4 -13  -8    0.04    0.12
  -5  13   8    1.84    0.28
  -5 -13  -8    2.34    0.29
   5  13  -8    1.55    0.26
  -5  13  -8    1.79    0.27
  -5 -13   8    1.83    0.30
   5 -13  -8    2.34    0.29
   0 -14  -8    1.00    0.19
  -1 -14  -8    1.40    0.22
   1 -14  -8    1.22    0.21
  -1  14  -8    1.57    0.22
  -2 -14  -8    4.08    0.37
  -2  14  -8    3.62    0.34
   2 -14  -8    3.83    0.34
  -2 -14   8    3.66    0.35
  -3 -14  -8    1.29    0.22
  -3  14  -8    1.22    0.22
   3 -14  -8    1.87    0.25
  -3 -14   8    1.70    0.26
  -4  14   8    2.05    0.30
  -4 -14   8    2.99    0.35
  -4  14  -8    2.01    0.28
   4 -14  -8    2.42    0.29
   5 -14  -8    2.20    0.28
   0 -15  -8    2.92    0.32
  -1 -15  -8    2.08    0.27
  -1  15  -8    2.00    0.26
   1 -15  -8    2.01    0.27
  -2 -15  -8    2.10    0.29
  -2  15  -8    2.18    0.28
   2 -15  -8    1.88    0.26
  -3  15  -8    0.11    0.13
  -3 -15   8   -0.01    0.13
   3 -15  -8    0.22    0.15
  -2  16  -8    1.40    0.24
   0   0  -9   -0.01    0.05
   0   0  -9    0.05    0.05
  -1   0  -9   48.63    1.59
  -1   0  -9   48.05    1.72
   1   0  -9   43.54    1.83
   2   0  -9    0.21    0.08
  -2   0  -9    0.31    0.06
  -2   0  -9    0.20    0.08
   3   0  -9   66.45    2.58
  -3   0  -9   66.86    2.21
  -3   0  -9   65.25    2.42
   4   0  -9    1.35    0.18
  -4   0  -9    1.49    0.20
  -5   0  -9   11.72    0.62
   5   0  -9   13.04    0.63
  -6   0  -9    2.49    0.30
   6   0  -9    2.91    0.30
  -7   0  -9    0.02    0.12
   7   0  -9   -0.10    0.09
  -8   0  -9    0.24    0.16
   8   0  -9    0.18    0.13
   9   0   9   -0.13    0.13
  -9   0  -9    0.04    0.15
   0  -1  -9    1.22    0.14
   0   1  -9    1.35    0.15
   0   1  -9    1.26    0.14
   0  -1  -9    1.34    0.13
   1   1  -9    1.06    0.12
  -1  -1  -9    1.06    0.12
   1   1  -9    1.07    0.14
  -1  -1  -9    0.95    0.14
   1  -1  -9    0.87    0.12
   1  -1  -9    1.19    0.13
  -1   1  -9    1.11    0.14
  -2  -1  -9    2.81    0.23
   2   1  -9    2.80    0.21
  -2  -1  -9    2.78    0.16
   2  -1  -9    2.86    0.20
  -2   1  -9    2.86    0.22
  -3  -1  -9    7.02    0.40
  -3  -1  -9    7.17    0.30
   3   1  -9    6.57    0.38
  -3   1  -9    6.06    0.37
   3  -1  -9    6.89    0.37
  -4  -1  -9    1.01    0.18
   4   1  -9    1.00    0.16
  -4   1  -9    1.32    0.19
   4  -1  -9    1.11    0.16
   5   1  -9    5.73    0.36
  -5  -1  -9    4.97    0.36
  -5   1  -9    5.01    0.36
   5  -1  -9    5.11    0.34
  -6  -1  -9    0.72    0.18
   6   1  -9    0.89    0.17
  -6   1  -9    1.00    0.20
   6  -1  -9    0.57    0.15
   7   1  -9    0.29    0.14
  -7  -1  -9    0.30    0.14
   7  -1  -9    0.05    0.11
  -7   1  -9    0.12    0.13
   8   1  -9    1.29    0.24
  -8  -1  -9    0.86    0.23
   8  -1  -9    1.15    0.22
  -8   1  -9    0.97    0.23
  -9  -1  -9    1.41    0.29
  -9   1  -9    0.87    0.24
   9   1   9    1.00    0.23
   0  -2  -9   24.39    0.88
   0   2  -9   25.48    1.01
   0   2  -9   24.32    0.91
   0  -2  -9   21.41    0.96
  -1  -2  -9    3.92    0.21
   1   2  -9    4.16    0.22
   1   2  -9    4.21    0.26
  -1   2  -9    3.97    0.24
   1  -2  -9    3.59    0.23
   1  -2  -9    3.45    0.21
  -2  -2  -9    9.13    0.38
  -2  -2  -9    8.89    0.45
   2   2  -9    8.62    0.44
   2  -2  -9    8.17    0.39
   2  -2  -9    9.08    0.43
  -2   2  -9    8.80    0.44
   3   2  -9    2.75    0.23
  -3  -2  -9    2.79    0.27
  -3  -2  -9    3.14    0.18
  -3   2  -9    3.43    0.25
   3  -2  -9    3.03    0.22
  -4  -2  -9    8.02    0.46
  -4  -2  -9    8.15    0.34
   4   2  -9    7.44    0.43
   4  -2  -9    7.38    0.42
  -4   2  -9    7.85    0.44
  -5  -2  -9    1.46    0.22
   5   2  -9    1.28    0.20
  -5   2  -9    1.27    0.20
   5  -2  -9    1.62    0.21
  -6  -2  -9    5.18    0.40
   6   2  -9    5.76    0.39
   6  -2  -9    5.59    0.37
  -6   2  -9    5.35    0.39
  -7  -2  -9    2.51    0.33
   7   2  -9    2.80    0.33
   7  -2  -9    2.74    0.31
  -7   2  -9    3.22    0.35
  -8  -2  -9    1.92    0.32
  -8   2  -9    1.89    0.29
   8   2   9    1.28    0.24
   8  -2  -9    2.16    0.29
  -9  -2  -9    0.10    0.17
   9  -2  -9    0.29    0.17
   9   2   9    0.18    0.15
  -9   2  -9    0.21    0.17
   0  -3  -9    5.25    0.26
   0   3  -9    5.52    0.28
   0   3  -9    5.35    0.31
   0  -3  -9    4.38    0.26
   1   3  -9    2.00    0.15
  -1  -3  -9    1.92    0.15
   1   3  -9    1.89    0.20
   1  -3  -9    2.15    0.16
   1  -3  -9    2.26    0.16
  -1   3  -9    1.85    0.18
   2   3  -9    9.30    0.49
  -2  -3  -9    9.91    0.42
   2   3  -9    9.50    0.40
   2  -3  -9   10.91    0.47
   2  -3  -9    9.78    0.44
  -2   3  -9    9.92    0.48
   3   3  -9    0.36    0.11
  -3  -3  -9    0.37    0.11
  -3  -3  -9    0.29    0.08
  -3   3  -9    0.40    0.11
   3  -3  -9    0.37    0.10
   4   3  -9    3.81    0.28
  -4  -3  -9    3.08    0.31
  -4  -3  -9    3.75    0.21
  -4   3  -9    3.54    0.28
   4  -3  -9    4.05    0.27
  -5  -3  -9    1.66    0.23
   5   3  -9    1.29    0.20
   5  -3  -9    1.61    0.20
  -5   3  -9    1.63    0.22
   6   3  -9    0.10    0.11
  -6  -3  -9    0.47    0.16
  -6   3  -9    0.28    0.14
   6  -3  -9    0.25    0.12
   7   3  -9    1.63    0.24
  -7  -3  -9    1.62    0.27
   7  -3  -9    1.74    0.25
   8   3  -9    0.24    0.15
  -8  -3  -9    0.13    0.15
   8   3   9    0.05    0.13
  -8   3  -9    0.12    0.14
   8  -3  -9   -0.06    0.12
  -9  -3  -9    0.64    0.22
   0   4  -9    1.52    0.18
   0   4  -9    1.48    0.15
   0  -4  -9    1.64    0.16
   1   4  -9    1.74    0.13
   1   4  -9    1.62    0.18
  -1  -4  -9    1.51    0.15
  -1   4  -9    1.06    0.14
   1  -4  -9    1.34    0.15
   1  -4  -9    1.54    0.13
  -2  -4  -9    4.70    0.25
   2   4  -9    4.64    0.30
   2  -4  -9    4.42    0.27
  -2   4  -9    4.88    0.30
   2  -4  -9    4.97    0.27
   3   4  -9    2.45    0.21
  -3  -4  -9    2.19    0.19
  -3   4  -9    2.01    0.22
   3  -4  -9    2.34    0.19
   3  -4  -9    2.13    0.21
  -4  -4  -9    6.89    0.33
   4   4  -9    7.34    0.42
  -4   4  -9    6.49    0.40
   4  -4  -9    6.54    0.37
   5   4  -9    0.20    0.11
  -5  -4  -9    0.22    0.12
  -5   4  -9    0.04    0.09
   5  -4  -9    0.05    0.09
   6   4  -9    4.34    0.35
  -6  -4  -9    4.10    0.40
  -6   4  -9    3.51    0.35
   6  -4  -9    4.75    0.33
   7   4  -9    0.13    0.11
  -7  -4  -9    0.33    0.16
  -7   4  -9    0.17    0.13
   7  -4  -9    0.33    0.13
   8   4  -9    1.10    0.24
  -8   4  -9    0.76    0.22
   8  -4  -9    1.21    0.23
   0   5  -9    5.54    0.34
   0  -5  -9    5.48    0.30
   0   5  -9    6.25    0.31
   1   5  -9    4.08    0.28
  -1  -5  -9    3.82    0.24
   1   5  -9    3.83    0.22
   1  -5  -9    4.13    0.22
  -1   5  -9    4.18    0.26
   1  -5  -9    4.34    0.25
  -2  -5  -9    3.02    0.20
   2   5  -9    3.16    0.25
   2  -5  -9    3.35    0.20
  -2   5  -9    3.05    0.23
   2  -5  -9    3.07    0.22
  -3  -5  -9    2.51    0.19
   3   5  -9    2.57    0.26
   3  -5  -9    2.67    0.21
   3  -5  -9    2.74    0.20
  -3   5  -9    2.74    0.26
   4   5  -9    6.13    0.39
  -4  -5  -9    6.44    0.33
  -4   5  -9    6.32    0.39
   4  -5  -9    6.33    0.36
   5   5  -9    0.30    0.12
  -5  -5  -9    0.58    0.11
   5  -5  -9    0.57    0.13
  -5   5  -9    0.40    0.13
   6   5  -9    7.61    0.48
  -6   5  -9    6.93    0.47
   6  -5  -9    7.99    0.45
   7   5  -9    1.20    0.22
   7  -5  -9    1.05    0.19
  -7   5  -9    0.94    0.21
   8   5  -9    2.13    0.32
  -8   5  -9    2.68    0.35
   8  -5  -9    2.76    0.33
   0  -6  -9    2.15    0.21
   0   6  -9    2.86    0.23
   0   6  -9    2.42    0.18
   1   6  -9    7.77    0.43
  -1  -6  -9    7.80    0.38
   1   6  -9    8.13    0.37
  -1   6  -9    8.21    0.40
   1  -6  -9    7.63    0.38
   2   6  -9    0.93    0.15
  -2  -6  -9    0.77    0.12
  -2   6  -9    0.66    0.13
   2  -6  -9    0.67    0.13
   3   6  -9    3.34    0.26
  -3  -6  -9    3.72    0.23
   3  -6  -9    3.07    0.24
  -3   6  -9    3.45    0.26
   4   6  -9    0.34    0.11
  -4  -6  -9    0.40    0.11
  -4   6  -9    0.23    0.11
   4  -6  -9    0.22    0.11
   5   6  -9    6.28    0.41
  -5  -6  -9    5.94    0.33
   5  -6  -9    6.19    0.37
  -5   6  -9    5.81    0.40
   6   6  -9    1.61    0.24
   6  -6  -9    1.67    0.22
  -6   6  -9    1.50    0.24
   7   6  -9    8.20    0.54
  -7   6  -9    8.75    0.55
   8   6  -9    2.92    0.37
  -8   6  -9    3.55    0.40
   0   7  -9    3.99    0.25
   0   7  -9    4.70    0.30
   0  -7  -9    3.67    0.25
   1   7  -9   10.18    0.45
  -1  -7  -9    9.65    0.46
   1   7  -9   10.08    0.53
  -1   7  -9   10.07    0.48
   1  -7  -9   10.61    0.48
  -2  -7  -9    2.66    0.24
   2   7  -9    2.82    0.24
  -2   7  -9    2.75    0.22
   2  -7  -9    2.79    0.22
   3   7  -9   13.84    0.70
  -3  -7  -9   15.02    0.62
   3  -7  -9   14.60    0.63
  -3   7  -9   14.37    0.67
  -4  -7  -9    0.59    0.13
   4   7  -9    0.40    0.13
   4  -7  -9    0.65    0.14
  -4   7  -9    0.96    0.17
   5   7  -9   12.78    0.69
  -5  -7  -9   13.40    0.59
  -5   7  -9   13.74    0.68
   6   7  -9    0.30    0.14
  -6   7  -9    0.28    0.13
   7   7  -9    5.33    0.42
  -7   7  -9    5.54    0.43
   0   8  -9    0.64    0.12
   0  -8  -9    0.44    0.11
   1   8  -9    0.27    0.11
  -1  -8  -9    0.38    0.11
  -1   8  -9    0.35    0.10
   1  -8  -9    0.28    0.11
   2   8  -9    5.75    0.38
  -2  -8  -9    6.16    0.34
  -2   8  -9    6.50    0.37
   2  -8  -9    5.98    0.34
   3   8  -9    1.93    0.23
  -3  -8  -9    2.10    0.22
  -3   8  -9    1.70    0.21
   3  -8  -9    1.71    0.21
   4   8  -9   11.64    0.62
  -4  -8  -9   11.52    0.54
  -4   8  -9   11.79    0.60
   4  -8  -9   11.88    0.56
  -5  -8  -9    0.87    0.16
   5   8  -9    0.70    0.17
   5  -8  -9    0.98    0.18
  -5   8  -9    0.60    0.16
   6   8  -9    2.55    0.31
  -6  -8  -9    2.41    0.25
  -6   8  -9    2.38    0.30
   7   8  -9    0.11    0.14
  -7   8  -9    0.21    0.15
   0   9  -9    1.16    0.15
   0  -9  -9    1.08    0.16
  -1  -9  -9    9.94    0.47
   1   9  -9    9.17    0.52
  -1   9  -9    9.29    0.47
   1  -9  -9    9.07    0.46
   2   9  -9    0.45    0.13
  -2  -9  -9    0.60    0.14
  -2   9  -9    0.64    0.14
   2  -9  -9    0.41    0.12
   3   9  -9    5.14    0.35
  -3  -9  -9    4.98    0.32
   3  -9  -9    4.94    0.32
  -3   9  -9    5.43    0.35
   4   9  -9    0.40    0.14
  -4  -9  -9    0.62    0.14
  -4   9  -9    0.42    0.13
   4  -9  -9    0.35    0.12
  -5  -9  -9    1.53    0.21
  -5   9   9    1.53    0.22
   5   9  -9    1.28    0.22
  -5   9  -9    1.27    0.22
   5  -9  -9    1.33    0.21
   6   9  -9    1.44    0.24
  -6  -9  -9    1.83    0.23
  -6   9  -9    1.55    0.25
   7   9  -9    1.56    0.27
  -7   9  -9    1.74    0.28
   0  10  -9   15.48    0.68
   0 -10  -9   16.20    0.70
   1  10  -9    7.15    0.44
  -1 -10  -9    7.32    0.41
  -1 -10   9    7.86    0.41
  -1  10  -9    7.85    0.41
   1 -10  -9    6.67    0.40
  -2 -10  -9    5.43    0.35
   2  10  -9    5.98    0.39
   2 -10  -9    5.55    0.34
  -2  10  -9    5.47    0.35
   3  10  -9    7.37    0.45
  -3 -10  -9    7.56    0.43
  -3  10  -9    7.53    0.44
   3 -10  -9    7.47    0.42
  -4 -10  -9    2.78    0.27
   4  10  -9    2.94    0.31
   4 -10  -9    2.68    0.27
  -4  10  -9    2.33    0.28
  -5 -10  -9    1.40    0.21
   5  10  -9    1.88    0.26
  -5  10   9    1.34    0.22
  -5  10  -9    1.44    0.23
   5 -10  -9    1.43    0.23
   6  10  -9    4.59    0.38
  -6 -10  -9    4.75    0.34
  -6  10  -9    4.44    0.42
   0  11  -9    0.27    0.11
   0 -11  -9    0.23    0.11
  -1 -11  -9    3.11    0.29
   1  11  -9    3.01    0.30
  -1 -11   9    2.73    0.27
   1 -11  -9    2.95    0.28
  -1  11  -9    3.34    0.26
   2  11  -9    0.49    0.15
  -2 -11  -9    0.51    0.14
  -2  11  -9    0.58    0.14
   2 -11  -9    0.52    0.14
  -2 -11   9    0.33    0.15
  -3 -11  -9    4.42    0.33
   3  11  -9    4.99    0.35
   3 -11  -9    4.35    0.31
  -3  11  -9    4.45    0.33
   4  11  -9    0.86    0.18
  -4 -11  -9    0.75    0.17
  -4  11  -9    0.47    0.14
   4 -11  -9    0.61    0.16
   5  11  -9    3.21    0.35
  -5  11   9    3.70    0.37
  -5 -11  -9    4.29    0.32
   5 -11  -9    3.41    0.33
  -5  11  -9    3.53    0.36
  -6 -11  -9    0.32    0.14
   6  11  -9    0.22    0.14
  -6  11  -9    0.19    0.14
   0 -12  -9   17.02    0.77
  -1 -12  -9    1.74    0.23
   1 -12  -9    1.50    0.21
  -1  12  -9    1.60    0.21
  -2 -12  -9    9.49    0.53
   2  12  -9    9.50    0.56
  -2  12  -9   10.51    0.54
  -2 -12   9   10.56    0.54
  -3 -12  -9    2.96    0.31
   3  12  -9    2.28    0.29
   3 -12  -9    2.85    0.29
  -3  12  -9    2.74    0.29
  -3 -12   9    2.74    0.31
   4  12  -9    3.32    0.35
  -4 -12  -9    2.63    0.30
  -4 -12   9    2.42    0.31
  -4  12  -9    3.21    0.33
   4 -12  -9    3.04    0.31
   5  12  -9    3.12    0.35
  -5 -12  -9    2.41    0.29
  -5  12   9    3.54    0.37
  -5  12  -9    2.66    0.32
   5 -12  -9    3.27    0.33
  -5 -12   9    3.34    0.38
   6  12  -9    1.11    0.23
   0 -13  -9    3.69    0.34
  -1 -13  -9    0.59    0.16
  -1  13  -9    0.35    0.12
   1 -13  -9    0.47    0.15
   2  13  -9    7.66    0.48
  -2 -13  -9    7.27    0.45
  -2  13  -9    7.63    0.45
   2 -13  -9    7.17    0.44
  -2 -13   9    7.53    0.45
  -3 -13  -9    0.04    0.12
   3  13  -9    0.50    0.16
   3 -13  -9    0.41    0.15
  -3 -13   9    0.22    0.15
  -3  13  -9    0.39    0.14
   4  13  -9    4.11    0.36
  -4  13   9    5.29    0.40
  -4 -13  -9    4.93    0.37
  -4  13  -9    4.02    0.39
   4 -13  -9    4.51    0.35
  -4 -13   9    4.51    0.42
  -5  13   9    0.70    0.20
   5  13  -9    0.48    0.16
   5 -13  -9    0.50    0.18
   0 -14  -9    1.89    0.26
  -1 -14  -9    4.02    0.37
   1 -14  -9    3.10    0.32
  -2 -14  -9    2.33    0.29
   2 -14  -9    2.14    0.27
  -2  14  -9    2.33    0.28
  -3 -14  -9    1.84    0.27
   3  14  -9    2.45    0.31
  -3  14  -9    1.75    0.26
  -3 -14   9    2.15    0.29
   3 -14  -9    2.22    0.28
   4 -14  -9    1.53    0.25
  -4 -14   9    1.57    0.27
   0 -15  -9    0.25    0.14
  -2  15  -9    0.06    0.11
  -3 -15   9   -0.15    0.12
   0   0 -10    0.16    0.08
   0   0 -10    0.35    0.09
  -1   0 -10    0.20    0.07
   1   0 -10    0.20    0.08
  -1   0 -10    0.02    0.07
   2   0 -10    0.12    0.07
  -2   0 -10    0.37    0.12
  -2   0 -10    0.30    0.07
  -3   0 -10   -0.02    0.07
   3   0 -10    0.16    0.09
   4   0 -10    4.37    0.31
  -4   0 -10    5.11    0.35
  -5   0 -10    1.08    0.20
   5   0 -10    0.93    0.17
   6   0 -10    3.14    0.32
  -6   0 -10    3.23    0.35
   7   0 -10    0.61    0.18
  -7   0 -10    0.78    0.20
   8   0 -10    0.51    0.17
  -8   0 -10    1.00    0.24
   0   1 -10    1.85    0.19
   0  -1 -10    1.95    0.17
   0  -1 -10    1.71    0.16
   0   1 -10    1.47    0.17
  -1  -1 -10    8.97    0.45
  -1  -1 -10    9.35    0.38
   1   1 -10    9.47    0.46
   1   1 -10    8.76    0.40
   1  -1 -10    8.08    0.43
  -1   1 -10    8.36    0.43
   2   1 -10    2.32    0.20
  -2  -1 -10    2.56    0.16
  -2  -1 -10    2.07    0.23
  -2   1 -10    2.55    0.24
   2  -1 -10    2.72    0.20
  -3  -1 -10   17.04    0.63
  -3  -1 -10   18.07    0.77
   3   1 -10   16.38    0.77
   3  -1 -10   15.68    0.75
  -3   1 -10   17.48    0.76
   4   1 -10    5.63    0.35
  -4  -1 -10    5.32    0.36
  -4   1 -10    5.15    0.35
   4  -1 -10    4.66    0.32
   5   1 -10    5.60    0.37
  -5  -1 -10    5.62    0.39
   5  -1 -10    5.21    0.35
  -5   1 -10    5.07    0.37
   6   1 -10    6.74    0.43
  -6  -1 -10    6.31    0.45
  -6   1 -10    6.82    0.46
   6  -1 -10    6.30    0.42
  -7  -1 -10    0.55    0.18
   7   1 -10    0.42    0.15
   7  -1 -10    0.21    0.14
  -7   1 -10    0.47    0.18
   8   1 -10    2.51    0.33
  -8  -1 -10    2.61    0.36
  -8   1 -10    2.79    0.37
   8  -1 -10    3.00    0.35
   9   1  10   -0.11    0.14
   0   2 -10    1.53    0.18
   0   2 -10    1.73    0.17
   0  -2 -10    1.90    0.16
   0  -2 -10    1.91    0.17
  -1  -2 -10   -0.06    0.05
   1   2 -10    0.03    0.06
   1   2 -10    0.00    0.07
  -1   2 -10    0.09    0.07
   1  -2 -10    0.05    0.07
   1  -2 -10    0.04    0.06
  -2  -2 -10    4.04    0.22
   2   2 -10    4.46    0.28
  -2  -2 -10    4.18    0.29
  -2   2 -10    3.98    0.27
   2  -2 -10    3.96    0.26
  -3  -2 -10    1.72    0.23
   3   2 -10    1.71    0.20
  -3  -2 -10    1.87    0.16
   3  -2 -10    1.70    0.19
  -3   2 -10    1.57    0.20
   4   2 -10    2.51    0.27
  -4  -2 -10    2.69    0.29
  -4   2 -10    2.75    0.29
   4  -2 -10    3.39    0.25
   5   2 -10    2.21    0.26
  -5  -2 -10    2.59    0.31
   5  -2 -10    2.15    0.25
  -5   2 -10    2.13    0.28
   6   2 -10    0.70    0.17
  -6  -2 -10    0.89    0.21
  -6   2 -10    0.81    0.19
   6  -2 -10    0.72    0.16
   7   2 -10    0.28    0.14
  -7  -2 -10    0.34    0.17
  -7   2 -10    0.43    0.17
   7  -2 -10    0.48    0.15
  -8  -2 -10    0.71    0.23
   8   2 -10    0.78    0.20
  -8   2 -10    0.59    0.21
   8  -2 -10    0.82    0.21
   0   3 -10    0.59    0.12
   0  -3 -10    0.65    0.11
   0   3 -10    0.65    0.11
   0  -3 -10    0.80    0.11
  -1  -3 -10   26.74    0.95
   1   3 -10   26.30    0.97
   1   3 -10   23.28    1.08
   1  -3 -10   26.48    0.97
   1  -3 -10   26.30    1.05
  -1   3 -10   24.69    1.01
  -2  -3 -10    1.66    0.16
   2   3 -10    1.16    0.17
  -2   3 -10    1.56    0.19
   2  -3 -10    2.03    0.17
   3   3 -10   13.55    0.67
  -3  -3 -10   14.28    0.56
  -3  -3 -10   13.59    0.67
   3  -3 -10   14.10    0.64
  -3   3 -10   14.04    0.66
   4   3 -10    2.16    0.25
  -4  -3 -10    2.33    0.17
  -4  -3 -10    1.92    0.25
  -4   3 -10    1.95    0.24
   4  -3 -10    2.13    0.23
   5   3 -10    8.34    0.49
  -5  -3 -10    8.41    0.52
   5  -3 -10    8.75    0.48
  -5   3 -10    8.52    0.50
  -6  -3 -10    0.24    0.16
   6   3 -10    0.44    0.15
   6  -3 -10    0.42    0.13
  -6   3 -10    0.63    0.18
  -7  -3 -10    4.76    0.47
   7   3 -10    5.03    0.40
   7  -3 -10    5.86    0.40
  -7   3 -10    4.91    0.46
   8   3 -10    0.78    0.20
  -8  -3 -10    1.08    0.26
  -8   3 -10    0.86    0.23
   8  -3 -10    0.69    0.20
   0  -4 -10    3.33    0.23
   0   4 -10    4.23    0.28
   0   4 -10    4.04    0.24
   1   4 -10    1.23    0.17
   1   4 -10    1.54    0.15
  -1  -4 -10    1.56    0.16
   1  -4 -10    1.62    0.15
  -1   4 -10    1.52    0.17
   1  -4 -10    1.70    0.18
  -2  -4 -10    1.11    0.14
   2   4 -10    1.20    0.17
   2  -4 -10    0.93    0.14
  -2   4 -10    1.05    0.16
   2  -4 -10    1.08    0.13
  -3  -4 -10    0.17    0.08
   3   4 -10    0.28    0.11
   3  -4 -10    0.30    0.10
  -3   4 -10    0.27    0.10
   3  -4 -10    0.32    0.10
   4   4 -10    0.69    0.16
  -4  -4 -10    0.81    0.12
   4  -4 -10    0.84    0.14
  -4   4 -10    0.80    0.16
   5   4 -10    0.12    0.11
  -5   4 -10    0.15    0.12
   5  -4 -10    0.27    0.10
   6   4 -10    1.32    0.22
  -6  -4 -10    1.81    0.28
   6  -4 -10    1.77    0.23
  -6   4 -10    1.30    0.23
   7   4 -10    0.32    0.15
  -7  -4 -10    0.85    0.22
   7  -4 -10    0.77    0.18
  -7   4 -10    0.70    0.20
   8   4 -10    0.54    0.18
   8  -4 -10    0.55    0.18
  -8   4 -10    0.40    0.19
   0   5 -10   15.22    0.71
   0  -5 -10   14.48    0.62
   0   5 -10   15.20    0.63
  -1  -5 -10    1.93    0.18
   1   5 -10    1.75    0.20
   1   5 -10    1.64    0.16
   1  -5 -10    1.68    0.18
  -1   5 -10    1.60    0.18
  -2  -5 -10   13.64    0.58
   2   5 -10   13.51    0.67
  -2   5 -10   13.72    0.64
   2  -5 -10   15.49    0.62
   3   5 -10    1.27    0.19
  -3  -5 -10    1.45    0.16
  -3   5 -10    1.16    0.18
   3  -5 -10    1.67    0.17
   3  -5 -10    1.60    0.19
   4   5 -10    7.18    0.45
  -4  -5 -10    7.59    0.37
   4  -5 -10    7.84    0.41
  -4   5 -10    7.62    0.45
   5   5 -10    2.80    0.30
   5  -5 -10    2.61    0.26
  -5   5 -10    2.71    0.30
   6   5 -10    4.35    0.36
   6  -5 -10    4.41    0.33
  -6   5 -10    4.39    0.41
   7   5 -10    1.88    0.28
   7  -5 -10    1.99    0.27
  -7   5 -10    2.06    0.30
  -8   5 -10   -0.05    0.15
   8  -5 -10    0.30    0.15
   0  -6 -10    0.87    0.14
   0   6 -10    1.16    0.17
   0   6 -10    1.08    0.14
   1   6 -10    0.80    0.11
   1   6 -10    0.66    0.14
  -1  -6 -10    0.81    0.13
   1  -6 -10    0.86    0.14
  -1   6 -10    0.70    0.13
  -2  -6 -10    0.92    0.14
   2   6 -10    0.84    0.15
  -2   6 -10    0.81    0.15
   2  -6 -10    0.77    0.14
  -3  -6 -10    3.48    0.23
   3   6 -10    3.13    0.27
   3  -6 -10    3.62    0.26
  -3   6 -10    3.45    0.27
  -4  -6 -10    0.27    0.10
   4   6 -10    0.15    0.10
   4  -6 -10    0.37    0.13
  -4   6 -10    0.31    0.12
   5   6 -10    2.50    0.29
  -5  -6 -10    2.74    0.24
  -5   6 -10    2.05    0.27
   6   6 -10    0.29    0.15
  -6   6 -10    0.11    0.12
   7   6 -10    5.25    0.42
  -7   6 -10    5.32    0.43
   0  -7 -10    4.65    0.29
   0   7 -10    5.44    0.30
   0   7 -10    4.59    0.32
   1   7 -10    1.36    0.19
  -1  -7 -10    1.65    0.19
  -1   7 -10    1.73    0.19
   1  -7 -10    1.84    0.20
  -2  -7 -10    8.70    0.43
   2   7 -10    8.49    0.49
  -2   7 -10    8.81    0.46
   2  -7 -10    8.73    0.44
  -3  -7 -10    3.74    0.25
   3   7 -10    3.71    0.30
  -3   7 -10    3.77    0.29
   3  -7 -10    3.58    0.27
   4   7 -10    2.98    0.30
  -4  -7 -10    2.66    0.25
   4  -7 -10    2.78    0.27
  -4   7 -10    2.68    0.29
   5   7 -10    3.57    0.31
  -5  -7 -10    2.75    0.26
  -5   7 -10    3.08    0.32
   6   7 -10    2.27    0.29
  -6   7 -10    2.70    0.32
   7   7 -10   -0.06    0.11
  -7   7 -10    0.59    0.18
   0  -8 -10    0.97    0.15
   0   8 -10    0.58    0.12
  -1  -8 -10    1.62    0.20
   1   8 -10    1.81    0.23
   1  -8 -10    1.96    0.21
  -1   8 -10    2.06    0.21
  -2  -8 -10    1.06    0.16
   2   8 -10    0.82    0.17
  -2   8 -10    0.74    0.14
   2  -8 -10    0.58    0.13
  -3  -8 -10    0.32    0.11
   3   8 -10    0.09    0.10
  -3   8 -10    0.16    0.10
   3  -8 -10    0.39    0.13
   4   8 -10    4.85    0.36
  -4  -8 -10    4.70    0.31
  -4   8 -10    5.42    0.37
   4  -8 -10    5.34    0.34
  -5  -8 -10    0.16    0.10
   5   8 -10   -0.04    0.09
  -5   8 -10    0.09    0.11
   6   8 -10    3.33    0.37
  -6   8 -10    4.18    0.41
   7   8 -10    0.59    0.19
  -7   8 -10    1.23    0.25
   0   9 -10    0.14    0.08
   0  -9 -10    0.09    0.09
  -1  -9 -10    2.10    0.23
   1   9 -10    2.07    0.25
  -1   9 -10    1.71    0.20
   1  -9 -10    1.72    0.21
   2   9 -10    2.83    0.29
  -2  -9 -10    2.99    0.27
  -2   9 -10    2.71    0.27
   2  -9 -10    3.06    0.28
  -3  -9 -10    4.12    0.30
   3   9 -10    4.18    0.33
   3  -9 -10    4.12    0.30
  -3   9 -10    3.94    0.31
   4   9 -10    2.82    0.31
  -4  -9 -10    3.10    0.28
  -4   9 -10    2.31    0.28
   4  -9 -10    3.06    0.30
   5   9 -10    4.22    0.36
  -5  -9 -10    4.58    0.32
  -5   9 -10    4.51    0.37
   5  -9 -10    5.46    0.36
   6   9 -10    0.94    0.21
  -6   9 -10    0.70    0.19
   0 -10 -10    0.06    0.09
  -1 -10 -10    2.14    0.23
   1  10 -10    1.91    0.24
  -1  10 -10    1.93    0.21
   1 -10 -10    1.80    0.22
   2  10 -10    1.83    0.25
  -2 -10 -10    1.91    0.23
  -2  10 -10    2.01    0.23
   2 -10 -10    1.58    0.21
   3  10 -10    8.97    0.53
  -3 -10 -10    8.92    0.47
   3 -10 -10    8.44    0.47
  -3  10 -10    8.39    0.49
  -4 -10 -10    4.80    0.34
   4  10 -10    4.87    0.38
   4 -10 -10    5.34    0.36
  -4  10 -10    5.08    0.37
   5  10 -10    5.48    0.41
  -5 -10 -10    6.09    0.38
   5 -10 -10    4.90    0.36
  -5  10 -10    5.30    0.40
   6  10 -10    2.43    0.32
  -6 -10 -10    2.40    0.27
  -6  10 -10    2.02    0.30
   0 -11 -10   12.25    0.60
  -1 -11 -10    0.89    0.18
   1 -11 -10    0.77    0.17
  -1  11 -10    1.39    0.19
   2  11 -10   10.00    0.57
  -2 -11 -10    9.90    0.52
  -2 -11  10    9.42    0.52
  -2  11 -10    9.51    0.51
   2 -11 -10    9.16    0.50
   3  11 -10    0.77    0.18
  -3 -11 -10    0.92    0.18
   3 -11 -10    0.51    0.15
  -3  11 -10    0.48    0.15
   4  11 -10    5.50    0.41
  -4 -11 -10    5.54    0.38
   4 -11 -10    5.60    0.38
  -4  11 -10    5.73    0.40
  -5 -11 -10    2.60    0.29
   5  11 -10    2.94    0.34
   5 -11 -10    2.86    0.31
  -5  11 -10    2.38    0.30
  -6 -11 -10    4.94    0.37
   0 -12 -10    0.39    0.14
  -1 -12 -10   -0.02    0.10
   1 -12 -10   -0.02    0.10
  -1  12 -10    0.26    0.11
   2  12 -10    0.46    0.15
  -2 -12 -10    0.37    0.14
  -2  12 -10    0.19    0.12
   2 -12 -10    0.21    0.12
  -2 -12  10    0.43    0.16
   3  12 -10    0.36    0.15
  -3 -12 -10    0.10    0.12
  -3 -12  10    0.57    0.18
   3 -12 -10    0.19    0.12
  -3  12 -10    0.30    0.14
   4  12 -10    0.20    0.15
  -4 -12 -10    0.50    0.15
  -4  12 -10    0.49    0.16
   4 -12 -10    0.29    0.15
  -4 -12  10    0.38    0.19
   5  12 -10    1.75    0.27
  -5  12  10    1.53    0.26
  -5 -12 -10    1.47    0.24
   5 -12 -10    1.79    0.26
  -5  12 -10    1.44    0.25
  -5 -12  10    1.60    0.29
   0 -13 -10    1.19    0.21
  -1 -13 -10    4.56    0.35
   1 -13 -10    5.06    0.36
  -2 -13 -10    1.87    0.26
   2  13 -10    2.22    0.29
   2 -13 -10    1.68    0.24
  -2  13 -10    2.19    0.26
  -3 -13 -10    2.49    0.30
   3  13 -10    2.43    0.31
  -3 -13  10    2.69    0.31
  -3  13 -10    2.60    0.30
   3 -13 -10    2.49    0.30
  -4 -13 -10    0.54    0.18
   4  13 -10    0.60    0.18
  -4  13 -10    0.72    0.18
   4 -13 -10    0.46    0.17
  -4 -13  10    0.47    0.19
   0 -14 -10    4.95    0.37
  -1 -14 -10    0.07    0.12
   1 -14 -10    0.01    0.13
  -2 -14 -10    1.24    0.22
   2 -14 -10    1.27    0.23
  -2  14 -10    0.89    0.19
   3  14 -10    2.19    0.30
  -3 -14  10    2.28    0.30
  -3  14 -10    2.48    0.30
   0   0 -11   -0.07    0.07
   0   0 -11    0.13    0.08
  -1   0 -11  143.34    5.03
   1   0 -11  144.72    5.46
  -2   0 -11    1.53    0.14
  -2   0 -11    1.40    0.20
   2   0 -11    1.43    0.18
  -3   0 -11   14.28    0.69
   3   0 -11   14.63    0.69
  -4   0 -11    1.42    0.22
   4   0 -11    1.02    0.17
  -5   0 -11   -0.03    0.10
   5   0 -11    0.19    0.11
   6   0 -11    0.01    0.10
  -6   0 -11    0.00    0.12
   7   0 -11    0.34    0.15
  -7   0 -11    0.31    0.16
   8   0 -11    0.22    0.15
  -8   0 -11    0.04    0.16
   0  -1 -11   10.64    0.49
   0   1 -11   10.19    0.47
   0  -1 -11    9.53    0.43
   0   1 -11    8.84    0.48
  -1  -1 -11    3.63    0.27
  -1  -1 -11    3.62    0.21
   1   1 -11    2.95    0.24
  -1   1 -11    3.62    0.26
   1  -1 -11    3.98    0.25
   2   1 -11    5.00    0.32
  -2  -1 -11    4.98    0.33
  -2  -1 -11    4.92    0.25
  -2   1 -11    5.21    0.33
   2  -1 -11    4.88    0.30
   3   1 -11    9.43    0.50
  -3  -1 -11    8.57    0.50
   3  -1 -11    9.12    0.48
  -3   1 -11    9.83    0.51
  -4  -1 -11    2.07    0.27
   4   1 -11    2.39    0.26
  -4   1 -11    2.21    0.27
   4  -1 -11    2.24    0.25
  -5  -1 -11    1.65    0.25
   5   1 -11    2.20    0.26
  -5   1 -11    2.05    0.27
   5  -1 -11    2.04    0.25
   6   1 -11    4.09    0.34
  -6  -1 -11    4.64    0.43
  -6   1 -11    2.89    0.36
   6  -1 -11    4.26    0.33
  -7  -1 -11    1.30    0.26
   7   1 -11    1.70    0.26
  -7   1 -11    1.28    0.25
   7  -1 -11    1.45    0.24
  -8  -1 -11    3.39    0.43
   8   1 -11    3.59    0.39
   8  -1 -11    3.65    0.40
  -8   1 -11    4.06    0.46
   0  -2 -11   12.41    0.57
   0   2 -11   12.28    0.60
   0   2 -11   12.96    0.56
   0  -2 -11   11.84    0.52
   1   2 -11    0.26    0.09
  -1  -2 -11    0.16    0.07
   1   2 -11    0.20    0.09
   1  -2 -11    0.24    0.08
   1  -2 -11    0.40    0.10
  -1   2 -11    0.29    0.10
  -2  -2 -11   19.36    0.75
  -2  -2 -11   20.37    0.87
   2   2 -11   19.54    0.89
  -2   2 -11   19.58    0.85
   2  -2 -11   20.45    0.87
  -3  -2 -11   12.26    0.48
  -3  -2 -11   11.71    0.60
   3   2 -11   10.36    0.57
  -3   2 -11   11.58    0.58
   3  -2 -11   11.63    0.57
  -4  -2 -11   17.02    0.83
   4   2 -11   16.90    0.82
  -4   2 -11   17.04    0.81
   4  -2 -11   18.35    0.81
   5   2 -11   11.22    0.61
  -5  -2 -11    9.94    0.62
  -5   2 -11   11.27    0.62
   5  -2 -11   13.06    0.62
   6   2 -11    4.58    0.35
  -6  -2 -11    4.15    0.43
   6  -2 -11    3.63    0.32
  -6   2 -11    4.74    0.44
  -7  -2 -11    1.41    0.28
   7   2 -11    1.41    0.24
   7  -2 -11    1.71    0.26
  -7   2 -11    1.52    0.27
   8   2 -11    1.91    0.29
  -8  -2 -11    1.55    0.30
  -8   2 -11    1.59    0.29
   8  -2 -11    1.50    0.26
   0  -3 -11   -0.01    0.07
   0   3 -11    0.16    0.08
   0   3 -11    0.02    0.07
  -1  -3 -11    1.11    0.14
   1   3 -11    1.03    0.16
   1   3 -11    1.00    0.13
  -1   3 -11    0.90    0.14
   1  -3 -11    0.98    0.14
   1  -3 -11    0.97    0.14
  -2  -3 -11    1.07    0.13
   2   3 -11    0.95    0.16
   2  -3 -11    1.09    0.16
  -2   3 -11    1.20    0.17
   2  -3 -11    0.95    0.14
  -3  -3 -11    2.40    0.17
   3   3 -11    2.30    0.24
  -3  -3 -11    1.64    0.23
  -3   3 -11    2.20    0.25
   3  -3 -11    1.69    0.20
   4   3 -11    2.83    0.29
  -4  -3 -11    2.35    0.29
  -4   3 -11    2.64    0.29
   4  -3 -11    2.95    0.24
   5   3 -11    1.18    0.21
  -5  -3 -11    1.19    0.24
   5  -3 -11    1.39    0.20
  -5   3 -11    1.17    0.21
  -6  -3 -11    1.00    0.22
   6   3 -11    0.59    0.16
   6  -3 -11    0.89    0.18
  -6   3 -11    0.95    0.21
  -7  -3 -11    1.85    0.32
   7   3 -11    2.17    0.30
  -7   3 -11    2.32    0.32
   7  -3 -11    2.46    0.29
  -8  -3 -11    0.03    0.16
  -8   3 -11    0.08    0.15
   8  -3 -11    0.15    0.14
   0   4 -11    8.73    0.43
   0   4 -11    9.15    0.48
   0  -4 -11    8.81    0.42
   1   4 -11   14.85    0.71
  -1  -4 -11   14.45    0.61
  -1   4 -11   13.79    0.64
   1  -4 -11   14.49    0.62
   1  -4 -11   15.64    0.65
   2   4 -11    1.00    0.17
  -2  -4 -11    1.13    0.15
  -2   4 -11    1.08    0.17
   2  -4 -11    1.39    0.17
   2  -4 -11    1.36    0.16
   3   4 -11    5.50    0.37
  -3  -4 -11    5.60    0.30
   3  -4 -11    6.38    0.35
  -3   4 -11    5.26    0.36
   4   4 -11    1.32    0.20
  -4  -4 -11    1.20    0.15
   4  -4 -11    1.24    0.18
  -4   4 -11    1.24    0.20
   5   4 -11    0.98    0.19
   5  -4 -11    1.12    0.18
  -5   4 -11    0.90    0.20
   6   4 -11    0.76    0.18
   6  -4 -11    0.73    0.16
  -6   4 -11    0.69    0.18
   7   4 -11    0.78    0.20
   7  -4 -11    1.04    0.21
  -7   4 -11    0.75    0.21
   8  -4 -11    1.54    0.25
   0   5 -11    0.14    0.08
   0  -5 -11    0.09    0.08
   0   5 -11    0.07    0.08
   1   5 -11    4.97    0.33
  -1  -5 -11    4.90    0.28
   1  -5 -11    4.73    0.29
  -1   5 -11    4.96    0.31
   2   5 -11    0.35    0.12
  -2  -5 -11    0.44    0.11
  -2   5 -11    0.30    0.10
   2  -5 -11    0.20    0.10
   3   5 -11   12.14    0.61
  -3  -5 -11   11.16    0.51
  -3   5 -11   11.59    0.59
   3  -5 -11   11.70    0.55
  -4  -5 -11    0.77    0.13
   4   5 -11    0.70    0.16
  -4   5 -11    0.67    0.16
   5   5 -11    6.75    0.44
   6   5 -11    4.12    0.36
  -6   5 -11    3.83    0.39
   7   5 -11    0.67    0.19
  -7   5 -11    0.46    0.18
   0  -6 -11    5.42    0.31
   0   6 -11    5.28    0.30
   0   6 -11    4.77    0.34
  -1  -6 -11    5.16    0.31
   1   6 -11    5.80    0.37
  -1   6 -11    5.52    0.33
   1  -6 -11    5.98    0.33
   2   6 -11    2.64    0.27
  -2  -6 -11    2.23    0.22
  -2   6 -11    2.02    0.23
   2  -6 -11    2.80    0.26
  -3  -6 -11    0.88    0.15
   3   6 -11    0.76    0.16
   3  -6 -11    0.99    0.17
  -3   6 -11    0.86    0.17
  -4  -6 -11    0.32    0.11
   4   6 -11    0.42    0.14
  -4   6 -11    0.28    0.13
   5   6 -11    8.17    0.50
  -5   6 -11    7.33    0.48
   6   6 -11    1.51    0.25
  -6   6 -11    1.35    0.24
   7   6 -11    3.47    0.39
  -7   6 -11    2.97    0.37
   0  -7 -11    1.99    0.21
   0   7 -11    1.76    0.19
  -1  -7 -11    1.95    0.21
   1   7 -11    2.35    0.25
  -1   7 -11    1.96    0.21
   1  -7 -11    1.53    0.20
  -2  -7 -11    4.82    0.30
   2   7 -11    5.31    0.36
  -2   7 -11    5.25    0.34
   2  -7 -11    4.87    0.32
  -3  -7 -11    3.15    0.23
   3   7 -11    3.39    0.28
   3  -7 -11    2.95    0.28
  -3   7 -11    2.95    0.29
  -4  -7 -11    3.69    0.26
   4   7 -11    2.70    0.31
  -4   7 -11    3.64    0.35
   4  -7 -11    3.92    0.29
   5   7 -11    3.46    0.35
  -5   7 -11    2.75    0.32
   6   7 -11    0.41    0.16
  -6   7 -11    0.89    0.21
   7   7 -11    2.00    0.31
  -7   7 -11    1.71    0.30
   0  -8 -11    6.99    0.39
   1   8 -11    1.96    0.24
  -1  -8 -11    1.62    0.20
   1  -8 -11    1.42    0.19
  -1   8 -11    1.53    0.20
  -2  -8 -11    3.04    0.28
   2   8 -11    3.55    0.29
  -2   8 -11    3.65    0.28
   2  -8 -11    3.43    0.27
  -3  -8 -11    0.24    0.10
   3   8 -11    0.07    0.10
  -3   8 -11    0.28    0.12
   3  -8 -11    0.20    0.11
  -4  -8 -11    2.54    0.25
   4   8 -11    2.30    0.28
   4  -8 -11    1.64    0.23
  -4   8 -11    2.12    0.27
  -5  -8 -11    0.19    0.11
   5   8 -11   -0.12    0.10
  -5   8 -11    0.01    0.12
   6   8 -11    3.51    0.37
  -6   8 -11    3.49    0.38
   0  -9 -11    1.56    0.20
   1   9 -11    0.48    0.13
  -1  -9 -11    1.12    0.17
   1  -9 -11    0.49    0.14
  -1   9 -11    0.23    0.11
   2   9 -11    1.91    0.25
  -2  -9 -11    2.07    0.23
  -2   9 -11    1.57    0.21
   2  -9 -11    1.15    0.18
  -3  -9 -11    0.24    0.11
   3   9 -11    0.17    0.12
   3  -9 -11    0.29    0.13
  -3   9 -11    0.42    0.13
   4   9 -11    1.45    0.23
  -4  -9 -11    1.42    0.21
  -4   9 -11    1.63    0.24
   4  -9 -11    1.75    0.24
  -5  -9 -11    1.50    0.21
   5   9 -11    1.33    0.23
  -5   9 -11    1.50    0.24
   6   9 -11    0.89    0.21
  -6   9 -11    0.86    0.21
   0 -10 -11    1.26    0.20
   1  10 -11    4.64    0.35
  -1 -10 -11    4.42    0.31
   1 -10 -11    4.56    0.32
  -1  10 -11    4.37    0.31
  -2 -10 -11    0.37    0.13
   2  10 -11    0.62    0.16
   2 -10 -11    0.36    0.13
  -2  10 -11    0.32    0.13
  -3 -10 -11    2.42    0.26
   3  10 -11    2.52    0.30
  -3  10 -11    2.59    0.28
   3 -10 -11    2.55    0.29
  -4 -10 -11    4.76    0.34
   4  10 -11    4.62    0.37
  -4  10 -11    4.49    0.36
   4 -10 -11    4.21    0.33
  -5 -10 -11    2.02    0.25
   5  10 -11    2.18    0.30
   5 -10 -11    1.68    0.26
  -5  10 -11    1.82    0.28
   0 -11 -11    0.53    0.15
  -1 -11 -11    3.95    0.31
   1 -11 -11    4.24    0.31
   2  11 -11    0.66    0.18
  -2 -11 -11    0.59    0.16
  -2  11 -11    0.73    0.16
   2 -11 -11    0.79    0.17
   3  11 -11    2.99    0.34
  -3 -11 -11    3.55    0.33
   3 -11 -11    3.71    0.35
  -3  11 -11    3.86    0.35
   4  11 -11    0.72    0.19
  -4 -11 -11    0.54    0.16
  -4  11 -11    0.43    0.15
   4 -11 -11    0.73    0.18
  -5 -11 -11    1.71    0.25
   5  11 -11    1.96    0.29
  -5  11 -11    1.98    0.29
   5 -11 -11    1.95    0.28
   0 -12 -11    0.61    0.17
  -1 -12 -11    0.27    0.14
   1 -12 -11    0.40    0.15
  -2 -12 -11    2.28    0.27
   2  12 -11    2.03    0.28
   2 -12 -11    2.20    0.27
  -2  12 -11    1.62    0.23
   3  12 -11    0.60    0.18
  -3 -12 -11    0.47    0.16
  -3 -12  11    0.63    0.19
  -3  12 -11    0.60    0.17
   3 -12 -11    0.75    0.19
   4  12 -11    1.53    0.26
  -4 -12 -11    1.25    0.23
  -4 -12  11    1.65    0.28
   4 -12 -11    1.42    0.24
  -4  12 -11    1.68    0.26
   0 -13 -11    0.17    0.13
  -1 -13 -11    0.31    0.14
   1 -13 -11    0.65    0.17
  -2 -13 -11    1.37    0.23
   2 -13 -11    1.16    0.21
  -2  13 -11    0.97    0.19
   3  13 -11    1.22    0.25
  -3  13 -11    1.06    0.21
   3 -13 -11    0.73    0.18
   0   0 -12   45.82    1.84
  -1   0 -12    0.24    0.10
   1   0 -12    0.09    0.08
  -2   0 -12   35.94    1.45
   2   0 -12   37.04    1.51
   3   0 -12    0.47    0.12
  -3   0 -12    0.28    0.13
   4   0 -12   14.51    0.72
  -4   0 -12   14.69    0.74
  -5   0 -12    0.44    0.17
   5   0 -12    0.34    0.12
  -6   0 -12    3.95    0.42
   6   0 -12    3.91    0.33
  -7   0 -12    1.11    0.26
   7   0 -12    1.34    0.24
   0   1 -12    3.52    0.25
   0  -1 -12    3.45    0.25
   0   1 -12    3.42    0.26
  -1  -1 -12    8.11    0.39
  -1  -1 -12    8.75    0.47
   1   1 -12    9.31    0.48
  -1   1 -12    9.00    0.47
   1  -1 -12    9.42    0.47
  -2  -1 -12    6.00    0.29
  -2  -1 -12    5.30    0.36
   2   1 -12    5.48    0.35
   2  -1 -12    5.26    0.33
  -2   1 -12    5.37    0.36
   3   1 -12    2.91    0.25
  -3  -1 -12    2.57    0.29
   3  -1 -12    2.47    0.25
  -3   1 -12    2.80    0.30
   4   1 -12    1.54    0.21
  -4  -1 -12    1.31    0.23
  -4   1 -12    1.18    0.21
   4  -1 -12    1.12    0.18
   5   1 -12    2.45    0.29
  -5  -1 -12    2.29    0.32
  -5   1 -12    2.39    0.31
   5  -1 -12    2.94    0.30
   6   1 -12    0.88    0.19
  -6  -1 -12    1.20    0.25
  -6   1 -12    1.06    0.23
   6  -1 -12    0.85    0.18
  -7  -1 -12    2.96    0.41
   7   1 -12    3.48    0.38
  -7   1 -12    3.80    0.44
   7  -1 -12    3.80    0.33
   8  -1 -12    0.38    0.17
   0   2 -12    0.02    0.08
   0  -2 -12    0.27    0.09
   0   2 -12    0.11    0.09
  -1  -2 -12    5.01    0.28
   1   2 -12    5.09    0.29
   1   2 -12    4.73    0.32
  -1   2 -12    5.35    0.33
   1  -2 -12    5.04    0.29
   1  -2 -12    4.61    0.30
  -2  -2 -12    0.01    0.07
  -2  -2 -12   -0.10    0.07
   2   2 -12    0.12    0.09
  -2   2 -12    0.09    0.08
   2  -2 -12   -0.04    0.07
  -3  -2 -12    3.15    0.34
   3   2 -12    3.35    0.28
  -3   2 -12    3.45    0.33
   3  -2 -12    4.95    0.30
  -4  -2 -12    0.25    0.13
   4   2 -12    0.50    0.13
   4  -2 -12    0.44    0.13
  -4   2 -12    0.44    0.15
  -5  -2 -12    1.61    0.27
   5   2 -12    2.28    0.27
   5  -2 -12    1.94    0.24
  -5   2 -12    2.28    0.30
  -6  -2 -12    0.31    0.18
   6   2 -12    0.55    0.16
   6  -2 -12    0.58    0.16
  -6   2 -12    0.58    0.19
   7   2 -12    2.97    0.35
  -7  -2 -12    2.42    0.36
   7  -2 -12    2.61    0.32
  -7   2 -12    3.33    0.40
   8  -2 -12    0.07    0.15
   0   3 -12    1.08    0.17
   0   3 -12    1.58    0.18
   0  -3 -12    1.88    0.19
  -1  -3 -12    1.38    0.16
   1   3 -12    1.79    0.21
   1  -3 -12    1.98    0.21
  -1   3 -12    1.52    0.19
   1  -3 -12    1.85    0.19
  -2  -3 -12    3.11    0.22
   2   3 -12    3.79    0.29
  -2   3 -12    3.63    0.28
   2  -3 -12    4.12    0.27
  -3  -3 -12    5.02    0.28
   3   3 -12    4.97    0.34
  -3   3 -12    4.99    0.35
   3  -3 -12    4.58    0.31
   4   3 -12    3.79    0.30
  -4  -3 -12    3.14    0.35
   4  -3 -12    3.60    0.28
  -4   3 -12    3.31    0.34
   5   3 -12    0.75    0.17
  -5  -3 -12    0.62    0.20
   5  -3 -12    0.66    0.15
  -5   3 -12    0.98    0.21
   6   3 -12    1.70    0.26
  -6  -3 -12    1.54    0.28
   6  -3 -12    1.95    0.26
  -6   3 -12    1.65    0.27
   7   3 -12    0.35    0.17
  -7  -3 -12    0.29    0.18
  -7   3 -12    0.08    0.15
   7  -3 -12    0.35    0.15
   8  -3 -12    1.85    0.29
   0   4 -12    0.22    0.09
   0  -4 -12    0.25    0.10
   0   4 -12    0.16    0.10
  -1  -4 -12    7.36    0.38
   1   4 -12    8.24    0.46
   1  -4 -12    7.66    0.40
  -1   4 -12    8.22    0.43
  -2  -4 -12    2.40    0.21
   2   4 -12    2.01    0.24
   2  -4 -12    1.86    0.21
  -2   4 -12    1.91    0.22
  -3  -4 -12    2.83    0.21
   3   4 -12    3.02    0.27
  -3   4 -12    3.01    0.31
   4   4 -12    1.89    0.24
   4  -4 -12    1.58    0.21
  -4   4 -12    1.55    0.24
   5   4 -12    1.75    0.25
   5  -4 -12    1.70    0.22
  -5   4 -12    1.96    0.28
   6   4 -12    0.62    0.18
  -6   4 -12    0.72    0.19
   6  -4 -12    0.88    0.18
   7   4 -12    0.35    0.16
  -7   4 -12    0.46    0.19
   0   5 -12    8.02    0.42
   0   5 -12    8.38    0.47
   0  -5 -12    7.58    0.40
   1   5 -12    0.88    0.16
  -1  -5 -12    0.63    0.13
   1  -5 -12    0.69    0.14
  -1   5 -12    0.60    0.14
  -2  -5 -12    9.24    0.45
   2   5 -12    9.91    0.54
  -2   5 -12    9.34    0.51
   2  -5 -12    9.80    0.48
   3   5 -12    0.25    0.12
  -3  -5 -12    0.39    0.11
  -3   5 -12    0.18    0.11
   3  -5 -12    0.03    0.10
   4   5 -12    3.67    0.31
  -4   5 -12    4.28    0.34
   5   5 -12    2.73    0.31
  -5   5 -12    2.88    0.33
   6   5 -12    0.36    0.15
  -6   5 -12    0.44    0.16
   7   5 -12    3.17    0.37
  -7   5 -12    3.31    0.40
   0   6 -12    3.22    0.24
   0  -6 -12    3.07    0.24
  -1  -6 -12    6.20    0.34
   1   6 -12    5.49    0.38
  -1   6 -12    5.63    0.36
   1  -6 -12    6.10    0.35
  -2  -6 -12    2.76    0.25
   2   6 -12    2.94    0.30
   2  -6 -12    2.62    0.26
  -2   6 -12    2.76    0.28
   3   6 -12    2.09    0.26
  -3  -6 -12    2.04    0.21
   3  -6 -12    1.77    0.22
  -3   6 -12    1.80    0.24
   4   6 -12    4.01    0.32
  -4  -6 -12    3.22    0.24
  -4   6 -12    3.42    0.34
   5   6 -12    2.70    0.31
  -5   6 -12    2.67    0.32
   6   6 -12    4.37    0.37
  -6   6 -12    3.61    0.40
   0  -7 -12    5.69    0.34
  -1  -7 -12    1.01    0.16
   1   7 -12    0.90    0.17
   1  -7 -12    1.12    0.18
  -1   7 -12    1.27    0.18
  -2  -7 -12    2.78    0.26
   2   7 -12    3.69    0.30
   2  -7 -12    2.96    0.29
  -2   7 -12    3.48    0.28
   3   7 -12    2.13    0.27
  -3  -7 -12    2.33    0.24
   3  -7 -12    3.01    0.29
  -3   7 -12    3.08    0.31
   4   7 -12    1.20    0.22
  -4  -7 -12    1.21    0.18
   4  -7 -12    1.29    0.21
  -4   7 -12    0.82    0.19
   5   7 -12    0.25    0.14
  -5   7 -12    0.33    0.14
   6   7 -12    0.66    0.19
  -6   7 -12    0.26    0.16
   0  -8 -12    0.00    0.09
  -1  -8 -12    1.10    0.17
   1   8 -12    0.99    0.19
  -1   8 -12    0.95    0.17
   1  -8 -12    1.17    0.18
  -2  -8 -12    0.19    0.11
   2   8 -12    0.27    0.13
   2  -8 -12    0.07    0.11
  -2   8 -12    0.18    0.11
  -3  -8 -12    2.32    0.24
   3   8 -12    1.84    0.25
   3  -8 -12    2.17    0.26
  -3   8 -12    2.41    0.28
   4   8 -12    1.29    0.23
  -4  -8 -12    1.60    0.20
  -4   8 -12    1.17    0.21
   4  -8 -12    1.56    0.23
   5   8 -12    1.63    0.25
  -5   8 -12    1.18    0.23
   6   8 -12    0.52    0.18
  -6   8 -12    0.71    0.20
   0  -9 -12    0.82    0.16
   1   9 -12    5.11    0.38
  -1  -9 -12    5.09    0.33
   1  -9 -12    4.81    0.33
  -1   9 -12    4.93    0.34
   2   9 -12    0.22    0.13
  -2  -9 -12    0.29    0.12
  -2   9 -12    0.39    0.13
   2  -9 -12    0.20    0.12
   3   9 -12    2.48    0.29
  -3  -9 -12    1.90    0.23
   3  -9 -12    2.12    0.26
  -3   9 -12    2.38    0.28
  -4  -9 -12    0.49    0.14
   4   9 -12    0.25    0.14
  -4   9 -12    0.42    0.15
   4  -9 -12    0.27    0.14
   5   9 -12    1.95    0.29
  -5  -9 -12    3.01    0.29
  -5   9 -12    2.34    0.31
   0 -10 -12    6.20    0.39
  -1 -10 -12    1.74    0.23
   1 -10 -12    1.57    0.23
   2  10 -12    2.18    0.29
  -2 -10 -12    2.15    0.26
   2 -10 -12    2.67    0.28
  -2  10 -12    2.49    0.28
  -3 -10 -12    3.38    0.32
   3  10 -12    2.98    0.34
  -3  10 -12    3.40    0.34
   3 -10 -12    3.48    0.33
   4  10 -12    0.67    0.19
  -4 -10 -12    0.87    0.18
   4 -10 -12    0.55    0.18
  -4  10 -12    0.91    0.19
  -5 -10 -12    5.57    0.36
   5  10 -12    3.99    0.42
  -5  10 -12    4.24    0.42
   0 -11 -12    4.61    0.34
  -1 -11 -12    2.14    0.26
   1 -11 -12    2.18    0.27
   2  11 -12    8.04    0.51
  -2 -11 -12    7.45    0.45
   2 -11 -12    7.42    0.45
  -2  11 -12    7.15    0.46
  -3 -11 -12    0.20    0.13
   3  11 -12    0.08    0.13
   3 -11 -12    0.16    0.13
  -3  11 -12    0.30    0.14
  -4 -11 -12    7.86    0.47
   4  11 -12    7.34    0.52
   4 -11 -12    7.69    0.49
  -4  11 -12    8.37    0.52
  -5 -11 -12    2.73    0.31
   0 -12 -12    0.04    0.12
  -1 -12 -12    5.25    0.37
   1 -12 -12    4.17    0.38
  -2 -12 -12    2.74    0.30
   2  12 -12    2.78    0.33
   2 -12 -12    1.71    0.25
  -3 -12 -12    3.85    0.37
   3  12 -12    3.83    0.40
  -3  12 -12    3.98    0.38
   0 -13 -12    2.03    0.27
  -3  13 -12    1.73    0.26
   1   0 -13   12.91    0.63
  -1   0 -13   12.44    0.62
  -2   0 -13    0.03    0.10
   2   0 -13   -0.01    0.08
   3   0 -13    3.04    0.26
  -3   0 -13    2.50    0.31
  -4   0 -13    0.02    0.12
   4   0 -13    0.16    0.11
   5   0 -13    0.56    0.16
  -5   0 -13    0.40    0.17
   6   0 -13   -0.04    0.11
  -6   0 -13    0.13    0.14
   7   0 -13    0.06    0.13
  -7   0 -13    0.05    0.15
   0   1 -13    0.07    0.09
  -1  -1 -13    1.88    0.19
   1   1 -13    1.87    0.23
   1  -1 -13    2.19    0.23
  -1   1 -13    2.33    0.26
   2   1 -13    1.08    0.17
  -2  -1 -13    1.14    0.14
  -2  -1 -13    1.24    0.21
  -2   1 -13    1.37    0.20
   2  -1 -13    0.91    0.16
  -3  -1 -13    3.01    0.34
   3   1 -13    3.55    0.28
  -3   1 -13    3.03    0.32
   3  -1 -13    3.50    0.27
  -4  -1 -13    5.03    0.40
   4   1 -13    5.62    0.38
  -4   1 -13    5.41    0.41
   4  -1 -13    5.11    0.36
  -5  -1 -13    1.35    0.26
   5   1 -13    1.79    0.25
  -5   1 -13    1.55    0.27
   5  -1 -13    2.06    0.27
   6   1 -13    1.66    0.26
  -6  -1 -13    2.30    0.34
   6  -1 -13    2.20    0.28
  -6   1 -13    1.73    0.30
  -7  -1 -13    2.02    0.35
   7   1 -13    1.71    0.28
  -7   1 -13    2.01    0.33
   7  -1 -13    2.06    0.29
   0   2 -13    2.64    0.26
   0  -2 -13    2.24    0.22
   0   2 -13    2.38    0.25
  -1  -2 -13    6.44    0.34
   1   2 -13    7.15    0.42
  -1   2 -13    6.57    0.40
   1  -2 -13    6.90    0.39
   2   2 -13    0.54    0.14
  -2  -2 -13    0.65    0.12
  -2   2 -13    0.56    0.15
   2  -2 -13    0.61    0.14
  -3  -2 -13   11.37    0.64
   3   2 -13   12.19    0.63
  -3   2 -13   11.82    0.63
   3  -2 -13   12.01    0.60
   4   2 -13    0.56    0.15
  -4  -2 -13    0.24    0.15
   4  -2 -13    0.61    0.14
  -4   2 -13    0.52    0.16
  -5  -2 -13    2.21    0.31
   5   2 -13    2.31    0.29
  -5   2 -13    1.83    0.28
   5  -2 -13    2.16    0.27
   6   2 -13    0.68    0.18
  -6  -2 -13    0.63    0.22
   6  -2 -13    0.74    0.19
  -6   2 -13    0.52    0.19
  -7  -2 -13    0.48    0.21
   7   2 -13    0.59    0.18
  -7   2 -13    0.70    0.22
   7  -2 -13    0.39    0.17
   0  -3 -13    5.68    0.33
   0   3 -13    6.38    0.36
  -1  -3 -13    1.48    0.17
   1   3 -13    1.31    0.20
   1  -3 -13    0.84    0.15
   1  -3 -13    1.14    0.16
  -1   3 -13    0.94    0.17
  -2  -3 -13    5.62    0.30
   2   3 -13    5.90    0.37
  -2   3 -13    4.88    0.35
   2  -3 -13    4.32    0.31
   3   3 -13    0.06    0.10
  -3   3 -13    0.02    0.10
   3  -3 -13    0.02    0.08
   4   3 -13    3.53    0.31
   4  -3 -13    4.14    0.30
  -4   3 -13    3.73    0.37
  -5  -3 -13    0.30    0.16
   5   3 -13    0.23    0.14
   5  -3 -13    0.34    0.13
  -5   3 -13    0.34    0.16
  -6  -3 -13    3.12    0.40
   6   3 -13    4.22    0.35
  -6   3 -13    3.08    0.38
   6  -3 -13    3.68    0.32
  -7  -3 -13    0.71    0.25
   7   3 -13    0.70    0.19
   7  -3 -13    0.92    0.21
   0   4 -13    0.49    0.13
   0  -4 -13    0.29    0.11
  -1  -4 -13    3.60    0.25
   1   4 -13    3.38    0.29
  -1   4 -13    3.47    0.27
   1  -4 -13    3.07    0.24
   2   4 -13    0.06    0.10
  -2  -4 -13    0.24    0.10
  -2   4 -13    0.07    0.10
   2  -4 -13    0.11    0.10
  -3  -4 -13    3.59    0.25
   3   4 -13    4.42    0.33
  -3   4 -13    3.61    0.35
   4   4 -13    1.63    0.24
  -4   4 -13    1.48    0.24
   5   4 -13    0.38    0.14
  -5   4 -13    0.39    0.17
   6   4 -13    3.08    0.36
  -6   4 -13    2.32    0.34
   0  -5 -13    4.01    0.28
  -1  -5 -13   17.60    0.73
   1  -5 -13   16.86    0.74
  -2  -5 -13    2.94    0.23
   2   5 -13    2.66    0.29
   2  -5 -13    3.27    0.29
  -2   5 -13    2.45    0.27
  -3  -5 -13    7.14    0.38
   3   5 -13    6.79    0.45
  -3   5 -13    7.29    0.46
   4   5 -13    0.87    0.19
  -4   5 -13    0.67    0.18
   5   5 -13    3.71    0.38
  -5   5 -13    4.54    0.43
   6   5 -13    1.01    0.22
  -6   5 -13    1.07    0.24
   0  -6 -13    3.28    0.29
   1   6 -13   -0.10    0.08
  -1  -6 -13   -0.09    0.08
   1  -6 -13   -0.02    0.08
  -1   6 -13    0.28    0.12
  -2  -6 -13    3.15    0.25
   2   6 -13    4.02    0.32
  -2   6 -13    3.80    0.30
   2  -6 -13    3.38    0.31
   3   6 -13    0.45    0.15
  -3  -6 -13    0.56    0.14
  -3   6 -13    0.65    0.17
   3  -6 -13    0.59    0.15
   4   6 -13    0.24    0.13
  -4   6 -13    0.46    0.16
   5   6 -13    1.68    0.26
  -5   6 -13    1.63    0.27
   6   6 -13    0.20    0.14
  -6   6 -13    0.16    0.16
   0  -7 -13    2.67    0.27
   1   7 -13    6.57    0.42
  -1  -7 -13    5.80    0.36
  -1   7 -13    6.12    0.39
   1  -7 -13    5.59    0.37
  -2  -7 -13    2.70    0.26
   2   7 -13    2.68    0.30
   2  -7 -13    3.10    0.30
  -2   7 -13    2.31    0.26
   3   7 -13    8.16    0.51
  -3  -7 -13    8.02    0.43
   3  -7 -13    7.83    0.46
  -3   7 -13    8.53    0.50
   4   7 -13    1.93    0.27
  -4  -7 -13    2.04    0.23
  -4   7 -13    1.70    0.25
   5   7 -13    1.90    0.29
  -5   7 -13    1.78    0.28
   0  -8 -13    0.17    0.11
   1   8 -13   -0.15    0.07
  -1  -8 -13    0.01    0.10
   1  -8 -13    0.11    0.11
  -2  -8 -13    0.64    0.14
   2   8 -13    0.35    0.14
   2  -8 -13    0.56    0.15
  -2   8 -13    0.60    0.15
   3   8 -13   -0.06    0.11
  -3  -8 -13    0.13    0.11
   3  -8 -13   -0.02    0.11
  -3   8 -13    0.07    0.11
   4   8 -13    0.43    0.16
  -4  -8 -13    0.12    0.11
  -4   8 -13    0.14    0.12
   4  -8 -13   -0.05    0.11
   5   8 -13    0.63    0.18
  -5   8 -13    0.58    0.19
   0  -9 -13    8.30    0.46
  -1  -9 -13    0.54    0.15
   1   9 -13    0.36    0.15
   1  -9 -13    0.26    0.13
   2   9 -13    7.04    0.47
  -2  -9 -13    6.37    0.40
  -2   9 -13    7.29    0.44
   2  -9 -13    6.27    0.41
   3   9 -13    2.59    0.31
  -3  -9 -13    1.96    0.24
   3  -9 -13    2.10    0.27
  -3   9 -13    2.55    0.30
   4   9 -13    2.25    0.31
  -4  -9 -13    2.54    0.27
   4  -9 -13    2.77    0.32
  -4   9 -13    2.28    0.30
  -5   9 -13    1.56    0.26
   0 -10 -13    1.48    0.22
  -1 -10 -13    1.42    0.22
   1 -10 -13    1.06    0.20
  -2 -10 -13    4.13    0.31
   2  10 -13    4.48    0.37
  -2  10 -13    3.83    0.36
   3  10 -13    0.26    0.16
  -3 -10 -13    0.21    0.13
  -3  10 -13    0.06    0.12
   3 -10 -13    0.37    0.15
   4  10 -13    4.69    0.41
  -4 -10 -13    5.04    0.36
   4 -10 -13    5.18    0.39
  -4  10 -13    4.97    0.40
   0 -11 -13    0.07    0.12
   1 -11 -13   10.48    0.57
   2  11 -13    0.17    0.13
  -2 -11 -13    0.34    0.15
   2 -11 -13    0.06    0.11
   3  11 -13    6.08    0.48
  -3 -11 -13    6.82    0.43
  -3  11 -13    7.35    0.48
  -4 -11 -13    0.69    0.18
  -4  11 -13    0.96    0.21
   0 -12 -13    0.30    0.15
  -1 -12 -13    0.02    0.12
   1 -12 -13    0.06    0.13
  -3  12 -13    1.12    0.22
   1   0 -14    1.50    0.20
  -1   0 -14    1.00    0.19
   2   0 -14   25.26    1.12
  -2   0 -14   25.66    1.11
   3   0 -14    2.28    0.26
  -3   0 -14    1.99    0.29
   4   0 -14    5.48    0.39
  -4   0 -14    6.23    0.46
   5   0 -14   -0.04    0.10
  -5   0 -14   -0.17    0.11
  -6   0 -14    0.67    0.22
   6   0 -14    0.85    0.20
   7   0 -14   -0.06    0.14
   1   1 -14    2.21    0.26
  -1   1 -14    2.19    0.27
   1  -1 -14    2.41    0.26
   2   1 -14    0.82    0.17
  -2  -1 -14    0.73    0.18
   2  -1 -14    0.80    0.16
  -2   1 -14    1.08    0.21
   3   1 -14    3.80    0.31
  -3  -1 -14    3.53    0.38
  -3   1 -14    4.25    0.41
   3  -1 -14    5.30    0.34
   4   1 -14    0.55    0.16
  -4  -1 -14    0.30    0.16
   4  -1 -14    0.70    0.16
  -4   1 -14    0.49    0.19
   5   1 -14    3.90    0.34
  -5  -1 -14    4.28    0.46
   5  -1 -14    4.73    0.36
  -6  -1 -14   -0.01    0.16
   6   1 -14   -0.16    0.09
  -6   1 -14   -0.07    0.15
   6  -1 -14    0.08    0.13
   7  -1 -14    1.41    0.25
   0   2 -14    3.18    0.30
   1   2 -14    2.00    0.24
  -1  -2 -14    1.79    0.20
   1  -2 -14    2.73    0.26
  -1   2 -14    2.21    0.26
   2   2 -14    5.01    0.35
  -2   2 -14    3.71    0.36
   2  -2 -14    4.56    0.32
   3   2 -14    6.45    0.43
   3  -2 -14    6.96    0.42
  -3   2 -14    7.12    0.47
   4   2 -14    4.50    0.35
  -4  -2 -14    4.57    0.44
   4  -2 -14    4.14    0.32
  -4   2 -14    3.94    0.41
  -5  -2 -14    7.87    0.56
   5   2 -14    8.50    0.52
   5  -2 -14    8.33    0.50
  -5   2 -14    8.04    0.56
  -6  -2 -14    2.92    0.39
   6   2 -14    2.64    0.33
  -6   2 -14    2.50    0.36
   6  -2 -14    2.54    0.32
   7  -2 -14    2.59    0.34
   0  -3 -14    3.77    0.27
  -1  -3 -14    1.77    0.20
   1   3 -14    1.54    0.22
  -1   3 -14    1.38    0.21
  -2  -3 -14    1.63    0.19
   2   3 -14    1.42    0.21
  -2   3 -14    1.26    0.21
   3   3 -14    3.36    0.34
  -3   3 -14    3.30    0.35
   4   3 -14    1.45    0.24
  -4   3 -14    1.65    0.27
   5   3 -14    0.20    0.13
  -5   3 -14    0.49    0.18
   6   3 -14    1.26    0.23
  -6   3 -14    0.71    0.21
   0  -4 -14    1.84    0.22
   1   4 -14    9.61    0.55
  -1  -4 -14    9.14    0.47
   1  -4 -14    9.39    0.48
  -1   4 -14   10.42    0.54
  -2  -4 -14    0.91    0.16
   2   4 -14    1.13    0.20
  -2   4 -14    0.81    0.17
   3   4 -14    0.85    0.19
  -3   4 -14    1.01    0.21
   4   4 -14    1.39    0.24
  -4   4 -14    1.06    0.22
   5   4 -14    0.11    0.13
  -5   4 -14    0.05    0.12
   6   4 -14    2.29    0.31
  -6   4 -14    1.88    0.31
   0  -5 -14    2.25    0.24
  -1  -5 -14    0.18    0.11
   1   5 -14    0.42    0.15
   1  -5 -14    0.39    0.13
  -1   5 -14    0.72    0.16
   2   5 -14    0.83    0.18
  -2  -5 -14    0.62    0.13
   2  -5 -14    0.68    0.16
  -2   5 -14    0.48    0.15
   3   5 -14    0.98    0.20
  -3   5 -14    1.34    0.23
   4   5 -14    0.20    0.13
  -4   5 -14    0.06    0.12
   5   5 -14    5.53    0.41
  -5   5 -14    4.57    0.46
  -6   5 -14    0.38    0.19
   0  -6 -14   -0.01    0.10
  -1  -6 -14    0.74    0.16
   1   6 -14    0.66    0.17
   1  -6 -14    0.83    0.17
  -1   6 -14    0.87    0.17
   2   6 -14    0.90    0.19
  -2  -6 -14    0.50    0.14
   2  -6 -14    0.57    0.15
  -2   6 -14    0.56    0.16
  -3  -6 -14    0.26    0.12
   3   6 -14    0.19    0.13
  -3   6 -14    0.33    0.14
   4   6 -14    2.31    0.30
   5   6 -14    1.81    0.28
  -5   6 -14    1.07    0.24
   0  -7 -14    0.85    0.18
  -1  -7 -14    0.57    0.15
   1   7 -14    0.58    0.17
   1  -7 -14    0.88    0.17
   2   7 -14    2.82    0.32
  -2  -7 -14    2.59    0.26
  -2   7 -14    2.14    0.28
   2  -7 -14    2.73    0.29
   3   7 -14    2.30    0.30
  -3  -7 -14    2.54    0.26
  -3   7 -14    2.58    0.31
   3  -7 -14    2.56    0.30
   4   7 -14    2.68    0.33
  -4   7 -14    3.37    0.37
   5   7 -14    1.67    0.27
  -5   7 -14    1.95    0.30
   0  -8 -14    2.92    0.29
  -1  -8 -14    4.73    0.33
   1   8 -14    5.40    0.39
   1  -8 -14    4.12    0.33
   2   8 -14    1.62    0.25
  -2  -8 -14    1.26    0.20
   2  -8 -14    1.24    0.22
  -2   8 -14    1.28    0.22
  -3  -8 -14    5.77    0.36
   3   8 -14    5.54    0.43
   3  -8 -14    5.24    0.39
  -3   8 -14    6.65    0.44
   4   8 -14    0.65    0.19
  -4   8 -14    0.51    0.18
  -5   8 -14    3.49    0.40
   0  -9 -14    8.14    0.47
  -1  -9 -14    0.06    0.11
   1  -9 -14    0.14    0.13
  -2  -9 -14    1.77    0.23
   2   9 -14    1.60    0.25
   2  -9 -14    1.78    0.25
   3   9 -14    0.08    0.13
  -3  -9 -14    0.03    0.11
   3  -9 -14   -0.08    0.11
  -3   9 -14    0.12    0.13
  -4   9 -14    0.63    0.19
   0 -10 -14    5.95    0.40
  -1 -10 -14    0.71    0.17
   1 -10 -14    0.75    0.19
  -2 -10 -14    5.09    0.37
   2  10 -14    6.61    0.46
   2 -10 -14    5.34    0.39
   3  10 -14    0.83    0.21
  -3 -10 -14    0.69    0.18
  -3  10 -14    0.42    0.17
  -4 -10 -14    2.39    0.28
  -4  10 -14    3.23    0.37
   0 -11 -14    0.13    0.13
  -1 -11 -14    0.07    0.12
   1 -11 -14    0.03    0.13
  -2 -11 -14    1.34    0.22
  -3  11 -14    0.50    0.17
   1   0 -15   11.27    0.60
  -2   0 -15    3.92    0.40
   2   0 -15    4.41    0.33
  -3   0 -15    2.03    0.29
   3   0 -15    1.93    0.25
   4   0 -15    2.40    0.29
  -4   0 -15    1.56    0.29
   5   0 -15    1.75    0.26
  -5   0 -15    1.63    0.31
   6   0 -15    0.11    0.13
   1   1 -15    0.69    0.16
  -1   1 -15    1.01    0.20
   1  -1 -15    1.40    0.20
   2   1 -15    5.62    0.39
   2  -1 -15    5.22    0.37
  -2   1 -15    5.23    0.40
   3   1 -15    1.63    0.24
  -3  -1 -15    1.68    0.28
  -3   1 -15    1.38    0.25
   3  -1 -15    1.26    0.21
   4   1 -15    6.92    0.46
  -4  -1 -15    6.74    0.51
   4  -1 -15    6.80    0.45
   5   1 -15    3.36    0.36
  -5  -1 -15    2.87    0.41
  -5   1 -15    3.05    0.39
   5  -1 -15    3.85    0.33
   6   1 -15    4.81    0.41
   6  -1 -15    5.32    0.41
   1   2 -15    0.44    0.14
  -1   2 -15    0.42    0.15
   2   2 -15    2.60    0.29
  -2   2 -15    2.19    0.29
   3   2 -15    2.53    0.30
  -3   2 -15    1.89    0.29
   4   2 -15    4.63    0.37
  -4   2 -15    3.90    0.43
  -5  -2 -15    5.41    0.53
   5   2 -15    5.67    0.42
  -5   2 -15    5.20    0.51
   6   2 -15    1.97    0.29
   0  -3 -15    4.76    0.32
   1   3 -15    1.86    0.25
  -1  -3 -15    1.87    0.22
   2   3 -15    4.59    0.36
  -2   3 -15    4.58    0.36
   3   3 -15    1.22    0.22
  -3   3 -15    1.40    0.25
   4   3 -15    2.62    0.32
  -4   3 -15    2.71    0.34
   5   3 -15    0.64    0.19
  -5   3 -15    0.72    0.22
   0  -4 -15    2.34    0.25
   1   4 -15    3.17    0.33
  -1  -4 -15    3.01    0.29
   1  -4 -15    3.49    0.32
  -1   4 -15    3.27    0.33
  -2  -4 -15    2.55    0.25
   2   4 -15    2.29    0.29
  -2   4 -15    2.25    0.29
   3   4 -15    3.89    0.33
  -3   4 -15    3.24    0.36
   4   4 -15    0.74    0.19
  -4   4 -15    0.62    0.19
   5   4 -15    1.36    0.24
  -5   4 -15    1.02    0.24
   0  -5 -15    2.86    0.29
  -1  -5 -15    4.48    0.31
   1   5 -15    4.51    0.35
   1  -5 -15    4.42    0.33
  -2  -5 -15    2.18    0.24
   2   5 -15    2.08    0.28
   3   5 -15    9.51    0.58
   4   5 -15    1.43    0.24
  -4   5 -15    0.97    0.23
   5   5 -15    6.51    0.47
  -5   5 -15    5.33    0.51
   0  -6 -15    1.43    0.22
   1   6 -15    1.09    0.22
  -1  -6 -15    1.80    0.23
   1  -6 -15    1.57    0.22
   2   6 -15    3.56    0.37
  -2  -6 -15    2.56    0.27
   2  -6 -15    2.55    0.29
  -2   6 -15    2.87    0.32
   3   6 -15    3.98    0.41
   4   6 -15    2.25    0.30
  -4   6 -15    1.91    0.30
   0  -7 -15    0.45    0.15
   1   7 -15    1.57    0.25
  -1  -7 -15    1.80    0.24
   1  -7 -15    2.67    0.29
   2   7 -15    0.55    0.17
  -2  -7 -15    0.88    0.17
   2  -7 -15    0.61    0.17
  -2   7 -15    0.97    0.21
   3   7 -15    0.28    0.16
  -3   7 -15    0.32    0.16
   4   7 -15    0.29    0.16
  -4   7 -15    0.51    0.18
   0  -8 -15    4.79    0.35
  -1  -8 -15   -0.02    0.11
   1  -8 -15    0.17    0.12
  -2  -8 -15    2.22    0.26
   2   8 -15    3.22    0.36
   2  -8 -15    3.07    0.32
  -3  -8 -15    2.81    0.29
   3   8 -15    2.90    0.35
  -3   8 -15    2.78    0.33
   3  -8 -15    2.45    0.31
  -4   8 -15    0.92    0.23
   0  -9 -15    0.68    0.18
  -1  -9 -15    1.09    0.21
   1  -9 -15    1.58    0.24
  -2  -9 -15    0.00    0.11
   2   9 -15    0.16    0.13
   2  -9 -15    0.07    0.13
  -3  -9 -15    0.10    0.13
  -3   9 -15    0.31    0.16
   0 -10 -15   -0.03    0.12
  -1 -10 -15    0.13    0.14
  -2 -10 -15    0.53    0.16
  -3 -10 -15    0.56    0.17
   1   0 -16    0.76    0.17
  -2   0 -16    1.97    0.29
   2   0 -16    2.12    0.26
   3   0 -16    0.53    0.17
  -3   0 -16    0.60    0.20
  -4   0 -16    0.03    0.14
   4   0 -16    0.22    0.14
  -5   0 -16    0.48    0.22
   5   0 -16    0.69    0.19
   1   1 -16    0.69    0.17
   2   1 -16    1.99    0.26
  -2   1 -16    1.67    0.28
   2  -1 -16    2.01    0.26
   3   1 -16    0.99    0.20
  -3   1 -16    0.34    0.17
   3  -1 -16    0.73    0.18
  -4  -1 -16    0.35    0.19
   4   1 -16    0.21    0.13
   4  -1 -16    0.25    0.14
  -4   1 -16    0.35    0.19
  -5  -1 -16    0.02    0.15
   5   1 -16    0.21    0.15
  -5   1 -16    0.12    0.18
   5  -1 -16    0.12    0.13
   6  -1 -16    0.24    0.15
   1   2 -16    0.27    0.12
  -1   2 -16    0.02    0.12
   2   2 -16    0.67    0.18
  -2   2 -16    0.86    0.21
   3   2 -16    1.12    0.22
  -3   2 -16    0.70    0.21
  -4   2 -16    0.91    0.23
   5   2 -16    0.61    0.19
  -5   2 -16    0.71    0.23
  -1  -3 -16   13.71    0.64
   1   3 -16   14.56    0.75
   2   3 -16    0.24    0.14
  -2   3 -16    0.28    0.15
   3   3 -16    6.62    0.47
  -3   3 -16    6.89    0.49
   4   3 -16    0.11    0.13
  -4   3 -16    0.07    0.13
   5   3 -16    2.64    0.34
  -5   3 -16    2.87    0.40
   0  -4 -16    0.25    0.13
  -1  -4 -16    0.42    0.14
   1   4 -16    0.61    0.16
   2   4 -16    0.42    0.16
  -2   4 -16    0.65    0.19
   3   4 -16    2.44    0.31
  -3   4 -16    2.39    0.33
   4   4 -16    0.55    0.19
  -4   4 -16    0.33    0.18
   0  -5 -16    5.39    0.37
  -1  -5 -16    1.02    0.19
   1   5 -16    0.61    0.18
   1  -5 -16    0.89    0.19
   2   5 -16    4.92    0.40
   3   5 -16    0.79    0.19
  -3   5 -16    0.76    0.21
   4   5 -16    2.21    0.31
  -4   5 -16    2.51    0.34
   0  -6 -16    1.34    0.22
  -1  -6 -16    1.51    0.23
   1  -6 -16    1.36    0.22
   2   6 -16    1.41    0.26
  -2  -6 -16    1.26    0.20
   3   6 -16    4.00    0.42
  -3   6 -16    4.16    0.41
  -4   6 -16    1.18    0.25
   0  -7 -16    0.46    0.16
  -1  -7 -16    6.09    0.40
   1  -7 -16    5.90    0.41
  -2  -7 -16    1.20    0.21
   2   7 -16    1.20    0.24
   2  -7 -16    1.41    0.24
  -3   7 -16    2.14    0.31
  -4   7 -16    3.80    0.42
   0  -8 -16    0.07    0.12
  -1  -8 -16    2.16    0.27
   1  -8 -16    2.69    0.31
  -2  -8 -16    0.44    0.16
   0  -9 -16    6.08    0.42
  -1  -9 -16    0.32    0.16
  -2  -9 -16    5.22    0.38
   2   0 -17    0.08    0.12
   3   0 -17    2.09    0.28
  -3   0 -17    1.54    0.29
   4   0 -17   -0.11    0.11
  -4   0 -17   -0.04    0.16
   5   0 -17    0.75    0.20
   2   1 -17    1.61    0.25
  -2   1 -17    1.38    0.26
   3   1 -17    0.03    0.13
  -3   1 -17    0.49    0.19
   4   1 -17    2.54    0.33
  -4   1 -17    2.13    0.35
   2   2 -17    0.68    0.19
  -2   2 -17    0.69    0.21
   3   2 -17    0.89    0.20
  -3   2 -17    0.63    0.21
   4   2 -17    0.91    0.21
  -4   2 -17    0.79    0.24
   2   3 -17    0.15    0.14
  -2   3 -17    0.20    0.15
   3   3 -17    0.34    0.16
  -3   3 -17    0.23    0.18
   4   3 -17    0.17    0.15
  -4   3 -17   -0.05    0.13
   2   4 -17    0.09    0.13
   3   4 -17    3.51    0.39
  -3   4 -17    3.30    0.40
  -4   4 -17    0.94    0.24
   0  -5 -17    0.02    0.13
  -1  -5 -17    0.51    0.16
   2   5 -17   -0.02    0.11
   3   5 -17    1.55    0.28
   0  -6 -17    0.77    0.19
  -1  -6 -17    3.88    0.35
   1  -6 -17    2.89    0.33
   2   6 -17    0.32    0.16
   0  -7 -17    0.02    0.14
  -1  -7 -17    1.22    0.22
   1  -7 -17    1.37    0.24
  -1  -8 -17    0.87    0.20
   2   1 -18    2.23    0.30
   3   1 -18    1.85    0.28
  -3   1 -18    1.85    0.33
   2   2 -18    0.29    0.16
   3   2 -18    2.34    0.33
  -3   2 -18    2.58    0.38
   2   3 -18    0.32    0.16
  -3   3 -18    3.81    0.46
   2   4 -18    0.47    0.18
   0  -6 -18    0.49    0.19
   0   0   0    0.00    0.00
;
_shelx_hkl_checksum              76695
_shelx_res_file
;
    shelx.res created by SHELXL-2014/7
TITL Nadiah4883
CELL  0.71073   7.3512  12.4524  13.4232   90.000   90.000   90.000
ZERR     4   0.0025   0.0042   0.0046    0.000    0.000    0.000
LATT  -1
SYMM  1/2 + X, 1/2 - Y, - Z
SYMM  - X, 1/2 + Y, 1/2 - Z
SYMM  1/2 - X, - Y, 1/2 + Z
SFAC  C    H    N    O    S
UNIT  48 64 8 8 4
MERG   2
FMAP   2
PLAN  -1
ACTA   55.0
OMIT  -3 55.0
BOND   $H
MPLA   S1 C1 N1 N2
MPLA   O1 C5 C6 C7 C8 C9 C10 C11
CONF
DFIX  0.88 0.01 N2 H2n
DFIX  0.84 0.01 O1 H1o
SIZE  0.15 0.16 0.20
L.S.   24
TEMP    23.00
WGHT    0.033600    0.255600
FVAR       0.14264
S1    5    1.015080    0.907250    0.574850    11.00000    0.02346    0.01197 =
         0.01775   -0.00127   -0.00216    0.00043
O1    4    1.112185    0.660723    0.301884    11.00000    0.01934    0.01680 =
         0.01760   -0.00002   -0.00095   -0.00154
H1O   2    1.207951    0.693153    0.317337    11.00000   -1.50000
O2    4    0.872968    0.688279    0.653879    11.00000    0.02495    0.01393 =
         0.01766    0.00071    0.00464    0.00256
N1    3    0.931309    0.854352    0.388903    11.00000    0.01820    0.01220 =
         0.01479    0.00186   -0.00140   -0.00003
N2    3    0.972251    0.710246    0.493515    11.00000    0.02178    0.01114 =
         0.01341   -0.00090    0.00181    0.00087
H2N   2    1.006795    0.676776    0.440011    11.00000   -1.20000
C1    1    0.967183    0.822505    0.482293    11.00000    0.01236    0.01297 =
         0.01750    0.00080    0.00144    0.00091
C2    1    0.856737    0.783716    0.310944    11.00000    0.01782    0.01647 =
         0.01674    0.00120   -0.00396   -0.00171
AFIX  23
H2A   2    0.774345    0.824859    0.269361    11.00000   -1.20000
H2B   2    0.787123    0.726756    0.342191    11.00000   -1.20000
AFIX   0
C3    1    1.003169    0.734128    0.245755    11.00000    0.02418    0.01653 =
         0.01419    0.00140   -0.00176   -0.00192
AFIX  23
H3B   2    0.946783    0.696544    0.190503    11.00000   -1.20000
H3C   2    1.079805    0.790418    0.218668    11.00000   -1.20000
AFIX   0
C4    1    0.962390    0.966119    0.359116    11.00000    0.02370    0.01307 =
         0.02018    0.00534    0.00224    0.00027
AFIX 137
H4A   2    1.068869    0.993085    0.392110    11.00000   -1.50000
H4B   2    0.859004    1.008880    0.377433    11.00000   -1.50000
H4C   2    0.979652    0.969582    0.288298    11.00000   -1.50000
AFIX   0
C5    1    0.938016    0.651017    0.577329    11.00000    0.01317    0.01314 =
         0.01633   -0.00033   -0.00159    0.00062
C6    1    0.985061    0.534005    0.570832    11.00000    0.01310    0.01249 =
         0.01630    0.00111   -0.00228    0.00010
C7    1    1.059965    0.485269    0.486780    11.00000    0.01838    0.01586 =
         0.01317    0.00136   -0.00090   -0.00260
AFIX  43
H7    2    1.082729    0.525792    0.429933    11.00000   -1.20000
AFIX   0
C8    1    1.100677    0.376302    0.487753    11.00000    0.01768    0.01687 =
         0.01696   -0.00276   -0.00062    0.00084
AFIX  43
H8    2    1.151834    0.344800    0.431528    11.00000   -1.20000
AFIX   0
C9    1    1.066169    0.313389    0.571545    11.00000    0.01361    0.01217 =
         0.02338   -0.00131   -0.00430   -0.00034
C10   1    0.994606    0.362783    0.655332    11.00000    0.01786    0.01510 =
         0.01818    0.00371    0.00050    0.00014
AFIX  43
H10   2    0.973162    0.322357    0.712391    11.00000   -1.20000
AFIX   0
C11   1    0.954390    0.471862    0.655372    11.00000    0.01651    0.01674 =
         0.01498   -0.00135    0.00172    0.00030
AFIX  43
H11   2    0.906585    0.503587    0.712368    11.00000   -1.20000
AFIX   0
C12   1    1.102804    0.193917    0.569882    11.00000    0.02177    0.01287 =
         0.02573    0.00029    0.00028    0.00160
AFIX 137
H12A  2    1.215131    0.180356    0.535643    11.00000   -1.50000
H12B  2    1.005290    0.157925    0.535999    11.00000   -1.50000
H12C  2    1.111250    0.167617    0.636951    11.00000   -1.50000
AFIX   0
HKLF 4  1.0  1.00  0.00  0.00  0.00  1.00  0.00  0.00  0.00  1.00
REM  Nadiah4883
REM R1 =  0.0309 for    2637 Fo > 4sig(Fo)  and  0.0337 for all    2790 data
REM    162 parameters refined using      2 restraints
END
WGHT      0.0326      0.2603
REM Highest difference peak  0.182,  deepest hole -0.247,  1-sigma level  0.064
Q1    1   1.1467  0.4343  0.5030  11.00000  0.05    0.18
;
_shelx_res_checksum              61094
loop_
_space_group_symop_operation_xyz
'x, y, z'
'x+1/2, -y+1/2, -z'
'-x, y+1/2, -z+1/2'
'-x+1/2, -y, z+1/2'
loop_
_atom_site_type_symbol
_atom_site_label
_atom_site_fract_x
_atom_site_fract_y
_atom_site_fract_z
_atom_site_U_iso_or_equiv
_atom_site_adp_type
_atom_site_calc_flag
_atom_site_occupancy
S S1 1.01508(8) 0.90725(4) 0.57485(4) 0.01773(14) Uani d 1
O O1 1.1122(2) 0.66072(11) 0.30188(12) 0.0179(3) Uani d 1
H H1O 1.208(3) 0.6932(19) 0.3173(19) 0.027 Uiso d 1
O O2 0.8730(2) 0.68828(12) 0.65388(11) 0.0188(3) Uani d 1
N N1 0.9313(2) 0.85435(14) 0.38890(14) 0.0151(4) Uani d 1
N N2 0.9723(3) 0.71025(12) 0.49351(13) 0.0154(4) Uani d 1
H H2N 1.007(3) 0.6768(17) 0.4400(12) 0.019 Uiso d 1
C C1 0.9672(3) 0.82250(15) 0.48229(15) 0.0143(4) Uani d 1
C C2 0.8567(3) 0.78372(17) 0.31094(16) 0.0170(5) Uani d 1
H H2A 0.7743 0.8249 0.2694 0.020 Uiso calc 1
H H2B 0.7871 0.7268 0.3422 0.020 Uiso calc 1
C C3 1.0032(3) 0.73413(16) 0.24575(15) 0.0183(4) Uani d 1
H H3B 0.9468 0.6965 0.1905 0.022 Uiso calc 1
H H3C 1.0798 0.7904 0.2187 0.022 Uiso calc 1
C C4 0.9624(3) 0.96612(16) 0.35912(17) 0.0190(5) Uani d 1
H H4A 1.0689 0.9931 0.3921 0.028 Uiso calc 1
H H4B 0.8590 1.0089 0.3774 0.028 Uiso calc 1
H H4C 0.9797 0.9696 0.2883 0.028 Uiso calc 1
C C5 0.9380(3) 0.65102(16) 0.57733(17) 0.0142(4) Uani d 1
C C6 0.9851(3) 0.53401(15) 0.57083(16) 0.0140(4) Uani d 1
C C7 1.0600(3) 0.48527(17) 0.48678(16) 0.0158(4) Uani d 1
H H7 1.0827 0.5258 0.4299 0.019 Uiso calc 1
C C8 1.1007(3) 0.37630(16) 0.48775(17) 0.0172(5) Uani d 1
H H8 1.1518 0.3448 0.4315 0.021 Uiso calc 1
C C9 1.0662(3) 0.31339(16) 0.57154(18) 0.0164(4) Uani d 1
C C10 0.9946(3) 0.36278(16) 0.65533(16) 0.0170(4) Uani d 1
H H10 0.9732 0.3224 0.7124 0.020 Uiso calc 1
C C11 0.9544(3) 0.47186(16) 0.65537(17) 0.0161(4) Uani d 1
H H11 0.9066 0.5036 0.7124 0.019 Uiso calc 1
C C12 1.1028(3) 0.19392(16) 0.56988(19) 0.0201(5) Uani d 1
H H12A 1.2151 0.1804 0.5356 0.030 Uiso calc 1
H H12B 1.0053 0.1579 0.5360 0.030 Uiso calc 1
H H12C 1.1113 0.1676 0.6370 0.030 Uiso calc 1
loop_
_atom_site_aniso_label
_atom_site_aniso_U_11
_atom_site_aniso_U_22
_atom_site_aniso_U_33
_atom_site_aniso_U_12
_atom_site_aniso_U_13
_atom_site_aniso_U_23
S1 0.0235(3) 0.0120(2) 0.0178(3) 0.0004(2) -0.0022(3) -0.00127(19)
O1 0.0193(8) 0.0168(8) 0.0176(8) -0.0015(6) -0.0009(7) 0.0000(6)
O2 0.0250(8) 0.0139(7) 0.0177(8) 0.0026(6) 0.0046(7) 0.0007(6)
N1 0.0182(9) 0.0122(8) 0.0148(9) 0.0000(7) -0.0014(7) 0.0019(7)
N2 0.0218(10) 0.0111(7) 0.0134(8) 0.0009(7) 0.0018(8) -0.0009(6)
C1 0.0124(10) 0.0130(9) 0.0175(10) 0.0009(8) 0.0014(8) 0.0008(8)
C2 0.0178(10) 0.0165(10) 0.0167(12) -0.0017(8) -0.0040(9) 0.0012(8)
C3 0.0242(11) 0.0165(9) 0.0142(10) -0.0019(9) -0.0018(10) 0.0014(7)
C4 0.0237(12) 0.0131(9) 0.0202(11) 0.0003(9) 0.0022(10) 0.0053(8)
C5 0.0132(9) 0.0131(9) 0.0163(10) 0.0006(7) -0.0016(9) -0.0003(8)
C6 0.0131(9) 0.0125(8) 0.0163(10) 0.0001(8) -0.0023(10) 0.0011(7)
C7 0.0184(11) 0.0159(9) 0.0132(11) -0.0026(8) -0.0009(9) 0.0014(8)
C8 0.0177(11) 0.0169(10) 0.0170(12) 0.0008(8) -0.0006(9) -0.0028(8)
C9 0.0136(9) 0.0122(9) 0.0234(11) -0.0003(7) -0.0043(9) -0.0013(9)
C10 0.0179(10) 0.0151(9) 0.0182(10) 0.0001(9) 0.0005(10) 0.0037(8)
C11 0.0165(10) 0.0167(9) 0.0150(10) 0.0003(8) 0.0017(9) -0.0014(8)
C12 0.0218(11) 0.0129(9) 0.0257(12) 0.0016(8) 0.0003(10) 0.0003(10)
loop_
_atom_type_symbol
_atom_type_description
_atom_type_scat_dispersion_real
_atom_type_scat_dispersion_imag
_atom_type_scat_source
C C 0.0033 0.0016 'International Tables Vol C Tables 4.2.6.8 and 6.1.1.4'
H H 0.0000 0.0000 'International Tables Vol C Tables 4.2.6.8 and 6.1.1.4'
N N 0.0061 0.0033 'International Tables Vol C Tables 4.2.6.8 and 6.1.1.4'
O O 0.0106 0.0060 'International Tables Vol C Tables 4.2.6.8 and 6.1.1.4'
S S 0.1246 0.1234 'International Tables Vol C Tables 4.2.6.8 and 6.1.1.4'
loop_
_geom_angle_atom_site_label_1
_geom_angle_atom_site_label_2
_geom_angle_atom_site_label_3
_geom_angle
C3 O1 H1O 107.1(18)
C1 N1 C4 120.34(18)
C1 N1 C2 124.11(17)
C4 N1 C2 115.54(17)
C5 N2 C1 128.23(18)
C5 N2 H2N 118.4(15)
C1 N2 H2N 113.3(15)
N1 C1 N2 113.53(18)
N1 C1 S1 123.42(15)
N2 C1 S1 122.93(15)
N1 C2 C3 112.86(18)
N1 C2 H2A 109.0
C3 C2 H2A 109.0
N1 C2 H2B 109.0
C3 C2 H2B 109.0
H2A C2 H2B 107.8
O1 C3 C2 110.70(17)
O1 C3 H3B 109.5
C2 C3 H3B 109.5
O1 C3 H3C 109.5
C2 C3 H3C 109.5
H3B C3 H3C 108.1
N1 C4 H4A 109.5
N1 C4 H4B 109.5
H4A C4 H4B 109.5
N1 C4 H4C 109.5
H4A C4 H4C 109.5
H4B C4 H4C 109.5
O2 C5 N2 123.87(18)
O2 C5 C6 120.45(19)
N2 C5 C6 115.68(18)
C11 C6 C7 118.79(18)
C11 C6 C5 117.08(19)
C7 C6 C5 124.11(19)
C8 C7 C6 120.2(2)
C8 C7 H7 119.9
C6 C7 H7 119.9
C7 C8 C9 121.1(2)
C7 C8 H8 119.4
C9 C8 H8 119.4
C10 C9 C8 118.33(19)
C10 C9 C12 121.1(2)
C8 C9 C12 120.6(2)
C9 C10 C11 121.0(2)
C9 C10 H10 119.5
C11 C10 H10 119.5
C10 C11 C6 120.6(2)
C10 C11 H11 119.7
C6 C11 H11 119.7
C9 C12 H12A 109.5
C9 C12 H12B 109.5
H12A C12 H12B 109.5
C9 C12 H12C 109.5
H12A C12 H12C 109.5
H12B C12 H12C 109.5
loop_
_geom_bond_atom_site_label_1
_geom_bond_atom_site_label_2
_geom_bond_distance
S1 C1 1.668(2)
O1 C3 1.430(3)
O1 H1O 0.838(13)
O2 C5 1.225(3)
N1 C1 1.341(3)
N1 C4 1.466(3)
N1 C2 1.473(3)
N2 C5 1.369(3)
N2 C1 1.406(2)
N2 H2N 0.868(12)
C2 C3 1.518(3)
C2 H2A 0.9700
C2 H2B 0.9700
C3 H3B 0.9700
C3 H3C 0.9700
C4 H4A 0.9600
C4 H4B 0.9600
C4 H4C 0.9600
C5 C6 1.500(3)
C6 C11 1.392(3)
C6 C7 1.394(3)
C7 C8 1.390(3)
C7 H7 0.9300
C8 C9 1.394(3)
C8 H8 0.9300
C9 C10 1.386(3)
C9 C12 1.512(3)
C10 C11 1.390(3)
C10 H10 0.9300
C11 H11 0.9300
C12 H12A 0.9600
C12 H12B 0.9600
C12 H12C 0.9600
loop_
_geom_hbond_atom_site_label_D
_geom_hbond_atom_site_label_H
_geom_hbond_atom_site_label_A
_geom_hbond_site_symmetry_A
_geom_hbond_distance_DH
_geom_hbond_distance_HA
_geom_hbond_distance_DA
_geom_hbond_angle_DHA
N2 H2N O1 . 0.869(18) 2.019(17) 2.838(3) 156.9(19)
O1 H1O O2 2_566 0.84(2) 1.95(2) 2.750(2) 160(2)
C2 H2B S1 2_466 0.97 2.83 3.783(3) 167
C4 H4B Cg1 3_466 0.96 2.67 3.605(3) 164
C12 H12A Cg1 3_556 0.96 3.00 3.932(3) 164
loop_
_geom_torsion_atom_site_label_1
_geom_torsion_atom_site_label_2
_geom_torsion_atom_site_label_3
_geom_torsion_atom_site_label_4
_geom_torsion
C4 N1 C1 N2 -165.77(19)
C2 N1 C1 N2 15.5(3)
C4 N1 C1 S1 10.3(3)
C2 N1 C1 S1 -168.40(16)
C5 N2 C1 N1 -153.5(2)
C5 N2 C1 S1 30.4(3)
C1 N1 C2 C3 -94.6(2)
C4 N1 C2 C3 86.6(2)
N1 C2 C3 O1 66.9(2)
C1 N2 C5 O2 10.2(4)
C1 N2 C5 C6 -170.0(2)
O2 C5 C6 C11 -1.1(3)
N2 C5 C6 C11 179.1(2)
O2 C5 C6 C7 -179.8(2)
N2 C5 C6 C7 0.4(3)
C11 C6 C7 C8 0.8(3)
C5 C6 C7 C8 179.46(19)
C6 C7 C8 C9 0.7(3)
C7 C8 C9 C10 -1.8(3)
C7 C8 C9 C12 177.1(2)
C8 C9 C10 C11 1.4(3)
C12 C9 C10 C11 -177.5(2)
C9 C10 C11 C6 0.1(3)
C7 C6 C11 C10 -1.2(3)
C5 C6 C11 C10 -179.9(2)
